@<TRIPOS>MOLECULE
NONAME
47 49 1 0 0 
SMALL
USER_CHARGES


@<TRIPOS>ATOM
  1 O       -0.8330    -0.2400    -0.3220 O.2   1 <1>  -0.5700 
  2 C       -1.5220     0.5210     0.3300 C.2   1 <1>   0.6160 
  3 N       -2.8770     0.3020     0.4130 N.am  1 <1>  -0.6600 
  4 C       -0.9010     1.6370     1.0050 C.2   1 <1>  -0.0140 
  5 C       -3.4900    -0.9360    -0.1860 C.3   1 <1>   0.1400 
  6 C       -3.8300     1.2830     1.0300 C.3   1 <1>   0.1400 
  7 C       -0.3530     2.7340     0.2370 C.ar  1 <1>   0.0280 
  8 C       -0.8200     1.6830     2.3650 C.2   1 <1>  -0.1360 
  9 C       -4.8670    -1.2100     0.4310 C.3   1 <1>   0.2000 
 10 C       -5.1240     1.3170     0.2150 C.3   1 <1>  -0.1600 
 11 C        0.2370     3.8110     0.9230 C.ar  1 <1>   0.1170 
 12 C       -0.3830     2.7910    -1.1620 C.ar  1 <1>  -0.1500 
 13 C       -0.2160     2.7660     3.0520 C.2   1 <1>   0.6160 
 14 O       -5.4020    -2.4030    -0.0260 O.3   1 <1>  -0.6800 
 15 C       -5.8820    -0.0490     0.2470 C.3   1 <1>  -0.1060 
 16 N        0.2840     3.7880     2.3110 N.am  1 <1>  -0.5470 
 17 C        0.7670     4.8890     0.2190 C.ar  1 <1>  -0.1500 
 18 C        0.1450     3.8630    -1.8490 C.ar  1 <1>  -0.1500 
 19 O       -0.1210     2.8260     4.2640 O.2   1 <1>  -0.5700 
 20 C       -6.7690    -0.1780     1.4980 C.2   1 <1>   0.9060 
 21 C       -6.7930    -0.1420    -1.0220 C.3   1 <1>  -0.1600 
 22 C        0.7220     4.9180    -1.1570 C.ar  1 <1>  -0.1500 
 23 O       -6.7650     0.7060     2.3640 O.co2 1 <1>  -0.9000 
 24 O       -7.4270    -1.2200     1.6370 O.co2 1 <1>  -0.9000 
 25 C       -6.0880    -0.3020    -2.3840 C.3   1 <1>  -0.1600 
 26 C       -7.1110    -0.3210    -3.5240 C.3   1 <1>  -0.2400 
 27 H       -3.5830    -0.7990    -1.2470 H     1 <1>   0.0800 
 28 H       -2.8470    -1.7780     0.0000 H     1 <1>   0.0800 
 29 H       -4.0490     0.9920     2.0440 H     1 <1>   0.0800 
 30 H       -3.4010     2.2690     1.0440 H     1 <1>   0.0800 
 31 H       -1.2120     0.8960     2.9800 H     1 <1>   0.1500 
 32 H       -4.6950    -1.3580     1.4860 H     1 <1>   0.0800 
 33 H       -5.7630     2.0960     0.5940 H     1 <1>   0.0800 
 34 H       -4.8610     1.6010    -0.7840 H     1 <1>   0.0800 
 35 H       -0.8220     1.9830    -1.7220 H     1 <1>   0.1500 
 36 H       -6.2920    -2.4690     0.4060 H     1 <1>   0.4000 
 37 H        0.7140     4.5430     2.8430 H     1 <1>   0.3700 
 38 H        1.2160     5.7040     0.7570 H     1 <1>   0.1500 
 39 H        0.1120     3.8850    -2.9250 H     1 <1>   0.1500 
 40 H       -7.4620    -0.9780    -0.9030 H     1 <1>   0.0800 
 41 H       -7.4130     0.7370    -1.0470 H     1 <1>   0.0800 
 42 H        1.1340     5.7520    -1.7000 H     1 <1>   0.1500 
 43 H       -5.3940     0.4980    -2.5580 H     1 <1>   0.0800 
 44 H       -5.5420    -1.2280    -2.4000 H     1 <1>   0.0800 
 45 H       -7.6630     0.6020    -3.5470 H     1 <1>   0.0800 
 46 H       -7.8000    -1.1350    -3.3900 H     1 <1>   0.0800 
 47 H       -6.6080    -0.4470    -4.4660 H     1 <1>   0.0800 
@<TRIPOS>BOND
  1   1   2  2   
  2   2   3  am  
  3   2   4  1   
  4   3   5  1   
  5   3   6  1   
  6   4   7  1   
  7   4   8  2   
  8   5   9  1   
  9   5  27  1   
 10   5  28  1   
 11   6  10  1   
 12   6  29  1   
 13   6  30  1   
 14   7  11  ar  
 15   7  12  ar  
 16   8  13  1   
 17   8  31  1   
 18   9  14  1   
 19   9  15  1   
 20   9  32  1   
 21  10  15  1   
 22  10  33  1   
 23  10  34  1   
 24  11  16  1   
 25  11  17  ar  
 26  12  18  ar  
 27  12  35  1   
 28  13  16  am  
 29  13  19  2   
 30  14  36  1   
 31  15  20  1   
 32  15  21  1   
 33  16  37  1   
 34  17  22  ar  
 35  17  38  1   
 36  18  22  ar  
 37  18  39  1   
 38  20  23  ar  
 39  20  24  ar  
 40  21  25  1   
 41  21  40  1   
 42  21  41  1   
 43  22  42  1   
 44  25  26  1   
 45  25  43  1   
 46  25  44  1   
 47  26  45  1   
 48  26  46  1   
 49  26  47  1   
@<TRIPOS>SUBSTRUCTURE
  1 ****   3 GROUP 4 **** **** 0

# MOE 2024.06 (io_trps.svl 2023.06)
