@<TRIPOS>MOLECULE
NONAME
47 49 1 0 0 
SMALL
USER_CHARGES


@<TRIPOS>ATOM
  1 S       -0.2630     0.0520    -0.1000 S.o2  1 <1>   1.3330 
  2 O       -0.5750    -0.4920     1.2030 O.2   1 <1>  -0.6500 
  3 O       -0.8140     1.3300    -0.4900 O.2   1 <1>  -0.6500 
  4 N       -0.7040    -1.1000    -1.2650 N.am  1 <1>  -0.8490 
  5 C        1.5160     0.1480    -0.3060 C.3   1 <1>  -0.0550 
  6 C       -0.5890    -2.4830    -0.7900 C.3   1 <1>   0.1160 
  7 C       -2.0490    -0.8660    -1.7990 C.3   1 <1>   0.1160 
  8 C        2.1830     1.2150     0.5850 C.3   1 <1>  -0.0800 
  9 C        3.6370     1.4220     0.1950 C.3   1 <1>   0.2200 
 10 C        2.3030     0.7570     2.0430 C.3   1 <1>   0.1200 
 11 N        4.0710     2.7650     0.6410 N.am  1 <1>  -0.7300 
 12 C        4.3380     0.3560     1.0280 C.3   1 <1>   0.1200 
 13 O        3.5860     0.2210     2.1960 O.3   1 <1>  -0.5600 
 14 C        4.3730     3.8150    -0.1730 C.2   1 <1>   0.5440 
 15 O        4.2880     3.6640    -1.3780 O.2   1 <1>  -0.5700 
 16 C        4.7840     5.0770     0.3970 C.ar  1 <1>   0.0860 
 17 C        6.0780     5.6110     0.2240 C.ar  1 <1>   0.0530 
 18 C        3.8570     5.7830     1.1650 C.ar  1 <1>  -0.1500 
 19 C        7.1230     4.9740    -0.5510 C.2   1 <1>   0.1340 
 20 C        6.3740     6.8230     0.8500 C.ar  1 <1>  -0.1500 
 21 C        4.1760     6.9830     1.7670 C.ar  1 <1>  -0.1500 
 22 N        8.3980     5.0190    -0.2820 N.2   1 <1>  -0.3380 
 23 N        6.9350     4.2700    -1.6740 N.pl3 1 <1>   0.0330 
 24 C        5.4450     7.5040     1.6100 C.ar  1 <1>  -0.1500 
 25 N        9.0440     4.3410    -1.2290 N.2   1 <1>  -0.3380 
 26 C        8.1530     3.9030    -2.0470 C.2   1 <1>   0.0360 
 27 H        1.9510    -0.8120    -0.1080 H     1 <1>   0.0800 
 28 H        1.7110     0.3910    -1.3320 H     1 <1>   0.0800 
 29 H       -0.7890    -3.1690    -1.5950 H     1 <1>   0.0800 
 30 H       -1.2900    -2.6660     0.0090 H     1 <1>   0.0800 
 31 H        0.4060    -2.6700    -0.4240 H     1 <1>   0.0800 
 32 H       -2.2880    -1.6040    -2.5460 H     1 <1>   0.0800 
 33 H       -2.0990     0.1060    -2.2610 H     1 <1>   0.0800 
 34 H       -2.7790    -0.9110    -1.0080 H     1 <1>   0.0800 
 35 H        1.6260     2.1340     0.5040 H     1 <1>   0.0800 
 36 H        3.8180     1.2970    -0.8590 H     1 <1>   0.0800 
 37 H        1.5810     0.0090     2.3220 H     1 <1>   0.0800 
 38 H        2.2200     1.5950     2.7130 H     1 <1>   0.0800 
 39 H        4.1880     2.8540     1.6550 H     1 <1>   0.3700 
 40 H        5.3500     0.6210     1.2770 H     1 <1>   0.0800 
 41 H        4.3250    -0.5930     0.5220 H     1 <1>   0.0800 
 42 H        2.8660     5.3810     1.2890 H     1 <1>   0.1500 
 43 H        7.3610     7.2410     0.7350 H     1 <1>   0.1500 
 44 H        3.4450     7.5120     2.3560 H     1 <1>   0.1500 
 45 H        6.0240     4.0470    -2.0950 H     1 <1>   0.2700 
 46 H        5.7080     8.4390     2.0770 H     1 <1>   0.1500 
 47 H        8.3540     3.3110    -2.9210 H     1 <1>   0.1500 
@<TRIPOS>BOND
  1   1   2  2   
  2   1   3  2   
  3   1   4  am  
  4   1   5  1   
  5   4   6  1   
  6   4   7  1   
  7   5   8  1   
  8   5  27  1   
  9   5  28  1   
 10   6  29  1   
 11   6  30  1   
 12   6  31  1   
 13   7  32  1   
 14   7  33  1   
 15   7  34  1   
 16   8   9  1   
 17   8  10  1   
 18   8  35  1   
 19   9  11  1   
 20   9  12  1   
 21   9  36  1   
 22  10  13  1   
 23  10  37  1   
 24  10  38  1   
 25  11  14  am  
 26  11  39  1   
 27  12  13  1   
 28  12  40  1   
 29  12  41  1   
 30  14  15  2   
 31  14  16  1   
 32  16  17  ar  
 33  16  18  ar  
 34  17  19  1   
 35  17  20  ar  
 36  18  21  ar  
 37  18  42  1   
 38  19  22  2   
 39  19  23  1   
 40  20  24  ar  
 41  20  43  1   
 42  21  24  ar  
 43  21  44  1   
 44  22  25  1   
 45  23  26  1   
 46  23  45  1   
 47  24  46  1   
 48  25  26  2   
 49  26  47  1   
@<TRIPOS>SUBSTRUCTURE
  1 ****  11 GROUP 4 **** **** 0

# MOE 2024.06 (io_trps.svl 2023.06)
