@<TRIPOS>MOLECULE
NONAME
45 46 1 0 0 
SMALL
USER_CHARGES


@<TRIPOS>ATOM
  1 O        2.0700     1.3010    -2.7730 O.2   1 <1>  -0.5700 
  2 C        2.3300     1.8330    -1.7220 C.2   1 <1>   0.5690 
  3 N        2.3610     1.2400    -0.5080 N.am  1 <1>  -0.6600 
  4 C        2.6770     3.2890    -1.6120 C.3   1 <1>  -0.0990 
  5 C        2.7450     2.1750     0.5650 C.3   1 <1>   0.1400 
  6 C        2.0510    -0.1790    -0.2330 C.3   1 <1>   0.1400 
  7 C        3.2830     3.4000    -0.1970 C.3   1 <1>  -0.0190 
  8 C        0.7340    -0.2770     0.5330 C.3   1 <1>  -0.2400 
  9 C        3.0140     4.7200     0.5130 C.2   1 <1>   0.5690 
 10 O        2.7680     4.7000     1.6950 O.2   1 <1>  -0.5700 
 11 N        3.0970     5.8690    -0.2160 N.am  1 <1>  -0.4930 
 12 C        2.9140     7.2140     0.1940 C.2   1 <1>   0.0630 
 13 C        1.9470     7.7720     1.0370 C.2   1 <1>   0.1080 
 14 C        3.6660     8.2620    -0.2080 C.2   1 <1>  -0.3320 
 15 N        2.0840     9.0560     1.1540 N.2   1 <1>  -0.7070 
 16 C        0.8340     7.0340     1.7480 C.3   1 <1>  -0.0590 
 17 N        3.1460     9.3640     0.3920 N.pl3 1 <1>   0.3140 
 18 C        4.8760     8.2850    -1.1320 C.3   1 <1>  -0.0600 
 19 C        3.6190    10.7610     0.2870 C.3   1 <1>   0.0960 
 20 C        2.9660    11.4760    -0.9050 C.3   1 <1>  -0.1600 
 21 C        3.4580    12.9230    -1.0260 C.3   1 <1>  -0.2400 
 22 H        1.7680     3.8560    -1.7010 H     1 <1>   0.0800 
 23 H        3.3740     3.5730    -2.3780 H     1 <1>   0.0800 
 24 H        3.4970     1.7490     1.2060 H     1 <1>   0.0800 
 25 H        1.8700     2.4250     1.1430 H     1 <1>   0.0800 
 26 H        2.8510    -0.6180     0.3370 H     1 <1>   0.0800 
 27 H        1.9660    -0.7130    -1.1650 H     1 <1>   0.0800 
 28 H        4.3490     3.2810    -0.2710 H     1 <1>   0.0800 
 29 H        0.8130     0.2060     1.4900 H     1 <1>   0.0800 
 30 H        0.4870    -1.3110     0.6930 H     1 <1>   0.0800 
 31 H       -0.0570     0.1780    -0.0370 H     1 <1>   0.0800 
 32 H        3.4010     5.7800    -1.1820 H     1 <1>   0.3700 
 33 H        0.4930     6.2100     1.1530 H     1 <1>   0.0800 
 34 H        0.0110     7.7010     1.9270 H     1 <1>   0.0800 
 35 H        1.1960     6.6670     2.6900 H     1 <1>   0.0800 
 36 H        5.1190     7.2940    -1.4680 H     1 <1>   0.0800 
 37 H        5.7300     8.6810    -0.6110 H     1 <1>   0.0800 
 38 H        4.6760     8.8980    -1.9930 H     1 <1>   0.0800 
 39 H        4.6870    10.7580     0.1890 H     1 <1>   0.0800 
 40 H        3.3620    11.2650     1.2010 H     1 <1>   0.0800 
 41 H        1.8970    11.4750    -0.7700 H     1 <1>   0.0800 
 42 H        3.1940    10.9470    -1.8130 H     1 <1>   0.0800 
 43 H        3.2190    13.4770    -0.1350 H     1 <1>   0.0800 
 44 H        2.9820    13.4030    -1.8630 H     1 <1>   0.0800 
 45 H        4.5230    12.9500    -1.1780 H     1 <1>   0.0800 
@<TRIPOS>BOND
  1   1   2  2   
  2   2   3  am  
  3   2   4  1   
  4   3   5  1   
  5   3   6  1   
  6   4   7  1   
  7   4  22  1   
  8   4  23  1   
  9   5   7  1   
 10   5  24  1   
 11   5  25  1   
 12   6   8  1   
 13   6  26  1   
 14   6  27  1   
 15   7   9  1   
 16   7  28  1   
 17   8  29  1   
 18   8  30  1   
 19   8  31  1   
 20   9  10  2   
 21   9  11  am  
 22  11  12  1   
 23  11  32  1   
 24  12  13  1   
 25  12  14  2   
 26  13  15  2   
 27  13  16  1   
 28  14  17  1   
 29  14  18  1   
 30  15  17  1   
 31  16  33  1   
 32  16  34  1   
 33  16  35  1   
 34  17  19  1   
 35  18  36  1   
 36  18  37  1   
 37  18  38  1   
 38  19  20  1   
 39  19  39  1   
 40  19  40  1   
 41  20  21  1   
 42  20  41  1   
 43  20  42  1   
 44  21  43  1   
 45  21  44  1   
 46  21  45  1   
@<TRIPOS>SUBSTRUCTURE
  1 ****  11 GROUP 4 **** **** 0

# MOE 2024.06 (io_trps.svl 2023.06)
