@<TRIPOS>MOLECULE
NONAME
44 46 1 0 0 
SMALL
USER_CHARGES


@<TRIPOS>ATOM
  1 F       -5.0140    -0.3770    -1.2060 F     1 <1>  -0.1900 
  2 C       -4.0160     0.2880    -0.6850 C.ar  1 <1>   0.1900 
  3 C       -2.9550    -0.4080    -0.1140 C.ar  1 <1>  -0.1440 
  4 C       -4.0690     1.6680    -0.7240 C.ar  1 <1>  -0.1500 
  5 C       -1.9100     0.3200     0.4420 C.ar  1 <1>  -0.1500 
  6 C       -2.9240    -1.9310    -0.0880 C.3   1 <1>  -0.0160 
  7 C       -3.0110     2.3530    -0.1620 C.ar  1 <1>   0.1900 
  8 C       -1.9340     1.7070     0.4200 C.ar  1 <1>  -0.1500 
  9 C       -3.7420    -2.4670     1.0920 C.3   1 <1>  -0.0990 
 10 F       -3.0260     3.6580    -0.1800 F     1 <1>  -0.1900 
 11 C       -3.8250    -3.9800     1.0490 C.2   1 <1>   0.5690 
 12 O       -2.9780    -4.6050     1.6400 O.2   1 <1>  -0.5700 
 13 N       -4.8200    -4.6010     0.3460 N.am  1 <1>  -0.6600 
 14 C       -5.9190    -3.9480    -0.4110 C.3   1 <1>   0.1400 
 15 C       -4.9330    -6.0770     0.2650 C.3   1 <1>   0.1400 
 16 C       -6.7120    -5.1000    -1.0300 C.3   1 <1>   0.2000 
 17 C       -6.3660    -6.3380    -0.2040 C.3   1 <1>  -0.0800 
 18 O       -8.0780    -4.8660    -0.9780 O.3   1 <1>  -0.6800 
 19 C       -6.5450    -7.6450    -0.9970 C.3   1 <1>  -0.0170 
 20 C       -6.2360    -8.8690    -0.1490 C.ar  1 <1>   0.1670 
 21 N       -4.9620    -9.2070    -0.0420 N.ar  1 <1>  -0.6200 
 22 C       -7.2720    -9.5690     0.4670 C.ar  1 <1>   0.1600 
 23 C       -4.7930   -10.2760     0.7180 C.ar  1 <1>   0.1600 
 24 N       -7.1070   -10.6390     1.2270 N.ar  1 <1>  -0.6200 
 25 C       -5.8300   -10.9680     1.3320 C.ar  1 <1>   0.1600 
 26 H       -4.8970     2.1860    -1.1700 H     1 <1>   0.1500 
 27 H       -1.0750    -0.1890     0.8950 H     1 <1>   0.1500 
 28 H       -3.3160    -2.3160    -1.0130 H     1 <1>   0.0800 
 29 H       -1.9090    -2.2800    -0.0030 H     1 <1>   0.0800 
 30 H       -1.1310     2.2810     0.8460 H     1 <1>   0.1500 
 31 H       -4.7290    -2.0450     1.0880 H     1 <1>   0.0800 
 32 H       -3.2700    -2.1760     2.0130 H     1 <1>   0.0800 
 33 H       -6.5320    -3.3810     0.2670 H     1 <1>   0.0800 
 34 H       -5.5200    -3.3080    -1.1780 H     1 <1>   0.0800 
 35 H       -4.2190    -6.4440    -0.4530 H     1 <1>   0.0800 
 36 H       -4.7380    -6.5350     1.2210 H     1 <1>   0.0800 
 37 H       -6.4280    -5.2240    -2.0610 H     1 <1>   0.0800 
 38 H       -6.9840    -6.3660     0.6760 H     1 <1>   0.0800 
 39 H       -8.3690    -4.7470    -0.0530 H     1 <1>   0.4000 
 40 H       -5.8990    -7.6440    -1.8580 H     1 <1>   0.0800 
 41 H       -7.5580    -7.7030    -1.3550 H     1 <1>   0.0800 
 42 H       -8.2830    -9.2290     0.3270 H     1 <1>   0.1500 
 43 H       -3.7850   -10.6220     0.8630 H     1 <1>   0.1500 
 44 H       -5.5930   -11.8280     1.9320 H     1 <1>   0.1500 
@<TRIPOS>BOND
  1   1   2  1   
  2   2   3  ar  
  3   2   4  ar  
  4   3   5  ar  
  5   3   6  1   
  6   4   7  ar  
  7   4  26  1   
  8   5   8  ar  
  9   5  27  1   
 10   6   9  1   
 11   6  28  1   
 12   6  29  1   
 13   7   8  ar  
 14   7  10  1   
 15   8  30  1   
 16   9  11  1   
 17   9  31  1   
 18   9  32  1   
 19  11  12  2   
 20  11  13  am  
 21  13  14  1   
 22  13  15  1   
 23  14  16  1   
 24  14  33  1   
 25  14  34  1   
 26  15  17  1   
 27  15  35  1   
 28  15  36  1   
 29  16  17  1   
 30  16  18  1   
 31  16  37  1   
 32  17  19  1   
 33  17  38  1   
 34  18  39  1   
 35  19  20  1   
 36  19  40  1   
 37  19  41  1   
 38  20  21  ar  
 39  20  22  ar  
 40  21  23  ar  
 41  22  24  ar  
 42  22  42  1   
 43  23  25  ar  
 44  23  43  1   
 45  24  25  ar  
 46  25  44  1   
@<TRIPOS>SUBSTRUCTURE
  1 ****  13 GROUP 4 **** **** 0

# MOE 2024.06 (io_trps.svl 2023.06)
