@<TRIPOS>MOLECULE
NONAME
58 62 1 0 0 
SMALL
USER_CHARGES


@<TRIPOS>ATOM
  1 O       -2.8420     1.1320    -2.2740 O.2   1 <1>  -0.5700 
  2 C       -2.4030     1.2400    -1.1470 C.2   1 <1>   0.5440 
  3 N       -2.3620     0.0980    -0.3730 N.am  1 <1>  -0.6600 
  4 C       -2.0610     2.5460    -0.6230 C.ar  1 <1>   0.0860 
  5 C       -2.7360     0.1120     1.0720 C.3   1 <1>   0.1400 
  6 C       -2.4960    -1.2470    -1.0050 C.3   1 <1>   0.1400 
  7 C       -0.8750     2.8020     0.1120 C.ar  1 <1>   0.0000 
  8 C       -2.9160     3.6040    -0.7950 C.ar  1 <1>  -0.1500 
  9 C       -4.1780    -0.4190     1.2700 C.3   1 <1>   0.4230 
 10 C       -3.9410    -1.7500    -0.8510 C.3   1 <1>   0.3430 
 11 C       -0.7270     4.0780     0.7010 C.ar  1 <1>   0.3100 
 12 C        0.1710     1.8670     0.2830 C.ar  1 <1>  -0.1500 
 13 C       -2.6630     4.8410    -0.2030 C.ar  1 <1>   0.2780 
 14 N       -4.3920    -1.7680     0.5970 N.4   1 <1>  -0.9590 
 15 C       -5.2110     0.6170     0.7680 C.3   1 <1>   0.1200 
 16 N       -1.6290     5.0730     0.5420 N.ar  1 <1>  -0.6200 
 17 C        0.4110     4.3400     1.4790 C.ar  1 <1>  -0.1500 
 18 C        1.2750     2.1560     1.0400 C.ar  1 <1>  -0.1500 
 19 C       -3.6520     5.9760    -0.4150 C.3   1 <1>  -0.0680 
 20 C       -5.8310    -2.1790     0.7650 C.3   1 <1>   0.4230 
 21 O       -6.5100     0.1370     0.9600 O.3   1 <1>  -0.5600 
 22 C        1.3940     3.4040     1.6540 C.ar  1 <1>  -0.1500 
 23 C       -4.1890     6.3050    -1.7790 C.3   1 <1>  -0.2000 
 24 C       -3.2130     7.2260    -1.1170 C.3   1 <1>  -0.2000 
 25 C       -6.7990    -1.0640     0.3000 C.3   1 <1>   0.1200 
 26 C       -6.0950    -3.5270     0.0730 C.3   1 <1>  -0.1600 
 27 C       -7.4140    -4.1720     0.5300 C.3   1 <1>  -0.1600 
 28 C       -7.6000    -5.5470    -0.1160 C.3   1 <1>  -0.2400 
 29 H       -2.0450    -0.5040     1.6220 H     1 <1>   0.0800 
 30 H       -2.6640     1.1080     1.4750 H     1 <1>   0.0800 
 31 H       -2.2420    -1.1970    -2.0510 H     1 <1>   0.0800 
 32 H       -1.8110    -1.9350    -0.5410 H     1 <1>   0.0800 
 33 H       -3.8080     3.4900    -1.3850 H     1 <1>   0.1500 
 34 H       -4.3400    -0.5280     2.3300 H     1 <1>   0.0800 
 35 H       -4.0100    -2.7390    -1.2730 H     1 <1>   0.0800 
 36 H       -4.5810    -1.1010    -1.4270 H     1 <1>   0.0800 
 37 H        0.1110     0.9080    -0.1980 H     1 <1>   0.1500 
 38 H       -3.8170    -2.4570     1.0930 H     1 <1>   0.4500 
 39 H       -5.0760     0.8400    -0.2760 H     1 <1>   0.0800 
 40 H       -5.1210     1.5330     1.3260 H     1 <1>   0.0800 
 41 H        0.4880     5.3110     1.9320 H     1 <1>   0.1500 
 42 H        2.0650     1.4350     1.1680 H     1 <1>   0.1500 
 43 H       -4.3030     6.1040     0.4310 H     1 <1>   0.1000 
 44 H       -6.0150    -2.3250     1.8180 H     1 <1>   0.0800 
 45 H        2.2640     3.6200     2.2520 H     1 <1>   0.1500 
 46 H       -3.8500     5.7500    -2.6370 H     1 <1>   0.1000 
 47 H       -5.2140     6.6180    -1.8690 H     1 <1>   0.1000 
 48 H       -3.5570     8.1720    -0.7360 H     1 <1>   0.1000 
 49 H       -2.2010     7.2720    -1.4820 H     1 <1>   0.1000 
 50 H       -7.8140    -1.3220     0.5430 H     1 <1>   0.0800 
 51 H       -6.7350    -0.9010    -0.7620 H     1 <1>   0.0800 
 52 H       -6.1310    -3.3990    -0.9950 H     1 <1>   0.0800 
 53 H       -5.2960    -4.2080     0.3110 H     1 <1>   0.0800 
 54 H       -7.4170    -4.2890     1.6010 H     1 <1>   0.0800 
 55 H       -8.2530    -3.5530     0.2600 H     1 <1>   0.0800 
 56 H       -6.8000    -6.2120     0.1590 H     1 <1>   0.0800 
 57 H       -7.6300    -5.4650    -1.1890 H     1 <1>   0.0800 
 58 H       -8.5270    -5.9840     0.2130 H     1 <1>   0.0800 
@<TRIPOS>BOND
  1   1   2  2   
  2   2   3  am  
  3   2   4  1   
  4   3   5  1   
  5   3   6  1   
  6   4   7  ar  
  7   4   8  ar  
  8   5   9  1   
  9   5  29  1   
 10   5  30  1   
 11   6  10  1   
 12   6  31  1   
 13   6  32  1   
 14   7  11  ar  
 15   7  12  ar  
 16   8  13  ar  
 17   8  33  1   
 18   9  14  1   
 19   9  15  1   
 20   9  34  1   
 21  10  14  1   
 22  10  35  1   
 23  10  36  1   
 24  11  16  ar  
 25  11  17  ar  
 26  12  18  ar  
 27  12  37  1   
 28  13  16  ar  
 29  13  19  1   
 30  14  20  1   
 31  14  38  1   
 32  15  21  1   
 33  15  39  1   
 34  15  40  1   
 35  17  22  ar  
 36  17  41  1   
 37  18  22  ar  
 38  18  42  1   
 39  19  23  1   
 40  19  24  1   
 41  19  43  1   
 42  20  25  1   
 43  20  26  1   
 44  20  44  1   
 45  21  25  1   
 46  22  45  1   
 47  23  24  1   
 48  23  46  1   
 49  23  47  1   
 50  24  48  1   
 51  24  49  1   
 52  25  50  1   
 53  25  51  1   
 54  26  27  1   
 55  26  52  1   
 56  26  53  1   
 57  27  28  1   
 58  27  54  1   
 59  27  55  1   
 60  28  56  1   
 61  28  57  1   
 62  28  58  1   
@<TRIPOS>SUBSTRUCTURE
  1 ****   2 GROUP 4 **** **** 0

# MOE 2024.06 (io_trps.svl 2023.06)
