@<TRIPOS>MOLECULE
NONAME
46 49 1 0 0 
SMALL
USER_CHARGES


@<TRIPOS>ATOM
  1 CL      -0.1330    -0.0960    -1.3010 Cl    1 <1>  -0.1770 
  2 C       -0.9600    -1.5530    -0.8170 C.ar  1 <1>   0.1770 
  3 C       -2.3290    -1.6470    -0.9770 C.ar  1 <1>  -0.1500 
  4 C       -0.2370    -2.5980    -0.2760 C.ar  1 <1>  -0.1500 
  5 C       -2.9790    -2.8050    -0.5890 C.ar  1 <1>  -0.1500 
  6 C       -0.8980    -3.7520     0.1060 C.ar  1 <1>  -0.1500 
  7 C       -2.2820    -3.8860    -0.0420 C.ar  1 <1>   0.0530 
  8 C       -2.9510    -5.0990     0.3660 C.2   1 <1>   0.0870 
  9 O       -2.4040    -5.8860     1.2630 O.3   1 <1>  -0.0190 
 10 C       -4.1240    -5.6780     0.0060 C.2   1 <1>  -0.2330 
 11 N       -3.1330    -6.9400     1.5270 N.2   1 <1>  -0.4100 
 12 C       -4.1780    -6.8350     0.7850 C.2   1 <1>   0.3720 
 13 C       -5.1030    -5.2630    -0.9410 C.2   1 <1>   1.0330 
 14 N       -5.1990    -7.7890     0.8010 N.pl3 1 <1>  -0.8210 
 15 O       -5.9930    -4.4600    -0.6100 O.co2 1 <1>  -0.9000 
 16 O       -5.0840    -5.6890    -2.1080 O.co2 1 <1>  -0.9000 
 17 C       -6.5170    -7.2340     1.1990 C.3   1 <1>   0.2090 
 18 C       -5.2760    -8.5690    -0.4590 C.3   1 <1>   0.2090 
 19 C       -7.4940    -8.3880     1.4360 C.3   1 <1>  -0.1600 
 20 C       -6.2800    -9.7180    -0.3020 C.3   1 <1>  -0.1600 
 21 C       -7.6790    -9.2590     0.1720 C.3   1 <1>   0.0000 
 22 C       -8.4080    -8.4350    -0.9250 C.3   1 <1>  -0.1600 
 23 C       -8.5190   -10.5140     0.5150 C.3   1 <1>  -0.1600 
 24 C       -9.2550    -9.3280    -1.8400 C.3   1 <1>   0.1200 
 25 C      -10.0100   -10.2910     0.2400 C.3   1 <1>   0.1200 
 26 O      -10.2340   -10.0330    -1.1190 O.3   1 <1>  -0.5600 
 27 H       -2.8800    -0.8270    -1.4000 H     1 <1>   0.1500 
 28 H        0.8280    -2.5070    -0.1590 H     1 <1>   0.1500 
 29 H       -4.0470    -2.8660    -0.7120 H     1 <1>   0.1500 
 30 H       -0.3360    -4.5690     0.5230 H     1 <1>   0.1500 
 31 H       -6.8980    -6.5820     0.4330 H     1 <1>   0.0800 
 32 H       -6.4010    -6.6580     2.1020 H     1 <1>   0.0800 
 33 H       -4.3020    -8.9670    -0.6860 H     1 <1>   0.0800 
 34 H       -5.5650    -7.9290    -1.2730 H     1 <1>   0.0800 
 35 H       -8.4380    -7.9890     1.7560 H     1 <1>   0.0800 
 36 H       -7.1010    -8.9830     2.2410 H     1 <1>   0.0800 
 37 H       -5.8690   -10.4070     0.4140 H     1 <1>   0.0800 
 38 H       -6.3610   -10.2340    -1.2410 H     1 <1>   0.0800 
 39 H       -7.7130    -7.8760    -1.5250 H     1 <1>   0.0800 
 40 H       -9.0700    -7.7130    -0.4810 H     1 <1>   0.0800 
 41 H       -8.3800   -10.7930     1.5430 H     1 <1>   0.0800 
 42 H       -8.2060   -11.3530    -0.0820 H     1 <1>   0.0800 
 43 H       -8.6310   -10.0490    -2.3380 H     1 <1>   0.0800 
 44 H       -9.7590    -8.7370    -2.5840 H     1 <1>   0.0800 
 45 H      -10.3770    -9.4500     0.8020 H     1 <1>   0.0800 
 46 H      -10.5820   -11.1620     0.5040 H     1 <1>   0.0800 
@<TRIPOS>BOND
  1   1   2  1   
  2   2   3  ar  
  3   2   4  ar  
  4   3   5  ar  
  5   3  27  1   
  6   4   6  ar  
  7   4  28  1   
  8   5   7  ar  
  9   5  29  1   
 10   6   7  ar  
 11   6  30  1   
 12   7   8  1   
 13   8   9  1   
 14   8  10  2   
 15   9  11  1   
 16  10  12  1   
 17  10  13  1   
 18  11  12  2   
 19  12  14  1   
 20  13  15  ar  
 21  13  16  ar  
 22  14  17  1   
 23  14  18  1   
 24  17  19  1   
 25  17  31  1   
 26  17  32  1   
 27  18  20  1   
 28  18  33  1   
 29  18  34  1   
 30  19  21  1   
 31  19  35  1   
 32  19  36  1   
 33  20  21  1   
 34  20  37  1   
 35  20  38  1   
 36  21  22  1   
 37  21  23  1   
 38  22  24  1   
 39  22  39  1   
 40  22  40  1   
 41  23  25  1   
 42  23  41  1   
 43  23  42  1   
 44  24  26  1   
 45  24  43  1   
 46  24  44  1   
 47  25  26  1   
 48  25  45  1   
 49  25  46  1   
@<TRIPOS>SUBSTRUCTURE
  1 ****  10 GROUP 4 **** **** 0

# MOE 2024.06 (io_trps.svl 2023.06)
