@<TRIPOS>MOLECULE
NONAME
44 46 1 0 0 
SMALL
USER_CHARGES


@<TRIPOS>ATOM
  1 O       -1.8070    -0.5400    -2.6960 O.2   1 <1>  -0.5700 
  2 C       -1.9980    -0.8800    -1.5570 C.2   1 <1>   0.5690 
  3 N       -1.9590     0.0020    -0.5150 N.am  1 <1>  -0.6600 
  4 C       -2.3360    -2.3290    -1.3170 C.3   1 <1>  -0.0190 
  5 C       -2.2600    -0.3900     0.8920 C.3   1 <1>   0.2200 
  6 C       -1.5540     1.4270    -0.7210 C.3   1 <1>   0.0600 
  7 C       -1.3180    -3.0220    -0.3860 C.3   1 <1>   0.1200 
  8 C       -3.8160    -2.4280    -0.9310 C.3   1 <1>   0.3430 
  9 C       -1.2440    -1.4410     1.4020 C.3   1 <1>   0.1200 
 10 C       -3.7470    -0.8160     1.0440 C.3   1 <1>   0.3430 
 11 O       -1.5360    -2.7440     0.9700 O.3   1 <1>  -0.5600 
 12 N       -4.0760    -2.1910     0.5280 N.4   1 <1>  -0.9590 
 13 C       -5.4160    -2.6680     0.9580 C.3   1 <1>   0.4860 
 14 C       -5.5120    -4.1530     0.6670 C.ar  1 <1>  -0.1440 
 15 C       -4.6870    -5.0530     1.3290 C.ar  1 <1>  -0.1500 
 16 C       -6.4140    -4.6220    -0.2780 C.ar  1 <1>  -0.1500 
 17 C       -4.7570    -6.4020     1.0360 C.ar  1 <1>  -0.1500 
 18 C       -6.4850    -5.9730    -0.5690 C.ar  1 <1>  -0.1500 
 19 C       -5.6500    -6.8720     0.0870 C.ar  1 <1>   0.0820 
 20 O       -5.6480    -8.2070    -0.1400 O.3   1 <1>  -0.3630 
 21 C       -6.5770    -8.8090    -1.0150 C.3   1 <1>   0.0400 
 22 H       -2.2410    -2.8110    -2.2740 H     1 <1>   0.0800 
 23 H       -2.1250     0.4880     1.4990 H     1 <1>   0.0800 
 24 H       -0.6770     1.6490    -0.1380 H     1 <1>   0.0800 
 25 H       -2.3530     2.0860    -0.4270 H     1 <1>   0.0800 
 26 H       -1.3240     1.6180    -1.7560 H     1 <1>   0.0800 
 27 H       -0.3090    -2.7420    -0.6420 H     1 <1>   0.0800 
 28 H       -1.4020    -4.0900    -0.5000 H     1 <1>   0.0800 
 29 H       -4.1470    -3.4220    -1.1860 H     1 <1>   0.0800 
 30 H       -4.3870    -1.7330    -1.5260 H     1 <1>   0.0800 
 31 H       -1.2700    -1.4630     2.4780 H     1 <1>   0.0800 
 32 H       -0.2410    -1.1850     1.1020 H     1 <1>   0.0800 
 33 H       -4.3650    -0.0830     0.5520 H     1 <1>   0.0800 
 34 H       -3.9820    -0.7850     2.0940 H     1 <1>   0.0800 
 35 H       -3.3790    -2.8130     0.9860 H     1 <1>   0.4500 
 36 H       -5.5470    -2.5070     2.0160 H     1 <1>   0.0800 
 37 H       -6.1890    -2.1350     0.4300 H     1 <1>   0.0800 
 38 H       -3.9840    -4.7250     2.0760 H     1 <1>   0.1500 
 39 H       -7.0720    -3.9460    -0.7990 H     1 <1>   0.1500 
 40 H       -4.1210    -7.1070     1.5420 H     1 <1>   0.1500 
 41 H       -7.1910    -6.3110    -1.3050 H     1 <1>   0.1500 
 42 H       -6.4060    -9.8700    -1.0040 H     1 <1>   0.0800 
 43 H       -6.4220    -8.4250    -2.0080 H     1 <1>   0.0800 
 44 H       -7.5730    -8.5960    -0.6680 H     1 <1>   0.0800 
@<TRIPOS>BOND
  1   1   2  2   
  2   2   3  am  
  3   2   4  1   
  4   3   5  1   
  5   3   6  1   
  6   4   7  1   
  7   4   8  1   
  8   4  22  1   
  9   5   9  1   
 10   5  10  1   
 11   5  23  1   
 12   6  24  1   
 13   6  25  1   
 14   6  26  1   
 15   7  11  1   
 16   7  27  1   
 17   7  28  1   
 18   8  12  1   
 19   8  29  1   
 20   8  30  1   
 21   9  11  1   
 22   9  31  1   
 23   9  32  1   
 24  10  12  1   
 25  10  33  1   
 26  10  34  1   
 27  12  13  1   
 28  12  35  1   
 29  13  14  1   
 30  13  36  1   
 31  13  37  1   
 32  14  15  ar  
 33  14  16  ar  
 34  15  17  ar  
 35  15  38  1   
 36  16  18  ar  
 37  16  39  1   
 38  17  19  ar  
 39  17  40  1   
 40  18  19  ar  
 41  18  41  1   
 42  19  20  1   
 43  20  21  1   
 44  21  42  1   
 45  21  43  1   
 46  21  44  1   
@<TRIPOS>SUBSTRUCTURE
  1 ****   8 GROUP 4 **** **** 0

# MOE 2024.06 (io_trps.svl 2023.06)
