@<TRIPOS>MOLECULE
NONAME
54 56 1 0 0 
SMALL
USER_CHARGES


@<TRIPOS>ATOM
  1 O       -2.0270     0.4140    -3.3300 O.2   1 <1>  -0.5700 
  2 C       -2.2030     0.9860    -2.2700 C.2   1 <1>   0.5440 
  3 N       -2.8940     0.3450    -1.2620 N.am  1 <1>  -0.6600 
  4 C       -1.6770     2.3290    -2.1030 C.ar  1 <1>   0.0860 
  5 C       -3.1120    -1.1400    -1.2660 C.3   1 <1>   0.1400 
  6 C       -3.6560     1.0600    -0.2070 C.3   1 <1>   0.1400 
  7 C       -0.9950     2.7050    -0.9490 C.ar  1 <1>  -0.1500 
  8 C       -1.8250     3.2900    -3.1010 C.ar  1 <1>  -0.1500 
  9 C       -2.7640    -1.8000     0.0920 C.3   1 <1>  -0.1060 
 10 C       -3.2430     0.5400     1.1670 C.3   1 <1>  -0.1600 
 11 C       -0.4820     3.9820    -0.7650 C.ar  1 <1>   0.0000 
 12 C       -1.3250     4.5700    -2.9440 C.ar  1 <1>  -0.1500 
 13 C       -3.4470    -3.1740     0.1540 C.2   1 <1>   0.9060 
 14 C       -3.4210    -0.9770     1.2310 C.3   1 <1>   0.2000 
 15 C       -1.2270    -2.0760     0.2230 C.3   1 <1>  -0.1600 
 16 C        0.2150     4.3240     0.4550 C.ar  1 <1>   0.0000 
 17 C       -0.6590     4.9120    -1.7820 C.ar  1 <1>  -0.1500 
 18 O       -3.9640    -3.6650    -0.8560 O.co2 1 <1>  -0.9000 
 19 O       -3.4780    -3.7670     1.2440 O.co2 1 <1>  -0.9000 
 20 O       -2.9760    -1.4210     2.4580 O.3   1 <1>  -0.6800 
 21 C       -0.2460    -0.8940     0.2010 C.3   1 <1>  -0.1600 
 22 C        1.4930     3.8390     0.7460 C.ar  1 <1>  -0.1440 
 23 C       -0.4060     5.1560     1.3820 C.ar  1 <1>  -0.1500 
 24 C        1.2020    -1.3880     0.2550 C.3   1 <1>  -0.2400 
 25 C        2.1090     4.1800     1.9390 C.ar  1 <1>  -0.1500 
 26 C        2.2270     2.9360    -0.2370 C.3   1 <1>  -0.0970 
 27 C        0.2130     5.4950     2.5700 C.ar  1 <1>  -0.1500 
 28 C        1.4740     5.0040     2.8510 C.ar  1 <1>  -0.1500 
 29 H       -4.1500    -1.3160    -1.4950 H     1 <1>   0.0800 
 30 H       -2.5350    -1.6070    -2.0470 H     1 <1>   0.0800 
 31 H       -3.4980     2.1220    -0.2630 H     1 <1>   0.0800 
 32 H       -4.7060     0.8750    -0.3590 H     1 <1>   0.0800 
 33 H       -0.8540     1.9810    -0.1680 H     1 <1>   0.1500 
 34 H       -2.3360     3.0170    -4.0090 H     1 <1>   0.1500 
 35 H       -3.8670     0.9940     1.9130 H     1 <1>   0.0800 
 36 H       -2.2310     0.8200     1.3720 H     1 <1>   0.0800 
 37 H       -1.4500     5.2970    -3.7280 H     1 <1>   0.1500 
 38 H       -4.4800    -1.1760     1.2040 H     1 <1>   0.0800 
 39 H       -1.0600    -2.6260     1.1330 H     1 <1>   0.0800 
 40 H       -0.9580    -2.7410    -0.5800 H     1 <1>   0.0800 
 41 H       -0.2670     5.9060    -1.6560 H     1 <1>   0.1500 
 42 H       -3.0580    -2.4150     2.4100 H     1 <1>   0.4000 
 43 H       -0.3780    -0.3230    -0.6970 H     1 <1>   0.0800 
 44 H       -0.4180    -0.2640     1.0530 H     1 <1>   0.0800 
 45 H       -1.3880     5.5370     1.1670 H     1 <1>   0.1500 
 46 H        1.4170    -2.0060    -0.5990 H     1 <1>   0.0800 
 47 H        1.3660    -1.9620     1.1500 H     1 <1>   0.0800 
 48 H        1.8780    -0.5520     0.2540 H     1 <1>   0.0800 
 49 H        3.0910     3.8050     2.1690 H     1 <1>   0.1500 
 50 H        3.2530     2.8020     0.0540 H     1 <1>   0.0800 
 51 H        2.2110     3.3690    -1.2210 H     1 <1>   0.0800 
 52 H        1.7530     1.9720    -0.2740 H     1 <1>   0.0800 
 53 H       -0.2840     6.1370     3.2750 H     1 <1>   0.1500 
 54 H        1.9610     5.2620     3.7750 H     1 <1>   0.1500 
@<TRIPOS>BOND
  1   1   2  2   
  2   2   3  am  
  3   2   4  1   
  4   3   5  1   
  5   3   6  1   
  6   4   7  ar  
  7   4   8  ar  
  8   5   9  1   
  9   5  29  1   
 10   5  30  1   
 11   6  10  1   
 12   6  31  1   
 13   6  32  1   
 14   7  11  ar  
 15   7  33  1   
 16   8  12  ar  
 17   8  34  1   
 18   9  13  1   
 19   9  14  1   
 20   9  15  1   
 21  10  14  1   
 22  10  35  1   
 23  10  36  1   
 24  11  16  1   
 25  11  17  ar  
 26  12  17  ar  
 27  12  37  1   
 28  13  18  ar  
 29  13  19  ar  
 30  14  20  1   
 31  14  38  1   
 32  15  21  1   
 33  15  39  1   
 34  15  40  1   
 35  16  22  ar  
 36  16  23  ar  
 37  17  41  1   
 38  20  42  1   
 39  21  24  1   
 40  21  43  1   
 41  21  44  1   
 42  22  25  ar  
 43  22  26  1   
 44  23  27  ar  
 45  23  45  1   
 46  24  46  1   
 47  24  47  1   
 48  24  48  1   
 49  25  28  ar  
 50  25  49  1   
 51  26  50  1   
 52  26  51  1   
 53  26  52  1   
 54  27  28  ar  
 55  27  53  1   
 56  28  54  1   
@<TRIPOS>SUBSTRUCTURE
  1 ****   7 GROUP 4 **** **** 0

# MOE 2024.06 (io_trps.svl 2023.06)
