@<TRIPOS>MOLECULE
NONAME
43 47 1 0 0 
SMALL
USER_CHARGES


@<TRIPOS>ATOM
  1 S       -0.2750     0.8180     2.6630 S.3   1 <1>  -0.0800 
  2 C       -0.1200     1.9440     1.3300 C.2   1 <1>  -0.1400 
  3 C        1.3280     1.2510     3.2390 C.2   1 <1>  -0.1100 
  4 C        1.0630     2.5710     1.3400 C.2   1 <1>  -0.1810 
  5 C       -1.2100     2.1570     0.3160 C.3   1 <1>   0.0200 
  6 C        1.8950     2.1780     2.4420 C.2   1 <1>  -0.1500 
  7 C        1.4250     3.5900     0.2560 C.3   1 <1>   0.4610 
  8 C       -0.9150     3.4880    -0.3940 C.3   1 <1>   0.1200 
  9 O        0.4410     3.5800    -0.7640 O.3   1 <1>  -0.5600 
 10 C        1.5240     5.0060     0.8400 C.3   1 <1>  -0.1600 
 11 C        2.7420     3.2000    -0.4240 C.3   1 <1>  -0.1600 
 12 C        1.9610     6.0240    -0.2140 C.3   1 <1>   0.1400 
 13 C        3.1700     4.2370    -1.4620 C.3   1 <1>   0.1400 
 14 N        3.2480     5.5760    -0.8120 N.am  1 <1>  -0.6600 
 15 C        4.4550     6.2120    -0.6040 C.2   1 <1>   0.5440 
 16 O        5.4870     5.5860    -0.7570 O.2   1 <1>  -0.5700 
 17 C        4.5290     7.5990    -0.1910 C.ar  1 <1>   0.0860 
 18 C        5.2590     7.9730     0.9250 C.ar  1 <1>  -0.1500 
 19 C        3.8630     8.6080    -0.9230 C.ar  1 <1>  -0.1500 
 20 C        5.3090     9.3090     1.3160 C.ar  1 <1>   0.2270 
 21 C        3.9100     9.9300    -0.5480 C.ar  1 <1>  -0.1500 
 22 N        5.9350     9.9020     2.3630 N.2   1 <1>  -0.2270 
 23 C        4.6460    10.2640     0.5920 C.ar  1 <1>  -0.1520 
 24 N        5.6950    11.1590     2.3190 N.2   1 <1>  -0.4180 
 25 N        4.9190    11.4070     1.2530 N.pl3 1 <1>   0.3000 
 26 H        1.6810     0.7590     4.1270 H     1 <1>   0.1500 
 27 H       -2.1690     2.2050     0.7990 H     1 <1>   0.0800 
 28 H       -1.2170     1.3480    -0.3920 H     1 <1>   0.0800 
 29 H        2.8730     2.6040     2.5850 H     1 <1>   0.1500 
 30 H       -1.1510     4.3160     0.2510 H     1 <1>   0.0800 
 31 H       -1.5060     3.5700    -1.2890 H     1 <1>   0.0800 
 32 H        2.2480     5.0080     1.6340 H     1 <1>   0.0800 
 33 H        0.5850     5.2960     1.2700 H     1 <1>   0.0800 
 34 H        2.6290     2.2390    -0.8900 H     1 <1>   0.0800 
 35 H        3.5230     3.1170     0.3090 H     1 <1>   0.0800 
 36 H        2.0630     6.9900     0.2470 H     1 <1>   0.0800 
 37 H        1.2170     6.0960    -0.9900 H     1 <1>   0.0800 
 38 H        2.4520     4.2750    -2.2630 H     1 <1>   0.0800 
 39 H        4.1220     3.9610    -1.8840 H     1 <1>   0.0800 
 40 H        5.7960     7.2410     1.5000 H     1 <1>   0.1500 
 41 H        3.3110     8.3130    -1.8000 H     1 <1>   0.1500 
 42 H        3.3990    10.6920    -1.1130 H     1 <1>   0.1500 
 43 H        4.5990    12.3480     1.0060 H     1 <1>   0.2700 
@<TRIPOS>BOND
  1   1   2  1   
  2   1   3  1   
  3   2   4  2   
  4   2   5  1   
  5   3   6  2   
  6   3  26  1   
  7   4   6  1   
  8   4   7  1   
  9   5   8  1   
 10   5  27  1   
 11   5  28  1   
 12   6  29  1   
 13   7   9  1   
 14   7  10  1   
 15   7  11  1   
 16   8   9  1   
 17   8  30  1   
 18   8  31  1   
 19  10  12  1   
 20  10  32  1   
 21  10  33  1   
 22  11  13  1   
 23  11  34  1   
 24  11  35  1   
 25  12  14  1   
 26  12  36  1   
 27  12  37  1   
 28  13  14  1   
 29  13  38  1   
 30  13  39  1   
 31  14  15  am  
 32  15  16  2   
 33  15  17  1   
 34  17  18  ar  
 35  17  19  ar  
 36  18  20  ar  
 37  18  40  1   
 38  19  21  ar  
 39  19  41  1   
 40  20  22  1   
 41  20  23  ar  
 42  21  23  ar  
 43  21  42  1   
 44  22  24  2   
 45  23  25  1   
 46  24  25  1   
 47  25  43  1   
@<TRIPOS>SUBSTRUCTURE
  1 ****  12 GROUP 4 **** **** 0

# MOE 2024.06 (io_trps.svl 2023.06)
