@<TRIPOS>MOLECULE
NONAME
33 33 1 0 0 
SMALL
USER_CHARGES


@<TRIPOS>ATOM
  1 O        1.7910     3.0640    -0.0320 O.co2 1 <1>  -0.9000 
  2 C        1.2950     2.8420    -1.1420 C.2   1 <1>   0.9060 
  3 O        1.9780     2.7190    -2.1570 O.co2 1 <1>  -0.9000 
  4 C       -0.2100     2.7540    -1.2650 C.3   1 <1>  -0.2660 
  5 C       -0.9950     3.3700    -0.0810 C.3   1 <1>  -0.0990 
  6 C       -0.8470     4.8780     0.0580 C.2   1 <1>   0.5690 
  7 O       -1.8350     5.5640    -0.0790 O.2   1 <1>  -0.5700 
  8 N        0.3870     5.3800     0.3500 N.am  1 <1>  -0.4940 
  9 C        0.8860     6.7050     0.4090 C.2   1 <1>  -0.0880 
 10 N        0.2510     7.8240     0.8520 N.pl3 1 <1>   0.3140 
 11 C        2.1240     7.0970     0.0290 C.2   1 <1>  -0.1810 
 12 N        1.0500     8.9150     0.7650 N.2   1 <1>  -0.7070 
 13 C       -1.0840     7.9360     1.4470 C.3   1 <1>   0.0160 
 14 C        2.1590     8.4690     0.2670 C.2   1 <1>   0.1080 
 15 C        3.2270     6.2200    -0.5440 C.3   1 <1>   0.0210 
 16 C        3.3360     9.3750    -0.0080 C.3   1 <1>  -0.0590 
 17 C        3.0700     6.0870    -2.0590 C.3   1 <1>  -0.2400 
 18 H       -0.4540     1.7140    -1.3550 H     1 <1>   0.0800 
 19 H       -0.4920     3.2430    -2.1780 H     1 <1>   0.0800 
 20 H       -0.6750     2.9110     0.8370 H     1 <1>   0.0800 
 21 H       -2.0380     3.1450    -0.2070 H     1 <1>   0.0800 
 22 H        1.1220     4.6420     0.3230 H     1 <1>   0.3700 
 23 H       -1.2870     7.0570     2.0280 H     1 <1>   0.0800 
 24 H       -1.8070     8.0280     0.6590 H     1 <1>   0.0800 
 25 H       -1.1190     8.8050     2.0760 H     1 <1>   0.0800 
 26 H        3.1780     5.2420    -0.0990 H     1 <1>   0.0800 
 27 H        4.1890     6.6360    -0.3090 H     1 <1>   0.0800 
 28 H        3.7530     9.1510    -0.9710 H     1 <1>   0.0800 
 29 H        4.0830     9.2320     0.7500 H     1 <1>   0.0800 
 30 H        3.0150    10.4000     0.0040 H     1 <1>   0.0800 
 31 H        2.1140     5.6450    -2.2850 H     1 <1>   0.0800 
 32 H        3.8340     5.4410    -2.4520 H     1 <1>   0.0800 
 33 H        3.1310     7.0480    -2.5340 H     1 <1>   0.0800 
@<TRIPOS>BOND
  1   1   2  ar  
  2   2   3  ar  
  3   2   4  1   
  4   4   5  1   
  5   4  18  1   
  6   4  19  1   
  7   5   6  1   
  8   5  20  1   
  9   5  21  1   
 10   6   7  2   
 11   6   8  am  
 12   8   9  1   
 13   8  22  1   
 14   9  10  1   
 15   9  11  2   
 16  10  12  1   
 17  10  13  1   
 18  11  14  1   
 19  11  15  1   
 20  12  14  2   
 21  13  23  1   
 22  13  24  1   
 23  13  25  1   
 24  14  16  1   
 25  15  17  1   
 26  15  26  1   
 27  15  27  1   
 28  16  28  1   
 29  16  29  1   
 30  16  30  1   
 31  17  31  1   
 32  17  32  1   
 33  17  33  1   
@<TRIPOS>SUBSTRUCTURE
  1 ****   8 GROUP 4 **** **** 0

# MOE 2024.06 (io_trps.svl 2023.06)
