@<TRIPOS>MOLECULE
NONAME
45 47 1 0 0 
SMALL
USER_CHARGES


@<TRIPOS>ATOM
  1 O       -2.3270     0.8730    -1.7620 O.2   1 <1>  -0.5700 
  2 C       -2.0980     0.8670    -0.5690 C.2   1 <1>   0.5440 
  3 N       -2.0060    -0.3320     0.0730 N.am  1 <1>  -0.7300 
  4 C       -1.9410     2.0960     0.1830 C.ar  1 <1>   0.0860 
  5 C       -2.0550    -1.6600    -0.5800 C.3   1 <1>   0.2200 
  6 C       -0.8270     2.9350     0.0490 C.ar  1 <1>  -0.1440 
  7 C       -2.9300     2.4600     1.0970 C.ar  1 <1>  -0.1500 
  8 C       -3.3750    -2.3670    -0.3020 C.3   1 <1>  -0.0800 
  9 C       -1.0840    -2.5930     0.1280 C.3   1 <1>   0.1200 
 10 C       -0.7250     4.0840     0.8180 C.ar  1 <1>  -0.1500 
 11 C        0.3010     2.6110    -0.9270 C.3   1 <1>  -0.0170 
 12 C       -2.8250     3.6080     1.8590 C.ar  1 <1>  -0.1500 
 13 C       -3.1320    -3.0260     1.0610 C.3   1 <1>   0.1200 
 14 C       -4.6350    -1.4840    -0.3660 C.3   1 <1>  -0.0160 
 15 O       -1.7510    -3.0060     1.2820 O.3   1 <1>  -0.5600 
 16 C       -1.7180     4.4220     1.7200 C.ar  1 <1>  -0.1500 
 17 C        1.2870     1.6150    -0.3120 C.3   1 <1>  -0.2400 
 18 C       -5.8920    -2.3200    -0.1820 C.ar  1 <1>  -0.1430 
 19 C       -6.4620    -3.0090    -1.2330 C.ar  1 <1>  -0.1500 
 20 C       -6.5260    -2.4350     1.0390 C.ar  1 <1>  -0.1500 
 21 C       -7.6030    -3.7640    -1.0180 C.ar  1 <1>   0.1600 
 22 C       -7.6640    -3.2180     1.1470 C.ar  1 <1>   0.1600 
 23 N       -8.2170    -3.8870     0.1480 N.ar  1 <1>  -0.6200 
 24 H       -1.8130    -0.3620     1.0770 H     1 <1>   0.3700 
 25 H       -1.8440    -1.5750    -1.6330 H     1 <1>   0.0800 
 26 H       -3.7960     1.8310     1.2060 H     1 <1>   0.1500 
 27 H       -3.4820    -3.1550    -1.0250 H     1 <1>   0.0800 
 28 H       -0.1590    -2.1110     0.3930 H     1 <1>   0.0800 
 29 H       -0.8870    -3.4660    -0.4700 H     1 <1>   0.0800 
 30 H        0.1320     4.7270     0.7190 H     1 <1>   0.1500 
 31 H       -0.0990     2.2110    -1.8430 H     1 <1>   0.0800 
 32 H        0.8270     3.5140    -1.1860 H     1 <1>   0.0800 
 33 H       -3.6010     3.8700     2.5570 H     1 <1>   0.1500 
 34 H       -3.4760    -4.0460     1.0760 H     1 <1>   0.0800 
 35 H       -3.5960    -2.4740     1.8590 H     1 <1>   0.0800 
 36 H       -4.6720    -0.9860    -1.3200 H     1 <1>   0.0800 
 37 H       -4.6000    -0.7220     0.3920 H     1 <1>   0.0800 
 38 H       -1.6280     5.3180     2.3100 H     1 <1>   0.1500 
 39 H        0.7940     0.6870    -0.0880 H     1 <1>   0.0800 
 40 H        1.7000     2.0160     0.5970 H     1 <1>   0.0800 
 41 H        2.0900     1.4200    -1.0000 H     1 <1>   0.0800 
 42 H       -6.0300    -2.9660    -2.2160 H     1 <1>   0.1500 
 43 H       -6.1480    -1.9260     1.9060 H     1 <1>   0.1500 
 44 H       -8.0340    -4.2950    -1.8490 H     1 <1>   0.1500 
 45 H       -8.1460    -3.2970     2.1070 H     1 <1>   0.1500 
@<TRIPOS>BOND
  1   1   2  2   
  2   2   3  am  
  3   2   4  1   
  4   3   5  1   
  5   3  24  1   
  6   4   6  ar  
  7   4   7  ar  
  8   5   8  1   
  9   5   9  1   
 10   5  25  1   
 11   6  10  ar  
 12   6  11  1   
 13   7  12  ar  
 14   7  26  1   
 15   8  13  1   
 16   8  14  1   
 17   8  27  1   
 18   9  15  1   
 19   9  28  1   
 20   9  29  1   
 21  10  16  ar  
 22  10  30  1   
 23  11  17  1   
 24  11  31  1   
 25  11  32  1   
 26  12  16  ar  
 27  12  33  1   
 28  13  15  1   
 29  13  34  1   
 30  13  35  1   
 31  14  18  1   
 32  14  36  1   
 33  14  37  1   
 34  16  38  1   
 35  17  39  1   
 36  17  40  1   
 37  17  41  1   
 38  18  19  ar  
 39  18  20  ar  
 40  19  21  ar  
 41  19  42  1   
 42  20  22  ar  
 43  20  43  1   
 44  21  23  ar  
 45  21  44  1   
 46  22  23  ar  
 47  22  45  1   
@<TRIPOS>SUBSTRUCTURE
  1 ****   3 GROUP 4 **** **** 0

# MOE 2024.06 (io_trps.svl 2023.06)
