@<TRIPOS>MOLECULE
NONAME
45 47 1 0 0 
SMALL
USER_CHARGES


@<TRIPOS>ATOM
  1 O       -0.3890     0.2730     2.2790 O.3   1 <1>  -0.0190 
  2 N       -0.3470     1.4470     1.7240 N.2   1 <1>  -0.4100 
  3 C       -0.7740    -0.6510     1.4450 C.2   1 <1>  -0.0400 
  4 C       -0.7160     1.2900     0.4890 C.2   1 <1>   0.2350 
  5 C       -0.9920    -0.0620     0.2630 C.2   1 <1>  -0.1500 
  6 C       -0.9150    -2.0830     1.9260 C.3   1 <1>   0.2900 
  7 C       -0.8360     2.3520    -0.4890 C.ar  1 <1>   0.0540 
  8 N       -1.4130    -2.9420     0.8330 N.3   1 <1>  -0.8100 
  9 C       -0.2740     3.6050    -0.2900 C.ar  1 <1>  -0.1500 
 10 C       -1.5210     2.2090    -1.6880 C.ar  1 <1>  -0.1500 
 11 C       -2.4270    -3.8940     1.3020 C.3   1 <1>   0.2900 
 12 C       -0.3080    -3.6080     0.1250 C.3   1 <1>   0.0300 
 13 C       -0.4110     4.5960    -1.2430 C.ar  1 <1>   0.1600 
 14 C       -1.6020     3.2630    -2.5780 C.ar  1 <1>   0.1600 
 15 C       -3.1460    -4.5550     0.1390 C.2   1 <1>  -0.3320 
 16 N       -1.0620     4.4550    -2.3860 N.ar  1 <1>  -0.6200 
 17 N       -3.6160    -3.9500    -0.9790 N.pl3 1 <1>   0.0480 
 18 C       -3.4630    -5.8640     0.0250 C.2   1 <1>   0.0770 
 19 C       -4.1870    -4.9520    -1.6870 C.2   1 <1>   0.0360 
 20 C       -3.4780    -2.5540    -1.4520 C.3   1 <1>   0.0960 
 21 N       -4.1200    -6.1120    -1.1200 N.2   1 <1>  -0.5650 
 22 C       -4.1720    -1.5660    -0.5170 C.3   1 <1>   0.1200 
 23 O       -4.0300    -0.2880    -1.0580 O.3   1 <1>  -0.5600 
 24 C       -4.5050     0.7240    -0.2280 C.3   1 <1>   0.0400 
 25 H       -1.3150    -0.5060    -0.6570 H     1 <1>   0.1500 
 26 H       -1.6090    -2.0800     2.7490 H     1 <1>   0.0800 
 27 H        0.0320    -2.4420     2.2940 H     1 <1>   0.0800 
 28 H        0.2730     3.8060     0.6130 H     1 <1>   0.1500 
 29 H       -2.0010     1.2810    -1.9350 H     1 <1>   0.1500 
 30 H       -3.1630    -3.3730     1.8910 H     1 <1>   0.0800 
 31 H       -1.9690    -4.6430     1.9260 H     1 <1>   0.0800 
 32 H        0.3970    -2.8740    -0.2290 H     1 <1>   0.0800 
 33 H       -0.6830    -4.1500    -0.7260 H     1 <1>   0.0800 
 34 H        0.2000    -4.2980     0.7780 H     1 <1>   0.0800 
 35 H        0.0380     5.5560    -1.0570 H     1 <1>   0.1500 
 36 H       -2.1410     3.1210    -3.5000 H     1 <1>   0.1500 
 37 H       -3.2540    -6.6580     0.7220 H     1 <1>   0.1500 
 38 H       -4.6470    -4.7820    -2.6440 H     1 <1>   0.1500 
 39 H       -3.9110    -2.4770    -2.4310 H     1 <1>   0.0800 
 40 H       -2.4320    -2.3220    -1.5170 H     1 <1>   0.0800 
 41 H       -3.7110    -1.5780     0.4540 H     1 <1>   0.0800 
 42 H       -5.2210    -1.7910    -0.4390 H     1 <1>   0.0800 
 43 H       -4.3820     1.6640    -0.7370 H     1 <1>   0.0800 
 44 H       -3.9350     0.7320     0.6860 H     1 <1>   0.0800 
 45 H       -5.5490     0.5580    -0.0230 H     1 <1>   0.0800 
@<TRIPOS>BOND
  1   1   2  1   
  2   1   3  1   
  3   2   4  2   
  4   3   5  2   
  5   3   6  1   
  6   4   5  1   
  7   4   7  1   
  8   5  25  1   
  9   6   8  1   
 10   6  26  1   
 11   6  27  1   
 12   7   9  ar  
 13   7  10  ar  
 14   8  11  1   
 15   8  12  1   
 16   9  13  ar  
 17   9  28  1   
 18  10  14  ar  
 19  10  29  1   
 20  11  15  1   
 21  11  30  1   
 22  11  31  1   
 23  12  32  1   
 24  12  33  1   
 25  12  34  1   
 26  13  16  ar  
 27  13  35  1   
 28  14  16  ar  
 29  14  36  1   
 30  15  17  1   
 31  15  18  2   
 32  17  19  1   
 33  17  20  1   
 34  18  21  1   
 35  18  37  1   
 36  19  21  2   
 37  19  38  1   
 38  20  22  1   
 39  20  39  1   
 40  20  40  1   
 41  22  23  1   
 42  22  41  1   
 43  22  42  1   
 44  23  24  1   
 45  24  43  1   
 46  24  44  1   
 47  24  45  1   
@<TRIPOS>SUBSTRUCTURE
  1 ****   5 GROUP 4 **** **** 0

# MOE 2024.06 (io_trps.svl 2023.06)
