@<TRIPOS>MOLECULE
NONAME
59 62 1 0 0 
SMALL
USER_CHARGES


@<TRIPOS>ATOM
  1 N       -0.0810    -0.5850     0.1550 N.ar  1 <1>  -0.6200 
  2 C        0.4180     0.3000    -0.6990 C.ar  1 <1>   0.7710 
  3 C       -1.1840    -0.2580     0.7950 C.ar  1 <1>   0.4100 
  4 N       -0.1830     1.4760    -0.9360 N.ar  1 <1>  -0.1790 
  5 N        1.5680     0.0110    -1.3540 N.pl3 1 <1>  -0.8380 
  6 N       -1.6310    -1.1350     1.7230 N.pl3 1 <1>  -0.8690 
  7 C       -1.8830     0.9530     0.5530 C.ar  1 <1>  -0.1430 
  8 C       -1.3350     1.8400    -0.3280 C.ar  1 <1>   0.2170 
  9 C        2.3170     0.8740    -2.3150 C.3   1 <1>   0.2090 
 10 C        2.3230    -1.2530    -1.1280 C.3   1 <1>   0.2090 
 11 C       -0.8100    -2.1900     2.3970 C.3   1 <1>   0.2890 
 12 C       -3.2070     1.2050     1.2860 C.3   1 <1>  -0.0970 
 13 C       -1.8920     3.2110    -0.6970 C.3   1 <1>  -0.0970 
 14 C        3.6810     0.2150    -2.4640 C.3   1 <1>  -0.1600 
 15 C        3.4280    -1.2570    -2.1740 C.3   1 <1>  -0.1600 
 16 C       -0.5150    -3.3410     1.4100 C.3   1 <1>   0.3430 
 17 C       -1.6230    -2.7380     3.5850 C.3   1 <1>  -0.1600 
 18 N       -1.8180    -3.7820     0.8160 N.4   1 <1>  -0.9590 
 19 C       -2.3510    -4.0690     3.2760 C.3   1 <1>  -0.1600 
 20 C       -2.8410    -4.2240     1.8260 C.3   1 <1>   0.3430 
 21 C       -1.6650    -4.7150    -0.3290 C.3   1 <1>   0.4860 
 22 C       -2.9850    -4.7900    -1.0630 C.ar  1 <1>  -0.1430 
 23 C       -3.7780    -5.9230    -0.9470 C.ar  1 <1>   0.1600 
 24 C       -3.4280    -3.7430    -1.8490 C.ar  1 <1>  -0.1500 
 25 N       -4.9570    -6.0770    -1.5180 N.ar  1 <1>  -0.6200 
 26 C       -4.6540    -3.8970    -2.4610 C.ar  1 <1>  -0.1500 
 27 C       -5.3690    -5.0650    -2.2650 C.ar  1 <1>   0.1600 
 28 H        0.2850     2.0770    -1.6030 H     1 <1>   0.4570 
 29 H       -2.4290    -0.8380     2.2960 H     1 <1>   0.4000 
 30 H        2.4290     1.8820    -1.9510 H     1 <1>   0.0800 
 31 H        1.8130     0.8750    -3.2680 H     1 <1>   0.0800 
 32 H        1.6870    -2.1150    -1.2350 H     1 <1>   0.0800 
 33 H        2.7520    -1.2380    -0.1390 H     1 <1>   0.0800 
 34 H        0.1110    -1.7550     2.7500 H     1 <1>   0.0800 
 35 H       -3.8320     0.3300     1.2470 H     1 <1>   0.0800 
 36 H       -3.7760     2.0050     0.8520 H     1 <1>   0.0800 
 37 H       -3.0180     1.4470     2.3180 H     1 <1>   0.0800 
 38 H       -1.0960     3.9190    -0.8440 H     1 <1>   0.0800 
 39 H       -2.5200     3.6070     0.0800 H     1 <1>   0.0800 
 40 H       -2.4690     3.1460    -1.6030 H     1 <1>   0.0800 
 41 H        4.3550     0.6220    -1.7300 H     1 <1>   0.0800 
 42 H        4.0990     0.3730    -3.4440 H     1 <1>   0.0800 
 43 H        3.0740    -1.7520    -3.0620 H     1 <1>   0.0800 
 44 H        4.3110    -1.7620    -1.8230 H     1 <1>   0.0800 
 45 H       -0.0360    -4.1560     1.9270 H     1 <1>   0.0800 
 46 H        0.1480    -2.9830     0.6400 H     1 <1>   0.0800 
 47 H       -2.3290    -2.0000     3.9270 H     1 <1>   0.0800 
 48 H       -0.9490    -2.9170     4.4060 H     1 <1>   0.0800 
 49 H       -2.1930    -2.8990     0.4360 H     1 <1>   0.4500 
 50 H       -3.1880    -4.1840     3.9440 H     1 <1>   0.0800 
 51 H       -1.6840    -4.8870     3.4860 H     1 <1>   0.0800 
 52 H       -3.1070    -5.2560     1.6580 H     1 <1>   0.0800 
 53 H       -3.7360    -3.6370     1.6920 H     1 <1>   0.0800 
 54 H       -1.3760    -5.6930     0.0220 H     1 <1>   0.0800 
 55 H       -0.9060    -4.3540    -1.0030 H     1 <1>   0.0800 
 56 H       -3.4360    -6.7530    -0.3520 H     1 <1>   0.1500 
 57 H       -2.8560    -2.8420    -1.9940 H     1 <1>   0.1500 
 58 H       -5.0590    -3.1240    -3.0910 H     1 <1>   0.1500 
 59 H       -6.3270    -5.1750    -2.7470 H     1 <1>   0.1500 
@<TRIPOS>BOND
  1   1   2  ar  
  2   1   3  ar  
  3   2   4  ar  
  4   2   5  1   
  5   3   6  1   
  6   3   7  ar  
  7   4   8  ar  
  8   4  28  1   
  9   5   9  1   
 10   5  10  1   
 11   6  11  1   
 12   6  29  1   
 13   7   8  ar  
 14   7  12  1   
 15   8  13  1   
 16   9  14  1   
 17   9  30  1   
 18   9  31  1   
 19  10  15  1   
 20  10  32  1   
 21  10  33  1   
 22  11  16  1   
 23  11  17  1   
 24  11  34  1   
 25  12  35  1   
 26  12  36  1   
 27  12  37  1   
 28  13  38  1   
 29  13  39  1   
 30  13  40  1   
 31  14  15  1   
 32  14  41  1   
 33  14  42  1   
 34  15  43  1   
 35  15  44  1   
 36  16  18  1   
 37  16  45  1   
 38  16  46  1   
 39  17  19  1   
 40  17  47  1   
 41  17  48  1   
 42  18  20  1   
 43  18  21  1   
 44  18  49  1   
 45  19  20  1   
 46  19  50  1   
 47  19  51  1   
 48  20  52  1   
 49  20  53  1   
 50  21  22  1   
 51  21  54  1   
 52  21  55  1   
 53  22  23  ar  
 54  22  24  ar  
 55  23  25  ar  
 56  23  56  1   
 57  24  26  ar  
 58  24  57  1   
 59  25  27  ar  
 60  26  27  ar  
 61  26  58  1   
 62  27  59  1   
@<TRIPOS>SUBSTRUCTURE
  1 ****   1 GROUP 4 **** **** 0

# MOE 2024.06 (io_trps.svl 2023.06)
