@<TRIPOS>MOLECULE
NONAME
45 47 1 0 0 
SMALL
USER_CHARGES


@<TRIPOS>ATOM
  1 F        0.4130     0.7770     1.8360 F     1 <1>  -0.1900 
  2 C        1.4190     1.0530     1.0520 C.ar  1 <1>   0.1900 
  3 C        2.1250     0.0080     0.4840 C.ar  1 <1>  -0.1440 
  4 C        1.7280     2.3800     0.8150 C.ar  1 <1>  -0.1500 
  5 C        3.1730     0.3560    -0.3500 C.ar  1 <1>   0.1900 
  6 C        1.7730    -1.4360     0.7690 C.3   1 <1>   0.4860 
  7 C        2.7870     2.6920    -0.0240 C.ar  1 <1>   0.0820 
  8 F        3.8570    -0.6000    -0.9210 F     1 <1>  -0.1900 
  9 C        3.5230     1.6670    -0.6170 C.ar  1 <1>  -0.1500 
 10 N        1.2300    -2.0630    -0.4690 N.4   1 <1>  -0.9590 
 11 O        3.0410     4.0080    -0.2180 O.3   1 <1>  -0.3620 
 12 C       -0.1410    -1.5300    -0.7690 C.3   1 <1>   0.3430 
 13 C        1.0920    -3.5440    -0.2960 C.3   1 <1>   0.3430 
 14 C        4.1210     4.4450    -1.0150 C.3   1 <1>   0.0400 
 15 C       -1.1180    -2.5920    -0.2580 C.3   1 <1>   0.2000 
 16 C       -0.3750    -3.8880    -0.5720 C.3   1 <1>  -0.0800 
 17 O       -1.2360    -2.4460     1.1220 O.3   1 <1>  -0.6800 
 18 C       -0.8490    -5.1480     0.1770 C.3   1 <1>  -0.0170 
 19 C        0.0700    -6.3170    -0.1340 C.ar  1 <1>  -0.1430 
 20 C        0.9700    -6.8050     0.7940 C.ar  1 <1>  -0.1500 
 21 C        0.0580    -6.9480    -1.3620 C.ar  1 <1>  -0.1500 
 22 C        1.8030    -7.8580     0.4510 C.ar  1 <1>   0.1600 
 23 C        0.9350    -7.9930    -1.6040 C.ar  1 <1>   0.1600 
 24 N        1.8130    -8.4530    -0.7290 N.ar  1 <1>  -0.6200 
 25 H        1.1570     3.1660     1.2750 H     1 <1>   0.1500 
 26 H        1.0460    -1.4960     1.5630 H     1 <1>   0.0800 
 27 H        2.6640    -1.9560     1.0830 H     1 <1>   0.0800 
 28 H        4.3490     1.8650    -1.2730 H     1 <1>   0.1500 
 29 H        1.8820    -1.8440    -1.2360 H     1 <1>   0.4500 
 30 H       -0.3260    -0.5770    -0.3020 H     1 <1>   0.0800 
 31 H       -0.2590    -1.4290    -1.8350 H     1 <1>   0.0800 
 32 H        1.7440    -4.0840    -0.9640 H     1 <1>   0.0800 
 33 H        1.3310    -3.8180     0.7190 H     1 <1>   0.0800 
 34 H        4.1280     5.5210    -1.0040 H     1 <1>   0.0800 
 35 H        3.9790     4.0940    -2.0220 H     1 <1>   0.0800 
 36 H        5.0390     4.0710    -0.5990 H     1 <1>   0.0800 
 37 H       -2.0930    -2.5150    -0.7100 H     1 <1>   0.0800 
 38 H       -0.4640    -4.0760    -1.6280 H     1 <1>   0.0800 
 39 H       -2.0630    -2.8570     1.4550 H     1 <1>   0.4000 
 40 H       -1.8540    -5.3960    -0.1200 H     1 <1>   0.0800 
 41 H       -0.8570    -4.9820     1.2410 H     1 <1>   0.0800 
 42 H        1.0340    -6.3880     1.7830 H     1 <1>   0.1500 
 43 H       -0.6240    -6.6470    -2.1360 H     1 <1>   0.1500 
 44 H        2.4980    -8.2300     1.1850 H     1 <1>   0.1500 
 45 H        0.9140    -8.4760    -2.5660 H     1 <1>   0.1500 
@<TRIPOS>BOND
  1   1   2  1   
  2   2   3  ar  
  3   2   4  ar  
  4   3   5  ar  
  5   3   6  1   
  6   4   7  ar  
  7   4  25  1   
  8   5   8  1   
  9   5   9  ar  
 10   6  10  1   
 11   6  26  1   
 12   6  27  1   
 13   7   9  ar  
 14   7  11  1   
 15   9  28  1   
 16  10  12  1   
 17  10  13  1   
 18  10  29  1   
 19  11  14  1   
 20  12  15  1   
 21  12  30  1   
 22  12  31  1   
 23  13  16  1   
 24  13  32  1   
 25  13  33  1   
 26  14  34  1   
 27  14  35  1   
 28  14  36  1   
 29  15  16  1   
 30  15  17  1   
 31  15  37  1   
 32  16  18  1   
 33  16  38  1   
 34  17  39  1   
 35  18  19  1   
 36  18  40  1   
 37  18  41  1   
 38  19  20  ar  
 39  19  21  ar  
 40  20  22  ar  
 41  20  42  1   
 42  21  23  ar  
 43  21  43  1   
 44  22  24  ar  
 45  22  44  1   
 46  23  24  ar  
 47  23  45  1   
@<TRIPOS>SUBSTRUCTURE
  1 ****  10 GROUP 4 **** **** 0

# MOE 2024.06 (io_trps.svl 2023.06)
