@<TRIPOS>MOLECULE
NONAME
46 47 1 0 0 
SMALL
USER_CHARGES


@<TRIPOS>ATOM
  1 S        0.0200     0.4640    -0.3800 S.o2  1 <1>   1.0900 
  2 O       -0.1200    -0.8010    -1.0570 O.2   1 <1>  -0.6500 
  3 O        0.1990     1.6740    -1.1410 O.2   1 <1>  -0.6500 
  4 C       -1.5030     0.6940     0.5010 C.3   1 <1>  -0.0550 
  5 C        1.2850     0.3440     0.8710 C.3   1 <1>  -0.1350 
  6 C       -2.5940     0.7730    -0.5580 C.3   1 <1>   0.3430 
  7 N       -3.9510     0.9590     0.0410 N.4   1 <1>  -0.9590 
  8 C       -4.9920     0.6990    -0.9960 C.3   1 <1>   0.3430 
  9 C       -4.1380     2.3320     0.6020 C.3   1 <1>   0.3430 
 10 C       -6.3770     0.7480    -0.3590 C.3   1 <1>  -0.1600 
 11 C       -5.4990     2.4230     1.2830 C.3   1 <1>  -0.1600 
 12 C       -6.6370     2.1140     0.3000 C.3   1 <1>   0.2800 
 13 O       -6.5140     3.0610    -0.7360 O.3   1 <1>  -0.5600 
 14 C       -8.0100     2.1920     1.0330 C.3   1 <1>   0.2000 
 15 C       -7.6040     3.8910    -1.0360 C.3   1 <1>   0.1200 
 16 O       -8.1500     1.1400     1.9430 O.3   1 <1>  -0.6800 
 17 C       -9.2360     2.3120     0.0780 C.3   1 <1>   0.2800 
 18 C       -8.8550     3.0320    -1.2270 C.3   1 <1>  -0.1600 
 19 O      -10.1570     3.1070     0.7300 O.3   1 <1>  -0.6800 
 20 C       -9.9800     1.0030    -0.2240 C.3   1 <1>  -0.2400 
 21 H       -1.6820    -0.1400     1.1520 H     1 <1>   0.0800 
 22 H       -1.4610     1.6030     1.0680 H     1 <1>   0.0800 
 23 H        1.1020    -0.4910     1.5200 H     1 <1>   0.0800 
 24 H        1.3270     1.2410     1.4590 H     1 <1>   0.0800 
 25 H        2.2430     0.2030     0.4080 H     1 <1>   0.0800 
 26 H       -2.5750    -0.1420    -1.1320 H     1 <1>   0.0800 
 27 H       -2.3770     1.5850    -1.2360 H     1 <1>   0.0800 
 28 H       -4.1000     0.2740     0.7930 H     1 <1>   0.4500 
 29 H       -4.9320     1.4460    -1.7720 H     1 <1>   0.0800 
 30 H       -4.8380    -0.2700    -1.4440 H     1 <1>   0.0800 
 31 H       -3.3660     2.5550     1.3200 H     1 <1>   0.0800 
 32 H       -4.0890     3.0620    -0.1910 H     1 <1>   0.0800 
 33 H       -6.4660    -0.0430     0.3630 H     1 <1>   0.0800 
 34 H       -7.1090     0.5690    -1.1220 H     1 <1>   0.0800 
 35 H       -5.6310     3.4150     1.6760 H     1 <1>   0.0800 
 36 H       -5.5310     1.7420     2.1150 H     1 <1>   0.0800 
 37 H       -7.9840     3.0890     1.6290 H     1 <1>   0.0800 
 38 H       -7.7330     4.6040    -0.2380 H     1 <1>   0.0800 
 39 H       -7.3700     4.4250    -1.9410 H     1 <1>   0.0800 
 40 H       -9.0080     1.2450     2.4070 H     1 <1>   0.4000 
 41 H       -8.6420     2.3160    -2.0000 H     1 <1>   0.0800 
 42 H       -9.6690     3.6430    -1.5760 H     1 <1>   0.0800 
 43 H      -10.9890     3.1360     0.2200 H     1 <1>   0.4000 
 44 H       -9.3160     0.2830    -0.6630 H     1 <1>   0.0800 
 45 H      -10.7860     1.1740    -0.9150 H     1 <1>   0.0800 
 46 H      -10.3820     0.5730     0.6770 H     1 <1>   0.0800 
@<TRIPOS>BOND
  1   1   2  2   
  2   1   3  2   
  3   1   4  1   
  4   1   5  1   
  5   4   6  1   
  6   4  21  1   
  7   4  22  1   
  8   5  23  1   
  9   5  24  1   
 10   5  25  1   
 11   6   7  1   
 12   6  26  1   
 13   6  27  1   
 14   7   8  1   
 15   7   9  1   
 16   7  28  1   
 17   8  10  1   
 18   8  29  1   
 19   8  30  1   
 20   9  11  1   
 21   9  31  1   
 22   9  32  1   
 23  10  12  1   
 24  10  33  1   
 25  10  34  1   
 26  11  12  1   
 27  11  35  1   
 28  11  36  1   
 29  12  13  1   
 30  12  14  1   
 31  13  15  1   
 32  14  16  1   
 33  14  17  1   
 34  14  37  1   
 35  15  18  1   
 36  15  38  1   
 37  15  39  1   
 38  16  40  1   
 39  17  18  1   
 40  17  19  1   
 41  17  20  1   
 42  18  41  1   
 43  18  42  1   
 44  19  43  1   
 45  20  44  1   
 46  20  45  1   
 47  20  46  1   
@<TRIPOS>SUBSTRUCTURE
  1 ****   8 GROUP 4 **** **** 0

# MOE 2024.06 (io_trps.svl 2023.06)
