@<TRIPOS>MOLECULE
NONAME
45 47 1 0 0 
SMALL
USER_CHARGES


@<TRIPOS>ATOM
  1 S        0.8210    -0.3100    -0.5920 S.o2  1 <1>   1.3330 
  2 O        1.9340    -0.9520     0.0610 O.2   1 <1>  -0.6500 
  3 O        0.7770    -0.2040    -2.0310 O.2   1 <1>  -0.6500 
  4 N       -0.5210    -1.1880    -0.1120 N.am  1 <1>  -0.9140 
  5 C        0.5370     1.3140     0.1220 C.3   1 <1>  -0.0550 
  6 C       -0.8490    -2.3020    -0.9950 C.3   1 <1>   0.2760 
  7 C        0.4030     1.3230     1.6560 C.3   1 <1>  -0.1600 
  8 C       -2.2030    -2.8870    -0.6130 C.3   1 <1>  -0.0800 
  9 C        0.0510    -3.4980    -0.6910 C.3   1 <1>   0.1200 
 10 C        0.1930     2.7450     2.1860 C.3   1 <1>  -0.2400 
 11 C       -1.8570    -3.8690     0.5130 C.3   1 <1>   0.1200 
 12 C       -3.3000    -1.8680    -0.2440 C.3   1 <1>  -0.0160 
 13 O       -0.4700    -4.0370     0.4850 O.3   1 <1>  -0.5600 
 14 C       -4.6260    -2.5690     0.0330 C.ar  1 <1>  -0.1440 
 15 C       -5.4630    -3.0490    -1.0020 C.ar  1 <1>   0.0000 
 16 C       -5.0390    -2.7610     1.3190 C.ar  1 <1>  -0.1500 
 17 C       -6.6550    -3.7140    -0.6270 C.ar  1 <1>   0.3100 
 18 C       -5.1910    -2.9070    -2.3840 C.ar  1 <1>  -0.1500 
 19 C       -6.2430    -3.4240     1.5810 C.ar  1 <1>   0.1600 
 20 N       -7.0290    -3.8930     0.6650 N.ar  1 <1>  -0.6200 
 21 C       -7.4990    -4.2150    -1.6310 C.ar  1 <1>  -0.1500 
 22 C       -6.0370    -3.4050    -3.3370 C.ar  1 <1>  -0.1500 
 23 C       -7.2050    -4.0710    -2.9590 C.ar  1 <1>  -0.1500 
 24 H       -0.2190    -1.6460     0.7520 H     1 <1>   0.4200 
 25 H        1.3530     1.9540    -0.1550 H     1 <1>   0.0800 
 26 H       -0.3550     1.7270    -0.3060 H     1 <1>   0.0800 
 27 H       -0.8240    -2.0100    -2.0320 H     1 <1>   0.0800 
 28 H       -0.4310     0.7090     1.9500 H     1 <1>   0.0800 
 29 H        1.2950     0.9070     2.0950 H     1 <1>   0.0800 
 30 H       -2.5490    -3.4740    -1.4450 H     1 <1>   0.0800 
 31 H        1.0860    -3.2430    -0.5490 H     1 <1>   0.0800 
 32 H       -0.0330    -4.2440    -1.4630 H     1 <1>   0.0800 
 33 H       -0.7050     3.1740     1.7760 H     1 <1>   0.0800 
 34 H        1.0270     3.3720     1.9260 H     1 <1>   0.0800 
 35 H        0.1020     2.7280     3.2580 H     1 <1>   0.0800 
 36 H       -2.3290    -4.8260     0.3650 H     1 <1>   0.0800 
 37 H       -2.1180    -3.4800     1.4810 H     1 <1>   0.0800 
 38 H       -3.4210    -1.1500    -1.0350 H     1 <1>   0.0800 
 39 H       -3.0050    -1.3160     0.6310 H     1 <1>   0.0800 
 40 H       -4.4600    -2.4170     2.1560 H     1 <1>   0.1500 
 41 H       -4.3020    -2.3940    -2.6980 H     1 <1>   0.1500 
 42 H       -6.5330    -3.5550     2.6100 H     1 <1>   0.1500 
 43 H       -8.3940    -4.7200    -1.3160 H     1 <1>   0.1500 
 44 H       -5.8180    -3.2920    -4.3850 H     1 <1>   0.1500 
 45 H       -7.8620    -4.4600    -3.7170 H     1 <1>   0.1500 
@<TRIPOS>BOND
  1   1   2  2   
  2   1   3  2   
  3   1   4  am  
  4   1   5  1   
  5   4   6  1   
  6   4  24  1   
  7   5   7  1   
  8   5  25  1   
  9   5  26  1   
 10   6   8  1   
 11   6   9  1   
 12   6  27  1   
 13   7  10  1   
 14   7  28  1   
 15   7  29  1   
 16   8  11  1   
 17   8  12  1   
 18   8  30  1   
 19   9  13  1   
 20   9  31  1   
 21   9  32  1   
 22  10  33  1   
 23  10  34  1   
 24  10  35  1   
 25  11  13  1   
 26  11  36  1   
 27  11  37  1   
 28  12  14  1   
 29  12  38  1   
 30  12  39  1   
 31  14  15  ar  
 32  14  16  ar  
 33  15  17  ar  
 34  15  18  ar  
 35  16  19  ar  
 36  16  40  1   
 37  17  20  ar  
 38  17  21  ar  
 39  18  22  ar  
 40  18  41  1   
 41  19  20  ar  
 42  19  42  1   
 43  21  23  ar  
 44  21  43  1   
 45  22  23  ar  
 46  22  44  1   
 47  23  45  1   
@<TRIPOS>SUBSTRUCTURE
  1 ****  12 GROUP 4 **** **** 0

# MOE 2024.06 (io_trps.svl 2023.06)
