@<TRIPOS>MOLECULE
NONAME
54 57 1 0 0 
SMALL
USER_CHARGES


@<TRIPOS>ATOM
  1 O       -1.8090    -0.1370    -2.5590 O.2   1 <1>  -0.5700 
  2 C       -2.0210     0.3590    -1.4800 C.2   1 <1>   0.5690 
  3 N       -2.2670    -0.3950    -0.3830 N.am  1 <1>  -0.7300 
  4 C       -2.0300     1.8670    -1.3400 C.3   1 <1>  -0.0990 
  5 C       -2.2460    -1.8750    -0.3480 C.3   1 <1>   0.2200 
  6 C       -0.7990     2.3840    -0.5760 C.3   1 <1>  -0.1600 
  7 C       -3.6540    -2.4430    -0.2360 C.3   1 <1>  -0.0800 
  8 C       -1.6580    -2.3280     0.9810 C.3   1 <1>   0.1200 
  9 C       -0.7740     3.9180    -0.4770 C.3   1 <1>  -0.0800 
 10 C       -3.9350    -2.3670     1.2690 C.3   1 <1>   0.1200 
 11 C       -4.7150    -1.7890    -1.1440 C.3   1 <1>  -0.0160 
 12 O       -2.6980    -2.1990     1.9030 O.3   1 <1>  -0.5600 
 13 C        0.4690     4.4360     0.2410 C.3   1 <1>  -0.1600 
 14 C       -1.9250     4.5130     0.3320 C.3   1 <1>  -0.1600 
 15 C       -6.0550    -2.5130    -1.0320 C.ar  1 <1>  -0.1440 
 16 C        0.1030     5.8540     0.6780 C.3   1 <1>  -0.1600 
 17 C       -1.4250     5.8820     0.8010 C.3   1 <1>  -0.1600 
 18 C       -7.1100    -2.0910    -0.1850 C.ar  1 <1>   0.0000 
 19 C       -6.2590    -3.6360    -1.7780 C.ar  1 <1>  -0.1500 
 20 C       -8.2850    -2.8830    -0.1580 C.ar  1 <1>   0.3100 
 21 C       -7.0800    -0.9350     0.6320 C.ar  1 <1>  -0.1500 
 22 C       -7.4650    -4.3400    -1.6850 C.ar  1 <1>   0.1600 
 23 N       -8.4460    -4.0000    -0.9120 N.ar  1 <1>  -0.6200 
 24 C       -9.3440    -2.5060     0.6830 C.ar  1 <1>  -0.1500 
 25 C       -8.1310    -0.5940     1.4390 C.ar  1 <1>  -0.1500 
 26 C       -9.2780    -1.3900     1.4700 C.ar  1 <1>  -0.1500 
 27 H       -2.4410     0.0420     0.5250 H     1 <1>   0.3700 
 28 H       -2.0500     2.2990    -2.3250 H     1 <1>   0.0800 
 29 H       -2.9330     2.1550    -0.8350 H     1 <1>   0.0800 
 30 H       -1.7030    -2.2690    -1.1910 H     1 <1>   0.0800 
 31 H        0.0880     2.0550    -1.0910 H     1 <1>   0.0800 
 32 H       -0.7790     1.9580     0.4120 H     1 <1>   0.0800 
 33 H       -3.6010    -3.4870    -0.4930 H     1 <1>   0.0800 
 34 H       -0.8180    -1.7320     1.2920 H     1 <1>   0.0800 
 35 H       -1.3790    -3.3660     0.9410 H     1 <1>   0.0800 
 36 H       -0.7920     4.3440    -1.4680 H     1 <1>   0.0800 
 37 H       -4.4010    -3.2650     1.6360 H     1 <1>   0.0800 
 38 H       -4.5390    -1.5150     1.5220 H     1 <1>   0.0800 
 39 H       -4.3710    -1.8510    -2.1630 H     1 <1>   0.0800 
 40 H       -4.8220    -0.7440    -0.9290 H     1 <1>   0.0800 
 41 H        0.6620     3.8380     1.1150 H     1 <1>   0.0800 
 42 H        1.3370     4.4220    -0.3940 H     1 <1>   0.0800 
 43 H       -2.8250     4.6000    -0.2510 H     1 <1>   0.0800 
 44 H       -2.1210     3.8980     1.1940 H     1 <1>   0.0800 
 45 H        0.5820     6.1100     1.6070 H     1 <1>   0.0800 
 46 H        0.4120     6.5550    -0.0790 H     1 <1>   0.0800 
 47 H       -1.8240     6.6590     0.1710 H     1 <1>   0.0800 
 48 H       -1.7300     6.0680     1.8170 H     1 <1>   0.0800 
 49 H       -5.5070    -4.0100    -2.4480 H     1 <1>   0.1500 
 50 H       -6.2160    -0.3000     0.6250 H     1 <1>   0.1500 
 51 H       -7.5820    -5.2210    -2.2930 H     1 <1>   0.1500 
 52 H      -10.2170    -3.1320     0.6870 H     1 <1>   0.1500 
 53 H       -8.0900     0.2860     2.0570 H     1 <1>   0.1500 
 54 H      -10.0980    -1.1130     2.1100 H     1 <1>   0.1500 
@<TRIPOS>BOND
  1   1   2  2   
  2   2   3  am  
  3   2   4  1   
  4   3   5  1   
  5   3  27  1   
  6   4   6  1   
  7   4  28  1   
  8   4  29  1   
  9   5   7  1   
 10   5   8  1   
 11   5  30  1   
 12   6   9  1   
 13   6  31  1   
 14   6  32  1   
 15   7  10  1   
 16   7  11  1   
 17   7  33  1   
 18   8  12  1   
 19   8  34  1   
 20   8  35  1   
 21   9  13  1   
 22   9  14  1   
 23   9  36  1   
 24  10  12  1   
 25  10  37  1   
 26  10  38  1   
 27  11  15  1   
 28  11  39  1   
 29  11  40  1   
 30  13  16  1   
 31  13  41  1   
 32  13  42  1   
 33  14  17  1   
 34  14  43  1   
 35  14  44  1   
 36  15  18  ar  
 37  15  19  ar  
 38  16  17  1   
 39  16  45  1   
 40  16  46  1   
 41  17  47  1   
 42  17  48  1   
 43  18  20  ar  
 44  18  21  ar  
 45  19  22  ar  
 46  19  49  1   
 47  20  23  ar  
 48  20  24  ar  
 49  21  25  ar  
 50  21  50  1   
 51  22  23  ar  
 52  22  51  1   
 53  24  26  ar  
 54  24  52  1   
 55  25  26  ar  
 56  25  53  1   
 57  26  54  1   
@<TRIPOS>SUBSTRUCTURE
  1 ****  11 GROUP 4 **** **** 0

# MOE 2024.06 (io_trps.svl 2023.06)
