@<TRIPOS>MOLECULE
NONAME
56 59 1 0 0 
SMALL
USER_CHARGES


@<TRIPOS>ATOM
  1 O        0.3540    -1.0360    -1.4860 O.2   1 <1>  -0.5700 
  2 C        0.7600    -1.9220    -0.7730 C.2   1 <1>   0.5690 
  3 N        1.4780    -1.6450     0.3670 N.am  1 <1>  -0.6600 
  4 C        0.4320    -3.3290    -1.2330 C.3   1 <1>  -0.0990 
  5 C        2.0440    -2.6580     1.3200 C.3   1 <1>   0.1400 
  6 C        1.7320    -0.2250     0.7650 C.3   1 <1>   0.1400 
  7 C        0.4010    -4.3880    -0.1360 C.3   1 <1>   0.1200 
  8 C        2.6540    -3.9450     0.6950 C.3   1 <1>   0.2800 
  9 C        3.1820     0.1820     0.4660 C.3   1 <1>   0.0000 
 10 O        1.6880    -4.8260     0.1840 O.3   1 <1>  -0.5600 
 11 C        3.6400    -3.6530    -0.4640 C.3   1 <1>  -0.1600 
 12 C        3.3460    -4.7430     1.8220 C.3   1 <1>  -0.1600 
 13 C        3.4480     1.7070     0.5700 C.3   1 <1>   0.0000 
 14 C        3.5570     0.2990    -1.0360 C.3   1 <1>   0.0000 
 15 C        5.0810    -3.4860     0.0130 C.3   1 <1>   0.1400 
 16 C        4.4950    -5.6040     1.3000 C.3   1 <1>   0.1400 
 17 C        4.3950     1.5440    -0.6470 C.3   1 <1>   0.0000 
 18 N        5.5470    -4.7210     0.7120 N.am  1 <1>  -0.6600 
 19 C        6.8580    -5.1430     0.6530 C.2   1 <1>   0.7160 
 20 O        7.1320    -6.2820     0.9820 O.2   1 <1>  -0.5700 
 21 C        7.9030    -4.2650     0.1940 C.2   1 <1>  -0.0860 
 22 C        8.3100    -3.0470     0.6090 C.2   1 <1>  -0.0400 
 23 C        8.7770    -4.4960    -0.8560 C.2   1 <1>   0.1080 
 24 O        9.2940    -2.5770    -0.1190 O.3   1 <1>  -0.0190 
 25 C        7.8130    -2.2000     1.7640 C.3   1 <1>  -0.0600 
 26 N        9.5610    -3.4980    -1.0170 N.2   1 <1>  -0.4100 
 27 C        8.8130    -5.7480    -1.7070 C.3   1 <1>  -0.0590 
 28 H        1.1130    -3.6230    -2.0100 H     1 <1>   0.0800 
 29 H       -0.5480    -3.2910    -1.6720 H     1 <1>   0.0800 
 30 H        1.2910    -2.9290     2.0390 H     1 <1>   0.0800 
 31 H        2.8300    -2.1790     1.8750 H     1 <1>   0.0800 
 32 H        1.5330    -0.1090     1.8160 H     1 <1>   0.0800 
 33 H        1.0610     0.4330     0.2390 H     1 <1>   0.0800 
 34 H       -0.1310    -5.2520    -0.4970 H     1 <1>   0.0800 
 35 H       -0.1010    -4.0390     0.7490 H     1 <1>   0.0800 
 36 H        3.9130    -0.3750     1.0280 H     1 <1>   0.0000 
 37 H        3.3570    -2.7720    -1.0040 H     1 <1>   0.0800 
 38 H        3.6220    -4.4690    -1.1660 H     1 <1>   0.0800 
 39 H        2.6250    -5.3640     2.3240 H     1 <1>   0.0800 
 40 H        3.7610    -4.0810     2.5610 H     1 <1>   0.0800 
 41 H        3.9500     2.0010     1.4750 H     1 <1>   0.0000 
 42 H        2.5840     2.3090     0.3410 H     1 <1>   0.0000 
 43 H        2.7220     0.5480    -1.6680 H     1 <1>   0.0000 
 44 H        4.1490    -0.5190    -1.4060 H     1 <1>   0.0000 
 45 H        5.1430    -2.6500     0.6870 H     1 <1>   0.0800 
 46 H        5.7110    -3.2830    -0.8370 H     1 <1>   0.0800 
 47 H        4.1350    -6.2860     0.5470 H     1 <1>   0.0800 
 48 H        4.9120    -6.1830     2.1080 H     1 <1>   0.0800 
 49 H        5.4020     1.2950    -0.3600 H     1 <1>   0.0000 
 50 H        4.3340     2.3490    -1.3580 H     1 <1>   0.0000 
 51 H        7.0540    -2.7200     2.3180 H     1 <1>   0.0800 
 52 H        7.4100    -1.2750     1.3920 H     1 <1>   0.0800 
 53 H        8.6320    -1.9800     2.4260 H     1 <1>   0.0800 
 54 H        7.8570    -5.9040    -2.1720 H     1 <1>   0.0800 
 55 H        9.0470    -6.5980    -1.0910 H     1 <1>   0.0800 
 56 H        9.5630    -5.6540    -2.4710 H     1 <1>   0.0800 
@<TRIPOS>BOND
  1   1   2  2   
  2   2   3  am  
  3   2   4  1   
  4   3   5  1   
  5   3   6  1   
  6   4   7  1   
  7   4  28  1   
  8   4  29  1   
  9   5   8  1   
 10   5  30  1   
 11   5  31  1   
 12   6   9  1   
 13   6  32  1   
 14   6  33  1   
 15   7  10  1   
 16   7  34  1   
 17   7  35  1   
 18   8  10  1   
 19   8  11  1   
 20   8  12  1   
 21   9  13  1   
 22   9  14  1   
 23   9  36  1   
 24  11  15  1   
 25  11  37  1   
 26  11  38  1   
 27  12  16  1   
 28  12  39  1   
 29  12  40  1   
 30  13  17  1   
 31  13  41  1   
 32  13  42  1   
 33  14  17  1   
 34  14  43  1   
 35  14  44  1   
 36  15  18  1   
 37  15  45  1   
 38  15  46  1   
 39  16  18  1   
 40  16  47  1   
 41  16  48  1   
 42  17  49  1   
 43  17  50  1   
 44  18  19  am  
 45  19  20  2   
 46  19  21  1   
 47  21  22  2   
 48  21  23  1   
 49  22  24  1   
 50  22  25  1   
 51  23  26  2   
 52  23  27  1   
 53  24  26  1   
 54  25  51  1   
 55  25  52  1   
 56  25  53  1   
 57  27  54  1   
 58  27  55  1   
 59  27  56  1   
@<TRIPOS>SUBSTRUCTURE
  1 ****  15 GROUP 4 **** **** 0

# MOE 2024.06 (io_trps.svl 2023.06)
