@<TRIPOS>MOLECULE
NONAME
60 62 1 0 0 
SMALL
USER_CHARGES


@<TRIPOS>ATOM
  1 O       -0.0060     0.1110    -0.7420 O.2   1 <1>  -0.5700 
  2 C       -1.0360     0.5710    -0.3070 C.2   1 <1>   0.5690 
  3 N       -2.2100     0.3110    -0.9610 N.am  1 <1>  -0.6600 
  4 C       -1.0240     1.4380     0.9850 C.3   1 <1>   0.3410 
  5 C       -2.6600    -1.1170    -0.9340 C.3   1 <1>   0.3210 
  6 C       -2.4370     0.9820    -2.2810 C.3   1 <1>   0.1400 
  7 O       -1.6500     2.6990     0.7600 O.3   1 <1>  -0.3630 
  8 C       -1.8780     0.7650     2.0700 C.3   1 <1>  -0.2400 
  9 C        0.3760     1.6850     1.5850 C.3   1 <1>  -0.2400 
 10 C       -4.1220    -1.2570    -0.5160 C.2   1 <1>   0.0460 
 11 C       -3.7530     1.7790    -2.3760 C.3   1 <1>   0.3430 
 12 C       -1.2400     3.6920    -0.0750 C.ar  1 <1>   0.0820 
 13 N       -5.1250    -0.8530    -1.3280 N.2   1 <1>  -0.5650 
 14 C       -4.6200    -1.7980     0.6230 C.2   1 <1>  -0.3320 
 15 N       -3.9780     2.6930    -1.2100 N.4   1 <1>  -0.9590 
 16 C       -1.9290     4.9260     0.0560 C.ar  1 <1>   0.0000 
 17 C       -0.2670     3.5380    -1.0360 C.ar  1 <1>  -0.1500 
 18 C       -6.1990    -1.1790    -0.6850 C.2   1 <1>   0.0360 
 19 N       -5.9610    -1.7530     0.5120 N.pl3 1 <1>   0.0330 
 20 C       -3.9330    -2.4010     1.8390 C.3   1 <1>  -0.0600 
 21 C       -4.8410     2.0360    -0.1880 C.3   1 <1>   0.2630 
 22 C       -4.5410     4.0070    -1.6320 C.3   1 <1>   0.2630 
 23 C       -1.6550     5.9590    -0.8670 C.ar  1 <1>   0.0000 
 24 C       -2.8940     5.1720     1.0600 C.ar  1 <1>  -0.1500 
 25 C        0.0250     4.5790    -1.9200 C.ar  1 <1>  -0.1500 
 26 C       -0.6600     5.7580    -1.8410 C.ar  1 <1>  -0.1500 
 27 C       -2.3840     7.1630    -0.7840 C.ar  1 <1>  -0.1500 
 28 C       -3.5820     6.3530     1.1220 C.ar  1 <1>  -0.1500 
 29 C       -3.3290     7.3580     0.1840 C.ar  1 <1>  -0.1500 
 30 H       -2.0450    -1.6730    -0.2490 H     1 <1>   0.0800 
 31 H       -2.5300    -1.5660    -1.9030 H     1 <1>   0.0800 
 32 H       -2.4250     0.2480    -3.0690 H     1 <1>   0.0800 
 33 H       -1.6210     1.6540    -2.4820 H     1 <1>   0.0800 
 34 H       -2.8850     0.6180     1.7260 H     1 <1>   0.0800 
 35 H       -1.8960     1.3660     2.9620 H     1 <1>   0.0800 
 36 H       -1.4630    -0.1960     2.3180 H     1 <1>   0.0800 
 37 H        1.0440     2.1290     0.8730 H     1 <1>   0.0800 
 38 H        0.8110     0.7500     1.8880 H     1 <1>   0.0800 
 39 H        0.3100     2.3240     2.4480 H     1 <1>   0.0800 
 40 H       -4.5800     1.0960    -2.4700 H     1 <1>   0.0800 
 41 H       -3.7190     2.3590    -3.2820 H     1 <1>   0.0800 
 42 H       -3.0580     2.8530    -0.7560 H     1 <1>   0.4500 
 43 H        0.2980     2.6330    -1.1560 H     1 <1>   0.1500 
 44 H       -7.2000    -1.0240    -1.0510 H     1 <1>   0.1500 
 45 H       -6.6570    -2.1060     1.1770 H     1 <1>   0.2700 
 46 H       -2.8640    -2.3590     1.7410 H     1 <1>   0.0800 
 47 H       -4.2200    -3.4320     1.9510 H     1 <1>   0.0800 
 48 H       -4.2140    -1.8660     2.7290 H     1 <1>   0.0800 
 49 H       -5.7980     1.7820    -0.6130 H     1 <1>   0.0800 
 50 H       -4.9880     2.6910     0.6540 H     1 <1>   0.0800 
 51 H       -4.3740     1.1300     0.1590 H     1 <1>   0.0800 
 52 H       -5.4910     3.8700    -2.1220 H     1 <1>   0.0800 
 53 H       -3.8640     4.5010    -2.3100 H     1 <1>   0.0800 
 54 H       -4.6820     4.6450    -0.7740 H     1 <1>   0.0800 
 55 H       -3.0800     4.4130     1.7990 H     1 <1>   0.1500 
 56 H        0.7960     4.4380    -2.6600 H     1 <1>   0.1500 
 57 H       -0.4380     6.5600    -2.5240 H     1 <1>   0.1500 
 58 H       -2.1740     7.9410    -1.4980 H     1 <1>   0.1500 
 59 H       -4.3130     6.5310     1.8930 H     1 <1>   0.1500 
 60 H       -3.8770     8.2830     0.2450 H     1 <1>   0.1500 
@<TRIPOS>BOND
  1   1   2  2   
  2   2   3  am  
  3   2   4  1   
  4   3   5  1   
  5   3   6  1   
  6   4   7  1   
  7   4   8  1   
  8   4   9  1   
  9   5  10  1   
 10   5  30  1   
 11   5  31  1   
 12   6  11  1   
 13   6  32  1   
 14   6  33  1   
 15   7  12  1   
 16   8  34  1   
 17   8  35  1   
 18   8  36  1   
 19   9  37  1   
 20   9  38  1   
 21   9  39  1   
 22  10  13  1   
 23  10  14  2   
 24  11  15  1   
 25  11  40  1   
 26  11  41  1   
 27  12  16  ar  
 28  12  17  ar  
 29  13  18  2   
 30  14  19  1   
 31  14  20  1   
 32  15  21  1   
 33  15  22  1   
 34  15  42  1   
 35  16  23  ar  
 36  16  24  ar  
 37  17  25  ar  
 38  17  43  1   
 39  18  19  1   
 40  18  44  1   
 41  19  45  1   
 42  20  46  1   
 43  20  47  1   
 44  20  48  1   
 45  21  49  1   
 46  21  50  1   
 47  21  51  1   
 48  22  52  1   
 49  22  53  1   
 50  22  54  1   
 51  23  26  ar  
 52  23  27  ar  
 53  24  28  ar  
 54  24  55  1   
 55  25  26  ar  
 56  25  56  1   
 57  26  57  1   
 58  27  29  ar  
 59  27  58  1   
 60  28  29  ar  
 61  28  59  1   
 62  29  60  1   
@<TRIPOS>SUBSTRUCTURE
  1 ****   7 GROUP 4 **** **** 0

# MOE 2024.06 (io_trps.svl 2023.06)
