@<TRIPOS>MOLECULE
NONAME
50 51 1 0 0 
SMALL
USER_CHARGES


@<TRIPOS>ATOM
  1 S        2.0160     1.3830     1.4170 S.o2  1 <1>   1.3330 
  2 O        1.9560     2.2330     2.5850 O.2   1 <1>  -0.6500 
  3 O        0.8590     0.6000     1.0450 O.2   1 <1>  -0.6500 
  4 N        3.3080     0.3060     1.6500 N.am  1 <1>  -0.8490 
  5 C        2.5040     2.3580    -0.0060 C.3   1 <1>  -0.0550 
  6 C        2.9120    -0.8510     2.4570 C.3   1 <1>   0.1160 
  7 C        4.4890     0.9430     2.2430 C.3   1 <1>   0.1160 
  8 C        2.5850     1.5750    -1.3360 C.3   1 <1>  -0.0800 
  9 C        2.8200     2.4410    -2.5690 C.3   1 <1>   0.2200 
 10 C        3.7310     0.5570    -1.4100 C.3   1 <1>   0.1200 
 11 N        3.7980     3.5080    -2.2630 N.am  1 <1>  -0.7300 
 12 C        3.4630     1.4320    -3.5090 C.3   1 <1>   0.1200 
 13 O        4.2770     0.6480    -2.6940 O.3   1 <1>  -0.5600 
 14 C        3.4870     4.8070    -2.0300 C.2   1 <1>   0.5690 
 15 O        2.3810     5.2420    -2.2380 O.2   1 <1>  -0.5700 
 16 C        4.5520     5.7130    -1.4430 C.3   1 <1>   0.0440 
 17 C        5.0320     5.1740    -0.1010 C.ar  1 <1>  -0.1440 
 18 C        6.2780     4.5820     0.0290 C.ar  1 <1>  -0.1500 
 19 C        4.2070     5.2590     1.0070 C.ar  1 <1>  -0.1500 
 20 C        6.7060     4.0800     1.2500 C.ar  1 <1>  -0.1440 
 21 C        4.6230     4.7560     2.2260 C.ar  1 <1>  -0.1500 
 22 C        5.8720     4.1700     2.3590 C.ar  1 <1>  -0.1440 
 23 C        8.0870     3.4480     1.3440 C.3   1 <1>  -0.0970 
 24 C        6.2970     3.6530     3.7260 C.3   1 <1>  -0.0970 
 25 H        1.7890     3.1490    -0.1300 H     1 <1>   0.0800 
 26 H        3.4500     2.8150     0.1990 H     1 <1>   0.0800 
 27 H        3.7410    -1.5270     2.5740 H     1 <1>   0.0800 
 28 H        2.1100    -1.3820     1.9710 H     1 <1>   0.0800 
 29 H        2.5740    -0.5300     3.4290 H     1 <1>   0.0800 
 30 H        5.2930     0.2310     2.3240 H     1 <1>   0.0800 
 31 H        4.2600     1.3270     3.2240 H     1 <1>   0.0800 
 32 H        4.8240     1.7560     1.6230 H     1 <1>   0.0800 
 33 H        1.6620     1.0400    -1.4770 H     1 <1>   0.0800 
 34 H        1.9110     2.8570    -2.9700 H     1 <1>   0.0800 
 35 H        3.3810    -0.4490    -1.2470 H     1 <1>   0.0800 
 36 H        4.5170     0.7840    -0.7120 H     1 <1>   0.0800 
 37 H        4.7300     3.1560    -2.0290 H     1 <1>   0.3700 
 38 H        4.0550     1.8970    -4.2780 H     1 <1>   0.0800 
 39 H        2.7190     0.7920    -3.9500 H     1 <1>   0.0800 
 40 H        5.3670     5.7890    -2.1380 H     1 <1>   0.0800 
 41 H        4.1400     6.6970    -1.3080 H     1 <1>   0.0800 
 42 H        6.9260     4.5140    -0.8270 H     1 <1>   0.1500 
 43 H        3.2340     5.7140     0.9270 H     1 <1>   0.1500 
 44 H        3.9620     4.8290     3.0720 H     1 <1>   0.1500 
 45 H        8.6240     3.5500     0.4180 H     1 <1>   0.0800 
 46 H        7.9990     2.4020     1.5710 H     1 <1>   0.0800 
 47 H        8.6610     3.9290     2.1160 H     1 <1>   0.0800 
 48 H        5.4700     3.6620     4.4140 H     1 <1>   0.0800 
 49 H        7.0750     4.2790     4.1240 H     1 <1>   0.0800 
 50 H        6.6620     2.6450     3.6530 H     1 <1>   0.0800 
@<TRIPOS>BOND
  1   1   2  2   
  2   1   3  2   
  3   1   4  am  
  4   1   5  1   
  5   4   6  1   
  6   4   7  1   
  7   5   8  1   
  8   5  25  1   
  9   5  26  1   
 10   6  27  1   
 11   6  28  1   
 12   6  29  1   
 13   7  30  1   
 14   7  31  1   
 15   7  32  1   
 16   8   9  1   
 17   8  10  1   
 18   8  33  1   
 19   9  11  1   
 20   9  12  1   
 21   9  34  1   
 22  10  13  1   
 23  10  35  1   
 24  10  36  1   
 25  11  14  am  
 26  11  37  1   
 27  12  13  1   
 28  12  38  1   
 29  12  39  1   
 30  14  15  2   
 31  14  16  1   
 32  16  17  1   
 33  16  40  1   
 34  16  41  1   
 35  17  18  ar  
 36  17  19  ar  
 37  18  20  ar  
 38  18  42  1   
 39  19  21  ar  
 40  19  43  1   
 41  20  22  ar  
 42  20  23  1   
 43  21  22  ar  
 44  21  44  1   
 45  22  24  1   
 46  23  45  1   
 47  23  46  1   
 48  23  47  1   
 49  24  48  1   
 50  24  49  1   
 51  24  50  1   
@<TRIPOS>SUBSTRUCTURE
  1 ****   5 GROUP 4 **** **** 0

# MOE 2024.06 (io_trps.svl 2023.06)
