@<TRIPOS>MOLECULE
NONAME
54 57 1 0 0 
SMALL
USER_CHARGES


@<TRIPOS>ATOM
  1 F       -0.4080    -2.6340    -1.6770 F     1 <1>  -0.1900 
  2 C       -0.9000    -1.4770    -1.3270 C.ar  1 <1>   0.1900 
  3 C       -2.0040    -1.4450    -0.4960 C.ar  1 <1>  -0.1500 
  4 C       -0.2990    -0.3270    -1.8010 C.ar  1 <1>  -0.1500 
  5 C       -2.5280    -0.2170    -0.1200 C.ar  1 <1>  -0.1440 
  6 C       -0.8270     0.8970    -1.4270 C.ar  1 <1>  -0.1500 
  7 C       -1.9340     0.9480    -0.5920 C.ar  1 <1>  -0.1500 
  8 C       -3.7370    -0.1540     0.8010 C.3   1 <1>   0.2640 
  9 O       -4.8200    -0.8110     0.1820 O.3   1 <1>  -0.3630 
 10 C       -6.0390    -0.8770     0.7710 C.ar  1 <1>   0.0830 
 11 C       -7.0560    -1.4570     0.0330 C.ar  1 <1>  -0.1500 
 12 C       -6.3070    -0.4000     2.0510 C.ar  1 <1>  -0.1500 
 13 C       -8.3470    -1.5850     0.5370 C.ar  1 <1>   0.0860 
 14 C       -7.5860    -0.5060     2.5680 C.ar  1 <1>  -0.1500 
 15 C       -9.3980    -2.2070    -0.2490 C.2   1 <1>   0.5440 
 16 C       -8.5910    -1.0890     1.8180 C.ar  1 <1>  -0.1500 
 17 O       -9.5930    -1.8180    -1.3850 O.2   1 <1>  -0.5700 
 18 N      -10.1770    -3.2320     0.2550 N.am  1 <1>  -0.6600 
 19 C      -11.4220    -3.6330    -0.4680 C.3   1 <1>   0.2200 
 20 C       -9.7300    -4.0590     1.4170 C.3   1 <1>   0.0600 
 21 C      -11.2060    -4.8500    -1.3600 C.3   1 <1>  -0.1600 
 22 C      -12.5920    -4.0240     0.4330 C.3   1 <1>  -0.1600 
 23 C      -12.6210    -5.3760    -1.6370 C.3   1 <1>  -0.0800 
 24 C      -13.5060    -4.8610    -0.4730 C.3   1 <1>  -0.0800 
 25 C      -12.6530    -6.8970    -1.8840 C.3   1 <1>   0.1400 
 26 C      -14.2650    -5.9680     0.2870 C.3   1 <1>  -0.0990 
 27 N      -14.0250    -7.4050    -1.6820 N.am  1 <1>  -0.7300 
 28 C      -14.8240    -6.9940    -0.6760 C.2   1 <1>   0.5690 
 29 O      -15.9370    -7.4300    -0.5350 O.2   1 <1>  -0.5700 
 30 H       -2.4440    -2.3660    -0.1560 H     1 <1>   0.1500 
 31 H        0.5580    -0.3930    -2.4470 H     1 <1>   0.1500 
 32 H       -0.3790     1.8080    -1.7840 H     1 <1>   0.1500 
 33 H       -2.3340     1.9090    -0.3140 H     1 <1>   0.1500 
 34 H       -4.0240     0.8660     0.9880 H     1 <1>   0.0800 
 35 H       -3.5210    -0.6540     1.7290 H     1 <1>   0.0800 
 36 H       -6.8440    -1.8160    -0.9590 H     1 <1>   0.1500 
 37 H       -5.5450     0.0540     2.6550 H     1 <1>   0.1500 
 38 H       -7.8000    -0.1320     3.5550 H     1 <1>   0.1500 
 39 H       -9.5860    -1.1600     2.2220 H     1 <1>   0.1500 
 40 H      -11.7530    -2.8180    -1.0910 H     1 <1>   0.0800 
 41 H       -9.9270    -5.1000     1.2340 H     1 <1>   0.0800 
 42 H      -10.2560    -3.7530     2.3040 H     1 <1>   0.0800 
 43 H       -8.6730    -3.9460     1.5810 H     1 <1>   0.0800 
 44 H      -10.6980    -4.5740    -2.2680 H     1 <1>   0.0800 
 45 H      -10.6300    -5.5900    -0.8370 H     1 <1>   0.0800 
 46 H      -12.2580    -4.6270     1.2550 H     1 <1>   0.0800 
 47 H      -13.1000    -3.1530     0.8090 H     1 <1>   0.0800 
 48 H      -12.9720    -4.9000    -2.5380 H     1 <1>   0.0800 
 49 H      -14.2420    -4.2040    -0.9070 H     1 <1>   0.0800 
 50 H      -12.0000    -7.4020    -1.1920 H     1 <1>   0.0800 
 51 H      -12.3240    -7.1150    -2.8860 H     1 <1>   0.0800 
 52 H      -15.0650    -5.5410     0.8630 H     1 <1>   0.0800 
 53 H      -13.6050    -6.4860     0.9580 H     1 <1>   0.0800 
 54 H      -14.3900    -8.1190    -2.3160 H     1 <1>   0.3700 
@<TRIPOS>BOND
  1   1   2  1   
  2   2   3  ar  
  3   2   4  ar  
  4   3   5  ar  
  5   3  30  1   
  6   4   6  ar  
  7   4  31  1   
  8   5   7  ar  
  9   5   8  1   
 10   6   7  ar  
 11   6  32  1   
 12   7  33  1   
 13   8   9  1   
 14   8  34  1   
 15   8  35  1   
 16   9  10  1   
 17  10  11  ar  
 18  10  12  ar  
 19  11  13  ar  
 20  11  36  1   
 21  12  14  ar  
 22  12  37  1   
 23  13  15  1   
 24  13  16  ar  
 25  14  16  ar  
 26  14  38  1   
 27  15  17  2   
 28  15  18  am  
 29  16  39  1   
 30  18  19  1   
 31  18  20  1   
 32  19  21  1   
 33  19  22  1   
 34  19  40  1   
 35  20  41  1   
 36  20  42  1   
 37  20  43  1   
 38  21  23  1   
 39  21  44  1   
 40  21  45  1   
 41  22  24  1   
 42  22  46  1   
 43  22  47  1   
 44  23  24  1   
 45  23  25  1   
 46  23  48  1   
 47  24  26  1   
 48  24  49  1   
 49  25  27  1   
 50  25  50  1   
 51  25  51  1   
 52  26  28  1   
 53  26  52  1   
 54  26  53  1   
 55  27  28  am  
 56  27  54  1   
 57  28  29  2   
@<TRIPOS>SUBSTRUCTURE
  1 ****  13 GROUP 4 **** **** 0

# MOE 2024.06 (io_trps.svl 2023.06)
