@<TRIPOS>MOLECULE
NONAME
49 51 1 0 0 
SMALL
USER_CHARGES


@<TRIPOS>ATOM
  1 O        0.9480    -0.5400    -0.2760 O.2   1 <1>  -0.5700 
  2 C        0.6090    -1.7130    -0.3320 C.2   1 <1>   0.6160 
  3 N        0.9500    -2.6010     0.6770 N.am  1 <1>  -0.4690 
  4 C       -0.1460    -2.2170    -1.4260 C.2   1 <1>  -0.1360 
  5 C        0.5440    -3.9140     0.6160 C.2   1 <1>  -0.0410 
  6 C        1.7680    -2.1180     1.8190 C.3   1 <1>   0.0600 
  7 C       -0.5400    -3.5160    -1.4770 C.2   1 <1>  -0.1500 
  8 C       -0.2090    -4.4160    -0.4170 C.2   1 <1>   0.0140 
  9 C       -0.6420    -5.7950    -0.4450 C.2   1 <1>   0.6160 
 10 O       -0.0220    -6.6550     0.1590 O.2   1 <1>  -0.5700 
 11 N       -1.7830    -6.2000    -1.1060 N.am  1 <1>  -0.6600 
 12 C       -1.9310    -7.6330    -1.4760 C.3   1 <1>   0.1400 
 13 C       -3.0780    -5.5110    -0.8550 C.3   1 <1>   0.1400 
 14 C       -2.6270    -8.3830    -0.3170 C.3   1 <1>   0.4230 
 15 C       -3.7950    -6.2340     0.2940 C.3   1 <1>  -0.1600 
 16 N       -2.6570    -9.8960    -0.4890 N.4   1 <1>  -0.9590 
 17 C       -4.0100    -7.7550     0.0380 C.3   1 <1>   0.0000 
 18 C       -3.6630   -10.5900     0.3790 C.3   1 <1>   0.3430 
 19 C       -2.7730   -10.3870    -1.9010 C.3   1 <1>   0.2630 
 20 C       -4.5510    -8.4080     1.3440 C.3   1 <1>  -0.1600 
 21 C       -5.0130    -7.9700    -1.1320 C.3   1 <1>   0.1200 
 22 C       -3.9390    -9.7880     1.6490 C.3   1 <1>  -0.1600 
 23 O       -6.1730    -7.2360    -0.9540 O.3   1 <1>  -0.6800 
 24 H       -0.3780    -1.5120    -2.2010 H     1 <1>   0.1500 
 25 H        0.8400    -4.5610     1.4270 H     1 <1>   0.1500 
 26 H        1.9560    -2.9140     2.5160 H     1 <1>   0.0800 
 27 H        1.2460    -1.3220     2.3220 H     1 <1>   0.0800 
 28 H        2.7070    -1.7400     1.4520 H     1 <1>   0.0800 
 29 H       -1.1010    -3.8920    -2.3160 H     1 <1>   0.1500 
 30 H       -2.4920    -7.6980    -2.3890 H     1 <1>   0.0800 
 31 H       -0.9550    -8.0550    -1.6460 H     1 <1>   0.0800 
 32 H       -2.9130    -4.4820    -0.5800 H     1 <1>   0.0800 
 33 H       -3.6800    -5.5220    -1.7480 H     1 <1>   0.0800 
 34 H       -2.0050    -8.1940     0.5430 H     1 <1>   0.0800 
 35 H       -3.1990    -6.0940     1.1800 H     1 <1>   0.0800 
 36 H       -4.7340    -5.7420     0.4790 H     1 <1>   0.0800 
 37 H       -1.7330   -10.2010    -0.1450 H     1 <1>   0.4500 
 38 H       -4.5900   -10.7060    -0.1590 H     1 <1>   0.0800 
 39 H       -3.3050   -11.5740     0.6380 H     1 <1>   0.0800 
 40 H       -3.7020   -10.0610    -2.3400 H     1 <1>   0.0800 
 41 H       -2.7430   -11.4640    -1.9250 H     1 <1>   0.0800 
 42 H       -1.9570   -10.0150    -2.5000 H     1 <1>   0.0800 
 43 H       -4.3540    -7.7760     2.1950 H     1 <1>   0.0800 
 44 H       -5.6220    -8.5050     1.2910 H     1 <1>   0.0800 
 45 H       -5.2970    -9.0030    -1.2240 H     1 <1>   0.0800 
 46 H       -4.5980    -7.6490    -2.0700 H     1 <1>   0.0800 
 47 H       -4.6150   -10.3420     2.2790 H     1 <1>   0.0800 
 48 H       -3.0210    -9.6740     2.2000 H     1 <1>   0.0800 
 49 H       -6.6690    -7.5120    -0.1580 H     1 <1>   0.4000 
@<TRIPOS>BOND
  1   1   2  2   
  2   2   3  am  
  3   2   4  1   
  4   3   5  1   
  5   3   6  1   
  6   4   7  2   
  7   4  24  1   
  8   5   8  2   
  9   5  25  1   
 10   6  26  1   
 11   6  27  1   
 12   6  28  1   
 13   7   8  1   
 14   7  29  1   
 15   8   9  1   
 16   9  10  2   
 17   9  11  am  
 18  11  12  1   
 19  11  13  1   
 20  12  14  1   
 21  12  30  1   
 22  12  31  1   
 23  13  15  1   
 24  13  32  1   
 25  13  33  1   
 26  14  16  1   
 27  14  17  1   
 28  14  34  1   
 29  15  17  1   
 30  15  35  1   
 31  15  36  1   
 32  16  18  1   
 33  16  19  1   
 34  16  37  1   
 35  17  20  1   
 36  17  21  1   
 37  18  22  1   
 38  18  38  1   
 39  18  39  1   
 40  19  40  1   
 41  19  41  1   
 42  19  42  1   
 43  20  22  1   
 44  20  43  1   
 45  20  44  1   
 46  21  23  1   
 47  21  45  1   
 48  21  46  1   
 49  22  47  1   
 50  22  48  1   
 51  23  49  1   
@<TRIPOS>SUBSTRUCTURE
  1 ****  11 GROUP 4 **** **** 0

# MOE 2024.06 (io_trps.svl 2023.06)
