@<TRIPOS>MOLECULE
NONAME
51 53 1 0 0 
SMALL
USER_CHARGES


@<TRIPOS>ATOM
  1 O       -0.1060    -3.5940    -0.8070 O.3   1 <1>  -0.3630 
  2 C       -1.3720    -3.2790    -0.4760 C.ar  1 <1>   0.0830 
  3 C        0.9160    -2.8080    -0.2340 C.3   1 <1>   0.0400 
  4 C       -2.0220    -3.9270     0.5650 C.ar  1 <1>  -0.1440 
  5 C       -2.0710    -2.3250    -1.1960 C.ar  1 <1>  -0.1440 
  6 C       -3.3450    -3.5810     0.8220 C.ar  1 <1>   0.1660 
  7 C       -1.3080    -5.0040     1.3880 C.3   1 <1>  -0.0960 
  8 C       -3.3750    -2.0550    -0.8260 C.ar  1 <1>   0.1600 
  9 C       -1.4440    -1.5820    -2.3710 C.3   1 <1>  -0.0970 
 10 N       -4.0260    -2.6600     0.1550 N.ar  1 <1>  -0.6200 
 11 C       -4.1460    -4.3240     1.8870 C.3   1 <1>   0.4860 
 12 N       -4.8890    -5.4230     1.2120 N.4   1 <1>  -0.9590 
 13 C       -6.1070    -5.0040     0.4650 C.3   1 <1>   0.3430 
 14 C       -5.2130    -6.6630     1.9370 C.3   1 <1>   0.3430 
 15 C       -6.9150    -6.2970     0.2680 C.3   1 <1>   0.2000 
 16 C       -6.1190    -7.4160     0.9610 C.3   1 <1>  -0.0800 
 17 O       -8.1520    -6.1760     0.8920 O.3   1 <1>  -0.6800 
 18 C       -5.3190    -8.2920    -0.0400 C.3   1 <1>   0.0210 
 19 C       -4.0690    -7.6530    -0.6370 C.2   1 <1>   0.1080 
 20 N       -4.0690    -6.5160    -1.2630 N.2   1 <1>  -0.7070 
 21 C       -2.7950    -8.2070    -0.5740 C.2   1 <1>  -0.1500 
 22 N       -2.7860    -6.3230    -1.6440 N.pl3 1 <1>   0.3000 
 23 C       -1.9980    -7.3310    -1.2230 C.2   1 <1>  -0.3320 
 24 C       -0.5050    -7.3960    -1.4920 C.3   1 <1>  -0.0600 
 25 H        1.8630    -3.1800    -0.5830 H     1 <1>   0.0800 
 26 H        0.8600    -2.8870     0.8370 H     1 <1>   0.0800 
 27 H        0.7890    -1.7850    -0.5390 H     1 <1>   0.0800 
 28 H       -1.8670    -5.9210     1.3800 H     1 <1>   0.0800 
 29 H       -1.1860    -4.6710     2.4040 H     1 <1>   0.0800 
 30 H       -0.3310    -5.2250     1.0000 H     1 <1>   0.0800 
 31 H       -3.9210    -1.3030    -1.3710 H     1 <1>   0.1500 
 32 H       -2.2020    -1.1860    -3.0220 H     1 <1>   0.0800 
 33 H       -0.8230    -2.2450    -2.9460 H     1 <1>   0.0800 
 34 H       -0.8410    -0.7680    -2.0110 H     1 <1>   0.0800 
 35 H       -4.8270    -3.6440     2.3690 H     1 <1>   0.0800 
 36 H       -3.4760    -4.7270     2.6250 H     1 <1>   0.0800 
 37 H       -4.2710    -5.7250     0.4250 H     1 <1>   0.4500 
 38 H       -6.6790    -4.2840     1.0230 H     1 <1>   0.0800 
 39 H       -5.8250    -4.5830    -0.4880 H     1 <1>   0.0800 
 40 H       -4.3270    -7.2290     2.1750 H     1 <1>   0.0800 
 41 H       -5.7540    -6.4310     2.8400 H     1 <1>   0.0800 
 42 H       -7.0910    -6.4930    -0.7770 H     1 <1>   0.0800 
 43 H       -6.7830    -8.0710     1.4990 H     1 <1>   0.0800 
 44 H       -8.0840    -6.0180     1.8530 H     1 <1>   0.4000 
 45 H       -5.9640    -8.5910    -0.8480 H     1 <1>   0.0800 
 46 H       -5.0190    -9.1940     0.4630 H     1 <1>   0.0800 
 47 H       -2.5220    -9.1410    -0.1140 H     1 <1>   0.1500 
 48 H       -2.4730    -5.4980    -2.1770 H     1 <1>   0.2700 
 49 H       -0.0760    -8.2580    -1.0120 H     1 <1>   0.0800 
 50 H       -0.0150    -6.5140    -1.1190 H     1 <1>   0.0800 
 51 H       -0.3230    -7.4700    -2.5500 H     1 <1>   0.0800 
@<TRIPOS>BOND
  1   1   2  1   
  2   1   3  1   
  3   2   4  ar  
  4   2   5  ar  
  5   3  25  1   
  6   3  26  1   
  7   3  27  1   
  8   4   6  ar  
  9   4   7  1   
 10   5   8  ar  
 11   5   9  1   
 12   6  10  ar  
 13   6  11  1   
 14   7  28  1   
 15   7  29  1   
 16   7  30  1   
 17   8  10  ar  
 18   8  31  1   
 19   9  32  1   
 20   9  33  1   
 21   9  34  1   
 22  11  12  1   
 23  11  35  1   
 24  11  36  1   
 25  12  13  1   
 26  12  14  1   
 27  12  37  1   
 28  13  15  1   
 29  13  38  1   
 30  13  39  1   
 31  14  16  1   
 32  14  40  1   
 33  14  41  1   
 34  15  16  1   
 35  15  17  1   
 36  15  42  1   
 37  16  18  1   
 38  16  43  1   
 39  17  44  1   
 40  18  19  1   
 41  18  45  1   
 42  18  46  1   
 43  19  20  2   
 44  19  21  1   
 45  20  22  1   
 46  21  23  2   
 47  21  47  1   
 48  22  23  1   
 49  22  48  1   
 50  23  24  1   
 51  24  49  1   
 52  24  50  1   
 53  24  51  1   
@<TRIPOS>SUBSTRUCTURE
  1 ****   6 GROUP 4 **** **** 0

# MOE 2024.06 (io_trps.svl 2023.06)
