@<TRIPOS>MOLECULE
NONAME
54 58 1 0 0 
SMALL
USER_CHARGES


@<TRIPOS>ATOM
  1 O        0.0110    -1.7560    -0.7670 O.3   1 <1>  -0.0190 
  2 N       -1.2680    -1.5320    -0.7690 N.2   1 <1>  -0.4100 
  3 C        0.2380    -2.2940     0.4070 C.2   1 <1>   0.2980 
  4 C       -1.7180    -1.9310     0.3550 C.2   1 <1>   0.3350 
  5 N       -0.7890    -2.4360     1.1490 N.2   1 <1>  -0.5650 
  6 C        1.6580    -2.6920     0.7710 C.3   1 <1>   0.0200 
  7 C       -3.1850    -1.8550     0.7800 C.3   1 <1>   0.5240 
  8 C        2.5750    -1.4710     0.9210 C.3   1 <1>  -0.2400 
  9 N       -4.1040    -1.7680    -0.4080 N.4   1 <1>  -0.9590 
 10 C       -5.4740    -1.2960    -0.0190 C.3   1 <1>   0.3430 
 11 C       -4.1480    -3.0650    -1.1470 C.3   1 <1>   0.3430 
 12 C       -6.3890    -1.1110    -1.2420 C.3   1 <1>   0.1430 
 13 C       -5.0020    -2.9130    -2.4080 C.3   1 <1>  -0.1600 
 14 C       -7.7790    -0.7800    -0.7510 C.ar  1 <1>   0.1670 
 15 C       -6.4180    -2.3990    -2.0910 C.3   1 <1>  -0.1600 
 16 C       -6.0310     0.1390    -2.0920 C.3   1 <1>  -0.1600 
 17 N       -8.3950    -1.4200     0.2100 N.ar  1 <1>  -0.6200 
 18 C       -8.3150     0.2750    -1.4190 C.ar  1 <1>  -0.1440 
 19 C       -7.3650     0.8200    -2.4560 C.3   1 <1>  -0.0170 
 20 C       -9.6320    -0.9810     0.4930 C.ar  1 <1>   0.6200 
 21 C       -9.5780     0.6720    -1.0640 C.ar  1 <1>   0.1600 
 22 N      -10.2380     0.0500    -0.1140 N.ar  1 <1>  -0.6200 
 23 C      -10.3720    -1.6760     1.5360 C.ar  1 <1>   0.0000 
 24 C       -9.7270    -2.2690     2.6260 C.ar  1 <1>  -0.1500 
 25 C      -11.7650    -1.7830     1.4950 C.ar  1 <1>  -0.1500 
 26 C      -10.4300    -2.9320     3.6160 C.ar  1 <1>  -0.1500 
 27 C      -12.4750    -2.4430     2.4810 C.ar  1 <1>  -0.1500 
 28 C      -11.8080    -3.0210     3.5450 C.ar  1 <1>  -0.1500 
 29 H        2.0450    -3.3440     0.0080 H     1 <1>   0.0800 
 30 H        1.6420    -3.2390     1.6980 H     1 <1>   0.0800 
 31 H       -3.3030    -0.9850     1.4020 H     1 <1>   0.0800 
 32 H       -3.4220    -2.7250     1.3690 H     1 <1>   0.0800 
 33 H        2.6300    -0.9250    -0.0050 H     1 <1>   0.0800 
 34 H        3.5670    -1.7850     1.1930 H     1 <1>   0.0800 
 35 H        2.2000    -0.8160     1.6880 H     1 <1>   0.0800 
 36 H       -3.6710    -1.0810    -1.0430 H     1 <1>   0.4500 
 37 H       -5.4120    -0.3610     0.5150 H     1 <1>   0.0800 
 38 H       -5.9320    -2.0200     0.6360 H     1 <1>   0.0800 
 39 H       -4.5730    -3.8310    -0.5180 H     1 <1>   0.0800 
 40 H       -3.1500    -3.3680    -1.4260 H     1 <1>   0.0800 
 41 H       -5.0770    -3.8720    -2.8920 H     1 <1>   0.0800 
 42 H       -4.5050    -2.2520    -3.0970 H     1 <1>   0.0800 
 43 H       -6.9640    -2.2300    -3.0040 H     1 <1>   0.0800 
 44 H       -6.9480    -3.1630    -1.5450 H     1 <1>   0.0800 
 45 H       -5.4660    -0.0980    -2.9770 H     1 <1>   0.0800 
 46 H       -5.4590     0.8310    -1.4990 H     1 <1>   0.0800 
 47 H       -7.6930     0.5220    -3.4380 H     1 <1>   0.0800 
 48 H       -7.2920     1.8940    -2.4070 H     1 <1>   0.0800 
 49 H      -10.0530     1.5020    -1.5590 H     1 <1>   0.1500 
 50 H       -8.6570    -2.2080     2.7010 H     1 <1>   0.1500 
 51 H      -12.3020    -1.3390     0.6740 H     1 <1>   0.1500 
 52 H       -9.9080    -3.3790     4.4430 H     1 <1>   0.1500 
 53 H      -13.5480    -2.5080     2.4200 H     1 <1>   0.1500 
 54 H      -12.3580    -3.5360     4.3130 H     1 <1>   0.1500 
@<TRIPOS>BOND
  1   1   2  1   
  2   1   3  1   
  3   2   4  2   
  4   3   5  2   
  5   3   6  1   
  6   4   5  1   
  7   4   7  1   
  8   6   8  1   
  9   6  29  1   
 10   6  30  1   
 11   7   9  1   
 12   7  31  1   
 13   7  32  1   
 14   8  33  1   
 15   8  34  1   
 16   8  35  1   
 17   9  10  1   
 18   9  11  1   
 19   9  36  1   
 20  10  12  1   
 21  10  37  1   
 22  10  38  1   
 23  11  13  1   
 24  11  39  1   
 25  11  40  1   
 26  12  14  1   
 27  12  15  1   
 28  12  16  1   
 29  13  15  1   
 30  13  41  1   
 31  13  42  1   
 32  14  17  ar  
 33  14  18  ar  
 34  15  43  1   
 35  15  44  1   
 36  16  19  1   
 37  16  45  1   
 38  16  46  1   
 39  17  20  ar  
 40  18  19  1   
 41  18  21  ar  
 42  19  47  1   
 43  19  48  1   
 44  20  22  ar  
 45  20  23  1   
 46  21  22  ar  
 47  21  49  1   
 48  23  24  ar  
 49  23  25  ar  
 50  24  26  ar  
 51  24  50  1   
 52  25  27  ar  
 53  25  51  1   
 54  26  28  ar  
 55  26  52  1   
 56  27  28  ar  
 57  27  53  1   
 58  28  54  1   
@<TRIPOS>SUBSTRUCTURE
  1 ****  10 GROUP 4 **** **** 0

# MOE 2024.06 (io_trps.svl 2023.06)
