@<TRIPOS>MOLECULE
NONAME
51 54 1 0 0 
SMALL
USER_CHARGES


@<TRIPOS>ATOM
  1 O        0.2530    -0.2420    -0.2610 O.3   1 <1>  -0.6800 
  2 C        1.5680    -0.3240    -0.6980 C.3   1 <1>   0.2000 
  3 C        2.2770    -1.5060    -0.0520 C.3   1 <1>  -0.0800 
  4 C        2.3750     0.8910    -0.2460 C.3   1 <1>   0.2090 
  5 C        3.7490    -1.0980    -0.1070 C.3   1 <1>   0.2090 
  6 C        1.9880    -2.8530    -0.7350 C.3   1 <1>  -0.0170 
  7 N        3.7720     0.3980    -0.0540 N.pl3 1 <1>  -0.8380 
  8 C        2.8510    -3.9580    -0.1530 C.ar  1 <1>   0.1660 
  9 C        4.9310     1.1070    -0.0420 C.ar  1 <1>   0.4100 
 10 N        3.9620    -4.2320    -0.7660 N.ar  1 <1>  -0.6200 
 11 C        2.4250    -4.6120     1.0140 C.ar  1 <1>  -0.1500 
 12 N        6.0220     0.3750    -0.3140 N.ar  1 <1>  -0.6200 
 13 C        5.0630     2.4970     0.2090 C.ar  1 <1>  -0.1430 
 14 C        4.7480    -5.2080    -0.2450 C.ar  1 <1>   0.3100 
 15 C        3.1960    -5.5920     1.5610 C.ar  1 <1>  -0.1500 
 16 C        7.1690     0.9560    -0.4240 C.ar  1 <1>   0.5280 
 17 C        6.3000     3.0750     0.0510 C.ar  1 <1>   0.2180 
 18 C        3.8750     3.3380     0.6930 C.3   1 <1>  -0.0970 
 19 C        4.4070    -5.9170     0.9280 C.ar  1 <1>   0.0000 
 20 C        5.9520    -5.5270    -0.8920 C.ar  1 <1>  -0.1500 
 21 N        7.3380     2.2780    -0.2680 N.ar  1 <1>  -0.1790 
 22 C        8.3770     0.1010    -0.7460 C.3   1 <1>  -0.0970 
 23 C        6.6080     4.5580     0.2220 C.3   1 <1>  -0.0970 
 24 C        5.2850    -6.9080     1.4090 C.ar  1 <1>  -0.1500 
 25 C        6.7920    -6.4950    -0.4090 C.ar  1 <1>  -0.1500 
 26 C        6.4540    -7.1920     0.7550 C.ar  1 <1>  -0.1500 
 27 H       -0.2660    -1.0010    -0.5860 H     1 <1>   0.4000 
 28 H        1.5780    -0.3900    -1.7730 H     1 <1>   0.0800 
 29 H        2.0020    -1.5600     0.9870 H     1 <1>   0.0800 
 30 H        1.9840     1.2400     0.6940 H     1 <1>   0.0800 
 31 H        2.3350     1.6640    -0.9910 H     1 <1>   0.0800 
 32 H        4.1940    -1.4270    -1.0320 H     1 <1>   0.0800 
 33 H        4.3010    -1.5220     0.7160 H     1 <1>   0.0800 
 34 H        2.1870    -2.7770    -1.7910 H     1 <1>   0.0800 
 35 H        0.9510    -3.1100    -0.6170 H     1 <1>   0.0800 
 36 H        1.4920    -4.3280     1.4660 H     1 <1>   0.1500 
 37 H        2.9040    -6.1150     2.4540 H     1 <1>   0.1500 
 38 H        4.1770     4.2560     1.1590 H     1 <1>   0.0800 
 39 H        3.3260     2.7950     1.4420 H     1 <1>   0.0800 
 40 H        3.2210     3.5760    -0.1260 H     1 <1>   0.0800 
 41 H        6.1920    -4.9820    -1.7860 H     1 <1>   0.1500 
 42 H        8.2720     2.6670    -0.3810 H     1 <1>   0.4570 
 43 H        8.0840    -0.9330    -0.8250 H     1 <1>   0.0800 
 44 H        9.1130     0.1810     0.0320 H     1 <1>   0.0800 
 45 H        8.8080     0.3990    -1.6850 H     1 <1>   0.0800 
 46 H        5.7890     5.1620    -0.1280 H     1 <1>   0.0800 
 47 H        7.4760     4.8460    -0.3430 H     1 <1>   0.0800 
 48 H        6.7820     4.7820     1.2600 H     1 <1>   0.0800 
 49 H        5.0200    -7.4410     2.3040 H     1 <1>   0.1500 
 50 H        7.7130    -6.7300    -0.9150 H     1 <1>   0.1500 
 51 H        7.1240    -7.9490     1.1250 H     1 <1>   0.1500 
@<TRIPOS>BOND
  1   1   2  1   
  2   1  27  1   
  3   2   3  1   
  4   2   4  1   
  5   2  28  1   
  6   3   5  1   
  7   3   6  1   
  8   3  29  1   
  9   4   7  1   
 10   4  30  1   
 11   4  31  1   
 12   5   7  1   
 13   5  32  1   
 14   5  33  1   
 15   6   8  1   
 16   6  34  1   
 17   6  35  1   
 18   7   9  1   
 19   8  10  ar  
 20   8  11  ar  
 21   9  12  ar  
 22   9  13  ar  
 23  10  14  ar  
 24  11  15  ar  
 25  11  36  1   
 26  12  16  ar  
 27  13  17  ar  
 28  13  18  1   
 29  14  19  ar  
 30  14  20  ar  
 31  15  19  ar  
 32  15  37  1   
 33  16  21  ar  
 34  16  22  1   
 35  17  21  ar  
 36  17  23  1   
 37  18  38  1   
 38  18  39  1   
 39  18  40  1   
 40  19  24  ar  
 41  20  25  ar  
 42  20  41  1   
 43  21  42  1   
 44  22  43  1   
 45  22  44  1   
 46  22  45  1   
 47  23  46  1   
 48  23  47  1   
 49  23  48  1   
 50  24  26  ar  
 51  24  49  1   
 52  25  26  ar  
 53  25  50  1   
 54  26  51  1   
@<TRIPOS>SUBSTRUCTURE
  1 ****   5 GROUP 4 **** **** 0

# MOE 2024.06 (io_trps.svl 2023.06)
