@<TRIPOS>MOLECULE
NONAME
58 59 1 0 0 
SMALL
USER_CHARGES


@<TRIPOS>ATOM
  1 O        2.1160     5.9570    -0.7370 O.co2 1 <1>  -0.9000 
  2 C        1.3920     6.4110    -1.6310 C.2   1 <1>   0.9060 
  3 O        1.5560     7.5880    -1.9760 O.co2 1 <1>  -0.9000 
  4 C        0.2420     5.5960    -2.2310 C.3   1 <1>  -0.1860 
  5 C       -1.0800     6.4060    -2.2990 C.3   1 <1>  -0.1600 
  6 C       -0.0460     4.2760    -1.4770 C.3   1 <1>  -0.1600 
  7 C       -1.9450     6.3220    -1.0290 C.3   1 <1>   0.1400 
  8 C       -0.5680     4.4950    -0.0430 C.3   1 <1>   0.1400 
  9 N       -1.1430     5.8670     0.1430 N.am  1 <1>  -0.6600 
 10 C       -0.8980     6.7040     1.2020 C.2   1 <1>   0.5690 
 11 O       -1.2710     7.8560     1.2080 O.2   1 <1>  -0.5700 
 12 C       -0.1090     6.2570     2.4210 C.3   1 <1>  -0.0990 
 13 C        1.4030     6.1450     2.1760 C.3   1 <1>   0.3430 
 14 N        2.1760     7.4380     2.1020 N.4   1 <1>  -0.9590 
 15 C        1.5550     8.3430     1.0630 C.3   1 <1>   0.3430 
 16 C        3.5770     7.0550     1.7280 C.3   1 <1>   0.2630 
 17 C        2.4290     9.4280     0.3920 C.3   1 <1>   0.3430 
 18 N        1.7750     9.9890    -0.8370 N.4   1 <1>  -0.9590 
 19 C        2.6370    10.9090    -1.6180 C.3   1 <1>   0.4230 
 20 C        0.3840    10.4960    -0.6180 C.3   1 <1>   0.2630 
 21 C        2.0220    11.2420    -2.9730 C.3   1 <1>  -0.1600 
 22 C        3.9700    10.2630    -1.9880 C.3   1 <1>  -0.1600 
 23 C        3.2010    11.6550    -3.8570 C.3   1 <1>  -0.1600 
 24 C        4.4380    10.9750    -3.2620 C.3   1 <1>  -0.1600 
 25 H        0.5490     5.3610    -3.2330 H     1 <1>   0.0800 
 26 H       -1.6700     6.0400    -3.1210 H     1 <1>   0.0800 
 27 H       -0.8720     7.4380    -2.5170 H     1 <1>   0.0800 
 28 H        0.8470     3.6760    -1.4410 H     1 <1>   0.0800 
 29 H       -0.7790     3.7140    -2.0270 H     1 <1>   0.0800 
 30 H       -2.7370     5.6090    -1.1880 H     1 <1>   0.0800 
 31 H       -2.4070     7.2750    -0.8370 H     1 <1>   0.0800 
 32 H        0.2450     4.3280     0.6360 H     1 <1>   0.0800 
 33 H       -1.3270     3.7630     0.1740 H     1 <1>   0.0800 
 34 H       -0.4810     5.2910     2.7070 H     1 <1>   0.0800 
 35 H       -0.3000     6.9210     3.2430 H     1 <1>   0.0800 
 36 H        1.5580     5.5900     1.2690 H     1 <1>   0.0800 
 37 H        1.8200     5.5500     2.9720 H     1 <1>   0.0800 
 38 H        2.1620     7.8900     3.0250 H     1 <1>   0.4500 
 39 H        0.7090     8.8370     1.5090 H     1 <1>   0.0800 
 40 H        1.1740     7.7250     0.2740 H     1 <1>   0.0800 
 41 H        3.5940     6.6100     0.7450 H     1 <1>   0.0800 
 42 H        3.9690     6.3350     2.4280 H     1 <1>   0.0800 
 43 H        4.2220     7.9160     1.7270 H     1 <1>   0.0800 
 44 H        3.3570     8.9710     0.0950 H     1 <1>   0.0800 
 45 H        2.6310    10.2190     1.0920 H     1 <1>   0.0800 
 46 H        1.6740     9.1420    -1.4650 H     1 <1>   0.4500 
 47 H        2.8180    11.8210    -1.0740 H     1 <1>   0.0800 
 48 H        0.3920    11.3540     0.0330 H     1 <1>   0.0800 
 49 H       -0.2340     9.7270    -0.1810 H     1 <1>   0.0800 
 50 H       -0.0610    10.7770    -1.5580 H     1 <1>   0.0800 
 51 H        1.2940    12.0310    -2.9080 H     1 <1>   0.0800 
 52 H        1.5720    10.3580    -3.3940 H     1 <1>   0.0800 
 53 H        3.8180     9.2210    -2.2200 H     1 <1>   0.0800 
 54 H        4.6990    10.3610    -1.2050 H     1 <1>   0.0800 
 55 H        3.3280    12.7250    -3.8270 H     1 <1>   0.0800 
 56 H        3.0410    11.3560    -4.8790 H     1 <1>   0.0800 
 57 H        4.8590    10.2660    -3.9560 H     1 <1>   0.0800 
 58 H        5.1850    11.7150    -3.0290 H     1 <1>   0.0800 
@<TRIPOS>BOND
  1   1   2  ar  
  2   2   3  ar  
  3   2   4  1   
  4   4   5  1   
  5   4   6  1   
  6   4  25  1   
  7   5   7  1   
  8   5  26  1   
  9   5  27  1   
 10   6   8  1   
 11   6  28  1   
 12   6  29  1   
 13   7   9  1   
 14   7  30  1   
 15   7  31  1   
 16   8   9  1   
 17   8  32  1   
 18   8  33  1   
 19   9  10  am  
 20  10  11  2   
 21  10  12  1   
 22  12  13  1   
 23  12  34  1   
 24  12  35  1   
 25  13  14  1   
 26  13  36  1   
 27  13  37  1   
 28  14  15  1   
 29  14  16  1   
 30  14  38  1   
 31  15  17  1   
 32  15  39  1   
 33  15  40  1   
 34  16  41  1   
 35  16  42  1   
 36  16  43  1   
 37  17  18  1   
 38  17  44  1   
 39  17  45  1   
 40  18  19  1   
 41  18  20  1   
 42  18  46  1   
 43  19  21  1   
 44  19  22  1   
 45  19  47  1   
 46  20  48  1   
 47  20  49  1   
 48  20  50  1   
 49  21  23  1   
 50  21  51  1   
 51  21  52  1   
 52  22  24  1   
 53  22  53  1   
 54  22  54  1   
 55  23  24  1   
 56  23  55  1   
 57  23  56  1   
 58  24  57  1   
 59  24  58  1   
@<TRIPOS>SUBSTRUCTURE
  1 ****   3 GROUP 4 **** **** 0

# MOE 2024.06 (io_trps.svl 2023.06)
