@<TRIPOS>MOLECULE
NONAME
50 53 1 0 0 
SMALL
USER_CHARGES


@<TRIPOS>ATOM
  1 O        2.0610    -0.1210     2.5060 O.3   1 <1>  -0.6800 
  2 C        1.6460    -0.3410     1.1940 C.3   1 <1>   0.2000 
  3 C        2.1560    -1.6980     0.7110 C.3   1 <1>  -0.0800 
  4 C        2.4040     0.6260     0.2820 C.3   1 <1>   0.3430 
  5 C        3.6290    -1.4440     0.3690 C.3   1 <1>   0.3430 
  6 C        1.9520    -2.8940     1.6650 C.3   1 <1>  -0.0170 
  7 N        3.7640     0.0200     0.1010 N.4   1 <1>  -0.9590 
  8 C        2.6940    -4.1190     1.1440 C.ar  1 <1>  -0.1440 
  9 C        4.7390     0.6500     1.0260 C.3   1 <1>   0.5240 
 10 C        2.2510    -4.8580     0.0200 C.ar  1 <1>   0.0000 
 11 C        3.8460    -4.5270     1.7530 C.ar  1 <1>  -0.1500 
 12 C        4.9780     2.0530     0.5270 C.2   1 <1>  -0.1810 
 13 C        3.0740    -5.9190    -0.4340 C.ar  1 <1>   0.3100 
 14 C        1.0440    -4.6140    -0.6770 C.ar  1 <1>  -0.1500 
 15 C        4.5700    -5.6110     1.2400 C.ar  1 <1>   0.1600 
 16 C        5.6650     2.4980    -0.5510 C.2   1 <1>  -0.3320 
 17 C        4.4810     3.2000     1.1330 C.2   1 <1>   0.1390 
 18 N        4.2270    -6.2750     0.1840 N.ar  1 <1>  -0.6200 
 19 C        2.6860    -6.6420    -1.5730 C.ar  1 <1>  -0.1500 
 20 C        0.6920    -5.3420    -1.7810 C.ar  1 <1>  -0.1500 
 21 N        5.5480     3.8470    -0.5510 N.pl3 1 <1>   0.3140 
 22 C        6.4550     1.7250    -1.5990 C.3   1 <1>  -0.0600 
 23 N        4.8080     4.2700     0.4850 N.2   1 <1>  -0.7070 
 24 C        1.5250    -6.3640    -2.2400 C.ar  1 <1>  -0.1500 
 25 C        6.1280     4.8040    -1.5050 C.3   1 <1>   0.0160 
 26 H        1.4110    -0.4800     3.1480 H     1 <1>   0.4000 
 27 H        0.5770    -0.2190     1.1330 H     1 <1>   0.0800 
 28 H        1.6610    -1.9200    -0.2180 H     1 <1>   0.0800 
 29 H        2.4440     1.6160     0.7050 H     1 <1>   0.0800 
 30 H        1.9050     0.6740    -0.6710 H     1 <1>   0.0800 
 31 H        3.9270    -2.0320    -0.4840 H     1 <1>   0.0800 
 32 H        4.2400    -1.7210     1.2130 H     1 <1>   0.0800 
 33 H        0.9050    -3.1160     1.7770 H     1 <1>   0.0800 
 34 H        2.3280    -2.6560     2.6450 H     1 <1>   0.0800 
 35 H        4.1020     0.2190    -0.8490 H     1 <1>   0.4500 
 36 H        4.3540     0.6650     2.0330 H     1 <1>   0.0800 
 37 H        5.6700     0.1070     1.0150 H     1 <1>   0.0800 
 38 H        4.2340    -4.0400     2.6290 H     1 <1>   0.1500 
 39 H        0.3750    -3.8500    -0.3330 H     1 <1>   0.1500 
 40 H        5.4720    -5.9060     1.7500 H     1 <1>   0.1500 
 41 H        3.8890     3.2250     2.0340 H     1 <1>   0.1500 
 42 H        3.3360    -7.4310    -1.9020 H     1 <1>   0.1500 
 43 H       -0.2280    -5.1470    -2.3060 H     1 <1>   0.1500 
 44 H        6.4530     0.6710    -1.3870 H     1 <1>   0.0800 
 45 H        7.4780     2.0610    -1.6100 H     1 <1>   0.0800 
 46 H        6.0330     1.8810    -2.5760 H     1 <1>   0.0800 
 47 H        1.2390    -6.9290    -3.1120 H     1 <1>   0.1500 
 48 H        5.7780     4.5770    -2.4930 H     1 <1>   0.0800 
 49 H        7.1990     4.7350    -1.4670 H     1 <1>   0.0800 
 50 H        5.8240     5.7980    -1.2350 H     1 <1>   0.0800 
@<TRIPOS>BOND
  1   1   2  1   
  2   1  26  1   
  3   2   3  1   
  4   2   4  1   
  5   2  27  1   
  6   3   5  1   
  7   3   6  1   
  8   3  28  1   
  9   4   7  1   
 10   4  29  1   
 11   4  30  1   
 12   5   7  1   
 13   5  31  1   
 14   5  32  1   
 15   6   8  1   
 16   6  33  1   
 17   6  34  1   
 18   7   9  1   
 19   7  35  1   
 20   8  10  ar  
 21   8  11  ar  
 22   9  12  1   
 23   9  36  1   
 24   9  37  1   
 25  10  13  ar  
 26  10  14  ar  
 27  11  15  ar  
 28  11  38  1   
 29  12  16  2   
 30  12  17  1   
 31  13  18  ar  
 32  13  19  ar  
 33  14  20  ar  
 34  14  39  1   
 35  15  18  ar  
 36  15  40  1   
 37  16  21  1   
 38  16  22  1   
 39  17  23  2   
 40  17  41  1   
 41  19  24  ar  
 42  19  42  1   
 43  20  24  ar  
 44  20  43  1   
 45  21  23  1   
 46  21  25  1   
 47  22  44  1   
 48  22  45  1   
 49  22  46  1   
 50  24  47  1   
 51  25  48  1   
 52  25  49  1   
 53  25  50  1   
@<TRIPOS>SUBSTRUCTURE
  1 ****   5 GROUP 4 **** **** 0

# MOE 2024.06 (io_trps.svl 2023.06)
