@<TRIPOS>MOLECULE
NONAME
52 53 1 0 0 
SMALL
USER_CHARGES


@<TRIPOS>ATOM
  1 O        3.3660    -2.2220    -1.9450 O.2   1 <1>  -0.5700 
  2 C        3.3180    -2.2780    -0.7290 C.2   1 <1>   0.7160 
  3 N        4.4280    -1.8420    -0.0300 N.am  1 <1>  -0.6600 
  4 C        2.1200    -2.7140    -0.0550 C.2   1 <1>  -0.0860 
  5 C        5.7320    -1.6750    -0.7340 C.3   1 <1>   0.1400 
  6 C        4.3350    -1.2940     1.3480 C.3   1 <1>   0.1400 
  7 C        2.0360    -3.7020     0.9330 C.2   1 <1>   0.1080 
  8 C        0.8280    -2.2910    -0.1850 C.2   1 <1>  -0.3320 
  9 C        5.7200    -0.4110    -1.6130 C.3   1 <1>   0.3430 
 10 C        4.7880     0.1710     1.3950 C.3   1 <1>  -0.1600 
 11 N        0.8390    -3.8520     1.3910 N.2   1 <1>  -0.7070 
 12 C        3.1740    -4.5570     1.4500 C.3   1 <1>  -0.0590 
 13 N        0.0820    -2.9910     0.6920 N.pl3 1 <1>   0.3140 
 14 C        0.2710    -1.2400    -1.1360 C.3   1 <1>  -0.0600 
 15 N        5.6130     0.8840    -0.8500 N.4   1 <1>  -0.9590 
 16 C        4.4710     0.9580     0.1200 C.3   1 <1>   0.3430 
 17 C       -1.3770    -2.9120     0.9210 C.3   1 <1>   0.0960 
 18 C        5.5540     2.0200    -1.8010 C.3   1 <1>   0.5430 
 19 C       -2.1360    -3.8720    -0.0030 C.3   1 <1>  -0.2400 
 20 C        5.9190     3.2440    -1.0430 C.1   1 <1>  -0.2000 
 21 C        6.2030     4.2020    -0.4010 C.1   1 <1>  -0.2000 
 22 C        6.5500     5.4030     0.4130 C.3   1 <1>   0.0400 
 23 C        6.2110     5.1650     1.8850 C.3   1 <1>  -0.2400 
 24 H        5.8890    -2.5320    -1.3680 H     1 <1>   0.0800 
 25 H        6.5430    -1.6410    -0.0270 H     1 <1>   0.0800 
 26 H        4.9350    -1.8900     2.0170 H     1 <1>   0.0800 
 27 H        3.3160    -1.3480     1.6960 H     1 <1>   0.0800 
 28 H        4.8950    -0.4940    -2.3020 H     1 <1>   0.0800 
 29 H        6.6250    -0.4010    -2.1980 H     1 <1>   0.0800 
 30 H        5.8360     0.2310     1.6270 H     1 <1>   0.0800 
 31 H        4.2680     0.6350     2.2150 H     1 <1>   0.0800 
 32 H        3.9620    -4.6250     0.7230 H     1 <1>   0.0800 
 33 H        2.8100    -5.5480     1.6530 H     1 <1>   0.0800 
 34 H        3.5580    -4.1390     2.3610 H     1 <1>   0.0800 
 35 H        1.0500    -0.8360    -1.7560 H     1 <1>   0.0800 
 36 H       -0.1800    -0.4360    -0.5830 H     1 <1>   0.0800 
 37 H       -0.4700    -1.6820    -1.7780 H     1 <1>   0.0800 
 38 H        6.4740     1.0340    -0.3110 H     1 <1>   0.4500 
 39 H        4.3080     1.9880     0.3980 H     1 <1>   0.0800 
 40 H        3.5630     0.5890    -0.3330 H     1 <1>   0.0800 
 41 H       -1.7010    -1.9010     0.7590 H     1 <1>   0.0800 
 42 H       -1.5650    -3.1700     1.9480 H     1 <1>   0.0800 
 43 H        4.5660     2.1150    -2.2210 H     1 <1>   0.0800 
 44 H        6.2620     1.8770    -2.6020 H     1 <1>   0.0800 
 45 H       -1.9550    -3.6240    -1.0340 H     1 <1>   0.0800 
 46 H       -3.1910    -3.8070     0.1880 H     1 <1>   0.0800 
 47 H       -1.8160    -4.8830     0.1790 H     1 <1>   0.0800 
 48 H        6.0020     6.2530     0.0460 H     1 <1>   0.0800 
 49 H        7.6010     5.6120     0.3110 H     1 <1>   0.0800 
 50 H        5.1590     4.9700     2.0010 H     1 <1>   0.0800 
 51 H        6.4620     6.0360     2.4640 H     1 <1>   0.0800 
 52 H        6.7670     4.3280     2.2690 H     1 <1>   0.0800 
@<TRIPOS>BOND
  1   1   2  2   
  2   2   3  am  
  3   2   4  1   
  4   3   5  1   
  5   3   6  1   
  6   4   7  1   
  7   4   8  2   
  8   5   9  1   
  9   5  24  1   
 10   5  25  1   
 11   6  10  1   
 12   6  26  1   
 13   6  27  1   
 14   7  11  2   
 15   7  12  1   
 16   8  13  1   
 17   8  14  1   
 18   9  15  1   
 19   9  28  1   
 20   9  29  1   
 21  10  16  1   
 22  10  30  1   
 23  10  31  1   
 24  11  13  1   
 25  12  32  1   
 26  12  33  1   
 27  12  34  1   
 28  13  17  1   
 29  14  35  1   
 30  14  36  1   
 31  14  37  1   
 32  15  16  1   
 33  15  18  1   
 34  15  38  1   
 35  16  39  1   
 36  16  40  1   
 37  17  19  1   
 38  17  41  1   
 39  17  42  1   
 40  18  20  1   
 41  18  43  1   
 42  18  44  1   
 43  19  45  1   
 44  19  46  1   
 45  19  47  1   
 46  20  21  3   
 47  21  22  1   
 48  22  23  1   
 49  22  48  1   
 50  22  49  1   
 51  23  50  1   
 52  23  51  1   
 53  23  52  1   
@<TRIPOS>SUBSTRUCTURE
  1 ****   3 GROUP 4 **** **** 0

# MOE 2024.06 (io_trps.svl 2023.06)
