@<TRIPOS>MOLECULE
NONAME
48 51 1 0 0 
SMALL
USER_CHARGES


@<TRIPOS>ATOM
  1 O        0.0680    -0.9100     1.1980 O.co2 1 <1>  -0.9000 
  2 C        0.9410    -0.2590     0.6030 C.2   1 <1>   0.9790 
  3 O        0.6650     0.8570     0.1400 O.co2 1 <1>  -0.9000 
  4 C        2.2880    -0.7440     0.4410 C.ar  1 <1>  -0.1790 
  5 C        2.6500    -2.1080     0.5370 C.ar  1 <1>   0.1000 
  6 C        3.2540     0.1960     0.1530 C.ar  1 <1>   0.2110 
  7 N        1.6800    -3.0320     0.6800 N.pl3 1 <1>  -0.8690 
  8 C        4.0220    -2.4280     0.4550 C.ar  1 <1>   0.0000 
  9 N        4.5500    -0.1390    -0.0160 N.ar  1 <1>  -0.1260 
 10 C        0.9980    -3.6290    -0.4960 C.3   1 <1>   0.2890 
 11 C        4.9350    -1.4460     0.1440 C.ar  1 <1>   0.1560 
 12 C        4.8370    -3.5660     0.6390 C.2   1 <1>   0.1080 
 13 C       -0.1810    -4.4810    -0.0740 C.3   1 <1>  -0.0800 
 14 C        1.8260    -4.6200    -1.2980 C.3   1 <1>   0.1200 
 15 N        6.1560    -2.0250     0.0890 N.pl3 1 <1>   0.3140 
 16 N        6.0840    -3.3310     0.4060 N.2   1 <1>  -0.7070 
 17 C        4.3810    -4.9280     1.1160 C.3   1 <1>  -0.0590 
 18 C       -0.3200    -5.4510    -1.2500 C.3   1 <1>   0.1200 
 19 C       -1.4550    -3.6720     0.2240 C.3   1 <1>  -0.0170 
 20 O        0.9060    -5.4640    -1.9230 O.3   1 <1>  -0.5600 
 21 C        7.4640    -1.4180    -0.2100 C.3   1 <1>   0.0160 
 22 C       -2.6370    -4.5910     0.4890 C.ar  1 <1>  -0.1440 
 23 C       -2.7790    -5.2530     1.6910 C.ar  1 <1>  -0.1500 
 24 C       -3.6240    -4.8120    -0.4500 C.ar  1 <1>  -0.1500 
 25 C       -3.8660    -6.0880     1.8880 C.ar  1 <1>   0.1600 
 26 C       -4.6710    -5.6670    -0.1520 C.ar  1 <1>   0.1600 
 27 N       -4.8150    -6.3140     0.9930 N.ar  1 <1>  -0.6200 
 28 H        2.9810     1.2370     0.0550 H     1 <1>   0.1500 
 29 H        0.8950    -2.6380     1.2480 H     1 <1>   0.4000 
 30 H        5.2330     0.5890    -0.2360 H     1 <1>   0.4570 
 31 H        0.6670    -2.8430    -1.1540 H     1 <1>   0.0800 
 32 H        0.0910    -5.0560     0.7930 H     1 <1>   0.0800 
 33 H        2.4220    -5.2310    -0.6500 H     1 <1>   0.0800 
 34 H        2.4330    -4.1410    -2.0430 H     1 <1>   0.0800 
 35 H        3.3800    -4.8860     1.5030 H     1 <1>   0.0800 
 36 H        5.0330    -5.2690     1.8990 H     1 <1>   0.0800 
 37 H        4.4270    -5.6320     0.3060 H     1 <1>   0.0800 
 38 H       -1.0670    -5.1170    -1.9500 H     1 <1>   0.0800 
 39 H       -0.5510    -6.4490    -0.9200 H     1 <1>   0.0800 
 40 H       -1.6770    -3.0130    -0.5980 H     1 <1>   0.0800 
 41 H       -1.2950    -3.0530     1.0900 H     1 <1>   0.0800 
 42 H        7.3990    -0.8300    -1.1060 H     1 <1>   0.0800 
 43 H        8.1860    -2.2020    -0.3580 H     1 <1>   0.0800 
 44 H        7.7750    -0.8090     0.6180 H     1 <1>   0.0800 
 45 H       -2.0530    -5.1230     2.4730 H     1 <1>   0.1500 
 46 H       -3.5880    -4.3250    -1.4070 H     1 <1>   0.1500 
 47 H       -3.9600    -6.5960     2.8320 H     1 <1>   0.1500 
 48 H       -5.4320    -5.8280    -0.8970 H     1 <1>   0.1500 
@<TRIPOS>BOND
  1   1   2  ar  
  2   2   3  ar  
  3   2   4  1   
  4   4   5  ar  
  5   4   6  ar  
  6   5   7  1   
  7   5   8  ar  
  8   6   9  ar  
  9   6  28  1   
 10   7  10  1   
 11   7  29  1   
 12   8  11  ar  
 13   8  12  1   
 14   9  11  ar  
 15   9  30  1   
 16  10  13  1   
 17  10  14  1   
 18  10  31  1   
 19  11  15  1   
 20  12  16  2   
 21  12  17  1   
 22  13  18  1   
 23  13  19  1   
 24  13  32  1   
 25  14  20  1   
 26  14  33  1   
 27  14  34  1   
 28  15  16  1   
 29  15  21  1   
 30  17  35  1   
 31  17  36  1   
 32  17  37  1   
 33  18  20  1   
 34  18  38  1   
 35  18  39  1   
 36  19  22  1   
 37  19  40  1   
 38  19  41  1   
 39  21  42  1   
 40  21  43  1   
 41  21  44  1   
 42  22  23  ar  
 43  22  24  ar  
 44  23  25  ar  
 45  23  45  1   
 46  24  26  ar  
 47  24  46  1   
 48  25  27  ar  
 49  25  47  1   
 50  26  27  ar  
 51  26  48  1   
@<TRIPOS>SUBSTRUCTURE
  1 ****   7 GROUP 4 **** **** 0

# MOE 2024.06 (io_trps.svl 2023.06)
