@<TRIPOS>MOLECULE
NONAME
52 54 1 0 0 
SMALL
USER_CHARGES


@<TRIPOS>ATOM
  1 N        0.1950     0.2600     0.5070 N.ar  1 <1>  -0.6200 
  2 C       -0.8660     0.7440    -0.1070 C.ar  1 <1>   0.4100 
  3 C        1.1390     1.1310     0.8020 C.ar  1 <1>   0.4760 
  4 N       -1.8700    -0.1400    -0.4210 N.pl3 1 <1>  -0.8690 
  5 C       -0.9660     2.0930    -0.4220 C.ar  1 <1>  -0.1430 
  6 N        1.1520     2.4270     0.5590 N.ar  1 <1>  -0.6200 
  7 C        2.3600     0.5910     1.5050 C.3   1 <1>  -0.0970 
  8 C       -1.9290    -1.5170     0.0760 C.3   1 <1>   0.2890 
  9 C        0.0850     2.8930    -0.0570 C.ar  1 <1>   0.1600 
 10 C       -2.1730     2.6880    -1.1410 C.3   1 <1>  -0.0170 
 11 C       -1.2020    -2.4200    -0.9150 C.3   1 <1>  -0.1600 
 12 C       -3.3860    -1.9370     0.2250 C.3   1 <1>  -0.1600 
 13 C       -3.3200     2.9520    -0.1570 C.3   1 <1>  -0.1600 
 14 C       -1.3060    -3.8760    -0.4820 C.3   1 <1>   0.3430 
 15 C       -3.4710    -3.4030     0.6420 C.3   1 <1>   0.3430 
 16 C       -4.5510     3.5230    -0.8700 C.3   1 <1>  -0.2400 
 17 N       -2.7430    -4.2580    -0.3460 N.4   1 <1>  -0.9590 
 18 C       -2.8840    -5.7080    -0.0320 C.3   1 <1>   0.4860 
 19 C       -4.3480    -6.0910    -0.1290 C.ar  1 <1>  -0.1430 
 20 C       -5.1090    -6.3470     0.9970 C.ar  1 <1>  -0.1500 
 21 C       -4.9970    -6.2040    -1.3450 C.ar  1 <1>  -0.1500 
 22 C       -6.4470    -6.6760     0.8570 C.ar  1 <1>   0.1600 
 23 C       -6.3400    -6.5400    -1.3740 C.ar  1 <1>   0.1600 
 24 N       -7.0760    -6.7680    -0.3010 N.ar  1 <1>  -0.6200 
 25 H       -2.7480     0.2700    -0.7430 H     1 <1>   0.4000 
 26 H        2.2660    -0.4650     1.6760 H     1 <1>   0.0800 
 27 H        2.4780     1.0890     2.4490 H     1 <1>   0.0800 
 28 H        3.2290     0.7730     0.9010 H     1 <1>   0.0800 
 29 H       -1.4450    -1.5710     1.0400 H     1 <1>   0.0800 
 30 H        0.0640     3.9480    -0.2720 H     1 <1>   0.1500 
 31 H       -2.4960     2.0220    -1.9210 H     1 <1>   0.0800 
 32 H       -1.8910     3.6130    -1.6130 H     1 <1>   0.0800 
 33 H       -0.1640    -2.1400    -0.9480 H     1 <1>   0.0800 
 34 H       -1.6100    -2.3000    -1.9020 H     1 <1>   0.0800 
 35 H       -3.9170    -1.7960    -0.6990 H     1 <1>   0.0800 
 36 H       -3.8540    -1.3320     0.9820 H     1 <1>   0.0800 
 37 H       -2.9900     3.6500     0.5940 H     1 <1>   0.0800 
 38 H       -3.5910     2.0390     0.3440 H     1 <1>   0.0800 
 39 H       -0.8010    -4.0030     0.4630 H     1 <1>   0.0800 
 40 H       -0.8200    -4.5010    -1.2140 H     1 <1>   0.0800 
 41 H       -4.5080    -3.6970     0.6930 H     1 <1>   0.0800 
 42 H       -3.0370    -3.5240     1.6210 H     1 <1>   0.0800 
 43 H       -4.3100     4.4560    -1.3490 H     1 <1>   0.0800 
 44 H       -5.3380     3.7000    -0.1580 H     1 <1>   0.0800 
 45 H       -4.9130     2.8350    -1.6140 H     1 <1>   0.0800 
 46 H       -3.1980    -4.1120    -1.2560 H     1 <1>   0.4500 
 47 H       -2.5140    -5.9140     0.9590 H     1 <1>   0.0800 
 48 H       -2.3180    -6.2970    -0.7360 H     1 <1>   0.0800 
 49 H       -4.6880    -6.3000     1.9860 H     1 <1>   0.1500 
 50 H       -4.4840    -6.0420    -2.2770 H     1 <1>   0.1500 
 51 H       -7.0320    -6.8740     1.7410 H     1 <1>   0.1500 
 52 H       -6.8380    -6.6250    -2.3270 H     1 <1>   0.1500 
@<TRIPOS>BOND
  1   1   2  ar  
  2   1   3  ar  
  3   2   4  1   
  4   2   5  ar  
  5   3   6  ar  
  6   3   7  1   
  7   4   8  1   
  8   4  25  1   
  9   5   9  ar  
 10   5  10  1   
 11   6   9  ar  
 12   7  26  1   
 13   7  27  1   
 14   7  28  1   
 15   8  11  1   
 16   8  12  1   
 17   8  29  1   
 18   9  30  1   
 19  10  13  1   
 20  10  31  1   
 21  10  32  1   
 22  11  14  1   
 23  11  33  1   
 24  11  34  1   
 25  12  15  1   
 26  12  35  1   
 27  12  36  1   
 28  13  16  1   
 29  13  37  1   
 30  13  38  1   
 31  14  17  1   
 32  14  39  1   
 33  14  40  1   
 34  15  17  1   
 35  15  41  1   
 36  15  42  1   
 37  16  43  1   
 38  16  44  1   
 39  16  45  1   
 40  17  18  1   
 41  17  46  1   
 42  18  19  1   
 43  18  47  1   
 44  18  48  1   
 45  19  20  ar  
 46  19  21  ar  
 47  20  22  ar  
 48  20  49  1   
 49  21  23  ar  
 50  21  50  1   
 51  22  24  ar  
 52  22  51  1   
 53  23  24  ar  
 54  23  52  1   
@<TRIPOS>SUBSTRUCTURE
  1 ****   8 GROUP 4 **** **** 0

# MOE 2024.06 (io_trps.svl 2023.06)
