@<TRIPOS>MOLECULE
NONAME
45 47 1 0 0 
SMALL
USER_CHARGES


@<TRIPOS>ATOM
  1 F        1.7760     1.1500     0.1280 F     1 <1>  -0.1900 
  2 C        2.3540     0.0060    -0.1260 C.ar  1 <1>   0.1900 
  3 C        3.4720    -0.0030    -0.9560 C.ar  1 <1>   0.0860 
  4 C        1.8300    -1.1370     0.4610 C.ar  1 <1>  -0.1440 
  5 C        4.0140     1.2000    -1.5460 C.2   1 <1>   0.5440 
  6 C        4.0580    -1.2440    -1.2040 C.ar  1 <1>  -0.1500 
  7 C        2.4500    -2.3480     0.2000 C.ar  1 <1>  -0.1500 
  8 C        0.6050    -1.0780     1.3640 C.3   1 <1>  -0.0960 
  9 O        3.9600     1.3240    -2.7540 O.2   1 <1>  -0.5700 
 10 N        4.6290     2.1990    -0.8090 N.am  1 <1>  -0.6600 
 11 C        3.5570    -2.4000    -0.6320 C.ar  1 <1>  -0.1500 
 12 C        4.7980     2.1180     0.6910 C.3   1 <1>   0.2200 
 13 C        5.0850     3.4280    -1.5470 C.3   1 <1>   0.1400 
 14 C        4.0250     3.2310     1.4170 C.3   1 <1>   0.1200 
 15 C        6.2790     2.0680     1.1360 C.3   1 <1>   0.3430 
 16 C        5.7610     4.5200    -0.7010 C.3   1 <1>  -0.0800 
 17 O        4.7720     4.4050     1.4970 O.3   1 <1>  -0.5600 
 18 N        7.2300     2.6390     0.1390 N.4   1 <1>  -0.9590 
 19 C        4.8200     5.1580     0.3290 C.3   1 <1>   0.1200 
 20 C        7.1090     4.1090    -0.0880 C.3   1 <1>   0.3430 
 21 C        8.6820     2.2630     0.3820 C.3   1 <1>   0.2370 
 22 C        9.5920     2.5130    -0.8280 C.2   1 <1>   0.9060 
 23 O       10.8080     2.5660    -0.6590 O.co2 1 <1>  -0.9000 
 24 O        9.0370     2.6960    -1.9200 O.co2 1 <1>  -0.9000 
 25 H        4.9110    -1.2950    -1.8610 H     1 <1>   0.1500 
 26 H        2.0720    -3.2590     0.6340 H     1 <1>   0.1500 
 27 H        0.3370    -2.0570     1.7180 H     1 <1>   0.0800 
 28 H       -0.2300    -0.6720     0.8210 H     1 <1>   0.0800 
 29 H        0.8020    -0.4490     2.2140 H     1 <1>   0.0800 
 30 H        4.0250    -3.3480    -0.8380 H     1 <1>   0.1500 
 31 H        4.3620     1.2030     1.0410 H     1 <1>   0.0800 
 32 H        5.7690     3.1220    -2.3230 H     1 <1>   0.0800 
 33 H        4.2280     3.8540    -2.0420 H     1 <1>   0.0800 
 34 H        3.8330     2.9230     2.4300 H     1 <1>   0.0800 
 35 H        3.0780     3.4270     0.9420 H     1 <1>   0.0800 
 36 H        6.5370     1.0370     1.3020 H     1 <1>   0.0800 
 37 H        6.3850     2.5830     2.0760 H     1 <1>   0.0800 
 38 H        5.9910     5.3110    -1.3920 H     1 <1>   0.0800 
 39 H        7.0240     2.2310    -0.7930 H     1 <1>   0.4500 
 40 H        3.8230     5.2810    -0.0610 H     1 <1>   0.0800 
 41 H        5.1930     6.1290     0.6050 H     1 <1>   0.0800 
 42 H        7.2660     4.6390     0.8370 H     1 <1>   0.0800 
 43 H        7.8850     4.4090    -0.7760 H     1 <1>   0.0800 
 44 H        9.0800     2.8210     1.2100 H     1 <1>   0.0800 
 45 H        8.7560     1.2170     0.6120 H     1 <1>   0.0800 
@<TRIPOS>BOND
  1   1   2  1   
  2   2   3  ar  
  3   2   4  ar  
  4   3   5  1   
  5   3   6  ar  
  6   4   7  ar  
  7   4   8  1   
  8   5   9  2   
  9   5  10  am  
 10   6  11  ar  
 11   6  25  1   
 12   7  11  ar  
 13   7  26  1   
 14   8  27  1   
 15   8  28  1   
 16   8  29  1   
 17  10  12  1   
 18  10  13  1   
 19  11  30  1   
 20  12  14  1   
 21  12  15  1   
 22  12  31  1   
 23  13  16  1   
 24  13  32  1   
 25  13  33  1   
 26  14  17  1   
 27  14  34  1   
 28  14  35  1   
 29  15  18  1   
 30  15  36  1   
 31  15  37  1   
 32  16  19  1   
 33  16  20  1   
 34  16  38  1   
 35  17  19  1   
 36  18  20  1   
 37  18  21  1   
 38  18  39  1   
 39  19  40  1   
 40  19  41  1   
 41  20  42  1   
 42  20  43  1   
 43  21  22  1   
 44  21  44  1   
 45  21  45  1   
 46  22  23  ar  
 47  22  24  ar  
@<TRIPOS>SUBSTRUCTURE
  1 ****  10 GROUP 4 **** **** 0

# MOE 2024.06 (io_trps.svl 2023.06)
