@<TRIPOS>MOLECULE
NONAME
45 48 1 0 0 
SMALL
USER_CHARGES


@<TRIPOS>ATOM
  1 O       -0.6260     0.3860    -0.0650 O.2   1 <1>  -0.5700 
  2 C        0.3650    -0.2480     0.2020 C.2   1 <1>   0.5690 
  3 N        1.6340     0.2580     0.1860 N.am  1 <1>  -0.4940 
  4 C        0.2070    -1.7090     0.5510 C.3   1 <1>  -0.0990 
  5 C        2.0770     1.5650    -0.1380 C.2   1 <1>  -0.0880 
  6 C        0.2930    -2.5740    -0.7100 C.3   1 <1>   0.0200 
  7 N        3.3810     1.9580    -0.2000 N.pl3 1 <1>   0.3140 
  8 C        1.3380     2.6560    -0.4450 C.2   1 <1>  -0.1500 
  9 C        0.4160    -4.0340    -0.3300 C.2   1 <1>   0.0060 
 10 N        3.4810     3.2690    -0.5390 N.2   1 <1>  -0.7070 
 11 C        4.5640     1.0830     0.0620 C.3   1 <1>   0.1760 
 12 C        2.2560     3.6690    -0.6820 C.2   1 <1>   0.1390 
 13 N        1.5320    -4.5790     0.0080 N.2   1 <1>  -0.5650 
 14 N       -0.6430    -4.8840    -0.3060 N.pl3 1 <1>   0.0330 
 15 C        5.8960     1.8200     0.2210 C.3   1 <1>  -0.1600 
 16 C        4.8290     0.1010    -1.0830 C.3   1 <1>  -0.1600 
 17 C        1.2080    -5.8760     0.2730 C.ar  1 <1>   0.2270 
 18 C       -0.1460    -6.0840     0.0830 C.ar  1 <1>  -0.1520 
 19 C        6.9510     0.7390    -0.0110 C.3   1 <1>  -0.1600 
 20 C        6.3170    -0.2620    -0.9840 C.3   1 <1>  -0.1600 
 21 C        2.0220    -6.9310     0.6810 C.ar  1 <1>  -0.1500 
 22 C       -0.7250    -7.3380     0.2940 C.ar  1 <1>  -0.1500 
 23 C        1.4610    -8.1720     0.8910 C.ar  1 <1>  -0.1500 
 24 C        0.0880    -8.3740     0.6980 C.ar  1 <1>  -0.1500 
 25 H        2.3610    -0.4180     0.4180 H     1 <1>   0.3700 
 26 H       -0.7420    -1.8580     1.0320 H     1 <1>   0.0800 
 27 H        0.9780    -1.9960     1.2440 H     1 <1>   0.0800 
 28 H        1.1640    -2.3010    -1.2790 H     1 <1>   0.0800 
 29 H       -0.5710    -2.4130    -1.3310 H     1 <1>   0.0800 
 30 H        0.2680     2.7430    -0.5020 H     1 <1>   0.1500 
 31 H        4.3780     0.5310     0.9640 H     1 <1>   0.0800 
 32 H        1.9900     4.6770    -0.9530 H     1 <1>   0.1500 
 33 H       -1.6170    -4.6760    -0.5350 H     1 <1>   0.2700 
 34 H        5.9900     2.2770     1.1900 H     1 <1>   0.0800 
 35 H        5.9980     2.5710    -0.5440 H     1 <1>   0.0800 
 36 H        4.6530     0.5960    -2.0240 H     1 <1>   0.0800 
 37 H        4.2070    -0.7730    -1.0160 H     1 <1>   0.0800 
 38 H        7.1700     0.2440     0.9210 H     1 <1>   0.0800 
 39 H        7.8620     1.1570    -0.4040 H     1 <1>   0.0800 
 40 H        6.7790    -0.1910    -1.9550 H     1 <1>   0.0800 
 41 H        6.4430    -1.2660    -0.6160 H     1 <1>   0.0800 
 42 H        3.0700    -6.7490     0.8210 H     1 <1>   0.1500 
 43 H       -1.7800    -7.4830     0.1430 H     1 <1>   0.1500 
 44 H        2.0740    -8.9990     1.2070 H     1 <1>   0.1500 
 45 H       -0.3260    -9.3530     0.8690 H     1 <1>   0.1500 
@<TRIPOS>BOND
  1   1   2  2   
  2   2   3  am  
  3   2   4  1   
  4   3   5  1   
  5   3  25  1   
  6   4   6  1   
  7   4  26  1   
  8   4  27  1   
  9   5   7  1   
 10   5   8  2   
 11   6   9  1   
 12   6  28  1   
 13   6  29  1   
 14   7  10  1   
 15   7  11  1   
 16   8  12  1   
 17   8  30  1   
 18   9  13  2   
 19   9  14  1   
 20  10  12  2   
 21  11  15  1   
 22  11  16  1   
 23  11  31  1   
 24  12  32  1   
 25  13  17  1   
 26  14  18  1   
 27  14  33  1   
 28  15  19  1   
 29  15  34  1   
 30  15  35  1   
 31  16  20  1   
 32  16  36  1   
 33  16  37  1   
 34  17  18  ar  
 35  17  21  ar  
 36  18  22  ar  
 37  19  20  1   
 38  19  38  1   
 39  19  39  1   
 40  20  40  1   
 41  20  41  1   
 42  21  23  ar  
 43  21  42  1   
 44  22  24  ar  
 45  22  43  1   
 46  23  24  ar  
 47  23  44  1   
 48  24  45  1   
@<TRIPOS>SUBSTRUCTURE
  1 ****   4 GROUP 4 **** **** 0

# MOE 2024.06 (io_trps.svl 2023.06)
