@<TRIPOS>MOLECULE
NONAME
48 50 1 0 0 
SMALL
USER_CHARGES


@<TRIPOS>ATOM
  1 F       -0.1100    -0.5440     0.0750 F     1 <1>  -0.1900 
  2 C       -0.2260    -1.8120    -0.2080 C.ar  1 <1>   0.1900 
  3 C        0.6030    -2.7160     0.4260 C.ar  1 <1>  -0.1500 
  4 C       -1.1720    -2.2040    -1.1320 C.ar  1 <1>  -0.1500 
  5 C        0.4860    -4.0680     0.1350 C.ar  1 <1>  -0.1440 
  6 C       -1.2910    -3.5520    -1.4210 C.ar  1 <1>  -0.1500 
  7 C       -0.4750    -4.4860    -0.7880 C.ar  1 <1>  -0.1430 
  8 C        1.4270    -5.0420     0.8340 C.3   1 <1>  -0.0960 
  9 C       -0.6660    -5.9550    -1.1230 C.3   1 <1>   0.4870 
 10 N       -1.5190    -6.5640    -0.0710 N.4   1 <1>  -0.9590 
 11 C       -2.8950    -6.0090    -0.0620 C.3   1 <1>   0.3430 
 12 C       -1.6590    -8.0400    -0.1840 C.3   1 <1>   0.3430 
 13 C       -3.7230    -7.0390     0.6930 C.3   1 <1>  -0.0800 
 14 C       -3.0570    -8.3860     0.3420 C.3   1 <1>  -0.0800 
 15 C       -5.2440    -6.9450     0.4040 C.3   1 <1>   0.2800 
 16 C       -3.8450    -9.1850    -0.7090 C.3   1 <1>  -0.1600 
 17 O       -5.4210    -6.5780    -0.9160 O.3   1 <1>  -0.6800 
 18 C       -5.8970    -8.3250     0.5970 C.3   1 <1>  -0.1600 
 19 C       -5.9700    -5.8940     1.2730 C.3   1 <1>  -0.1600 
 20 C       -5.2960    -9.4460    -0.2750 C.3   1 <1>  -0.1600 
 21 C       -5.4810    -4.4400     1.1430 C.3   1 <1>  -0.2400 
 22 H        1.3270    -2.3500     1.1320 H     1 <1>   0.1500 
 23 H       -1.7940    -1.4670    -1.6090 H     1 <1>   0.1500 
 24 H       -2.0270    -3.8590    -2.1460 H     1 <1>   0.1500 
 25 H        2.1650    -4.5090     1.4090 H     1 <1>   0.0800 
 26 H        1.9510    -5.6440     0.1130 H     1 <1>   0.0800 
 27 H        0.8840    -5.6790     1.5070 H     1 <1>   0.0800 
 28 H        0.2930    -6.4450    -1.1560 H     1 <1>   0.0800 
 29 H       -1.1350    -6.0560    -2.0880 H     1 <1>   0.0800 
 30 H       -1.1000    -6.3280     0.8360 H     1 <1>   0.4500 
 31 H       -2.9290    -5.0380     0.4050 H     1 <1>   0.0800 
 32 H       -3.2570    -5.9260    -1.0740 H     1 <1>   0.0800 
 33 H       -1.5860    -8.3390    -1.2170 H     1 <1>   0.0800 
 34 H       -0.8950    -8.5460     0.3840 H     1 <1>   0.0800 
 35 H       -3.5750    -6.8740     1.7460 H     1 <1>   0.0800 
 36 H       -2.9670    -8.9890     1.2300 H     1 <1>   0.0800 
 37 H       -3.8630    -8.6320    -1.6330 H     1 <1>   0.0800 
 38 H       -3.3610   -10.1270    -0.9090 H     1 <1>   0.0800 
 39 H       -6.3740    -6.6010    -1.1300 H     1 <1>   0.4000 
 40 H       -5.7700    -8.6050     1.6290 H     1 <1>   0.0800 
 41 H       -6.9580    -8.2670     0.4260 H     1 <1>   0.0800 
 42 H       -7.0190    -5.9180     1.0350 H     1 <1>   0.0800 
 43 H       -5.8880    -6.1830     2.3070 H     1 <1>   0.0800 
 44 H       -5.3480   -10.3720     0.2730 H     1 <1>   0.0800 
 45 H       -5.8970    -9.5680    -1.1610 H     1 <1>   0.0800 
 46 H       -5.4730    -4.1250     0.1140 H     1 <1>   0.0800 
 47 H       -4.4990    -4.3200     1.5620 H     1 <1>   0.0800 
 48 H       -6.1460    -3.7890     1.6840 H     1 <1>   0.0800 
@<TRIPOS>BOND
  1   1   2  1   
  2   2   3  ar  
  3   2   4  ar  
  4   3   5  ar  
  5   3  22  1   
  6   4   6  ar  
  7   4  23  1   
  8   5   7  ar  
  9   5   8  1   
 10   6   7  ar  
 11   6  24  1   
 12   7   9  1   
 13   8  25  1   
 14   8  26  1   
 15   8  27  1   
 16   9  10  1   
 17   9  28  1   
 18   9  29  1   
 19  10  11  1   
 20  10  12  1   
 21  10  30  1   
 22  11  13  1   
 23  11  31  1   
 24  11  32  1   
 25  12  14  1   
 26  12  33  1   
 27  12  34  1   
 28  13  14  1   
 29  13  15  1   
 30  13  35  1   
 31  14  16  1   
 32  14  36  1   
 33  15  17  1   
 34  15  18  1   
 35  15  19  1   
 36  16  20  1   
 37  16  37  1   
 38  16  38  1   
 39  17  39  1   
 40  18  20  1   
 41  18  40  1   
 42  18  41  1   
 43  19  21  1   
 44  19  42  1   
 45  19  43  1   
 46  20  44  1   
 47  20  45  1   
 48  21  46  1   
 49  21  47  1   
 50  21  48  1   
@<TRIPOS>SUBSTRUCTURE
  1 ****  11 GROUP 4 **** **** 0

# MOE 2024.06 (io_trps.svl 2023.06)
