@<TRIPOS>MOLECULE
NONAME
52 55 1 0 0 
SMALL
USER_CHARGES


@<TRIPOS>ATOM
  1 O        0.1390    -0.1840    -1.2200 O.2   1 <1>  -0.5700 
  2 C        1.0160    -0.6890    -0.5440 C.2   1 <1>   0.5440 
  3 N        1.9050     0.0870     0.1480 N.am  1 <1>  -0.4930 
  4 C        1.1620    -2.1210    -0.4850 C.ar  1 <1>   0.0860 
  5 C        2.1510     1.4810     0.1020 C.2   1 <1>   0.0630 
  6 C        0.1270    -2.9820    -0.0800 C.ar  1 <1>   0.0000 
  7 C        2.3470    -2.7480    -0.8160 C.ar  1 <1>  -0.1500 
  8 C        3.4450     2.0140     0.1540 C.2   1 <1>   0.3720 
  9 C        1.3360     2.5560     0.0210 C.2   1 <1>  -0.3320 
 10 C        0.3700    -4.3390    -0.0440 C.ar  1 <1>   0.1050 
 11 C       -1.2090    -2.8690     0.3570 C.2   1 <1>   0.1080 
 12 C        2.4810    -4.1380    -0.7430 C.ar  1 <1>   0.1660 
 13 N        3.4540     3.3070     0.0870 N.2   1 <1>  -0.7070 
 14 N        4.6140     1.2350     0.2720 N.pl3 1 <1>  -0.8210 
 15 N        2.1480     3.6440    -0.0060 N.pl3 1 <1>   0.3140 
 16 C       -0.1830     2.6270    -0.0210 C.3   1 <1>  -0.0600 
 17 N        1.5270    -4.9480    -0.3640 N.ar  1 <1>  -0.5670 
 18 N       -0.7840    -4.9210     0.3860 N.pl3 1 <1>   0.3140 
 19 N       -1.7480    -4.0100     0.6350 N.2   1 <1>  -0.7070 
 20 C       -1.9800    -1.5760     0.5070 C.3   1 <1>  -0.0590 
 21 C        3.7990    -4.7830    -1.1190 C.3   1 <1>  -0.0970 
 22 C        5.3600     1.5360     1.5260 C.3   1 <1>   0.2090 
 23 C        5.5370     1.4620    -0.8750 C.3   1 <1>   0.2090 
 24 C        1.7430     5.0500    -0.1180 C.3   1 <1>   0.0160 
 25 C       -1.0030    -6.3610     0.5720 C.3   1 <1>   0.0160 
 26 C        6.8300     1.5910     1.1400 C.3   1 <1>  -0.1600 
 27 C        6.8040     2.0790    -0.2980 C.3   1 <1>  -0.1600 
 28 H        2.7130    -0.4000     0.5380 H     1 <1>   0.3700 
 29 H        3.1830    -2.1570    -1.1440 H     1 <1>   0.1500 
 30 H       -0.6090     1.6970     0.3080 H     1 <1>   0.0800 
 31 H       -0.5140     2.8150    -1.0270 H     1 <1>   0.0800 
 32 H       -0.5460     3.4040     0.6260 H     1 <1>   0.0800 
 33 H       -1.4010    -0.8600     1.0610 H     1 <1>   0.0800 
 34 H       -2.9010    -1.7560     1.0310 H     1 <1>   0.0800 
 35 H       -2.2070    -1.1750    -0.4630 H     1 <1>   0.0800 
 36 H        4.5240    -4.0490    -1.4170 H     1 <1>   0.0800 
 37 H        3.6440    -5.4680    -1.9320 H     1 <1>   0.0800 
 38 H        4.1840    -5.3290    -0.2770 H     1 <1>   0.0800 
 39 H        5.1790     0.7730     2.2620 H     1 <1>   0.0800 
 40 H        5.0540     2.4890     1.9260 H     1 <1>   0.0800 
 41 H        5.1010     2.1050    -1.6220 H     1 <1>   0.0800 
 42 H        5.7620     0.5110    -1.3260 H     1 <1>   0.0800 
 43 H        1.0720     5.1600    -0.9480 H     1 <1>   0.0800 
 44 H        2.6160     5.6550    -0.2780 H     1 <1>   0.0800 
 45 H        1.2580     5.3500     0.7910 H     1 <1>   0.0800 
 46 H       -0.2970    -6.7310     1.2910 H     1 <1>   0.0800 
 47 H       -0.8600    -6.8600    -0.3670 H     1 <1>   0.0800 
 48 H       -2.0040    -6.5240     0.9250 H     1 <1>   0.0800 
 49 H        7.2450     0.6000     1.1890 H     1 <1>   0.0800 
 50 H        7.3880     2.2450     1.7860 H     1 <1>   0.0800 
 51 H        6.7030     3.1500    -0.3200 H     1 <1>   0.0800 
 52 H        7.6800     1.7930    -0.8520 H     1 <1>   0.0800 
@<TRIPOS>BOND
  1   1   2  2   
  2   2   3  am  
  3   2   4  1   
  4   3   5  1   
  5   3  28  1   
  6   4   6  ar  
  7   4   7  ar  
  8   5   8  1   
  9   5   9  2   
 10   6  10  ar  
 11   6  11  1   
 12   7  12  ar  
 13   7  29  1   
 14   8  13  2   
 15   8  14  1   
 16   9  15  1   
 17   9  16  1   
 18  10  17  ar  
 19  10  18  1   
 20  11  19  2   
 21  11  20  1   
 22  12  17  ar  
 23  12  21  1   
 24  13  15  1   
 25  14  22  1   
 26  14  23  1   
 27  15  24  1   
 28  16  30  1   
 29  16  31  1   
 30  16  32  1   
 31  18  19  1   
 32  18  25  1   
 33  20  33  1   
 34  20  34  1   
 35  20  35  1   
 36  21  36  1   
 37  21  37  1   
 38  21  38  1   
 39  22  26  1   
 40  22  39  1   
 41  22  40  1   
 42  23  27  1   
 43  23  41  1   
 44  23  42  1   
 45  24  43  1   
 46  24  44  1   
 47  24  45  1   
 48  25  46  1   
 49  25  47  1   
 50  25  48  1   
 51  26  27  1   
 52  26  49  1   
 53  26  50  1   
 54  27  51  1   
 55  27  52  1   
@<TRIPOS>SUBSTRUCTURE
  1 ****   3 GROUP 4 **** **** 0

# MOE 2024.06 (io_trps.svl 2023.06)
