@<TRIPOS>MOLECULE
NONAME
41 43 1 0 0 
SMALL
USER_CHARGES


@<TRIPOS>ATOM
  1 O       -1.0590     0.3840     1.6280 O.2   1 <1>  -0.5700 
  2 C       -1.7940     0.7950     0.7620 C.2   1 <1>   0.6300 
  3 N       -2.8720     0.0660     0.3380 N.am  1 <1>  -0.6600 
  4 C       -1.4710     2.1430     0.1210 C.3   1 <1>  -0.0950 
  5 C       -3.8310     0.4260    -0.7380 C.3   1 <1>   0.1400 
  6 C       -3.2450    -1.2360     0.9490 C.3   1 <1>   0.1400 
  7 C       -1.1440     3.3000     1.0280 C.3   1 <1>  -0.2000 
  8 C       -2.4390     3.2890     0.2710 C.3   1 <1>  -0.2000 
  9 C       -0.6440     1.9140    -1.1540 C.3   1 <1>   0.2150 
 10 C       -5.0160    -0.5160    -0.5280 C.3   1 <1>   0.2000 
 11 C       -4.4010    -1.7720     0.0930 C.3   1 <1>  -0.0800 
 12 O       -0.4430     3.1010    -1.8410 O.3   1 <1>  -0.6800 
 13 O       -5.8650     0.0580     0.4050 O.3   1 <1>  -0.6800 
 14 C       -3.8970    -2.7380    -0.9960 C.3   1 <1>   0.0210 
 15 C       -3.3200    -4.0030    -0.3930 C.2   1 <1>   0.1080 
 16 N       -4.0520    -4.8920     0.2030 N.2   1 <1>  -0.7070 
 17 C       -1.9730    -4.3510    -0.4020 C.2   1 <1>  -0.1500 
 18 N       -3.1830    -5.8430     0.5930 N.pl3 1 <1>   0.3000 
 19 C       -1.9160    -5.5370     0.2400 C.2   1 <1>  -0.3320 
 20 C       -0.7120    -6.4100     0.5420 C.3   1 <1>  -0.0600 
 21 H       -4.1380     1.4550    -0.6890 H     1 <1>   0.0800 
 22 H       -3.3760     0.2330    -1.6930 H     1 <1>   0.0800 
 23 H       -2.4000    -1.9030     0.9740 H     1 <1>   0.0800 
 24 H       -3.5770    -1.0650     1.9590 H     1 <1>   0.0800 
 25 H       -1.1630     3.1300     2.0920 H     1 <1>   0.1000 
 26 H       -0.3900     4.0130     0.7470 H     1 <1>   0.1000 
 27 H       -2.5710     3.9770    -0.5460 H     1 <1>   0.1000 
 28 H       -3.3450     3.1440     0.8330 H     1 <1>   0.1000 
 29 H       -1.1510     1.2380    -1.8190 H     1 <1>   0.0800 
 30 H        0.3180     1.5000    -0.9030 H     1 <1>   0.0800 
 31 H       -5.5790    -0.7020    -1.4260 H     1 <1>   0.0800 
 32 H       -5.1190    -2.2980     0.7000 H     1 <1>   0.0800 
 33 H       -0.0900     3.7750    -1.2290 H     1 <1>   0.4000 
 34 H       -5.3530     0.2790     1.2080 H     1 <1>   0.4000 
 35 H       -3.1500    -2.2640    -1.6060 H     1 <1>   0.0800 
 36 H       -4.7180    -3.0210    -1.6310 H     1 <1>   0.0800 
 37 H       -1.1710    -3.7790    -0.8320 H     1 <1>   0.1500 
 38 H       -3.4850    -6.6850     1.0980 H     1 <1>   0.2700 
 39 H        0.1830    -5.9500     0.1610 H     1 <1>   0.0800 
 40 H       -0.8250    -7.3740     0.0790 H     1 <1>   0.0800 
 41 H       -0.6040    -6.5400     1.6040 H     1 <1>   0.0800 
@<TRIPOS>BOND
  1   1   2  2   
  2   2   3  am  
  3   2   4  1   
  4   3   5  1   
  5   3   6  1   
  6   4   7  1   
  7   4   8  1   
  8   4   9  1   
  9   5  10  1   
 10   5  21  1   
 11   5  22  1   
 12   6  11  1   
 13   6  23  1   
 14   6  24  1   
 15   7   8  1   
 16   7  25  1   
 17   7  26  1   
 18   8  27  1   
 19   8  28  1   
 20   9  12  1   
 21   9  29  1   
 22   9  30  1   
 23  10  11  1   
 24  10  13  1   
 25  10  31  1   
 26  11  14  1   
 27  11  32  1   
 28  12  33  1   
 29  13  34  1   
 30  14  15  1   
 31  14  35  1   
 32  14  36  1   
 33  15  16  2   
 34  15  17  1   
 35  16  18  1   
 36  17  19  2   
 37  17  37  1   
 38  18  19  1   
 39  18  38  1   
 40  19  20  1   
 41  20  39  1   
 42  20  40  1   
 43  20  41  1   
@<TRIPOS>SUBSTRUCTURE
  1 ****   6 GROUP 4 **** **** 0

# MOE 2024.06 (io_trps.svl 2023.06)
