@<TRIPOS>MOLECULE
NONAME
46 48 1 0 0 
SMALL
USER_CHARGES


@<TRIPOS>ATOM
  1 O       -2.0240     0.6820    -1.9760 O.2   1 <1>  -0.5700 
  2 C       -2.0460     0.9690    -0.7950 C.2   1 <1>   0.5440 
  3 N       -2.2780    -0.0340     0.1020 N.am  1 <1>  -0.7300 
  4 C       -1.8310     2.3350    -0.3490 C.ar  1 <1>   0.0860 
  5 C       -2.5230    -1.4510    -0.2480 C.3   1 <1>   0.2200 
  6 C       -1.0950     3.2310    -1.1250 C.ar  1 <1>  -0.1500 
  7 C       -2.3450     2.8080     0.8620 C.ar  1 <1>  -0.1500 
  8 C       -4.0150    -1.7250    -0.1880 C.3   1 <1>  -0.0800 
  9 C       -1.9970    -2.3520     0.8630 C.3   1 <1>   0.1200 
 10 C       -0.8630     4.5330    -0.7200 C.ar  1 <1>  -0.1440 
 11 C       -2.1290     4.1050     1.2940 C.ar  1 <1>  -0.1440 
 12 C       -4.2330    -2.0140     1.3020 C.3   1 <1>   0.1200 
 13 C       -4.4070    -2.9170    -1.0810 C.3   1 <1>  -0.0160 
 14 O       -2.9950    -2.3820     1.8390 O.3   1 <1>  -0.5600 
 15 C       -1.3810     4.9650     0.4950 C.ar  1 <1>   0.0820 
 16 C       -0.0510     5.4710    -1.6020 C.3   1 <1>  -0.0970 
 17 C       -2.7130     4.5610     2.6250 C.3   1 <1>  -0.0970 
 18 C       -5.9070    -3.1650    -1.0480 C.ar  1 <1>  -0.1440 
 19 O       -1.1590     6.2250     0.8980 O.3   1 <1>  -0.5320 
 20 C       -6.7910    -2.3370    -1.7100 C.ar  1 <1>  -0.1500 
 21 C       -6.4630    -4.2240    -0.3590 C.ar  1 <1>  -0.1500 
 22 C       -8.1500    -2.5970    -1.6490 C.ar  1 <1>   0.1600 
 23 C       -7.8380    -4.3950    -0.3610 C.ar  1 <1>   0.1600 
 24 N       -8.6950    -3.6060    -0.9880 N.ar  1 <1>  -0.6200 
 25 H       -2.2680     0.1560     1.1050 H     1 <1>   0.3700 
 26 H       -2.0830    -1.6830    -1.2050 H     1 <1>   0.0800 
 27 H       -0.7010     2.8850    -2.0650 H     1 <1>   0.1500 
 28 H       -2.9320     2.1450     1.4700 H     1 <1>   0.1500 
 29 H       -4.5780    -0.8630    -0.5000 H     1 <1>   0.0800 
 30 H       -1.0780    -1.9910     1.2910 H     1 <1>   0.0800 
 31 H       -1.8610    -3.3570     0.5040 H     1 <1>   0.0800 
 32 H       -4.9390    -2.8060     1.4790 H     1 <1>   0.0800 
 33 H       -4.5580    -1.1270     1.8160 H     1 <1>   0.0800 
 34 H       -3.8860    -3.8060    -0.7700 H     1 <1>   0.0800 
 35 H       -4.1160    -2.7100    -2.0970 H     1 <1>   0.0800 
 36 H        0.2700     4.9790    -2.5020 H     1 <1>   0.0800 
 37 H        0.8160     5.8130    -1.0670 H     1 <1>   0.0800 
 38 H       -0.6490     6.3230    -1.8710 H     1 <1>   0.0800 
 39 H       -3.2600     3.7660     3.0990 H     1 <1>   0.0800 
 40 H       -3.3880     5.3840     2.4700 H     1 <1>   0.0800 
 41 H       -1.9250     4.8670     3.2900 H     1 <1>   0.0800 
 42 H       -1.5710     6.4250     1.7550 H     1 <1>   0.4500 
 43 H       -6.4360    -1.4930    -2.2730 H     1 <1>   0.1500 
 44 H       -5.8430    -4.9170     0.1800 H     1 <1>   0.1500 
 45 H       -8.8240    -1.9410    -2.1710 H     1 <1>   0.1500 
 46 H       -8.2540    -5.2260     0.1820 H     1 <1>   0.1500 
@<TRIPOS>BOND
  1   1   2  2   
  2   2   3  am  
  3   2   4  1   
  4   3   5  1   
  5   3  25  1   
  6   4   6  ar  
  7   4   7  ar  
  8   5   8  1   
  9   5   9  1   
 10   5  26  1   
 11   6  10  ar  
 12   6  27  1   
 13   7  11  ar  
 14   7  28  1   
 15   8  12  1   
 16   8  13  1   
 17   8  29  1   
 18   9  14  1   
 19   9  30  1   
 20   9  31  1   
 21  10  15  ar  
 22  10  16  1   
 23  11  15  ar  
 24  11  17  1   
 25  12  14  1   
 26  12  32  1   
 27  12  33  1   
 28  13  18  1   
 29  13  34  1   
 30  13  35  1   
 31  15  19  1   
 32  16  36  1   
 33  16  37  1   
 34  16  38  1   
 35  17  39  1   
 36  17  40  1   
 37  17  41  1   
 38  18  20  ar  
 39  18  21  ar  
 40  19  42  1   
 41  20  22  ar  
 42  20  43  1   
 43  21  23  ar  
 44  21  44  1   
 45  22  24  ar  
 46  22  45  1   
 47  23  24  ar  
 48  23  46  1   
@<TRIPOS>SUBSTRUCTURE
  1 ****   3 GROUP 4 **** **** 0

# MOE 2024.06 (io_trps.svl 2023.06)
