@<TRIPOS>MOLECULE
NONAME
58 61 1 0 0 
SMALL
USER_CHARGES


@<TRIPOS>ATOM
  1 O       -0.4650     1.7770     1.5330 O.co2 1 <1>  -0.9000 
  2 C       -1.3050     0.8580     1.6870 C.2   1 <1>   0.9790 
  3 O       -0.9240    -0.2980     1.9080 O.co2 1 <1>  -0.9000 
  4 C       -2.7080     1.1850     1.5100 C.ar  1 <1>  -0.1790 
  5 C       -3.1060     2.4850     1.7730 C.ar  1 <1>  -0.1500 
  6 C       -3.6630     0.3230     0.9730 C.ar  1 <1>  -0.1500 
  7 C       -4.2840     2.9990     1.2690 C.ar  1 <1>  -0.1440 
  8 C       -4.9130     0.7890     0.5970 C.ar  1 <1>  -0.1500 
  9 C       -5.2200     2.1460     0.7050 C.ar  1 <1>   0.0830 
 10 C       -4.4100     4.5080     1.1940 C.3   1 <1>   0.4870 
 11 O       -6.3740     2.7000     0.2620 O.3   1 <1>  -0.3630 
 12 N       -3.1160     4.9470     0.5900 N.4   1 <1>  -0.9590 
 13 C       -7.4200     1.8970    -0.2430 C.3   1 <1>   0.0400 
 14 C       -2.5800     6.3090     0.8140 C.3   1 <1>   0.4230 
 15 C       -2.8150     4.3950    -0.7530 C.3   1 <1>   0.3430 
 16 C       -1.1380     6.4210     0.2250 C.3   1 <1>  -0.0800 
 17 C       -3.5650     7.3620     0.2770 C.3   1 <1>  -0.1600 
 18 C       -1.3040     4.1360    -0.8260 C.3   1 <1>  -0.1600 
 19 C       -0.4620     5.0150     0.1300 C.3   1 <1>   0.4240 
 20 C       -1.1520     7.2110    -1.1130 C.3   1 <1>  -0.1600 
 21 C       -2.8700     8.7150     0.0840 C.3   1 <1>  -0.1600 
 22 O       -0.5550     4.4590     1.3980 O.3   1 <1>  -0.6800 
 23 C        1.0390     4.9780    -0.2220 C.ar  1 <1>  -0.1430 
 24 C       -1.7120     8.6320    -0.9280 C.3   1 <1>  -0.1600 
 25 C        1.6430     3.7500    -0.4810 C.ar  1 <1>  -0.1500 
 26 C        1.8450     6.1140    -0.2610 C.ar  1 <1>  -0.1500 
 27 C        2.9830     3.6620    -0.8110 C.ar  1 <1>  -0.1500 
 28 C        3.1870     6.0300    -0.5930 C.ar  1 <1>  -0.1500 
 29 C        3.7570     4.8040    -0.8760 C.ar  1 <1>  -0.1500 
 30 H       -2.4130     3.0990     2.3210 H     1 <1>   0.1500 
 31 H       -3.3940    -0.7120     0.8360 H     1 <1>   0.1500 
 32 H       -5.6170     0.0860     0.1950 H     1 <1>   0.1500 
 33 H       -4.5310     4.9170     2.1830 H     1 <1>   0.0800 
 34 H       -5.2420     4.7960     0.5730 H     1 <1>   0.0800 
 35 H       -2.4370     4.3970     1.1530 H     1 <1>   0.4500 
 36 H       -8.2450     2.5390    -0.4960 H     1 <1>   0.0800 
 37 H       -7.7220     1.1980     0.5180 H     1 <1>   0.0800 
 38 H       -7.0750     1.3820    -1.1220 H     1 <1>   0.0800 
 39 H       -2.4870     6.4560     1.8780 H     1 <1>   0.0800 
 40 H       -3.3410     3.4680    -0.9180 H     1 <1>   0.0800 
 41 H       -3.1170     5.0980    -1.5110 H     1 <1>   0.0800 
 42 H       -0.5670     7.0040     0.9250 H     1 <1>   0.0800 
 43 H       -3.9730     7.0500    -0.6690 H     1 <1>   0.0800 
 44 H       -4.3770     7.4780     0.9730 H     1 <1>   0.0800 
 45 H       -0.9860     4.3100    -1.8370 H     1 <1>   0.0800 
 46 H       -1.1250     3.0950    -0.6260 H     1 <1>   0.0800 
 47 H       -0.1690     7.2820    -1.5420 H     1 <1>   0.0800 
 48 H       -1.7600     6.7030    -1.8400 H     1 <1>   0.0800 
 49 H       -3.5830     9.4520    -0.2480 H     1 <1>   0.0800 
 50 H       -2.4850     9.0490     1.0330 H     1 <1>   0.0800 
 51 H       -0.2520     3.4960     1.3910 H     1 <1>   0.4000 
 52 H       -0.9240     9.2890    -0.6020 H     1 <1>   0.0800 
 53 H       -2.0480     8.9940    -1.8850 H     1 <1>   0.0800 
 54 H        1.0820     2.8310    -0.4110 H     1 <1>   0.1500 
 55 H        1.4580     7.0860    -0.0250 H     1 <1>   0.1500 
 56 H        3.4210     2.6990    -1.0080 H     1 <1>   0.1500 
 57 H        3.7900     6.9210    -0.6260 H     1 <1>   0.1500 
 58 H        4.7990     4.7360    -1.1330 H     1 <1>   0.1500 
@<TRIPOS>BOND
  1   1   2  ar  
  2   2   3  ar  
  3   2   4  1   
  4   4   5  ar  
  5   4   6  ar  
  6   5   7  ar  
  7   5  30  1   
  8   6   8  ar  
  9   6  31  1   
 10   7   9  ar  
 11   7  10  1   
 12   8   9  ar  
 13   8  32  1   
 14   9  11  1   
 15  10  12  1   
 16  10  33  1   
 17  10  34  1   
 18  11  13  1   
 19  12  14  1   
 20  12  15  1   
 21  12  35  1   
 22  13  36  1   
 23  13  37  1   
 24  13  38  1   
 25  14  16  1   
 26  14  17  1   
 27  14  39  1   
 28  15  18  1   
 29  15  40  1   
 30  15  41  1   
 31  16  19  1   
 32  16  20  1   
 33  16  42  1   
 34  17  21  1   
 35  17  43  1   
 36  17  44  1   
 37  18  19  1   
 38  18  45  1   
 39  18  46  1   
 40  19  22  1   
 41  19  23  1   
 42  20  24  1   
 43  20  47  1   
 44  20  48  1   
 45  21  24  1   
 46  21  49  1   
 47  21  50  1   
 48  22  51  1   
 49  23  25  ar  
 50  23  26  ar  
 51  24  52  1   
 52  24  53  1   
 53  25  27  ar  
 54  25  54  1   
 55  26  28  ar  
 56  26  55  1   
 57  27  29  ar  
 58  27  56  1   
 59  28  29  ar  
 60  28  57  1   
 61  29  58  1   
@<TRIPOS>SUBSTRUCTURE
  1 ****  18 GROUP 4 **** **** 0

# MOE 2024.06 (io_trps.svl 2023.06)
