@<TRIPOS>MOLECULE
NONAME
46 47 1 0 0 
SMALL
USER_CHARGES


@<TRIPOS>ATOM
  1 F        1.7120     0.6890     0.2030 F     1 <1>  -0.1900 
  2 C        2.2130    -0.5130     0.2940 C.ar  1 <1>   0.1900 
  3 C        1.7120    -1.5020    -0.5280 C.ar  1 <1>  -0.1500 
  4 C        3.2180    -0.7530     1.2070 C.ar  1 <1>  -0.1500 
  5 C        2.2310    -2.7870    -0.4340 C.ar  1 <1>  -0.1440 
  6 C        3.7370    -2.0320     1.2920 C.ar  1 <1>  -0.1500 
  7 C        3.2560    -3.0510     0.4780 C.ar  1 <1>  -0.1430 
  8 C        1.6520    -3.8660    -1.3310 C.3   1 <1>   0.4870 
  9 C        3.8860    -4.4330     0.6200 C.3   1 <1>  -0.0970 
 10 N        0.7640    -4.7350    -0.5230 N.4   1 <1>  -0.9590 
 11 C        0.3610    -5.9640    -1.2780 C.3   1 <1>   0.3430 
 12 C       -0.4290    -4.0100    -0.0040 C.3   1 <1>   0.3430 
 13 C       -0.4360    -6.9260    -0.3940 C.3   1 <1>   0.2000 
 14 C       -1.2210    -4.9220     0.9300 C.3   1 <1>  -0.1600 
 15 O       -0.8370    -7.9980    -1.1630 O.3   1 <1>  -0.6800 
 16 C       -1.6530    -6.2930     0.3260 C.3   1 <1>  -0.1060 
 17 C       -1.9820    -7.2910     1.4500 C.2   1 <1>   0.9060 
 18 C       -2.9500    -6.1460    -0.5360 C.3   1 <1>  -0.1600 
 19 O       -2.0530    -6.8970     2.6160 O.co2 1 <1>  -0.9000 
 20 O       -2.1100    -8.4840     1.1440 O.co2 1 <1>  -0.9000 
 21 C       -2.9300    -5.2480    -1.7840 C.3   1 <1>  -0.1600 
 22 C       -4.2740    -5.3180    -2.5130 C.3   1 <1>  -0.2400 
 23 H        0.9300    -1.2490    -1.2220 H     1 <1>   0.1500 
 24 H        3.5830     0.0430     1.8310 H     1 <1>   0.1500 
 25 H        4.5260    -2.2240     2.0010 H     1 <1>   0.1500 
 26 H        2.4550    -4.4470    -1.7530 H     1 <1>   0.0800 
 27 H        1.0970    -3.4180    -2.1390 H     1 <1>   0.0800 
 28 H        4.8280    -4.3660     1.1380 H     1 <1>   0.0800 
 29 H        4.0810    -4.8720    -0.3420 H     1 <1>   0.0800 
 30 H        3.2440    -5.0820     1.1880 H     1 <1>   0.0800 
 31 H        1.2980    -5.0260     0.3050 H     1 <1>   0.4500 
 32 H       -0.2390    -5.6900    -2.1270 H     1 <1>   0.0800 
 33 H        1.2360    -6.4820    -1.6320 H     1 <1>   0.0800 
 34 H       -0.1180    -3.1370     0.5480 H     1 <1>   0.0800 
 35 H       -1.0440    -3.6850    -0.8230 H     1 <1>   0.0800 
 36 H        0.2350    -7.3240     0.3480 H     1 <1>   0.0800 
 37 H       -0.6040    -5.0920     1.7970 H     1 <1>   0.0800 
 38 H       -2.0940    -4.4010     1.2850 H     1 <1>   0.0800 
 39 H       -1.3990    -8.5600    -0.5510 H     1 <1>   0.4000 
 40 H       -3.2560    -7.1320    -0.8460 H     1 <1>   0.0800 
 41 H       -3.7330    -5.7950     0.1160 H     1 <1>   0.0800 
 42 H       -2.7610    -4.2250    -1.5100 H     1 <1>   0.0800 
 43 H       -2.1670    -5.5740    -2.4660 H     1 <1>   0.0800 
 44 H       -5.0710    -4.9930    -1.8670 H     1 <1>   0.0800 
 45 H       -4.4780    -6.3270    -2.8280 H     1 <1>   0.0800 
 46 H       -4.2600    -4.6860    -3.3830 H     1 <1>   0.0800 
@<TRIPOS>BOND
  1   1   2  1   
  2   2   3  ar  
  3   2   4  ar  
  4   3   5  ar  
  5   3  23  1   
  6   4   6  ar  
  7   4  24  1   
  8   5   7  ar  
  9   5   8  1   
 10   6   7  ar  
 11   6  25  1   
 12   7   9  1   
 13   8  10  1   
 14   8  26  1   
 15   8  27  1   
 16   9  28  1   
 17   9  29  1   
 18   9  30  1   
 19  10  11  1   
 20  10  12  1   
 21  10  31  1   
 22  11  13  1   
 23  11  32  1   
 24  11  33  1   
 25  12  14  1   
 26  12  34  1   
 27  12  35  1   
 28  13  15  1   
 29  13  16  1   
 30  13  36  1   
 31  14  16  1   
 32  14  37  1   
 33  14  38  1   
 34  15  39  1   
 35  16  17  1   
 36  16  18  1   
 37  17  19  ar  
 38  17  20  ar  
 39  18  21  1   
 40  18  40  1   
 41  18  41  1   
 42  21  22  1   
 43  21  42  1   
 44  21  43  1   
 45  22  44  1   
 46  22  45  1   
 47  22  46  1   
@<TRIPOS>SUBSTRUCTURE
  1 ****  12 GROUP 4 **** **** 0

# MOE 2024.06 (io_trps.svl 2023.06)
