@<TRIPOS>MOLECULE
NONAME
55 58 1 0 0 
SMALL
USER_CHARGES


@<TRIPOS>ATOM
  1 O       -0.9320    -0.3280     1.5910 O.2   1 <1>  -0.5700 
  2 C       -1.7810    -0.1540     0.7500 C.2   1 <1>   0.5690 
  3 N       -2.0130     0.9950     0.0770 N.am  1 <1>  -0.6600 
  4 C       -2.7390    -1.2300     0.3290 C.3   1 <1>  -0.0990 
  5 C       -1.2990     2.2700     0.3500 C.3   1 <1>   0.2200 
  6 C       -3.1250     0.8680    -0.8840 C.3   1 <1>   0.1400 
  7 C       -3.4230    -0.6400    -0.9200 C.3   1 <1>  -0.0800 
  8 C       -2.2480     3.3070     0.9660 C.3   1 <1>  -0.1600 
  9 C       -0.7670     2.9010    -0.9380 C.3   1 <1>  -0.1600 
 10 C       -4.9250    -0.9310    -0.9870 C.3   1 <1>   0.2090 
 11 C       -2.3690     4.4660    -0.0320 C.3   1 <1>  -0.1600 
 12 C       -1.7980     3.9510    -1.3510 C.3   1 <1>  -0.1600 
 13 N       -5.1480    -2.3950    -0.9780 N.pl3 1 <1>  -0.8690 
 14 C       -6.2660    -3.0010    -0.4570 C.ar  1 <1>   0.4100 
 15 N       -7.2010    -2.2370     0.0720 N.ar  1 <1>  -0.6200 
 16 C       -6.3990    -4.3660    -0.4940 C.ar  1 <1>  -0.1500 
 17 C       -8.2510    -2.8810     0.5450 C.ar  1 <1>   0.4700 
 18 C       -7.5340    -4.9280     0.0360 C.ar  1 <1>   0.4100 
 19 N       -8.4850    -4.1770     0.5620 N.ar  1 <1>  -0.6200 
 20 N       -7.7120    -6.2960     0.0430 N.pl3 1 <1>  -0.8380 
 21 C       -9.0930    -6.8400    -0.0560 C.3   1 <1>   0.2090 
 22 C       -6.7910    -7.1120     0.8730 C.3   1 <1>   0.2090 
 23 C       -9.0400    -8.2500    -0.6450 C.3   1 <1>  -0.1600 
 24 C       -6.7040    -8.5230     0.2900 C.3   1 <1>  -0.1600 
 25 C       -8.1010    -9.1330     0.1750 C.3   1 <1>   0.2000 
 26 O       -7.9920   -10.3560    -0.4500 O.3   1 <1>  -0.6800 
 27 H       -3.4410    -1.3960     1.1260 H     1 <1>   0.0800 
 28 H       -2.2170    -2.1410     0.1070 H     1 <1>   0.0800 
 29 H       -0.4790     2.0750     1.0220 H     1 <1>   0.0800 
 30 H       -2.8350     1.2210    -1.8580 H     1 <1>   0.0800 
 31 H       -3.9710     1.4300    -0.5270 H     1 <1>   0.0800 
 32 H       -2.9500    -1.0400    -1.8000 H     1 <1>   0.0800 
 33 H       -1.8360     3.6690     1.8910 H     1 <1>   0.0800 
 34 H       -3.2120     2.8770     1.1730 H     1 <1>   0.0800 
 35 H       -0.5770     2.1740    -1.7070 H     1 <1>   0.0800 
 36 H        0.1560     3.4030    -0.7090 H     1 <1>   0.0800 
 37 H       -5.3480    -0.5150    -1.8860 H     1 <1>   0.0800 
 38 H       -5.4150    -0.4800    -0.1400 H     1 <1>   0.0800 
 39 H       -1.7700     5.2920     0.3130 H     1 <1>   0.0800 
 40 H       -3.3870     4.7970    -0.1410 H     1 <1>   0.0800 
 41 H       -2.5820     3.4930    -1.9270 H     1 <1>   0.0800 
 42 H       -1.3560     4.7420    -1.9330 H     1 <1>   0.0800 
 43 H       -4.5830    -2.9370    -1.6330 H     1 <1>   0.4000 
 44 H       -5.6430    -4.9860    -0.9270 H     1 <1>   0.1500 
 45 H       -9.0200    -2.2630     0.9770 H     1 <1>   0.1500 
 46 H       -9.6900    -6.2040    -0.6890 H     1 <1>   0.0800 
 47 H       -9.5390    -6.8580     0.9240 H     1 <1>   0.0800 
 48 H       -7.1670    -7.1510     1.8810 H     1 <1>   0.0800 
 49 H       -5.8120    -6.6640     0.8950 H     1 <1>   0.0800 
 50 H       -8.6970    -8.1790    -1.6610 H     1 <1>   0.0800 
 51 H      -10.0290    -8.6710    -0.6410 H     1 <1>   0.0800 
 52 H       -6.0940    -9.1330     0.9310 H     1 <1>   0.0800 
 53 H       -6.2400    -8.4630    -0.6780 H     1 <1>   0.0800 
 54 H       -8.5130    -9.3020     1.1570 H     1 <1>   0.0800 
 55 H       -7.6380   -10.2330    -1.3500 H     1 <1>   0.4000 
@<TRIPOS>BOND
  1   1   2  2   
  2   2   3  am  
  3   2   4  1   
  4   3   5  1   
  5   3   6  1   
  6   4   7  1   
  7   4  27  1   
  8   4  28  1   
  9   5   8  1   
 10   5   9  1   
 11   5  29  1   
 12   6   7  1   
 13   6  30  1   
 14   6  31  1   
 15   7  10  1   
 16   7  32  1   
 17   8  11  1   
 18   8  33  1   
 19   8  34  1   
 20   9  12  1   
 21   9  35  1   
 22   9  36  1   
 23  10  13  1   
 24  10  37  1   
 25  10  38  1   
 26  11  12  1   
 27  11  39  1   
 28  11  40  1   
 29  12  41  1   
 30  12  42  1   
 31  13  14  1   
 32  13  43  1   
 33  14  15  ar  
 34  14  16  ar  
 35  15  17  ar  
 36  16  18  ar  
 37  16  44  1   
 38  17  19  ar  
 39  17  45  1   
 40  18  19  ar  
 41  18  20  1   
 42  20  21  1   
 43  20  22  1   
 44  21  23  1   
 45  21  46  1   
 46  21  47  1   
 47  22  24  1   
 48  22  48  1   
 49  22  49  1   
 50  23  25  1   
 51  23  50  1   
 52  23  51  1   
 53  24  25  1   
 54  24  52  1   
 55  24  53  1   
 56  25  26  1   
 57  25  54  1   
 58  26  55  1   
@<TRIPOS>SUBSTRUCTURE
  1 ****  13 GROUP 4 **** **** 0

# MOE 2024.06 (io_trps.svl 2023.06)
