@<TRIPOS>MOLECULE
NONAME
54 56 1 0 0 
SMALL
USER_CHARGES


@<TRIPOS>ATOM
  1 CL      -0.7880    -0.8760    -2.1290 Cl    1 <1>  -0.1770 
  2 C       -1.8920    -1.1410    -0.7920 C.ar  1 <1>   0.1770 
  3 C       -2.3840    -0.1190     0.0330 C.ar  1 <1>   0.0830 
  4 C       -2.2720    -2.4540    -0.5950 C.ar  1 <1>  -0.1500 
  5 O       -2.1070     1.2080    -0.0250 O.3   1 <1>  -0.3630 
  6 C       -3.2630    -0.4760     1.0450 C.ar  1 <1>  -0.1500 
  7 C       -3.1610    -2.8140     0.4160 C.ar  1 <1>   0.0860 
  8 C       -1.1150     1.7860    -0.8400 C.3   1 <1>   0.1200 
  9 C       -3.6400    -1.7920     1.2350 C.ar  1 <1>  -0.1500 
 10 C       -3.5590    -4.1970     0.6030 C.2   1 <1>   0.5440 
 11 C       -1.0070     3.2680    -0.4780 C.3   1 <1>  -0.1600 
 12 O       -2.7640    -5.0960     0.3940 O.2   1 <1>  -0.5700 
 13 N       -4.8340    -4.5440     0.9890 N.am  1 <1>  -0.6600 
 14 C        0.0580     3.9720    -1.3260 C.3   1 <1>  -0.2400 
 15 C       -5.1140    -5.9180     1.4970 C.3   1 <1>   0.1400 
 16 C       -6.0400    -3.8730     0.4250 C.3   1 <1>   0.1400 
 17 C       -5.5840    -6.7790     0.3040 C.3   1 <1>   0.4230 
 18 C       -6.6090    -4.7340    -0.7170 C.3   1 <1>  -0.1600 
 19 N       -5.7600    -8.2410     0.5970 N.4   1 <1>  -0.9590 
 20 C       -6.8940    -6.2030    -0.2830 C.3   1 <1>  -0.1060 
 21 C       -6.1120    -9.0590    -0.6010 C.3   1 <1>   0.3430 
 22 C       -4.6950    -8.8640     1.4250 C.3   1 <1>   0.2630 
 23 C       -7.9650    -6.2600     0.8230 C.2   1 <1>   0.9060 
 24 C       -7.3720    -7.0330    -1.5120 C.3   1 <1>  -0.1600 
 25 C       -6.4310    -8.2050    -1.8370 C.3   1 <1>  -0.1600 
 26 O       -8.0330    -7.2840     1.5200 O.co2 1 <1>  -0.9000 
 27 O       -8.7070    -5.2980     1.0150 O.co2 1 <1>  -0.9000 
 28 H       -1.8740    -3.2180    -1.2390 H     1 <1>   0.1500 
 29 H       -3.6500     0.2930     1.6900 H     1 <1>   0.1500 
 30 H       -0.1820     1.2840    -0.6530 H     1 <1>   0.0800 
 31 H       -1.4100     1.6720    -1.8680 H     1 <1>   0.0800 
 32 H       -4.3190    -2.0370     2.0360 H     1 <1>   0.1500 
 33 H       -1.9590     3.7420    -0.6410 H     1 <1>   0.0800 
 34 H       -0.7490     3.3600     0.5630 H     1 <1>   0.0800 
 35 H       -0.1880     3.9050    -2.3720 H     1 <1>   0.0800 
 36 H        1.0230     3.5230    -1.1680 H     1 <1>   0.0800 
 37 H        0.1160     5.0110    -1.0550 H     1 <1>   0.0800 
 38 H       -4.2150    -6.3210     1.9250 H     1 <1>   0.0800 
 39 H       -5.8660    -5.8700     2.2660 H     1 <1>   0.0800 
 40 H       -6.7760    -3.7460     1.2030 H     1 <1>   0.0800 
 41 H       -5.7950    -2.8970     0.0440 H     1 <1>   0.0800 
 42 H       -4.8150    -6.6890    -0.4450 H     1 <1>   0.0800 
 43 H       -7.5220    -4.2790    -1.0620 H     1 <1>   0.0800 
 44 H       -5.9120    -4.7190    -1.5370 H     1 <1>   0.0800 
 45 H       -6.6510    -8.2040     1.1650 H     1 <1>   0.4500 
 46 H       -5.3010    -9.7260    -0.8410 H     1 <1>   0.0800 
 47 H       -6.9760    -9.6590    -0.3610 H     1 <1>   0.0800 
 48 H       -3.7460    -8.8050     0.9170 H     1 <1>   0.0800 
 49 H       -4.9300    -9.8980     1.6150 H     1 <1>   0.0800 
 50 H       -4.6150    -8.3560     2.3730 H     1 <1>   0.0800 
 51 H       -8.3540    -7.4300    -1.3070 H     1 <1>   0.0800 
 52 H       -7.4730    -6.4070    -2.3820 H     1 <1>   0.0800 
 53 H       -5.5130    -7.8290    -2.2530 H     1 <1>   0.0800 
 54 H       -6.8850    -8.8290    -2.5860 H     1 <1>   0.0800 
@<TRIPOS>BOND
  1   1   2  1   
  2   2   3  ar  
  3   2   4  ar  
  4   3   5  1   
  5   3   6  ar  
  6   4   7  ar  
  7   4  28  1   
  8   5   8  1   
  9   6   9  ar  
 10   6  29  1   
 11   7   9  ar  
 12   7  10  1   
 13   8  11  1   
 14   8  30  1   
 15   8  31  1   
 16   9  32  1   
 17  10  12  2   
 18  10  13  am  
 19  11  14  1   
 20  11  33  1   
 21  11  34  1   
 22  13  15  1   
 23  13  16  1   
 24  14  35  1   
 25  14  36  1   
 26  14  37  1   
 27  15  17  1   
 28  15  38  1   
 29  15  39  1   
 30  16  18  1   
 31  16  40  1   
 32  16  41  1   
 33  17  19  1   
 34  17  20  1   
 35  17  42  1   
 36  18  20  1   
 37  18  43  1   
 38  18  44  1   
 39  19  21  1   
 40  19  22  1   
 41  19  45  1   
 42  20  23  1   
 43  20  24  1   
 44  21  25  1   
 45  21  46  1   
 46  21  47  1   
 47  22  48  1   
 48  22  49  1   
 49  22  50  1   
 50  23  26  ar  
 51  23  27  ar  
 52  24  25  1   
 53  24  51  1   
 54  24  52  1   
 55  25  53  1   
 56  25  54  1   
@<TRIPOS>SUBSTRUCTURE
  1 ****  10 GROUP 4 **** **** 0

# MOE 2024.06 (io_trps.svl 2023.06)
