@<TRIPOS>MOLECULE
NONAME
24 24 1 0 0 
SMALL
USER_CHARGES


@<TRIPOS>ATOM
  1 CL       0.1650     0.2440    -1.4460 Cl    1 <1>  -0.1770 
  2 C       -0.0060     1.8980    -0.9250 C.ar  1 <1>   0.1770 
  3 C       -1.2490     2.3640    -0.5470 C.ar  1 <1>  -0.1500 
  4 C        1.1020     2.7170    -0.8980 C.ar  1 <1>  -0.1500 
  5 C       -1.4090     3.6840    -0.1290 C.ar  1 <1>  -0.1440 
  6 C        0.9610     4.0290    -0.4850 C.ar  1 <1>  -0.1500 
  7 C       -0.2820     4.5220    -0.1020 C.ar  1 <1>  -0.1430 
  8 C       -2.8060     4.1850     0.2830 C.3   1 <1>   1.1640 
  9 C       -0.3460     5.9800     0.3400 C.3   1 <1>   0.4870 
 10 F       -3.1720     5.2110    -0.4810 F     1 <1>  -0.3400 
 11 F       -2.8110     4.6440     1.5260 F     1 <1>  -0.3400 
 12 F       -3.7710     3.2840     0.1980 F     1 <1>  -0.3400 
 13 N       -0.7730     6.7900    -0.8240 N.4   1 <1>  -0.9060 
 14 C       -0.7780     8.2570    -0.5500 C.3   1 <1>   0.2630 
 15 H       -2.0770     1.6740    -0.5870 H     1 <1>   0.1500 
 16 H        2.0600     2.3250    -1.1960 H     1 <1>   0.1500 
 17 H        1.8400     4.6530    -0.4640 H     1 <1>   0.1500 
 18 H        0.6300     6.2970     0.6720 H     1 <1>   0.0800 
 19 H       -1.0350     6.1020     1.1600 H     1 <1>   0.0800 
 20 H       -1.7180     6.4850    -1.1060 H     1 <1>   0.4500 
 21 H       -0.1560     6.5700    -1.6170 H     1 <1>   0.4500 
 22 H       -1.4540     8.4870     0.2590 H     1 <1>   0.0800 
 23 H       -1.0990     8.7990    -1.4260 H     1 <1>   0.0800 
 24 H        0.2100     8.5950    -0.2820 H     1 <1>   0.0800 
@<TRIPOS>BOND
  1   1   2  1   
  2   2   3  ar  
  3   2   4  ar  
  4   3   5  ar  
  5   3  15  1   
  6   4   6  ar  
  7   4  16  1   
  8   5   7  ar  
  9   5   8  1   
 10   6   7  ar  
 11   6  17  1   
 12   7   9  1   
 13   8  10  1   
 14   8  11  1   
 15   8  12  1   
 16   9  13  1   
 17   9  18  1   
 18   9  19  1   
 19  13  14  1   
 20  13  20  1   
 21  13  21  1   
 22  14  22  1   
 23  14  23  1   
 24  14  24  1   
@<TRIPOS>SUBSTRUCTURE
  1 ****   5 GROUP 4 **** **** 0

# MOE 2024.06 (io_trps.svl 2023.06)
