@<TRIPOS>MOLECULE
NONAME
56 59 1 0 0 
SMALL
USER_CHARGES


@<TRIPOS>ATOM
  1 O       -0.9510    -0.0830    -0.7450 O.2   1 <1>  -0.5700 
  2 C       -1.7490     0.7850    -1.0550 C.2   1 <1>   0.5440 
  3 N       -3.0510     0.3870    -1.2770 N.am  1 <1>  -0.6600 
  4 C       -1.3420     2.1760    -1.1310 C.ar  1 <1>   0.0860 
  5 C       -3.3290    -1.0490    -1.5300 C.3   1 <1>   0.1400 
  6 C       -4.1770     1.1030    -0.6180 C.3   1 <1>   0.1400 
  7 C       -0.3660     2.6830    -0.2870 C.ar  1 <1>  -0.1500 
  8 C       -1.9300     3.0560    -2.0660 C.ar  1 <1>  -0.1500 
  9 C       -3.5520    -1.7490    -0.1710 C.3   1 <1>   0.4230 
 10 C       -4.4440     0.4310     0.7360 C.3   1 <1>  -0.1600 
 11 C        0.0070     4.0260    -0.3440 C.ar  1 <1>   0.0000 
 12 C       -1.5760     4.3820    -2.1400 C.ar  1 <1>  -0.1500 
 13 N       -3.6220    -3.2670    -0.2590 N.4   1 <1>  -0.9590 
 14 C       -4.7180    -1.1000     0.6360 C.3   1 <1>   0.0000 
 15 C       -0.6020     4.8680    -1.2660 C.ar  1 <1>  -0.1520 
 16 C        0.9350     4.8180     0.3700 C.2   1 <1>  -0.1810 
 17 C       -4.2310    -3.9220     0.9430 C.3   1 <1>   0.3430 
 18 C       -4.2360    -3.8160    -1.5120 C.3   1 <1>   0.2630 
 19 C       -4.7420    -1.6990     2.0740 C.3   1 <1>  -0.1600 
 20 C       -6.0740    -1.3590    -0.0820 C.3   1 <1>   0.1200 
 21 N       -0.0690     6.1190    -1.1210 N.pl3 1 <1>   0.0330 
 22 C        0.8650     6.0800    -0.1230 C.2   1 <1>  -0.3320 
 23 C        1.8120     4.2590     1.4740 C.3   1 <1>  -0.0590 
 24 C       -4.0370    -3.0640     2.1920 C.3   1 <1>  -0.1600 
 25 O       -7.1060    -0.6360     0.4920 O.3   1 <1>  -0.6800 
 26 C        1.6330     7.3300     0.2690 C.3   1 <1>  -0.0600 
 27 H       -4.1880    -1.1300    -2.1700 H     1 <1>   0.0800 
 28 H       -2.4850    -1.4880    -2.0340 H     1 <1>   0.0800 
 29 H       -3.9280     2.1390    -0.4610 H     1 <1>   0.0800 
 30 H       -5.0530     1.0650    -1.2450 H     1 <1>   0.0800 
 31 H        0.1180     2.0420     0.4260 H     1 <1>   0.1500 
 32 H       -2.6730     2.6670    -2.7390 H     1 <1>   0.1500 
 33 H       -2.6620    -1.5260     0.3960 H     1 <1>   0.0800 
 34 H       -3.5780     0.6060     1.3520 H     1 <1>   0.0800 
 35 H       -5.2650     0.9350     1.2160 H     1 <1>   0.0800 
 36 H       -2.0320     5.0430    -2.8550 H     1 <1>   0.1500 
 37 H       -2.6310    -3.5550    -0.2650 H     1 <1>   0.4500 
 38 H       -5.2880    -4.0610     0.7870 H     1 <1>   0.0800 
 39 H       -3.7880    -4.8940     1.0950 H     1 <1>   0.0800 
 40 H       -5.2660    -3.5090    -1.5940 H     1 <1>   0.0800 
 41 H       -4.1990    -4.8940    -1.5050 H     1 <1>   0.0800 
 42 H       -3.7010    -3.4680    -2.3810 H     1 <1>   0.0800 
 43 H       -4.2630    -1.0310     2.7710 H     1 <1>   0.0800 
 44 H       -5.7580    -1.8020     2.4160 H     1 <1>   0.0800 
 45 H       -6.3500    -2.3980    -0.0420 H     1 <1>   0.0800 
 46 H       -6.0360    -1.0580    -1.1130 H     1 <1>   0.0800 
 47 H       -0.3280     6.9400    -1.6750 H     1 <1>   0.2700 
 48 H        2.4310     3.4730     1.0810 H     1 <1>   0.0800 
 49 H        1.1960     3.8580     2.2580 H     1 <1>   0.0800 
 50 H        2.4450     5.0190     1.8900 H     1 <1>   0.0800 
 51 H       -4.4270    -3.5890     3.0480 H     1 <1>   0.0800 
 52 H       -2.9830    -2.9240     2.3630 H     1 <1>   0.0800 
 53 H       -7.2580    -0.8840     1.4260 H     1 <1>   0.4000 
 54 H        2.3240     7.1250     1.0660 H     1 <1>   0.0800 
 55 H        0.9510     8.0930     0.6000 H     1 <1>   0.0800 
 56 H        2.1890     7.7000    -0.5740 H     1 <1>   0.0800 
@<TRIPOS>BOND
  1   1   2  2   
  2   2   3  am  
  3   2   4  1   
  4   3   5  1   
  5   3   6  1   
  6   4   7  ar  
  7   4   8  ar  
  8   5   9  1   
  9   5  27  1   
 10   5  28  1   
 11   6  10  1   
 12   6  29  1   
 13   6  30  1   
 14   7  11  ar  
 15   7  31  1   
 16   8  12  ar  
 17   8  32  1   
 18   9  13  1   
 19   9  14  1   
 20   9  33  1   
 21  10  14  1   
 22  10  34  1   
 23  10  35  1   
 24  11  15  ar  
 25  11  16  1   
 26  12  15  ar  
 27  12  36  1   
 28  13  17  1   
 29  13  18  1   
 30  13  37  1   
 31  14  19  1   
 32  14  20  1   
 33  15  21  1   
 34  16  22  2   
 35  16  23  1   
 36  17  24  1   
 37  17  38  1   
 38  17  39  1   
 39  18  40  1   
 40  18  41  1   
 41  18  42  1   
 42  19  24  1   
 43  19  43  1   
 44  19  44  1   
 45  20  25  1   
 46  20  45  1   
 47  20  46  1   
 48  21  22  1   
 49  21  47  1   
 50  22  26  1   
 51  23  48  1   
 52  23  49  1   
 53  23  50  1   
 54  24  51  1   
 55  24  52  1   
 56  25  53  1   
 57  26  54  1   
 58  26  55  1   
 59  26  56  1   
@<TRIPOS>SUBSTRUCTURE
  1 ****   2 GROUP 4 **** **** 0

# MOE 2024.06 (io_trps.svl 2023.06)
