@<TRIPOS>MOLECULE
NONAME
48 50 1 0 0 
SMALL
USER_CHARGES


@<TRIPOS>ATOM
  1 CL      -0.1080     0.7460     0.1980 Cl    1 <1>  -0.1770 
  2 C        0.9480    -0.6400     0.4160 C.ar  1 <1>   0.1770 
  3 C        0.5780    -1.9190     0.0100 C.ar  1 <1>   0.4100 
  4 C        2.1740    -0.4760     0.9980 C.ar  1 <1>   0.1600 
  5 N        1.3980    -2.9410     0.1900 N.ar  1 <1>  -0.6200 
  6 N       -0.6430    -2.2110    -0.5790 N.pl3 1 <1>  -0.8380 
  7 N        3.0010    -1.4920     1.1790 N.ar  1 <1>  -0.6200 
  8 C        2.5610    -2.6650     0.7560 C.ar  1 <1>   0.4770 
  9 C       -1.8880    -2.0340     0.1800 C.3   1 <1>   0.2090 
 10 C       -0.7130    -3.1000    -1.7550 C.3   1 <1>   0.2090 
 11 C        3.4980    -3.8320     0.9510 C.3   1 <1>  -0.0960 
 12 C       -2.3410    -3.4110     0.6630 C.3   1 <1>  -0.1600 
 13 C       -1.1430    -4.4830    -1.2790 C.3   1 <1>  -0.1600 
 14 C       -2.4700    -4.4480    -0.4830 C.3   1 <1>   0.5640 
 15 N       -2.6490    -5.8190     0.1660 N.4   1 <1>  -0.9590 
 16 C       -3.6620    -4.1050    -1.4550 C.2   1 <1>   0.5690 
 17 C       -2.6630    -6.9380    -0.8390 C.3   1 <1>   0.3430 
 18 C       -3.8740    -5.9120     1.0240 C.3   1 <1>   0.3430 
 19 O       -3.7520    -4.7100    -2.4940 O.2   1 <1>  -0.5700 
 20 N       -4.6400    -3.2070    -1.1690 N.am  1 <1>  -0.8000 
 21 C       -2.6410    -8.2890    -0.1240 C.3   1 <1>  -0.1600 
 22 C       -3.8830    -7.2360     1.7900 C.3   1 <1>  -0.1600 
 23 C       -3.8200    -8.4380     0.8430 C.3   1 <1>  -0.1600 
 24 H        2.4890     0.5010     1.3210 H     1 <1>   0.1500 
 25 H       -2.6230    -1.5640    -0.4520 H     1 <1>   0.0800 
 26 H       -1.7170    -1.3900     1.0270 H     1 <1>   0.0800 
 27 H        0.2530    -3.1560    -2.2310 H     1 <1>   0.0800 
 28 H       -1.4130    -2.6990    -2.4700 H     1 <1>   0.0800 
 29 H        3.4140    -4.5140     0.1250 H     1 <1>   0.0800 
 30 H        3.2460    -4.3440     1.8600 H     1 <1>   0.0800 
 31 H        4.5140    -3.4880     1.0120 H     1 <1>   0.0800 
 32 H       -3.2720    -3.2800     1.1810 H     1 <1>   0.0800 
 33 H       -1.6100    -3.7520     1.3740 H     1 <1>   0.0800 
 34 H       -0.3530    -4.8800    -0.6680 H     1 <1>   0.0800 
 35 H       -1.2280    -5.0960    -2.1570 H     1 <1>   0.0800 
 36 H       -1.8300    -5.9660     0.7670 H     1 <1>   0.4500 
 37 H       -1.8030    -6.8820    -1.4850 H     1 <1>   0.0800 
 38 H       -3.5470    -6.8680    -1.4530 H     1 <1>   0.0800 
 39 H       -4.7570    -5.8490     0.4070 H     1 <1>   0.0800 
 40 H       -3.9000    -5.1070     1.7390 H     1 <1>   0.0800 
 41 H       -5.3710    -3.0500    -1.8710 H     1 <1>   0.3700 
 42 H       -4.6890    -2.5880    -0.3590 H     1 <1>   0.3700 
 43 H       -1.7110    -8.4000     0.4070 H     1 <1>   0.0800 
 44 H       -2.6860    -9.0740    -0.8590 H     1 <1>   0.0800 
 45 H       -4.7830    -7.2960     2.3780 H     1 <1>   0.0800 
 46 H       -3.0510    -7.2610     2.4730 H     1 <1>   0.0800 
 47 H       -3.7200    -9.3490     1.4090 H     1 <1>   0.0800 
 48 H       -4.7380    -8.5010     0.2810 H     1 <1>   0.0800 
@<TRIPOS>BOND
  1   1   2  1   
  2   2   3  ar  
  3   2   4  ar  
  4   3   5  ar  
  5   3   6  1   
  6   4   7  ar  
  7   4  24  1   
  8   5   8  ar  
  9   6   9  1   
 10   6  10  1   
 11   7   8  ar  
 12   8  11  1   
 13   9  12  1   
 14   9  25  1   
 15   9  26  1   
 16  10  13  1   
 17  10  27  1   
 18  10  28  1   
 19  11  29  1   
 20  11  30  1   
 21  11  31  1   
 22  12  14  1   
 23  12  32  1   
 24  12  33  1   
 25  13  14  1   
 26  13  34  1   
 27  13  35  1   
 28  14  15  1   
 29  14  16  1   
 30  15  17  1   
 31  15  18  1   
 32  15  36  1   
 33  16  19  2   
 34  16  20  am  
 35  17  21  1   
 36  17  37  1   
 37  17  38  1   
 38  18  22  1   
 39  18  39  1   
 40  18  40  1   
 41  20  41  1   
 42  20  42  1   
 43  21  23  1   
 44  21  43  1   
 45  21  44  1   
 46  22  23  1   
 47  22  45  1   
 48  22  46  1   
 49  23  47  1   
 50  23  48  1   
@<TRIPOS>SUBSTRUCTURE
  1 ****  13 GROUP 4 **** **** 0

# MOE 2024.06 (io_trps.svl 2023.06)
