@<TRIPOS>MOLECULE
NONAME
57 59 1 0 0 
SMALL
USER_CHARGES


@<TRIPOS>ATOM
  1 F       -0.8100     0.1230     0.7120 F     1 <1>  -0.1900 
  2 C       -2.0460     0.5270     0.5650 C.ar  1 <1>   0.1900 
  3 C       -2.3660     1.8690     0.3340 C.ar  1 <1>   0.0830 
  4 C       -3.0250    -0.4440     0.6540 C.ar  1 <1>  -0.1500 
  5 O       -1.4960     2.9140     0.2260 O.3   1 <1>  -0.3630 
  6 C       -3.7050     2.1950     0.1950 C.ar  1 <1>  -0.1500 
  7 C       -4.3520    -0.0830     0.5130 C.ar  1 <1>  -0.1500 
  8 C       -0.0960     2.7590     0.2880 C.3   1 <1>   0.0400 
  9 C       -4.7250     1.2430     0.2770 C.ar  1 <1>   0.0530 
 10 C       -6.1080     1.6330     0.1290 C.2   1 <1>   0.0870 
 11 O       -6.4770     2.8630     0.3870 O.3   1 <1>  -0.0190 
 12 C       -7.2300     0.9590    -0.2390 C.2   1 <1>  -0.0860 
 13 N       -7.7570     3.0600     0.2190 N.2   1 <1>  -0.4100 
 14 C       -8.2360     1.9290    -0.1690 C.2   1 <1>   0.3720 
 15 C       -7.3880    -0.4080    -0.6220 C.2   1 <1>   0.7160 
 16 N       -9.5910     1.7230    -0.4770 N.pl3 1 <1>  -0.8210 
 17 O       -6.7850    -0.8160    -1.6000 O.2   1 <1>  -0.5700 
 18 N       -8.1560    -1.2970     0.1020 N.am  1 <1>  -0.6600 
 19 C      -10.5370     2.7410     0.0610 C.3   1 <1>   0.1290 
 20 C       -9.8540     1.4250    -1.9120 C.3   1 <1>   0.1290 
 21 C       -8.2990    -2.7180    -0.3440 C.3   1 <1>   0.1400 
 22 C       -8.8850    -0.8920     1.3410 C.3   1 <1>   0.1400 
 23 C       -9.6080    -3.3390     0.1710 C.3   1 <1>  -0.0800 
 24 C       -8.9630    -2.0700     2.3150 C.3   1 <1>  -0.1600 
 25 C       -9.6830    -3.2900     1.7130 C.3   1 <1>  -0.1600 
 26 C       -9.7650    -4.7750    -0.3660 C.3   1 <1>  -0.1600 
 27 C      -11.1060    -5.4090     0.0100 C.3   1 <1>   0.1200 
 28 O      -11.1490    -6.6710    -0.5670 O.3   1 <1>  -0.5600 
 29 C      -12.3230    -7.3710    -0.3100 C.3   1 <1>   0.0400 
 30 H       -2.7480    -1.4670     0.8320 H     1 <1>   0.1500 
 31 H       -3.9590     3.2240     0.0140 H     1 <1>   0.1500 
 32 H       -5.1030    -0.8490     0.5890 H     1 <1>   0.1500 
 33 H        0.3540     3.7250     0.1480 H     1 <1>   0.0800 
 34 H        0.2190     2.0930    -0.4960 H     1 <1>   0.0800 
 35 H        0.1720     2.3700     1.2550 H     1 <1>   0.0800 
 36 H      -10.3340     2.9130     1.1050 H     1 <1>   0.0800 
 37 H      -11.5500     2.3920    -0.0390 H     1 <1>   0.0800 
 38 H      -10.4250     3.6700    -0.4710 H     1 <1>   0.0800 
 39 H       -9.2110     0.6360    -2.2600 H     1 <1>   0.0800 
 40 H       -9.6760     2.3040    -2.5080 H     1 <1>   0.0800 
 41 H      -10.8750     1.1110    -2.0400 H     1 <1>   0.0800 
 42 H       -7.4590    -3.2820     0.0220 H     1 <1>   0.0800 
 43 H       -8.2850    -2.7600    -1.4200 H     1 <1>   0.0800 
 44 H       -9.8770    -0.5690     1.0740 H     1 <1>   0.0800 
 45 H       -8.3830    -0.0700     1.8210 H     1 <1>   0.0800 
 46 H      -10.4120    -2.7470    -0.2320 H     1 <1>   0.0800 
 47 H       -9.4660    -1.7610     3.2140 H     1 <1>   0.0800 
 48 H       -7.9580    -2.3440     2.5880 H     1 <1>   0.0800 
 49 H       -9.2470    -4.1780     2.1360 H     1 <1>   0.0800 
 50 H      -10.7190    -3.2670     2.0050 H     1 <1>   0.0800 
 51 H       -8.9700    -5.3920     0.0140 H     1 <1>   0.0800 
 52 H       -9.6930    -4.7580    -1.4390 H     1 <1>   0.0800 
 53 H      -11.9240    -4.8240    -0.3750 H     1 <1>   0.0800 
 54 H      -11.1970    -5.5170     1.0770 H     1 <1>   0.0800 
 55 H      -12.2560    -8.3260    -0.7990 H     1 <1>   0.0800 
 56 H      -13.1600    -6.8200    -0.7040 H     1 <1>   0.0800 
 57 H      -12.4280    -7.5130     0.7520 H     1 <1>   0.0800 
@<TRIPOS>BOND
  1   1   2  1   
  2   2   3  ar  
  3   2   4  ar  
  4   3   5  1   
  5   3   6  ar  
  6   4   7  ar  
  7   4  30  1   
  8   5   8  1   
  9   6   9  ar  
 10   6  31  1   
 11   7   9  ar  
 12   7  32  1   
 13   8  33  1   
 14   8  34  1   
 15   8  35  1   
 16   9  10  1   
 17  10  11  1   
 18  10  12  2   
 19  11  13  1   
 20  12  14  1   
 21  12  15  1   
 22  13  14  2   
 23  14  16  1   
 24  15  17  2   
 25  15  18  am  
 26  16  19  1   
 27  16  20  1   
 28  18  21  1   
 29  18  22  1   
 30  19  36  1   
 31  19  37  1   
 32  19  38  1   
 33  20  39  1   
 34  20  40  1   
 35  20  41  1   
 36  21  23  1   
 37  21  42  1   
 38  21  43  1   
 39  22  24  1   
 40  22  44  1   
 41  22  45  1   
 42  23  25  1   
 43  23  26  1   
 44  23  46  1   
 45  24  25  1   
 46  24  47  1   
 47  24  48  1   
 48  25  49  1   
 49  25  50  1   
 50  26  27  1   
 51  26  51  1   
 52  26  52  1   
 53  27  28  1   
 54  27  53  1   
 55  27  54  1   
 56  28  29  1   
 57  29  55  1   
 58  29  56  1   
 59  29  57  1   
@<TRIPOS>SUBSTRUCTURE
  1 ****  15 GROUP 4 **** **** 0

# MOE 2024.06 (io_trps.svl 2023.06)
