@<TRIPOS>MOLECULE
NONAME
38 39 1 0 0 
SMALL
USER_CHARGES


@<TRIPOS>ATOM
  1 F       -0.6840     3.0370     2.7320 F     1 <1>  -0.1900 
  2 C       -1.4670     2.5000     1.8230 C.ar  1 <1>   0.1900 
  3 C       -1.6910     3.1790     0.6310 C.ar  1 <1>   0.1000 
  4 C       -2.0440     1.2720     2.0760 C.ar  1 <1>   0.1600 
  5 N       -1.1250     4.4150     0.3340 N.pl3 1 <1>  -0.8690 
  6 C       -2.5420     2.5250    -0.2450 C.ar  1 <1>  -0.1500 
  7 N       -2.8510     0.6430     1.2270 N.ar  1 <1>  -0.6200 
  8 C       -0.3470     4.5900    -0.8950 C.3   1 <1>   0.4700 
  9 C       -3.0790     1.2930     0.0910 C.ar  1 <1>   0.1600 
 10 C        1.0410     5.0710    -0.5000 C.2   1 <1>  -0.1810 
 11 C       -1.0530     5.6030    -1.7860 C.3   1 <1>  -0.2400 
 12 C        2.2300     4.5060    -0.9550 C.2   1 <1>   0.1080 
 13 C        1.4360     6.0760     0.3220 C.2   1 <1>  -0.3320 
 14 N        3.2730     5.0960    -0.4700 N.2   1 <1>  -0.7070 
 15 C        2.3600     3.3340    -1.9040 C.3   1 <1>  -0.0590 
 16 N        2.7900     6.0680     0.3210 N.pl3 1 <1>   0.3140 
 17 C        0.6060     7.0700     1.1260 C.3   1 <1>  -0.0600 
 18 C        3.7080     6.9630     1.0580 C.3   1 <1>   0.0960 
 19 C        4.0370     8.2180     0.2390 C.3   1 <1>  -0.2400 
 20 H       -1.8340     0.7870     3.0130 H     1 <1>   0.1500 
 21 H       -0.5350     4.7780     1.0940 H     1 <1>   0.4000 
 22 H       -2.7920     2.9810    -1.1830 H     1 <1>   0.1500 
 23 H       -0.2750     3.6480    -1.4110 H     1 <1>   0.0800 
 24 H       -3.7380     0.8110    -0.6120 H     1 <1>   0.1500 
 25 H       -1.1420     6.5470    -1.2830 H     1 <1>   0.0800 
 26 H       -2.0300     5.2450    -2.0480 H     1 <1>   0.0800 
 27 H       -0.4820     5.7480    -2.6840 H     1 <1>   0.0800 
 28 H        1.8560     3.5510    -2.8260 H     1 <1>   0.0800 
 29 H        1.9360     2.4550    -1.4560 H     1 <1>   0.0800 
 30 H        3.3980     3.1490    -2.1120 H     1 <1>   0.0800 
 31 H       -0.4440     6.9370     0.9470 H     1 <1>   0.0800 
 32 H        0.8640     8.0760     0.8490 H     1 <1>   0.0800 
 33 H        0.7890     6.9400     2.1780 H     1 <1>   0.0800 
 34 H        4.6100     6.4160     1.2630 H     1 <1>   0.0800 
 35 H        3.2540     7.2320     1.9930 H     1 <1>   0.0800 
 36 H        4.5040     7.9350    -0.6880 H     1 <1>   0.0800 
 37 H        4.7160     8.8450     0.7880 H     1 <1>   0.0800 
 38 H        3.1430     8.7770     0.0290 H     1 <1>   0.0800 
@<TRIPOS>BOND
  1   1   2  1   
  2   2   3  ar  
  3   2   4  ar  
  4   3   5  1   
  5   3   6  ar  
  6   4   7  ar  
  7   4  20  1   
  8   5   8  1   
  9   5  21  1   
 10   6   9  ar  
 11   6  22  1   
 12   7   9  ar  
 13   8  10  1   
 14   8  11  1   
 15   8  23  1   
 16   9  24  1   
 17  10  12  1   
 18  10  13  2   
 19  11  25  1   
 20  11  26  1   
 21  11  27  1   
 22  12  14  2   
 23  12  15  1   
 24  13  16  1   
 25  13  17  1   
 26  14  16  1   
 27  15  28  1   
 28  15  29  1   
 29  15  30  1   
 30  16  18  1   
 31  17  31  1   
 32  17  32  1   
 33  17  33  1   
 34  18  19  1   
 35  18  34  1   
 36  18  35  1   
 37  19  36  1   
 38  19  37  1   
 39  19  38  1   
@<TRIPOS>SUBSTRUCTURE
  1 ****   8 GROUP 4 **** **** 0

# MOE 2024.06 (io_trps.svl 2023.06)
