@<TRIPOS>MOLECULE
NONAME
53 55 1 0 0 
SMALL
USER_CHARGES


@<TRIPOS>ATOM
  1 O        0.1680     0.6830    -0.9010 O.2   1 <1>  -0.5700 
  2 C       -0.5160     1.6320    -0.6090 C.2   1 <1>   0.5690 
  3 N       -1.8660     1.6920    -0.6190 N.am  1 <1>  -0.6600 
  4 C        0.0710     2.9400    -0.1710 C.3   1 <1>  -0.0990 
  5 C       -2.3730     3.0160    -0.2220 C.3   1 <1>   0.1400 
  6 C       -2.7840     0.6240    -1.0800 C.3   1 <1>   0.0600 
  7 C       -1.1410     3.6950     0.4090 C.3   1 <1>  -0.0190 
  8 C       -1.0710     5.2050     0.1950 C.2   1 <1>   0.5690 
  9 O       -1.7220     5.6900    -0.6980 O.2   1 <1>  -0.5700 
 10 N       -0.2560     6.0030     0.9660 N.am  1 <1>  -0.6600 
 11 C        0.8180     5.5290     1.8930 C.3   1 <1>   0.1400 
 12 C       -0.3690     7.4840     0.8660 C.3   1 <1>   0.1400 
 13 C        2.2250     5.6120     1.2560 C.3   1 <1>   0.3430 
 14 C        0.4930     8.0120    -0.2860 C.3   1 <1>  -0.1600 
 15 N        2.5540     6.9420     0.6260 N.4   1 <1>  -0.9590 
 16 C        1.7310     7.1720    -0.6030 C.3   1 <1>   0.3430 
 17 C        4.0180     7.0090     0.3250 C.3   1 <1>   0.3430 
 18 C        4.4870     8.4400     0.0500 C.3   1 <1>  -0.0170 
 19 C        5.9860     8.4150    -0.1780 C.ar  1 <1>  -0.1440 
 20 C        6.8560     8.5360     0.8970 C.ar  1 <1>  -0.1500 
 21 C        6.4970     8.2580    -1.4600 C.ar  1 <1>  -0.1500 
 22 C        8.2230     8.4910     0.6930 C.ar  1 <1>  -0.1500 
 23 C        7.8650     8.2140    -1.6660 C.ar  1 <1>  -0.1500 
 24 C        8.7230     8.3280    -0.5850 C.ar  1 <1>   0.0820 
 25 O       10.0510     8.2840    -0.7660 O.3   1 <1>  -0.5330 
 26 H        0.4650     3.4370    -1.0380 H     1 <1>   0.0800 
 27 H        0.8420     2.7740     0.5560 H     1 <1>   0.0800 
 28 H       -3.1790     2.9260     0.4850 H     1 <1>   0.0800 
 29 H       -2.7180     3.5320    -1.1030 H     1 <1>   0.0800 
 30 H       -2.2180    -0.2480    -1.3630 H     1 <1>   0.0800 
 31 H       -3.3440     0.9680    -1.9320 H     1 <1>   0.0800 
 32 H       -3.4620     0.3590    -0.2890 H     1 <1>   0.0800 
 33 H       -1.2040     3.5010     1.4640 H     1 <1>   0.0800 
 34 H        0.6350     4.5150     2.1960 H     1 <1>   0.0800 
 35 H        0.7990     6.1220     2.7910 H     1 <1>   0.0800 
 36 H       -0.0650     7.9350     1.7950 H     1 <1>   0.0800 
 37 H       -1.3990     7.7620     0.7010 H     1 <1>   0.0800 
 38 H        2.3090     4.8370     0.5120 H     1 <1>   0.0800 
 39 H        2.9490     5.3940     2.0250 H     1 <1>   0.0800 
 40 H        0.7730     9.0310    -0.0900 H     1 <1>   0.0800 
 41 H       -0.1200     8.0280    -1.1700 H     1 <1>   0.0800 
 42 H        2.3250     7.6850     1.2990 H     1 <1>   0.4500 
 43 H        2.3090     7.6830    -1.3560 H     1 <1>   0.0800 
 44 H        1.4200     6.2250    -1.0170 H     1 <1>   0.0800 
 45 H        4.2500     6.3880    -0.5260 H     1 <1>   0.0800 
 46 H        4.5780     6.6330     1.1660 H     1 <1>   0.0800 
 47 H        4.2680     9.0730     0.8920 H     1 <1>   0.0800 
 48 H        4.0050     8.8460    -0.8200 H     1 <1>   0.0800 
 49 H        6.4870     8.6700     1.8990 H     1 <1>   0.1500 
 50 H        5.8410     8.1720    -2.3090 H     1 <1>   0.1500 
 51 H        8.9090     8.5840     1.5170 H     1 <1>   0.1500 
 52 H        8.2560     8.0930    -2.6600 H     1 <1>   0.1500 
 53 H       10.3120     8.1890    -1.6980 H     1 <1>   0.4500 
@<TRIPOS>BOND
  1   1   2  2   
  2   2   3  am  
  3   2   4  1   
  4   3   5  1   
  5   3   6  1   
  6   4   7  1   
  7   4  26  1   
  8   4  27  1   
  9   5   7  1   
 10   5  28  1   
 11   5  29  1   
 12   6  30  1   
 13   6  31  1   
 14   6  32  1   
 15   7   8  1   
 16   7  33  1   
 17   8   9  2   
 18   8  10  am  
 19  10  11  1   
 20  10  12  1   
 21  11  13  1   
 22  11  34  1   
 23  11  35  1   
 24  12  14  1   
 25  12  36  1   
 26  12  37  1   
 27  13  15  1   
 28  13  38  1   
 29  13  39  1   
 30  14  16  1   
 31  14  40  1   
 32  14  41  1   
 33  15  16  1   
 34  15  17  1   
 35  15  42  1   
 36  16  43  1   
 37  16  44  1   
 38  17  18  1   
 39  17  45  1   
 40  17  46  1   
 41  18  19  1   
 42  18  47  1   
 43  18  48  1   
 44  19  20  ar  
 45  19  21  ar  
 46  20  22  ar  
 47  20  49  1   
 48  21  23  ar  
 49  21  50  1   
 50  22  24  ar  
 51  22  51  1   
 52  23  24  ar  
 53  23  52  1   
 54  24  25  1   
 55  25  53  1   
@<TRIPOS>SUBSTRUCTURE
  1 ****  15 GROUP 4 **** **** 0

# MOE 2024.06 (io_trps.svl 2023.06)
