@<TRIPOS>MOLECULE
NONAME
50 53 1 0 0 
SMALL
USER_CHARGES


@<TRIPOS>ATOM
  1 CL      -0.3330     0.5930     0.2750 Cl    1 <1>  -0.1770 
  2 C        1.0220    -0.4950    -0.0090 C.ar  1 <1>   0.1770 
  3 C        0.8020    -1.8020    -0.5310 C.ar  1 <1>   0.4100 
  4 C        2.2940    -0.0740     0.2320 C.ar  1 <1>   0.2170 
  5 N        1.8230    -2.5870    -0.8410 N.ar  1 <1>  -0.6200 
  6 N       -0.4350    -2.3290    -0.7390 N.pl3 1 <1>  -0.8380 
  7 N        3.2950    -0.9430    -0.0680 N.ar  1 <1>  -0.1790 
  8 C        2.6910     1.2860     0.7950 C.3   1 <1>  -0.0970 
  9 C        3.0370    -2.1520    -0.5980 C.ar  1 <1>   0.7710 
 10 C       -1.5320    -2.3030     0.2720 C.3   1 <1>   0.2090 
 11 C       -0.7490    -3.1890    -1.9190 C.3   1 <1>   0.2090 
 12 N        4.0310    -2.9790    -0.9050 N.pl3 1 <1>  -0.9000 
 13 C       -1.8080    -3.7250     0.7600 C.3   1 <1>  -0.1600 
 14 C       -1.0140    -4.6220    -1.4570 C.3   1 <1>  -0.1600 
 15 C       -2.1300    -4.6820    -0.4030 C.3   1 <1>   0.4240 
 16 O       -3.2530    -4.1470    -1.0700 O.3   1 <1>  -0.5600 
 17 C       -2.3860    -6.1410     0.0750 C.ar  1 <1>  -0.1430 
 18 C       -4.5130    -4.4510    -0.5700 C.3   1 <1>   0.1200 
 19 C       -1.3980    -6.9050     0.7110 C.ar  1 <1>   0.0830 
 20 C       -3.6380    -6.7240    -0.1260 C.ar  1 <1>  -0.1430 
 21 C       -4.7550    -5.9370    -0.7790 C.3   1 <1>  -0.0170 
 22 O       -0.1780    -6.3490     0.9420 O.3   1 <1>  -0.3620 
 23 C       -1.6700    -8.2150     1.1050 C.ar  1 <1>  -0.1500 
 24 C       -3.8950    -8.0260     0.2690 C.ar  1 <1>  -0.1500 
 25 C        0.8680    -7.0470     1.5810 C.3   1 <1>   0.0400 
 26 C       -2.9120    -8.7730     0.8830 C.ar  1 <1>  -0.1500 
 27 H        4.2710    -0.7070     0.0820 H     1 <1>   0.4570 
 28 H        1.8310     1.8900     1.0210 H     1 <1>   0.0800 
 29 H        3.2910     1.8250     0.0820 H     1 <1>   0.0800 
 30 H        3.2530     1.1670     1.7040 H     1 <1>   0.0800 
 31 H       -2.4180    -1.8810    -0.1730 H     1 <1>   0.0800 
 32 H       -1.2570    -1.7000     1.1180 H     1 <1>   0.0800 
 33 H        0.0650    -3.1790    -2.6230 H     1 <1>   0.0800 
 34 H       -1.6190    -2.7970    -2.4200 H     1 <1>   0.0800 
 35 H        5.0390    -2.8490    -0.8080 H     1 <1>   0.4000 
 36 H        3.7680    -3.8880    -1.3030 H     1 <1>   0.4000 
 37 H       -2.6150    -3.7230     1.4670 H     1 <1>   0.0800 
 38 H       -0.9370    -4.0610     1.2840 H     1 <1>   0.0800 
 39 H       -0.0950    -5.0120    -1.0690 H     1 <1>   0.0800 
 40 H       -1.2930    -5.2310    -2.2970 H     1 <1>   0.0800 
 41 H       -5.2350    -3.8700    -1.1160 H     1 <1>   0.0800 
 42 H       -4.5590    -4.1900     0.4720 H     1 <1>   0.0800 
 43 H       -4.7860    -6.1530    -1.8320 H     1 <1>   0.0800 
 44 H       -5.7030    -6.2040    -0.3490 H     1 <1>   0.0800 
 45 H       -0.9310    -8.8230     1.5890 H     1 <1>   0.1500 
 46 H       -4.8630    -8.4650     0.1000 H     1 <1>   0.1500 
 47 H        1.7170    -6.3900     1.6430 H     1 <1>   0.0800 
 48 H        1.1190    -7.9140     0.9960 H     1 <1>   0.0800 
 49 H        0.5500    -7.3250     2.5700 H     1 <1>   0.0800 
 50 H       -3.1140    -9.7850     1.1870 H     1 <1>   0.1500 
@<TRIPOS>BOND
  1   1   2  1   
  2   2   3  ar  
  3   2   4  ar  
  4   3   5  ar  
  5   3   6  1   
  6   4   7  ar  
  7   4   8  1   
  8   5   9  ar  
  9   6  10  1   
 10   6  11  1   
 11   7   9  ar  
 12   7  27  1   
 13   8  28  1   
 14   8  29  1   
 15   8  30  1   
 16   9  12  1   
 17  10  13  1   
 18  10  31  1   
 19  10  32  1   
 20  11  14  1   
 21  11  33  1   
 22  11  34  1   
 23  12  35  1   
 24  12  36  1   
 25  13  15  1   
 26  13  37  1   
 27  13  38  1   
 28  14  15  1   
 29  14  39  1   
 30  14  40  1   
 31  15  16  1   
 32  15  17  1   
 33  16  18  1   
 34  17  19  ar  
 35  17  20  ar  
 36  18  21  1   
 37  18  41  1   
 38  18  42  1   
 39  19  22  1   
 40  19  23  ar  
 41  20  21  1   
 42  20  24  ar  
 43  21  43  1   
 44  21  44  1   
 45  22  25  1   
 46  23  26  ar  
 47  23  45  1   
 48  24  26  ar  
 49  24  46  1   
 50  25  47  1   
 51  25  48  1   
 52  25  49  1   
 53  26  50  1   
@<TRIPOS>SUBSTRUCTURE
  1 ****  13 GROUP 4 **** **** 0

# MOE 2024.06 (io_trps.svl 2023.06)
