@<TRIPOS>MOLECULE
NONAME
55 58 1 0 0 
SMALL
USER_CHARGES


@<TRIPOS>ATOM
  1 O        0.5110    -1.0710     1.3260 O.2   1 <1>  -0.5700 
  2 C        1.6170    -1.4880     1.0300 C.2   1 <1>   0.5440 
  3 N        2.7190    -0.6830     1.2520 N.am  1 <1>  -0.6600 
  4 C        1.7440    -2.8200     0.4750 C.ar  1 <1>   0.0860 
  5 C        4.1160    -1.1710     1.0190 C.3   1 <1>   0.1400 
  6 C        2.5580     0.6850     1.8260 C.3   1 <1>   0.1400 
  7 C        1.8190    -3.0440    -0.9110 C.ar  1 <1>   0.0830 
  8 C        1.8390    -3.9310     1.3260 C.ar  1 <1>  -0.1440 
  9 C        4.6330    -0.7790    -0.3720 C.3   1 <1>   0.1400 
 10 C        3.5530     1.7140     1.2750 C.3   1 <1>  -0.1600 
 11 O        1.7080    -2.0660    -1.8400 O.3   1 <1>  -0.3620 
 12 C        2.0320    -4.3190    -1.4080 C.ar  1 <1>  -0.1500 
 13 C        2.0360    -5.2010     0.8100 C.ar  1 <1>  -0.1500 
 14 C        1.7290    -3.7590     2.8360 C.3   1 <1>  -0.0970 
 15 N        4.9630     0.6790    -0.4790 N.am  1 <1>  -0.6600 
 16 C        3.8110     1.5920    -0.2310 C.3   1 <1>   0.1400 
 17 C        0.6270    -1.1570    -1.7920 C.3   1 <1>   0.0400 
 18 C        2.1400    -5.3970    -0.5550 C.ar  1 <1>  -0.1500 
 19 C        6.2170     1.0780    -0.8960 C.2   1 <1>   0.5690 
 20 O        7.0450     0.2570    -1.2200 O.2   1 <1>  -0.5700 
 21 C        6.5800     2.5660    -1.0290 C.3   1 <1>  -0.0190 
 22 C        8.0310     2.8600    -1.4810 C.3   1 <1>   0.0580 
 23 C        6.4630     3.4280     0.2690 C.3   1 <1>  -0.1600 
 24 C        8.9790     2.3630    -0.4030 C.2   1 <1>  -0.2880 
 25 C        8.1040     4.3530    -1.1650 C.3   1 <1>  -0.1600 
 26 C        7.7990     4.1930     0.3220 C.3   1 <1>   0.0580 
 27 C        8.8450     3.1530     0.6580 C.2   1 <1>  -0.2880 
 28 H        4.7770    -0.7820     1.7740 H     1 <1>   0.0800 
 29 H        4.1420    -2.2430     1.1010 H     1 <1>   0.0800 
 30 H        1.5640     1.0400     1.6120 H     1 <1>   0.0800 
 31 H        2.6540     0.6260     2.8960 H     1 <1>   0.0800 
 32 H        3.9050    -1.0350    -1.1190 H     1 <1>   0.0800 
 33 H        5.5090    -1.3710    -0.5710 H     1 <1>   0.0800 
 34 H        3.1460     2.6880     1.4740 H     1 <1>   0.0800 
 35 H        4.4780     1.6460     1.8180 H     1 <1>   0.0800 
 36 H        2.1060    -4.4600    -2.4720 H     1 <1>   0.1500 
 37 H        2.1110    -6.0510     1.4660 H     1 <1>   0.1500 
 38 H        1.7880    -4.7050     3.3430 H     1 <1>   0.0800 
 39 H        0.7880    -3.3010     3.0860 H     1 <1>   0.0800 
 40 H        2.5240    -3.1300     3.1980 H     1 <1>   0.0800 
 41 H        4.0120     2.5640    -0.6400 H     1 <1>   0.0800 
 42 H        2.9350     1.2130    -0.7310 H     1 <1>   0.0800 
 43 H        0.4010    -0.8520    -2.7970 H     1 <1>   0.0800 
 44 H        0.9150    -0.3010    -1.2090 H     1 <1>   0.0800 
 45 H       -0.2280    -1.6410    -1.3530 H     1 <1>   0.0800 
 46 H        2.3000    -6.3860    -0.9480 H     1 <1>   0.1500 
 47 H        5.9290     2.9760    -1.7780 H     1 <1>   0.0800 
 48 H        8.2870     2.5900    -2.4910 H     1 <1>   0.0800 
 49 H        5.6370     4.1110     0.2020 H     1 <1>   0.0800 
 50 H        6.3590     2.8140     1.1460 H     1 <1>   0.0800 
 51 H        9.5880     1.4910    -0.5730 H     1 <1>   0.1500 
 52 H        9.0890     4.7540    -1.3350 H     1 <1>   0.0800 
 53 H        7.3690     4.9390    -1.6880 H     1 <1>   0.0800 
 54 H        7.8320     5.0960     0.9070 H     1 <1>   0.0800 
 55 H        9.3170     3.1290     1.6250 H     1 <1>   0.1500 
@<TRIPOS>BOND
  1   1   2  2   
  2   2   3  am  
  3   2   4  1   
  4   3   5  1   
  5   3   6  1   
  6   4   7  ar  
  7   4   8  ar  
  8   5   9  1   
  9   5  28  1   
 10   5  29  1   
 11   6  10  1   
 12   6  30  1   
 13   6  31  1   
 14   7  11  1   
 15   7  12  ar  
 16   8  13  ar  
 17   8  14  1   
 18   9  15  1   
 19   9  32  1   
 20   9  33  1   
 21  10  16  1   
 22  10  34  1   
 23  10  35  1   
 24  11  17  1   
 25  12  18  ar  
 26  12  36  1   
 27  13  18  ar  
 28  13  37  1   
 29  14  38  1   
 30  14  39  1   
 31  14  40  1   
 32  15  16  1   
 33  15  19  am  
 34  16  41  1   
 35  16  42  1   
 36  17  43  1   
 37  17  44  1   
 38  17  45  1   
 39  18  46  1   
 40  19  20  2   
 41  19  21  1   
 42  21  22  1   
 43  21  23  1   
 44  21  47  1   
 45  22  24  1   
 46  22  25  1   
 47  22  48  1   
 48  23  26  1   
 49  23  49  1   
 50  23  50  1   
 51  24  27  2   
 52  24  51  1   
 53  25  26  1   
 54  25  52  1   
 55  25  53  1   
 56  26  27  1   
 57  26  54  1   
 58  27  55  1   
@<TRIPOS>SUBSTRUCTURE
  1 ****   9 GROUP 4 **** **** 0

# MOE 2024.06 (io_trps.svl 2023.06)
