@<TRIPOS>MOLECULE
NONAME
50 54 1 0 0 
SMALL
USER_CHARGES


@<TRIPOS>ATOM
  1 O       -0.3290     1.2990     3.0310 O.2   1 <1>  -0.5700 
  2 C       -0.4360     1.9200     1.9930 C.2   1 <1>   0.5440 
  3 N       -1.5100     1.6700     1.1620 N.am  1 <1>  -0.6600 
  4 C        0.5620     2.9210     1.6670 C.ar  1 <1>   0.0860 
  5 C       -1.9690     2.6080     0.0890 C.3   1 <1>   0.1400 
  6 C       -2.4350     0.5220     1.3940 C.3   1 <1>   0.1400 
  7 C        1.2670     2.8820     0.4660 C.ar  1 <1>  -0.1500 
  8 C        0.8490     3.9560     2.5540 C.ar  1 <1>  -0.1500 
  9 C       -3.3680     3.1700     0.4050 C.3   1 <1>   0.1440 
 10 C       -3.8430     1.0380     1.7160 C.3   1 <1>  -0.1600 
 11 C        2.2130     3.8460     0.1400 C.ar  1 <1>  -0.0230 
 12 C        1.7870     4.9240     2.2470 C.ar  1 <1>  -0.1500 
 13 C       -3.7810     4.0720    -0.7420 C.ar  1 <1>   0.1670 
 14 C       -4.3580     2.0070     0.6370 C.3   1 <1>  -0.1600 
 15 C       -3.3360     4.1530     1.6080 C.3   1 <1>  -0.1600 
 16 N        2.9150     3.7820    -1.0920 N.pl3 1 <1>   0.3260 
 17 C        2.4650     4.8720     1.0440 C.ar  1 <1>  -0.1500 
 18 N       -4.1390     3.6670    -1.9400 N.ar  1 <1>  -0.6200 
 19 C       -3.7160     5.3890    -0.3950 C.ar  1 <1>  -0.1440 
 20 C       -3.2530     5.5750     1.0280 C.3   1 <1>  -0.0170 
 21 C        4.2320     3.8510    -1.3200 C.2   1 <1>   0.0370 
 22 C        2.4350     3.6350    -2.3340 C.2   1 <1>   0.0370 
 23 C       -4.4470     4.6460    -2.7800 C.ar  1 <1>   0.4770 
 24 C       -4.0550     6.3190    -1.3450 C.ar  1 <1>   0.1600 
 25 N        4.5220     3.7570    -2.5710 N.2   1 <1>  -0.3380 
 26 N        3.3660     3.6180    -3.2230 N.2   1 <1>  -0.3380 
 27 N       -4.4260     5.9530    -2.5540 N.ar  1 <1>  -0.6200 
 28 C       -4.8800     4.2220    -4.1630 C.3   1 <1>  -0.0970 
 29 H       -2.0080     2.0730    -0.8440 H     1 <1>   0.0800 
 30 H       -1.2860     3.4280    -0.0300 H     1 <1>   0.0800 
 31 H       -2.0820    -0.0960     2.2020 H     1 <1>   0.0800 
 32 H       -2.4640    -0.0840     0.5050 H     1 <1>   0.0800 
 33 H        1.0660     2.0730    -0.2150 H     1 <1>   0.1500 
 34 H        0.3280     3.9900     3.4970 H     1 <1>   0.1500 
 35 H       -3.8210     1.5250     2.6750 H     1 <1>   0.0800 
 36 H       -4.5140     0.2000     1.7950 H     1 <1>   0.0800 
 37 H        1.9910     5.7160     2.9490 H     1 <1>   0.1500 
 38 H       -4.4790     1.4650    -0.2860 H     1 <1>   0.0800 
 39 H       -5.3240     2.3920     0.9110 H     1 <1>   0.0800 
 40 H       -2.5260     3.9520     2.2870 H     1 <1>   0.0800 
 41 H       -4.2570     4.0730     2.1590 H     1 <1>   0.0800 
 42 H        3.1910     5.6340     0.8120 H     1 <1>   0.1500 
 43 H       -2.2370     5.9310     1.0370 H     1 <1>   0.0800 
 44 H       -3.8860     6.2590     1.5670 H     1 <1>   0.0800 
 45 H        4.9490     3.9690    -0.5290 H     1 <1>   0.1500 
 46 H        1.3850     3.5470    -2.5410 H     1 <1>   0.1500 
 47 H       -4.0210     7.3710    -1.1180 H     1 <1>   0.1500 
 48 H       -4.4340     3.2790    -4.4180 H     1 <1>   0.0800 
 49 H       -4.5790     4.9570    -4.8850 H     1 <1>   0.0800 
 50 H       -5.9490     4.1240    -4.1830 H     1 <1>   0.0800 
@<TRIPOS>BOND
  1   1   2  2   
  2   2   3  am  
  3   2   4  1   
  4   3   5  1   
  5   3   6  1   
  6   4   7  ar  
  7   4   8  ar  
  8   5   9  1   
  9   5  29  1   
 10   5  30  1   
 11   6  10  1   
 12   6  31  1   
 13   6  32  1   
 14   7  11  ar  
 15   7  33  1   
 16   8  12  ar  
 17   8  34  1   
 18   9  13  1   
 19   9  14  1   
 20   9  15  1   
 21  10  14  1   
 22  10  35  1   
 23  10  36  1   
 24  11  16  1   
 25  11  17  ar  
 26  12  17  ar  
 27  12  37  1   
 28  13  18  ar  
 29  13  19  ar  
 30  14  38  1   
 31  14  39  1   
 32  15  20  1   
 33  15  40  1   
 34  15  41  1   
 35  16  21  1   
 36  16  22  1   
 37  17  42  1   
 38  18  23  ar  
 39  19  20  1   
 40  19  24  ar  
 41  20  43  1   
 42  20  44  1   
 43  21  25  2   
 44  21  45  1   
 45  22  26  2   
 46  22  46  1   
 47  23  27  ar  
 48  23  28  1   
 49  24  27  ar  
 50  24  47  1   
 51  25  26  1   
 52  28  48  1   
 53  28  49  1   
 54  28  50  1   
@<TRIPOS>SUBSTRUCTURE
  1 ****   5 GROUP 4 **** **** 0

# MOE 2024.06 (io_trps.svl 2023.06)
