@<TRIPOS>MOLECULE
NONAME
45 46 1 0 0 
SMALL
USER_CHARGES


@<TRIPOS>ATOM
  1 S       -0.4200    -0.4090    -0.2860 S.o2  1 <1>   1.0900 
  2 O       -0.4990     0.4540    -1.4420 O.2   1 <1>  -0.6500 
  3 O        0.3610    -1.6210    -0.3370 O.2   1 <1>  -0.6500 
  4 C       -2.0860    -0.8330     0.2180 C.3   1 <1>  -0.0550 
  5 C        0.2010     0.5630     1.0740 C.3   1 <1>  -0.1350 
  6 C       -3.0700     0.3520     0.1500 C.3   1 <1>  -0.0990 
  7 C       -4.4660     0.0010     0.6380 C.2   1 <1>   0.5690 
  8 O       -4.6110    -1.0540     1.2100 O.2   1 <1>  -0.5700 
  9 N       -5.5090     0.8670     0.4350 N.am  1 <1>  -0.6600 
 10 C       -6.9060     0.5040     0.8320 C.3   1 <1>   0.1400 
 11 C       -5.4290     2.1920    -0.2390 C.3   1 <1>   0.1400 
 12 C       -7.8310     0.4420    -0.4100 C.3   1 <1>   0.0000 
 13 C       -6.2990     2.1740    -1.5010 C.3   1 <1>  -0.1600 
 14 C       -9.2800     0.1080    -0.0110 C.3   1 <1>   0.2000 
 15 C       -7.7520     1.7790    -1.1820 C.3   1 <1>  -0.1600 
 16 C       -7.4660    -0.7650    -1.2910 C.3   1 <1>  -0.1600 
 17 O       -9.6580     0.7820     1.1530 O.3   1 <1>  -0.5600 
 18 C       -9.3170    -1.4110     0.1820 C.3   1 <1>  -0.1600 
 19 C       -8.1440    -1.9720    -0.6340 C.3   1 <1>  -0.1600 
 20 C      -11.0240     0.7750     1.4180 C.3   1 <1>   0.0400 
 21 H       -2.4570    -1.6080    -0.4260 H     1 <1>   0.0800 
 22 H       -2.0700    -1.2320     1.2150 H     1 <1>   0.0800 
 23 H       -0.3770     1.4570     1.2010 H     1 <1>   0.0800 
 24 H        1.2180     0.8460     0.8830 H     1 <1>   0.0800 
 25 H        0.1750    -0.0040     1.9850 H     1 <1>   0.0800 
 26 H       -2.7060     1.1670     0.7460 H     1 <1>   0.0800 
 27 H       -3.1340     0.6750    -0.8730 H     1 <1>   0.0800 
 28 H       -6.9220    -0.4370     1.3530 H     1 <1>   0.0800 
 29 H       -7.2670     1.2520     1.5170 H     1 <1>   0.0800 
 30 H       -5.7950     2.9460     0.4370 H     1 <1>   0.0800 
 31 H       -4.4180     2.4470    -0.4980 H     1 <1>   0.0800 
 32 H       -6.2860     3.1490    -1.9540 H     1 <1>   0.0800 
 33 H       -5.8760     1.4810    -2.2080 H     1 <1>   0.0800 
 34 H       -9.9410     0.3930    -0.8130 H     1 <1>   0.0800 
 35 H       -8.3190     1.7180    -2.0940 H     1 <1>   0.0800 
 36 H       -8.1950     2.5510    -0.5750 H     1 <1>   0.0800 
 37 H       -7.8770    -0.6320    -2.2770 H     1 <1>   0.0800 
 38 H       -6.4040    -0.9120    -1.3820 H     1 <1>   0.0800 
 39 H       -9.1820    -1.6590     1.2210 H     1 <1>   0.0800 
 40 H      -10.2520    -1.8120    -0.1670 H     1 <1>   0.0800 
 41 H       -7.4480    -2.4620     0.0260 H     1 <1>   0.0800 
 42 H       -8.4760    -2.6800    -1.3740 H     1 <1>   0.0800 
 43 H      -11.1910     1.3380     2.3190 H     1 <1>   0.0800 
 44 H      -11.3580    -0.2380     1.5600 H     1 <1>   0.0800 
 45 H      -11.5480     1.2370     0.6000 H     1 <1>   0.0800 
@<TRIPOS>BOND
  1   1   2  2   
  2   1   3  2   
  3   1   4  1   
  4   1   5  1   
  5   4   6  1   
  6   4  21  1   
  7   4  22  1   
  8   5  23  1   
  9   5  24  1   
 10   5  25  1   
 11   6   7  1   
 12   6  26  1   
 13   6  27  1   
 14   7   8  2   
 15   7   9  am  
 16   9  10  1   
 17   9  11  1   
 18  10  12  1   
 19  10  28  1   
 20  10  29  1   
 21  11  13  1   
 22  11  30  1   
 23  11  31  1   
 24  12  14  1   
 25  12  15  1   
 26  12  16  1   
 27  13  15  1   
 28  13  32  1   
 29  13  33  1   
 30  14  17  1   
 31  14  18  1   
 32  14  34  1   
 33  15  35  1   
 34  15  36  1   
 35  16  19  1   
 36  16  37  1   
 37  16  38  1   
 38  17  20  1   
 39  18  19  1   
 40  18  39  1   
 41  18  40  1   
 42  19  41  1   
 43  19  42  1   
 44  20  43  1   
 45  20  44  1   
 46  20  45  1   
@<TRIPOS>SUBSTRUCTURE
  1 ****   9 GROUP 4 **** **** 0

# MOE 2024.06 (io_trps.svl 2023.06)
