@<TRIPOS>MOLECULE
NONAME
54 55 1 0 0 
SMALL
USER_CHARGES


@<TRIPOS>ATOM
  1 O        0.0300     1.0740    -0.5460 O.co2 1 <1>  -0.9000 
  2 C       -0.5220     1.5400     0.4530 C.2   1 <1>   0.9060 
  3 O       -0.9550     0.8670     1.3870 O.co2 1 <1>  -0.9000 
  4 C       -0.6840     3.0230     0.5380 C.3   1 <1>  -0.1860 
  5 C       -2.1560     3.3650     0.7690 C.3   1 <1>   0.2000 
  6 C       -0.1900     3.6500    -0.7490 C.3   1 <1>   0.3430 
  7 O       -2.3330     3.4060     2.1300 O.3   1 <1>  -0.6800 
  8 C       -2.5520     4.7270     0.1910 C.3   1 <1>  -0.1600 
  9 N       -0.2420     5.1540    -0.6540 N.4   1 <1>  -0.9590 
 10 C       -1.3540     5.6680     0.2270 C.3   1 <1>   0.3430 
 11 C        1.0820     5.6540    -0.2030 C.3   1 <1>   0.3430 
 12 C        1.1870     7.1600    -0.4410 C.3   1 <1>  -0.1600 
 13 C        2.5870     7.7070    -0.0900 C.3   1 <1>  -0.0990 
 14 C        2.7210     9.2140    -0.3160 C.2   1 <1>   0.4230 
 15 O        1.7350     9.8030    -0.6810 O.2   1 <1>  -0.5700 
 16 C        3.9940     9.8740    -0.0920 C.ar  1 <1>   0.0860 
 17 C        5.1320     9.2150     0.3800 C.ar  1 <1>  -0.1500 
 18 C        4.1340    11.2380    -0.3470 C.ar  1 <1>  -0.1500 
 19 C        6.3270     9.8810     0.5790 C.ar  1 <1>  -0.1500 
 20 C        5.3280    11.9060    -0.1480 C.ar  1 <1>  -0.1500 
 21 C        6.4550    11.2400     0.3210 C.ar  1 <1>  -0.1430 
 22 C        7.8120    11.9400     0.5590 C.3   1 <1>   0.1430 
 23 C        8.2090    11.8020     2.0360 C.3   1 <1>  -0.2400 
 24 C        8.8880    11.2880    -0.3220 C.3   1 <1>  -0.2400 
 25 C        7.7860    13.4410     0.2240 C.3   1 <1>  -0.2400 
 26 H       -0.0680     3.3600     1.3500 H     1 <1>   0.0800 
 27 H       -2.8050     2.5950     0.3790 H     1 <1>   0.0800 
 28 H       -0.8190     3.3050    -1.5530 H     1 <1>   0.0800 
 29 H        0.8130     3.3100    -0.9550 H     1 <1>   0.0800 
 30 H       -2.0900     2.5080     2.4720 H     1 <1>   0.4000 
 31 H       -2.8820     4.6110    -0.8250 H     1 <1>   0.0800 
 32 H       -3.3710     5.1390     0.7550 H     1 <1>   0.0800 
 33 H       -0.4040     5.4990    -1.6080 H     1 <1>   0.4500 
 34 H       -1.0100     5.7240     1.2470 H     1 <1>   0.0800 
 35 H       -1.6470     6.6560    -0.0860 H     1 <1>   0.0800 
 36 H        1.2210     5.4310     0.8430 H     1 <1>   0.0800 
 37 H        1.8610     5.1560    -0.7580 H     1 <1>   0.0800 
 38 H        0.9860     7.3740    -1.4770 H     1 <1>   0.0800 
 39 H        0.4630     7.6780     0.1630 H     1 <1>   0.0800 
 40 H        3.3230     7.2080    -0.6960 H     1 <1>   0.0800 
 41 H        2.7980     7.5020     0.9440 H     1 <1>   0.0800 
 42 H        5.1050     8.1650     0.6030 H     1 <1>   0.1500 
 43 H        3.2840    11.7900    -0.7110 H     1 <1>   0.1500 
 44 H        7.1710     9.3230     0.9440 H     1 <1>   0.1500 
 45 H        5.3490    12.9570    -0.3700 H     1 <1>   0.1500 
 46 H        9.1330    12.3150     2.2310 H     1 <1>   0.0800 
 47 H        8.3370    10.7710     2.3100 H     1 <1>   0.0800 
 48 H        7.4440    12.2250     2.6630 H     1 <1>   0.0800 
 49 H        9.8330    11.7860    -0.1980 H     1 <1>   0.0800 
 50 H        8.6030    11.3490    -1.3570 H     1 <1>   0.0800 
 51 H        9.0230    10.2520    -0.0690 H     1 <1>   0.0800 
 52 H        8.7480    13.8860     0.4040 H     1 <1>   0.0800 
 53 H        7.0640    13.9520     0.8360 H     1 <1>   0.0800 
 54 H        7.5380    13.5930    -0.8110 H     1 <1>   0.0800 
@<TRIPOS>BOND
  1   1   2  ar  
  2   2   3  ar  
  3   2   4  1   
  4   4   5  1   
  5   4   6  1   
  6   4  26  1   
  7   5   7  1   
  8   5   8  1   
  9   5  27  1   
 10   6   9  1   
 11   6  28  1   
 12   6  29  1   
 13   7  30  1   
 14   8  10  1   
 15   8  31  1   
 16   8  32  1   
 17   9  10  1   
 18   9  11  1   
 19   9  33  1   
 20  10  34  1   
 21  10  35  1   
 22  11  12  1   
 23  11  36  1   
 24  11  37  1   
 25  12  13  1   
 26  12  38  1   
 27  12  39  1   
 28  13  14  1   
 29  13  40  1   
 30  13  41  1   
 31  14  15  2   
 32  14  16  1   
 33  16  17  ar  
 34  16  18  ar  
 35  17  19  ar  
 36  17  42  1   
 37  18  20  ar  
 38  18  43  1   
 39  19  21  ar  
 40  19  44  1   
 41  20  21  ar  
 42  20  45  1   
 43  21  22  1   
 44  22  23  1   
 45  22  24  1   
 46  22  25  1   
 47  23  46  1   
 48  23  47  1   
 49  23  48  1   
 50  24  49  1   
 51  24  50  1   
 52  24  51  1   
 53  25  52  1   
 54  25  53  1   
 55  25  54  1   
@<TRIPOS>SUBSTRUCTURE
  1 ****  13 GROUP 4 **** **** 0

# MOE 2024.06 (io_trps.svl 2023.06)
