@<TRIPOS>MOLECULE
NONAME
58 61 1 0 0 
SMALL
USER_CHARGES


@<TRIPOS>ATOM
  1 O        0.0290    -0.3520    -0.4310 O.2   1 <1>  -0.5700 
  2 C       -0.4930     0.6530    -0.0110 C.2   1 <1>   0.5690 
  3 N       -1.8440     0.8780    -0.1290 N.am  1 <1>  -0.6600 
  4 C        0.4160     1.6610     0.6630 C.3   1 <1>  -0.0990 
  5 C       -2.5450     2.1380     0.2990 C.3   1 <1>   0.1400 
  6 C       -2.7610    -0.2090    -0.5790 C.3   1 <1>   0.1400 
  7 C        0.9110     2.7120    -0.3360 C.3   1 <1>   0.0210 
  8 C       -3.5060     2.6640    -0.7860 C.3   1 <1>   0.1440 
  9 C       -3.7140     0.2930    -1.6700 C.3   1 <1>  -0.1600 
 10 C        1.2840     3.9900     0.3840 C.2   1 <1>   0.1080 
 11 C       -4.2160     3.8830    -0.2280 C.ar  1 <1>   0.1660 
 12 C       -4.4790     1.5480    -1.2190 C.3   1 <1>  -0.1600 
 13 C       -2.7400     3.2630    -1.9940 C.3   1 <1>  -0.1600 
 14 N        0.3930     4.8890     0.6640 N.2   1 <1>  -0.7070 
 15 C        2.5560     4.3460     0.8290 C.2   1 <1>  -0.1810 
 16 N       -5.1920     3.8640     0.6450 N.ar  1 <1>  -0.6200 
 17 C       -3.6930     5.0350    -0.7330 C.ar  1 <1>  -0.1430 
 18 C       -2.5720     4.7640    -1.7050 C.3   1 <1>  -0.0170 
 19 N        1.0770     5.8530     1.3040 N.pl3 1 <1>   0.3000 
 20 C        2.3880     5.5520     1.4160 C.2   1 <1>  -0.3320 
 21 C        3.8200     3.5190     0.6670 C.3   1 <1>  -0.0590 
 22 C       -5.6560     5.0640     1.0050 C.ar  1 <1>   0.7200 
 23 C       -4.2300     6.2210    -0.3020 C.ar  1 <1>   0.1600 
 24 C        3.3850     6.4740     2.0970 C.3   1 <1>  -0.0600 
 25 N       -5.2150     6.2470     0.5650 N.ar  1 <1>  -0.6200 
 26 N       -6.6910     5.0830     1.9210 N.pl3 1 <1>  -0.8380 
 27 C       -7.5000     6.3070     2.1730 C.3   1 <1>   0.1290 
 28 C       -7.0750     3.8780     2.7060 C.3   1 <1>   0.1290 
 29 H        1.2610     1.1480     1.0820 H     1 <1>   0.0800 
 30 H       -0.1000     2.1270     1.4810 H     1 <1>   0.0800 
 31 H       -1.8450     2.9190     0.5340 H     1 <1>   0.0800 
 32 H       -3.1100     1.9290     1.1910 H     1 <1>   0.0800 
 33 H       -3.3310    -0.5500     0.2690 H     1 <1>   0.0800 
 34 H       -2.2000    -1.0480    -0.9560 H     1 <1>   0.0800 
 35 H        0.1360     2.9480    -1.0390 H     1 <1>   0.0800 
 36 H        1.7470     2.3280    -0.8920 H     1 <1>   0.0800 
 37 H       -4.4150    -0.4870    -1.9090 H     1 <1>   0.0800 
 38 H       -3.1450     0.5010    -2.5590 H     1 <1>   0.0800 
 39 H       -5.1190     1.9000    -2.0090 H     1 <1>   0.0800 
 40 H       -5.1090     1.2920    -0.3850 H     1 <1>   0.0800 
 41 H       -3.3430     3.1650    -2.8790 H     1 <1>   0.0800 
 42 H       -1.8020     2.7720    -2.1760 H     1 <1>   0.0800 
 43 H       -2.6610     5.3550    -2.5990 H     1 <1>   0.0800 
 44 H       -1.6260     4.9590    -1.2290 H     1 <1>   0.0800 
 45 H        0.6220     6.7030     1.6560 H     1 <1>   0.2700 
 46 H        3.6700     2.5390     1.0830 H     1 <1>   0.0800 
 47 H        4.6480     3.9800     1.1710 H     1 <1>   0.0800 
 48 H        4.0620     3.4240    -0.3760 H     1 <1>   0.0800 
 49 H       -3.8480     7.1560    -0.6720 H     1 <1>   0.1500 
 50 H        4.3760     6.0610     2.0640 H     1 <1>   0.0800 
 51 H        3.1110     6.6180     3.1270 H     1 <1>   0.0800 
 52 H        3.4010     7.4300     1.6020 H     1 <1>   0.0800 
 53 H       -7.5340     6.9250     1.2920 H     1 <1>   0.0800 
 54 H       -7.0590     6.8690     2.9770 H     1 <1>   0.0800 
 55 H       -8.5080     6.0380     2.4350 H     1 <1>   0.0800 
 56 H       -6.2180     3.2480     2.8720 H     1 <1>   0.0800 
 57 H       -7.8200     3.3200     2.1660 H     1 <1>   0.0800 
 58 H       -7.4710     4.1690     3.6630 H     1 <1>   0.0800 
@<TRIPOS>BOND
  1   1   2  2   
  2   2   3  am  
  3   2   4  1   
  4   3   5  1   
  5   3   6  1   
  6   4   7  1   
  7   4  29  1   
  8   4  30  1   
  9   5   8  1   
 10   5  31  1   
 11   5  32  1   
 12   6   9  1   
 13   6  33  1   
 14   6  34  1   
 15   7  10  1   
 16   7  35  1   
 17   7  36  1   
 18   8  11  1   
 19   8  12  1   
 20   8  13  1   
 21   9  12  1   
 22   9  37  1   
 23   9  38  1   
 24  10  14  2   
 25  10  15  1   
 26  11  16  ar  
 27  11  17  ar  
 28  12  39  1   
 29  12  40  1   
 30  13  18  1   
 31  13  41  1   
 32  13  42  1   
 33  14  19  1   
 34  15  20  2   
 35  15  21  1   
 36  16  22  ar  
 37  17  18  1   
 38  17  23  ar  
 39  18  43  1   
 40  18  44  1   
 41  19  20  1   
 42  19  45  1   
 43  20  24  1   
 44  21  46  1   
 45  21  47  1   
 46  21  48  1   
 47  22  25  ar  
 48  22  26  1   
 49  23  25  ar  
 50  23  49  1   
 51  24  50  1   
 52  24  51  1   
 53  24  52  1   
 54  26  27  1   
 55  26  28  1   
 56  27  53  1   
 57  27  54  1   
 58  27  55  1   
 59  28  56  1   
 60  28  57  1   
 61  28  58  1   
@<TRIPOS>SUBSTRUCTURE
  1 ****   5 GROUP 4 **** **** 0

# MOE 2024.06 (io_trps.svl 2023.06)
