@<TRIPOS>MOLECULE
NONAME
56 59 1 0 0 
SMALL
USER_CHARGES


@<TRIPOS>ATOM
  1 O       -0.4790    -0.2660    -1.7760 O.2   1 <1>  -0.5700 
  2 C       -1.3390     0.5870    -1.6590 C.2   1 <1>   0.7160 
  3 N       -2.6070     0.2070    -1.2760 N.am  1 <1>  -0.6600 
  4 C       -1.0130     1.9690    -1.9080 C.2   1 <1>  -0.0860 
  5 C       -3.5160     1.0870    -0.4760 C.3   1 <1>   0.1400 
  6 C       -3.0400    -1.2250    -1.2820 C.3   1 <1>   0.1400 
  7 C       -1.8270     2.9150    -2.5330 C.2   1 <1>   0.1390 
  8 C        0.1160     2.6760    -1.6250 C.2   1 <1>  -0.3020 
  9 C       -3.8150     0.4710     0.9050 C.3   1 <1>   0.2950 
 10 C       -3.3540    -1.7120     0.1480 C.3   1 <1>   0.2000 
 11 N       -1.2780     4.0860    -2.6130 N.2   1 <1>  -0.7070 
 12 N       -0.0630     3.9370    -2.0480 N.pl3 1 <1>   0.3140 
 13 O       -4.2710    -0.8460     0.7520 O.3   1 <1>  -0.5600 
 14 C       -4.8730     1.2990     1.6570 C.3   1 <1>  -0.1950 
 15 C       -3.9810    -3.1120     0.1850 C.3   1 <1>  -0.1600 
 16 C        0.9030     5.0540    -1.9680 C.3   1 <1>   0.2390 
 17 C       -5.7350     0.7170     2.7340 C.3   1 <1>  -0.2000 
 18 C       -6.3420     1.1290     1.4220 C.3   1 <1>  -0.2000 
 19 C       -3.0300    -4.2110    -0.3170 C.3   1 <1>  -0.1600 
 20 C        1.5080     5.1640    -0.5740 C.ar  1 <1>  -0.1430 
 21 C       -3.6670    -5.5980    -0.1700 C.3   1 <1>  -0.1600 
 22 C        2.8150     4.7650    -0.3370 C.ar  1 <1>  -0.1500 
 23 C        0.7480     5.6630     0.4730 C.ar  1 <1>  -0.1500 
 24 C       -2.7220    -6.6940    -0.6720 C.3   1 <1>  -0.2400 
 25 C        3.3550     4.8640     0.9330 C.ar  1 <1>  -0.1500 
 26 C        1.2880     5.7630     1.7430 C.ar  1 <1>  -0.1500 
 27 C        2.5920     5.3640     1.9740 C.ar  1 <1>  -0.1500 
 28 H       -3.0750     2.0560    -0.3260 H     1 <1>   0.0800 
 29 H       -4.4410     1.2200    -1.0090 H     1 <1>   0.0800 
 30 H       -3.9210    -1.3230    -1.8900 H     1 <1>   0.0800 
 31 H       -2.2750    -1.8450    -1.7140 H     1 <1>   0.0800 
 32 H       -2.8110     2.6980    -2.9140 H     1 <1>   0.1500 
 33 H        1.0150     2.3320    -1.1470 H     1 <1>   0.1500 
 34 H       -2.9130     0.4440     1.4930 H     1 <1>   0.0800 
 35 H       -2.4520    -1.7120     0.7370 H     1 <1>   0.0800 
 36 H       -4.5270     2.3040     1.8260 H     1 <1>   0.1000 
 37 H       -4.2520    -3.3290     1.2040 H     1 <1>   0.0800 
 38 H       -4.8780    -3.1140    -0.4090 H     1 <1>   0.0800 
 39 H        1.6690     4.8900    -2.7020 H     1 <1>   0.0800 
 40 H        0.3880     5.9650    -2.2140 H     1 <1>   0.0800 
 41 H       -5.6630    -0.3350     2.9530 H     1 <1>   0.1000 
 42 H       -5.9440     1.3070     3.6100 H     1 <1>   0.1000 
 43 H       -6.9710     2.0010     1.3950 H     1 <1>   0.1000 
 44 H       -6.6830     0.3530     0.7580 H     1 <1>   0.1000 
 45 H       -2.7880    -4.0470    -1.3520 H     1 <1>   0.0800 
 46 H       -2.1140    -4.1790     0.2500 H     1 <1>   0.0800 
 47 H       -3.9030    -5.7810     0.8650 H     1 <1>   0.0800 
 48 H       -4.5840    -5.6370    -0.7330 H     1 <1>   0.0800 
 49 H        3.4210     4.3730    -1.1360 H     1 <1>   0.1500 
 50 H       -0.2700     5.9730     0.3040 H     1 <1>   0.1500 
 51 H       -1.8060    -6.6880    -0.1080 H     1 <1>   0.0800 
 52 H       -2.4900    -6.5450    -1.7120 H     1 <1>   0.0800 
 53 H       -3.1850    -7.6580    -0.5600 H     1 <1>   0.0800 
 54 H        4.3700     4.5530     1.1130 H     1 <1>   0.1500 
 55 H        0.6930     6.1510     2.5520 H     1 <1>   0.1500 
 56 H        3.0130     5.4410     2.9610 H     1 <1>   0.1500 
@<TRIPOS>BOND
  1   1   2  2   
  2   2   3  am  
  3   2   4  1   
  4   3   5  1   
  5   3   6  1   
  6   4   7  1   
  7   4   8  2   
  8   5   9  1   
  9   5  28  1   
 10   5  29  1   
 11   6  10  1   
 12   6  30  1   
 13   6  31  1   
 14   7  11  2   
 15   7  32  1   
 16   8  12  1   
 17   8  33  1   
 18   9  13  1   
 19   9  14  1   
 20   9  34  1   
 21  10  13  1   
 22  10  15  1   
 23  10  35  1   
 24  11  12  1   
 25  12  16  1   
 26  14  17  1   
 27  14  18  1   
 28  14  36  1   
 29  15  19  1   
 30  15  37  1   
 31  15  38  1   
 32  16  20  1   
 33  16  39  1   
 34  16  40  1   
 35  17  18  1   
 36  17  41  1   
 37  17  42  1   
 38  18  43  1   
 39  18  44  1   
 40  19  21  1   
 41  19  45  1   
 42  19  46  1   
 43  20  22  ar  
 44  20  23  ar  
 45  21  24  1   
 46  21  47  1   
 47  21  48  1   
 48  22  25  ar  
 49  22  49  1   
 50  23  26  ar  
 51  23  50  1   
 52  24  51  1   
 53  24  52  1   
 54  24  53  1   
 55  25  27  ar  
 56  25  54  1   
 57  26  27  ar  
 58  26  55  1   
 59  27  56  1   
@<TRIPOS>SUBSTRUCTURE
  1 ****   2 GROUP 4 **** **** 0

# MOE 2024.06 (io_trps.svl 2023.06)
