@<TRIPOS>MOLECULE
NONAME
45 46 1 0 0 
SMALL
USER_CHARGES


@<TRIPOS>ATOM
  1 O       -0.9230     0.2500    -1.9070 O.2   1 <1>  -0.5700 
  2 C       -1.6340     0.6940    -1.0370 C.2   1 <1>   0.5690 
  3 N       -2.3890    -0.1300    -0.2380 N.am  1 <1>  -0.6600 
  4 C       -1.6430     2.2070    -0.8830 C.3   1 <1>  -0.0990 
  5 C       -2.3650    -1.6040    -0.4550 C.3   1 <1>   0.3200 
  6 C       -3.2190     0.3350     0.9160 C.3   1 <1>   0.1400 
  7 C       -0.3270     2.7430    -0.2960 C.3   1 <1>   0.0630 
  8 C       -3.7580    -2.0860    -0.8120 C.2   1 <1>  -0.3320 
  9 C       -4.6230     0.7600     0.4680 C.3   1 <1>   0.1200 
 10 C       -0.3350     4.2700    -0.3130 C.ar  1 <1>  -0.1440 
 11 C       -0.0490     2.2230     1.1230 C.3   1 <1>  -0.2400 
 12 N       -4.5680    -2.8260    -0.0260 N.pl3 1 <1>   0.0480 
 13 C       -4.4360    -1.8610    -1.9580 C.2   1 <1>   0.0770 
 14 O       -5.2910     1.2890     1.5630 O.3   1 <1>  -0.6800 
 15 C        0.5590     4.9540    -1.1250 C.ar  1 <1>  -0.1500 
 16 C       -1.2270     4.9970     0.4650 C.ar  1 <1>  -0.1500 
 17 C       -5.6930    -2.9890    -0.7570 C.2   1 <1>   0.0360 
 18 C       -4.3140    -3.3530     1.3270 C.3   1 <1>   0.0160 
 19 N       -5.6570    -2.4230    -1.9190 N.2   1 <1>  -0.5650 
 20 C        0.5620     6.3380    -1.1590 C.ar  1 <1>  -0.1500 
 21 C       -1.2240     6.3800     0.4320 C.ar  1 <1>  -0.1500 
 22 C       -0.3300     7.0530    -0.3800 C.ar  1 <1>  -0.1500 
 23 H       -1.7670     2.6260    -1.8650 H     1 <1>   0.0800 
 24 H       -2.4730     2.5440    -0.2980 H     1 <1>   0.0800 
 25 H       -1.6970    -1.8630    -1.2590 H     1 <1>   0.0800 
 26 H       -2.0030    -2.0900     0.4330 H     1 <1>   0.0800 
 27 H       -3.3050    -0.4550     1.6390 H     1 <1>   0.0800 
 28 H       -2.7360     1.1650     1.3990 H     1 <1>   0.0800 
 29 H        0.4750     2.3980    -0.9270 H     1 <1>   0.0800 
 30 H       -5.1890    -0.0800     0.1070 H     1 <1>   0.0800 
 31 H       -4.5720     1.5170    -0.2940 H     1 <1>   0.0800 
 32 H       -0.8390     2.4960     1.7980 H     1 <1>   0.0800 
 33 H        0.8700     2.6480     1.4870 H     1 <1>   0.0800 
 34 H        0.0540     1.1530     1.1200 H     1 <1>   0.0800 
 35 H       -4.1000    -1.3070    -2.8200 H     1 <1>   0.1500 
 36 H       -6.2000     1.5500     1.3120 H     1 <1>   0.4000 
 37 H        1.2590     4.4140    -1.7380 H     1 <1>   0.1500 
 38 H       -1.9300     4.4920     1.1020 H     1 <1>   0.1500 
 39 H       -6.5380    -3.5440    -0.3880 H     1 <1>   0.1500 
 40 H       -4.2680    -2.5380     2.0250 H     1 <1>   0.0800 
 41 H       -3.3840    -3.8920     1.3330 H     1 <1>   0.0800 
 42 H       -5.1100    -4.0180     1.6100 H     1 <1>   0.0800 
 43 H        1.2600     6.8580    -1.7920 H     1 <1>   0.1500 
 44 H       -1.9190     6.9340     1.0400 H     1 <1>   0.1500 
 45 H       -0.3270     8.1280    -0.4060 H     1 <1>   0.1500 
@<TRIPOS>BOND
  1   1   2  2   
  2   2   3  am  
  3   2   4  1   
  4   3   5  1   
  5   3   6  1   
  6   4   7  1   
  7   4  23  1   
  8   4  24  1   
  9   5   8  1   
 10   5  25  1   
 11   5  26  1   
 12   6   9  1   
 13   6  27  1   
 14   6  28  1   
 15   7  10  1   
 16   7  11  1   
 17   7  29  1   
 18   8  12  1   
 19   8  13  2   
 20   9  14  1   
 21   9  30  1   
 22   9  31  1   
 23  10  15  ar  
 24  10  16  ar  
 25  11  32  1   
 26  11  33  1   
 27  11  34  1   
 28  12  17  1   
 29  12  18  1   
 30  13  19  1   
 31  13  35  1   
 32  14  36  1   
 33  15  20  ar  
 34  15  37  1   
 35  16  21  ar  
 36  16  38  1   
 37  17  19  2   
 38  17  39  1   
 39  18  40  1   
 40  18  41  1   
 41  18  42  1   
 42  20  22  ar  
 43  20  43  1   
 44  21  22  ar  
 45  21  44  1   
 46  22  45  1   
@<TRIPOS>SUBSTRUCTURE
  1 ****   2 GROUP 4 **** **** 0

# MOE 2024.06 (io_trps.svl 2023.06)
