@<TRIPOS>MOLECULE
NONAME
41 43 1 0 0 
SMALL
USER_CHARGES


@<TRIPOS>ATOM
  1 S        0.4680     0.4560     1.0370 S.3   1 <1>  -0.0800 
  2 C       -0.4860     1.1890    -0.2440 C.2   1 <1>  -0.1400 
  3 C       -0.5230    -0.9910     1.0080 C.2   1 <1>  -0.1100 
  4 C       -1.4700     0.3570    -0.6320 C.2   1 <1>  -0.1500 
  5 C       -0.0900     2.5780    -0.7110 C.3   1 <1>   0.0200 
  6 C       -1.4920    -0.8840     0.0810 C.2   1 <1>  -0.1500 
  7 C       -0.2810     3.6090     0.4030 C.3   1 <1>   0.2090 
  8 N       -0.0930     4.9850    -0.1300 N.pl3 1 <1>  -0.8690 
  9 C        1.1200     5.6060    -0.2720 C.ar  1 <1>   0.4100 
 10 N        2.2040     4.9260     0.0760 N.ar  1 <1>  -0.6200 
 11 C        1.1750     6.9020    -0.7780 C.ar  1 <1>  -0.1500 
 12 C        3.3600     5.5480    -0.0800 C.ar  1 <1>   0.1600 
 13 C        2.3850     7.5360    -0.9270 C.ar  1 <1>  -0.1500 
 14 C        3.5340     6.8450    -0.5550 C.ar  1 <1>   0.0860 
 15 C        4.8560     7.4120    -0.6570 C.2   1 <1>   0.5440 
 16 O        5.7260     6.7820    -1.2270 O.2   1 <1>  -0.5700 
 17 N        5.1750     8.6430    -0.1230 N.am  1 <1>  -0.6600 
 18 C        6.4700     9.3200    -0.4310 C.3   1 <1>   0.1400 
 19 C        4.4020     9.3340     0.9530 C.3   1 <1>   0.1400 
 20 C        6.2560    10.8290    -0.6400 C.3   1 <1>   0.1200 
 21 C        4.2960    10.8400     0.6560 C.3   1 <1>   0.1200 
 22 O        5.5640    11.3910     0.4410 O.3   1 <1>  -0.5600 
 23 H       -0.2700    -1.7780     1.6960 H     1 <1>   0.1500 
 24 H       -2.1940     0.5610    -1.4010 H     1 <1>   0.1500 
 25 H       -0.6980     2.8500    -1.5540 H     1 <1>   0.0800 
 26 H        0.9410     2.5720    -1.0180 H     1 <1>   0.0800 
 27 H       -2.2330    -1.6330    -0.1390 H     1 <1>   0.1500 
 28 H        0.4260     3.4230     1.1950 H     1 <1>   0.0800 
 29 H       -1.2720     3.5210     0.8130 H     1 <1>   0.0800 
 30 H       -0.9290     5.4440    -0.4930 H     1 <1>   0.4000 
 31 H        0.2610     7.3940    -1.0500 H     1 <1>   0.1500 
 32 H        4.2460     4.9970     0.1870 H     1 <1>   0.1500 
 33 H        2.4550     8.5330    -1.3230 H     1 <1>   0.1500 
 34 H        6.9110     8.9010    -1.3190 H     1 <1>   0.0800 
 35 H        7.1540     9.1650     0.3850 H     1 <1>   0.0800 
 36 H        4.9140     9.2020     1.8900 H     1 <1>   0.0800 
 37 H        3.4180     8.9170     1.0560 H     1 <1>   0.0800 
 38 H        5.6940    11.0080    -1.5400 H     1 <1>   0.0800 
 39 H        7.2040    11.3300    -0.7200 H     1 <1>   0.0800 
 40 H        3.8540    11.3520     1.4920 H     1 <1>   0.0800 
 41 H        3.6920    11.0140    -0.2170 H     1 <1>   0.0800 
@<TRIPOS>BOND
  1   1   2  1   
  2   1   3  1   
  3   2   4  2   
  4   2   5  1   
  5   3   6  2   
  6   3  23  1   
  7   4   6  1   
  8   4  24  1   
  9   5   7  1   
 10   5  25  1   
 11   5  26  1   
 12   6  27  1   
 13   7   8  1   
 14   7  28  1   
 15   7  29  1   
 16   8   9  1   
 17   8  30  1   
 18   9  10  ar  
 19   9  11  ar  
 20  10  12  ar  
 21  11  13  ar  
 22  11  31  1   
 23  12  14  ar  
 24  12  32  1   
 25  13  14  ar  
 26  13  33  1   
 27  14  15  1   
 28  15  16  2   
 29  15  17  am  
 30  17  18  1   
 31  17  19  1   
 32  18  20  1   
 33  18  34  1   
 34  18  35  1   
 35  19  21  1   
 36  19  36  1   
 37  19  37  1   
 38  20  22  1   
 39  20  38  1   
 40  20  39  1   
 41  21  22  1   
 42  21  40  1   
 43  21  41  1   
@<TRIPOS>SUBSTRUCTURE
  1 ****  10 GROUP 4 **** **** 0

# MOE 2024.06 (io_trps.svl 2023.06)
