@<TRIPOS>MOLECULE
NONAME
49 52 1 0 0 
SMALL
USER_CHARGES


@<TRIPOS>ATOM
  1 O        3.4410    -2.0640     1.2770 O.2   1 <1>  -0.5700 
  2 C        2.6200    -1.7210     0.4480 C.2   1 <1>   0.7160 
  3 N        2.4730    -0.3720     0.2550 N.am  1 <1>  -0.6600 
  4 C        1.9020    -2.6770    -0.3500 C.2   1 <1>  -0.0860 
  5 C        2.5040     0.5480     1.4490 C.3   1 <1>   0.2200 
  6 C        2.5960     0.1980    -1.1160 C.3   1 <1>   0.1400 
  7 C        0.5840    -2.5660    -0.7860 C.2   1 <1>   0.2350 
  8 C        2.2710    -3.8590    -0.8820 C.2   1 <1>  -0.0400 
  9 C        1.6480     1.8090     1.2510 C.3   1 <1>   0.1200 
 10 C        3.9570     0.9260     1.8250 C.3   1 <1>   0.3430 
 11 C        3.3740     1.5270    -1.1710 C.3   1 <1>  -0.0800 
 12 N        0.2940    -3.5760    -1.5330 N.2   1 <1>  -0.4100 
 13 C       -0.3340    -1.5000    -0.4530 C.ar  1 <1>   0.0540 
 14 O        1.3150    -4.3960    -1.5990 O.3   1 <1>  -0.0190 
 15 C        3.5810    -4.6170    -0.7810 C.3   1 <1>  -0.0600 
 16 O        2.3930     2.8120     0.6260 O.3   1 <1>  -0.5600 
 17 N        4.9260     0.6480     0.7080 N.4   1 <1>  -0.9590 
 18 C        2.4950     2.7170    -0.7540 C.3   1 <1>   0.1200 
 19 C        4.7600     1.5490    -0.4820 C.3   1 <1>   0.3430 
 20 C       -0.6290    -1.1880     0.8730 C.ar  1 <1>  -0.1500 
 21 C       -0.9430    -0.7420    -1.4510 C.ar  1 <1>  -0.1500 
 22 C        6.3290     0.6470     1.2100 C.3   1 <1>   0.2630 
 23 C       -1.4750    -0.1410     1.1920 C.ar  1 <1>  -0.1500 
 24 C       -1.7860     0.3080    -1.1380 C.ar  1 <1>  -0.1500 
 25 C       -2.0500     0.6140     0.1850 C.ar  1 <1>  -0.1500 
 26 H        2.0760     0.0170     2.2820 H     1 <1>   0.0800 
 27 H        3.0910    -0.5210    -1.7490 H     1 <1>   0.0800 
 28 H        1.6090     0.3470    -1.5200 H     1 <1>   0.0800 
 29 H        1.3620     2.1970     2.2130 H     1 <1>   0.0800 
 30 H        0.7500     1.6050     0.6910 H     1 <1>   0.0800 
 31 H        4.2340     0.3360     2.6830 H     1 <1>   0.0800 
 32 H        4.0030     1.9630     2.1130 H     1 <1>   0.0800 
 33 H        3.5660     1.7000    -2.2150 H     1 <1>   0.0800 
 34 H        4.2930    -4.0850    -0.1780 H     1 <1>   0.0800 
 35 H        3.9950    -4.7630    -1.7620 H     1 <1>   0.0800 
 36 H        3.4060    -5.5800    -0.3350 H     1 <1>   0.0800 
 37 H        4.6740    -0.3130     0.4170 H     1 <1>   0.4500 
 38 H        1.5040     2.6520    -1.1750 H     1 <1>   0.0800 
 39 H        2.9390     3.6370    -1.0950 H     1 <1>   0.0800 
 40 H        4.9790     2.5640    -0.1910 H     1 <1>   0.0800 
 41 H        5.4940     1.2650    -1.2190 H     1 <1>   0.0800 
 42 H       -0.1970    -1.7800     1.6610 H     1 <1>   0.1500 
 43 H       -0.7540    -0.9880    -2.4820 H     1 <1>   0.1500 
 44 H        6.6000     1.6280     1.5650 H     1 <1>   0.0800 
 45 H        7.0080     0.3640     0.4220 H     1 <1>   0.0800 
 46 H        6.4340    -0.0570     2.0200 H     1 <1>   0.0800 
 47 H       -1.6960     0.0830     2.2220 H     1 <1>   0.1500 
 48 H       -2.2460     0.8840    -1.9240 H     1 <1>   0.1500 
 49 H       -2.7110     1.4280     0.4290 H     1 <1>   0.1500 
@<TRIPOS>BOND
  1   1   2  2   
  2   2   3  am  
  3   2   4  1   
  4   3   5  1   
  5   3   6  1   
  6   4   7  1   
  7   4   8  2   
  8   5   9  1   
  9   5  10  1   
 10   5  26  1   
 11   6  11  1   
 12   6  27  1   
 13   6  28  1   
 14   7  12  2   
 15   7  13  1   
 16   8  14  1   
 17   8  15  1   
 18   9  16  1   
 19   9  29  1   
 20   9  30  1   
 21  10  17  1   
 22  10  31  1   
 23  10  32  1   
 24  11  18  1   
 25  11  19  1   
 26  11  33  1   
 27  12  14  1   
 28  13  20  ar  
 29  13  21  ar  
 30  15  34  1   
 31  15  35  1   
 32  15  36  1   
 33  16  18  1   
 34  17  19  1   
 35  17  22  1   
 36  17  37  1   
 37  18  38  1   
 38  18  39  1   
 39  19  40  1   
 40  19  41  1   
 41  20  23  ar  
 42  20  42  1   
 43  21  24  ar  
 44  21  43  1   
 45  22  44  1   
 46  22  45  1   
 47  22  46  1   
 48  23  25  ar  
 49  23  47  1   
 50  24  25  ar  
 51  24  48  1   
 52  25  49  1   
@<TRIPOS>SUBSTRUCTURE
  1 ****   3 GROUP 4 **** **** 0

# MOE 2024.06 (io_trps.svl 2023.06)
