@<TRIPOS>MOLECULE
NONAME
47 50 1 0 0 
SMALL
USER_CHARGES


@<TRIPOS>ATOM
  1 S        0.7800     0.3590     0.1290 S.3   1 <1>  -0.0800 
  2 C        0.7430    -1.4110     0.1670 C.2   1 <1>  -0.0130 
  3 C       -0.9630     0.4750    -0.0020 C.2   1 <1>  -0.1400 
  4 C        1.9850    -2.1450     0.2810 C.ar  1 <1>   0.3630 
  5 C       -0.5540    -1.8080     0.0800 C.2   1 <1>  -0.1500 
  6 C       -1.5100    -0.7530    -0.0140 C.2   1 <1>  -0.1500 
  7 C       -1.5620     1.8630    -0.0790 C.3   1 <1>  -0.0600 
  8 N        3.1310    -1.4890     0.1140 N.ar  1 <1>  -0.6200 
  9 C        1.9550    -3.5090     0.5590 C.ar  1 <1>  -0.1500 
 10 C        4.2640    -2.1760     0.2180 C.ar  1 <1>   0.4100 
 11 C        3.1230    -4.2220     0.6720 C.ar  1 <1>  -0.1500 
 12 N        5.4080    -1.4250     0.0220 N.pl3 1 <1>  -0.8380 
 13 C        4.3180    -3.5450     0.5010 C.ar  1 <1>  -0.1790 
 14 C        5.4640    -0.0650     0.6300 C.3   1 <1>   0.2090 
 15 C        6.1470    -1.6290    -1.2560 C.3   1 <1>   0.2090 
 16 C        5.5670    -4.2390     0.6320 C.2   1 <1>   0.9790 
 17 C        6.8850     0.4030     1.0020 C.3   1 <1>   0.2200 
 18 C        7.6620    -1.3970    -1.1580 C.3   1 <1>  -0.0190 
 19 O        6.0610    -4.4450     1.7550 O.co2 1 <1>  -0.9000 
 20 O        6.1450    -4.7070    -0.3690 O.co2 1 <1>  -0.9000 
 21 N        7.6030     0.9260    -0.2080 N.am  1 <1>  -0.6600 
 22 C        7.6790    -0.6850     1.7720 C.3   1 <1>   0.1200 
 23 C        7.9690     0.0890    -1.2310 C.2   1 <1>   0.5690 
 24 C        8.3550    -2.1090     0.0230 C.3   1 <1>   0.1200 
 25 C        7.9500     2.3710    -0.1980 C.3   1 <1>   0.0600 
 26 O        8.7410    -1.2220     1.0350 O.3   1 <1>  -0.5600 
 27 O        8.5130     0.5050    -2.2310 O.2   1 <1>  -0.5700 
 28 H       -0.8830    -2.8300     0.0750 H     1 <1>   0.1500 
 29 H       -2.5630    -0.9630    -0.0870 H     1 <1>   0.1500 
 30 H       -2.6320     1.8010    -0.1580 H     1 <1>   0.0800 
 31 H       -1.1770     2.3790    -0.9400 H     1 <1>   0.0800 
 32 H       -1.3090     2.4190     0.8050 H     1 <1>   0.0800 
 33 H        1.0180    -4.0100     0.6920 H     1 <1>   0.1500 
 34 H        3.1330    -5.2750     0.8930 H     1 <1>   0.1500 
 35 H        5.0100     0.6450    -0.0390 H     1 <1>   0.0800 
 36 H        4.8760    -0.0820     1.5310 H     1 <1>   0.0800 
 37 H        5.9780    -2.6340    -1.6010 H     1 <1>   0.0800 
 38 H        5.7340    -0.9720    -2.0010 H     1 <1>   0.0800 
 39 H        6.7480     1.2230     1.6810 H     1 <1>   0.0800 
 40 H        8.0670    -1.8390    -2.0480 H     1 <1>   0.0800 
 41 H        7.0380    -1.4900     2.0960 H     1 <1>   0.0800 
 42 H        8.1100    -0.2420     2.6510 H     1 <1>   0.0800 
 43 H        9.2560    -2.5760    -0.3300 H     1 <1>   0.0800 
 44 H        7.7380    -2.8790     0.4490 H     1 <1>   0.0800 
 45 H        7.0530     2.9600    -0.1270 H     1 <1>   0.0800 
 46 H        8.4720     2.6440    -1.0990 H     1 <1>   0.0800 
 47 H        8.5870     2.5820     0.6430 H     1 <1>   0.0800 
@<TRIPOS>BOND
  1   1   2  1   
  2   1   3  1   
  3   2   4  1   
  4   2   5  2   
  5   3   6  2   
  6   3   7  1   
  7   4   8  ar  
  8   4   9  ar  
  9   5   6  1   
 10   5  28  1   
 11   6  29  1   
 12   7  30  1   
 13   7  31  1   
 14   7  32  1   
 15   8  10  ar  
 16   9  11  ar  
 17   9  33  1   
 18  10  12  1   
 19  10  13  ar  
 20  11  13  ar  
 21  11  34  1   
 22  12  14  1   
 23  12  15  1   
 24  13  16  1   
 25  14  17  1   
 26  14  35  1   
 27  14  36  1   
 28  15  18  1   
 29  15  37  1   
 30  15  38  1   
 31  16  19  ar  
 32  16  20  ar  
 33  17  21  1   
 34  17  22  1   
 35  17  39  1   
 36  18  23  1   
 37  18  24  1   
 38  18  40  1   
 39  21  23  am  
 40  21  25  1   
 41  22  26  1   
 42  22  41  1   
 43  22  42  1   
 44  23  27  2   
 45  24  26  1   
 46  24  43  1   
 47  24  44  1   
 48  25  45  1   
 49  25  46  1   
 50  25  47  1   
@<TRIPOS>SUBSTRUCTURE
  1 ****  10 GROUP 4 **** **** 0

# MOE 2024.06 (io_trps.svl 2023.06)
