@<TRIPOS>MOLECULE
NONAME
55 58 1 0 0 
SMALL
USER_CHARGES


@<TRIPOS>ATOM
  1 O        0.7240    -3.6050     1.8450 O.3   1 <1>  -0.6800 
  2 C        1.3150    -4.2700     0.7930 C.3   1 <1>   0.2000 
  3 C        2.7130    -4.7190     1.1930 C.3   1 <1>  -0.1600 
  4 C        1.5250    -3.2990    -0.3570 C.3   1 <1>  -0.1600 
  5 C        3.5310    -4.7070    -0.1090 C.3   1 <1>  -0.0800 
  6 C        2.7590    -3.8230    -1.1050 C.3   1 <1>  -0.0800 
  7 C        4.9170    -4.0670     0.0530 C.3   1 <1>  -0.1600 
  8 C        3.7190    -2.7050    -1.5280 C.3   1 <1>  -0.1600 
  9 C        4.7040    -2.6150    -0.3690 C.3   1 <1>   0.4230 
 10 N        5.9500    -1.8790    -0.7160 N.4   1 <1>  -0.9590 
 11 C        6.7740    -1.6420     0.5030 C.3   1 <1>   0.4860 
 12 C        6.7820    -2.4880    -1.8070 C.3   1 <1>   0.2630 
 13 C        7.7510    -0.5070     0.2180 C.ar  1 <1>  -0.1430 
 14 C        9.1260    -0.7640     0.1050 C.ar  1 <1>  -0.0230 
 15 C        7.2740     0.7960     0.0670 C.ar  1 <1>  -0.1430 
 16 N        9.7010    -2.0560     0.3130 N.pl3 1 <1>   0.5930 
 17 C        9.9830     0.2850    -0.2090 C.ar  1 <1>  -0.1500 
 18 C        8.1590     1.8160    -0.2410 C.ar  1 <1>  -0.1500 
 19 C        5.8070     1.1830     0.2340 C.3   1 <1>  -0.0970 
 20 N        9.2310    -3.1990    -0.2560 N.2   1 <1>  -0.7070 
 21 C       10.7710    -2.3430     1.0910 C.2   1 <1>  -0.3020 
 22 C        9.5100     1.5690    -0.3880 C.ar  1 <1>  -0.1430 
 23 C       10.0170    -4.1440     0.1600 C.2   1 <1>   0.1390 
 24 C       11.0030    -3.6680     1.0130 C.2   1 <1>  -0.1500 
 25 C       10.4580     2.7050    -0.7300 C.3   1 <1>  -0.0970 
 26 H        0.5080    -4.2300     2.5640 H     1 <1>   0.4000 
 27 H        0.6970    -5.1020     0.4930 H     1 <1>   0.0800 
 28 H        3.1210    -4.0180     1.9010 H     1 <1>   0.0800 
 29 H        2.6950    -5.7010     1.6310 H     1 <1>   0.0800 
 30 H        0.6620    -3.2680    -0.9970 H     1 <1>   0.0800 
 31 H        1.7090    -2.3160     0.0400 H     1 <1>   0.0800 
 32 H        3.6160    -5.7120    -0.4910 H     1 <1>   0.0800 
 33 H        2.4440    -4.4050    -1.9570 H     1 <1>   0.0800 
 34 H        5.5930    -4.5680    -0.6160 H     1 <1>   0.0800 
 35 H        5.2860    -4.1520     1.0590 H     1 <1>   0.0800 
 36 H        3.2070    -1.7750    -1.6990 H     1 <1>   0.0800 
 37 H        4.2100    -3.0140    -2.4320 H     1 <1>   0.0800 
 38 H        4.2030    -2.1070     0.4400 H     1 <1>   0.0800 
 39 H        5.6840    -0.9420    -1.0370 H     1 <1>   0.4500 
 40 H        6.1400    -1.3520     1.3240 H     1 <1>   0.0800 
 41 H        7.2860    -2.5440     0.7890 H     1 <1>   0.0800 
 42 H        7.1290    -3.4660    -1.5170 H     1 <1>   0.0800 
 43 H        7.6460    -1.8730    -2.0020 H     1 <1>   0.0800 
 44 H        6.2150    -2.5750    -2.7180 H     1 <1>   0.0800 
 45 H       11.0380     0.0970    -0.3160 H     1 <1>   0.1500 
 46 H        7.7990     2.8240    -0.3670 H     1 <1>   0.1500 
 47 H        5.7260     2.2220     0.5040 H     1 <1>   0.0800 
 48 H        5.3330     0.6180     1.0150 H     1 <1>   0.0800 
 49 H        5.2730     1.0420    -0.6890 H     1 <1>   0.0800 
 50 H       11.2980    -1.5880     1.6470 H     1 <1>   0.1500 
 51 H        9.9160    -5.1800    -0.1240 H     1 <1>   0.1500 
 52 H       11.7690    -4.2550     1.4900 H     1 <1>   0.1500 
 53 H       10.0100     3.3590    -1.4570 H     1 <1>   0.0800 
 54 H       11.3780     2.3270    -1.1390 H     1 <1>   0.0800 
 55 H       10.6820     3.2730     0.1550 H     1 <1>   0.0800 
@<TRIPOS>BOND
  1   1   2  1   
  2   1  26  1   
  3   2   3  1   
  4   2   4  1   
  5   2  27  1   
  6   3   5  1   
  7   3  28  1   
  8   3  29  1   
  9   4   6  1   
 10   4  30  1   
 11   4  31  1   
 12   5   6  1   
 13   5   7  1   
 14   5  32  1   
 15   6   8  1   
 16   6  33  1   
 17   7   9  1   
 18   7  34  1   
 19   7  35  1   
 20   8   9  1   
 21   8  36  1   
 22   8  37  1   
 23   9  10  1   
 24   9  38  1   
 25  10  11  1   
 26  10  12  1   
 27  10  39  1   
 28  11  13  1   
 29  11  40  1   
 30  11  41  1   
 31  12  42  1   
 32  12  43  1   
 33  12  44  1   
 34  13  14  ar  
 35  13  15  ar  
 36  14  16  1   
 37  14  17  ar  
 38  15  18  ar  
 39  15  19  1   
 40  16  20  1   
 41  16  21  1   
 42  17  22  ar  
 43  17  45  1   
 44  18  22  ar  
 45  18  46  1   
 46  19  47  1   
 47  19  48  1   
 48  19  49  1   
 49  20  23  2   
 50  21  24  2   
 51  21  50  1   
 52  22  25  1   
 53  23  24  1   
 54  23  51  1   
 55  24  52  1   
 56  25  53  1   
 57  25  54  1   
 58  25  55  1   
@<TRIPOS>SUBSTRUCTURE
  1 ****  11 GROUP 4 **** **** 0

# MOE 2024.06 (io_trps.svl 2023.06)
