@<TRIPOS>MOLECULE
NONAME
47 50 1 0 0 
SMALL
USER_CHARGES


@<TRIPOS>ATOM
  1 O        2.1150    -0.1620    -2.8310 O.2   1 <1>  -0.5700 
  2 C        2.4090    -1.1050    -2.1360 C.2   1 <1>   0.5690 
  3 N        3.5500    -1.0680    -1.3640 N.am  1 <1>  -0.6600 
  4 C        1.4610    -2.2970    -2.1480 C.3   1 <1>   0.1570 
  5 C        3.8010    -1.9240    -0.1590 C.3   1 <1>   0.1400 
  6 C        4.6150    -0.0530    -1.6410 C.3   1 <1>   0.1400 
  7 N        0.4460    -2.1610    -1.0820 N.pl3 1 <1>   0.0480 
  8 C        3.8850    -1.1690     1.2040 C.3   1 <1>   0.4230 
  9 C        4.6630     1.0390    -0.5540 C.3   1 <1>  -0.0800 
 10 C        0.3250    -2.9190     0.0640 C.ar  1 <1>  -0.1520 
 11 C       -0.4800    -1.1560    -1.0110 C.2   1 <1>  -0.3020 
 12 N        3.1270     0.1430     1.3070 N.4   1 <1>  -0.9590 
 13 C        5.3490    -0.9870     1.6620 C.3   1 <1>   0.1200 
 14 C        5.8950     0.9310     0.3600 C.3   1 <1>   0.1200 
 15 C        3.3340     1.1500     0.2050 C.3   1 <1>   0.3430 
 16 C       -0.6670    -2.3520     0.8600 C.ar  1 <1>   0.0000 
 17 C        0.9860    -4.0790     0.4860 C.ar  1 <1>  -0.1500 
 18 C       -1.1730    -1.2470     0.1480 C.2   1 <1>  -0.1500 
 19 C        1.6640    -0.1120     1.4520 C.3   1 <1>   0.2630 
 20 O        6.1550    -0.3950     0.6920 O.3   1 <1>  -0.5600 
 21 C       -0.9680    -2.9060     2.1070 C.ar  1 <1>  -0.1500 
 22 C        0.6820    -4.6160     1.7150 C.ar  1 <1>  -0.1500 
 23 C       -0.2910    -4.0260     2.5290 C.ar  1 <1>  -0.1500 
 24 H        2.0080    -3.2100    -2.0240 H     1 <1>   0.0800 
 25 H        0.9560    -2.3310    -3.0950 H     1 <1>   0.0800 
 26 H        3.0270    -2.6550    -0.0690 H     1 <1>   0.0800 
 27 H        4.7140    -2.4740    -0.3140 H     1 <1>   0.0800 
 28 H        5.5680    -0.5470    -1.7310 H     1 <1>   0.0800 
 29 H        4.4250     0.4150    -2.5940 H     1 <1>   0.0800 
 30 H        3.4550    -1.8350     1.9330 H     1 <1>   0.0800 
 31 H        4.7740     1.9710    -1.0790 H     1 <1>   0.0800 
 32 H       -0.5940    -0.4330    -1.8020 H     1 <1>   0.1500 
 33 H        3.4480     0.5890     2.1750 H     1 <1>   0.4500 
 34 H        5.7750    -1.9560     1.8580 H     1 <1>   0.0800 
 35 H        5.4110    -0.4120     2.5690 H     1 <1>   0.0800 
 36 H        5.7960     1.5170     1.2580 H     1 <1>   0.0800 
 37 H        6.7620     1.2830    -0.1740 H     1 <1>   0.0800 
 38 H        2.5400     1.0510    -0.5190 H     1 <1>   0.0800 
 39 H        3.2550     2.1400     0.6230 H     1 <1>   0.0800 
 40 H        1.7140    -4.5570    -0.1450 H     1 <1>   0.1500 
 41 H       -1.9750    -0.6180     0.4950 H     1 <1>   0.1500 
 42 H        1.2710    -0.4950     0.5280 H     1 <1>   0.0800 
 43 H        1.1410     0.8000     1.6890 H     1 <1>   0.0800 
 44 H        1.4730    -0.8330     2.2310 H     1 <1>   0.0800 
 45 H       -1.7330    -2.4550     2.7140 H     1 <1>   0.1500 
 46 H        1.1780    -5.5080     2.0610 H     1 <1>   0.1500 
 47 H       -0.5150    -4.4690     3.4850 H     1 <1>   0.1500 
@<TRIPOS>BOND
  1   1   2  2   
  2   2   3  am  
  3   2   4  1   
  4   3   5  1   
  5   3   6  1   
  6   4   7  1   
  7   4  24  1   
  8   4  25  1   
  9   5   8  1   
 10   5  26  1   
 11   5  27  1   
 12   6   9  1   
 13   6  28  1   
 14   6  29  1   
 15   7  10  1   
 16   7  11  1   
 17   8  12  1   
 18   8  13  1   
 19   8  30  1   
 20   9  14  1   
 21   9  15  1   
 22   9  31  1   
 23  10  16  ar  
 24  10  17  ar  
 25  11  18  2   
 26  11  32  1   
 27  12  15  1   
 28  12  19  1   
 29  12  33  1   
 30  13  20  1   
 31  13  34  1   
 32  13  35  1   
 33  14  20  1   
 34  14  36  1   
 35  14  37  1   
 36  15  38  1   
 37  15  39  1   
 38  16  18  1   
 39  16  21  ar  
 40  17  22  ar  
 41  17  40  1   
 42  18  41  1   
 43  19  42  1   
 44  19  43  1   
 45  19  44  1   
 46  21  23  ar  
 47  21  45  1   
 48  22  23  ar  
 49  22  46  1   
 50  23  47  1   
@<TRIPOS>SUBSTRUCTURE
  1 ****   5 GROUP 4 **** **** 0

# MOE 2024.06 (io_trps.svl 2023.06)
