@<TRIPOS>MOLECULE
NONAME
53 56 1 0 0 
SMALL
USER_CHARGES


@<TRIPOS>ATOM
  1 CL       1.3700     1.3690    -1.7540 Cl    1 <1>  -0.1770 
  2 C        1.9040    -0.1560    -1.0930 C.ar  1 <1>   0.1770 
  3 C        2.5520    -0.1710     0.1250 C.ar  1 <1>  -0.1500 
  4 C        1.6600    -1.3150    -1.8000 C.ar  1 <1>  -0.1500 
  5 C        2.9780    -1.3840     0.6580 C.ar  1 <1>   0.0830 
  6 C        2.0780    -2.5330    -1.2850 C.ar  1 <1>  -0.1440 
  7 O        3.5910    -1.4530     1.8760 O.3   1 <1>  -0.3620 
  8 C        2.7540    -2.5680    -0.0650 C.ar  1 <1>   0.0830 
  9 C        1.7920    -3.8110    -2.0640 C.3   1 <1>   0.2540 
 10 C        3.8380    -0.3040     2.6570 C.3   1 <1>   0.0400 
 11 O        3.1670    -3.7870     0.3850 O.3   1 <1>  -0.3630 
 12 N        0.7790    -4.6200    -1.3630 N.3   1 <1>  -0.8100 
 13 C        4.5210    -3.9500     0.7540 C.3   1 <1>   0.0400 
 14 C       -0.5450    -3.9770    -1.2160 C.3   1 <1>   0.1100 
 15 C        0.6600    -5.9960    -1.8810 C.3   1 <1>   0.1100 
 16 C       -1.4370    -4.7560    -0.2130 C.3   1 <1>   0.4230 
 17 C       -0.3540    -6.8310    -1.0610 C.3   1 <1>   0.3430 
 18 N       -0.8190    -6.0840     0.1600 N.4   1 <1>  -0.9590 
 19 C       -2.8750    -4.9430    -0.7450 C.3   1 <1>   0.1200 
 20 C       -1.7140    -6.8440     1.0830 C.3   1 <1>   0.5180 
 21 O       -3.6470    -5.6800     0.1630 O.3   1 <1>  -0.5600 
 22 C       -1.0640    -8.1980     1.4310 C.3   1 <1>  -0.1950 
 23 C       -3.1420    -6.9490     0.4910 C.3   1 <1>   0.1200 
 24 C       -1.2230    -9.4590     0.6320 C.3   1 <1>  -0.2000 
 25 C       -1.8360    -9.3510     2.0000 C.3   1 <1>  -0.2000 
 26 H        2.7050     0.7640     0.6270 H     1 <1>   0.1500 
 27 H        1.1480    -1.2530    -2.7430 H     1 <1>   0.1500 
 28 H        2.7080    -4.3730    -2.1430 H     1 <1>   0.0800 
 29 H        1.4550    -3.5800    -3.0600 H     1 <1>   0.0800 
 30 H        4.3250    -0.6160     3.5630 H     1 <1>   0.0800 
 31 H        2.9010     0.1690     2.8930 H     1 <1>   0.0800 
 32 H        4.4810     0.3610     2.1080 H     1 <1>   0.0800 
 33 H        4.7810    -4.9850     0.6320 H     1 <1>   0.0800 
 34 H        4.6390    -3.6670     1.7840 H     1 <1>   0.0800 
 35 H        5.1380    -3.3370     0.1210 H     1 <1>   0.0800 
 36 H       -0.4320    -2.9730    -0.8450 H     1 <1>   0.0800 
 37 H       -1.0240    -3.9130    -2.1790 H     1 <1>   0.0800 
 38 H        0.3620    -5.9810    -2.9150 H     1 <1>   0.0800 
 39 H        1.6240    -6.4750    -1.8260 H     1 <1>   0.0800 
 40 H       -1.5090    -4.1530     0.6770 H     1 <1>   0.0800 
 41 H        0.1180    -7.7560    -0.7740 H     1 <1>   0.0800 
 42 H       -1.1980    -7.0750    -1.6840 H     1 <1>   0.0800 
 43 H        0.0530    -5.8240     0.6430 H     1 <1>   0.4500 
 44 H       -2.8780    -5.4540    -1.6930 H     1 <1>   0.0800 
 45 H       -3.3500    -3.9860    -0.8710 H     1 <1>   0.0800 
 46 H       -1.8030    -6.2880     2.0030 H     1 <1>   0.0800 
 47 H       -0.1070    -8.0380     1.8990 H     1 <1>   0.1000 
 48 H       -3.8110    -7.3790     1.2150 H     1 <1>   0.0800 
 49 H       -3.1570    -7.5610    -0.3930 H     1 <1>   0.0800 
 50 H       -1.9000    -9.5210    -0.2030 H     1 <1>   0.1000 
 51 H       -0.3780   -10.1180     0.5140 H     1 <1>   0.1000 
 52 H       -1.3970    -9.9240     2.8010 H     1 <1>   0.1000 
 53 H       -2.9100    -9.3300     2.0680 H     1 <1>   0.1000 
@<TRIPOS>BOND
  1   1   2  1   
  2   2   3  ar  
  3   2   4  ar  
  4   3   5  ar  
  5   3  26  1   
  6   4   6  ar  
  7   4  27  1   
  8   5   7  1   
  9   5   8  ar  
 10   6   8  ar  
 11   6   9  1   
 12   7  10  1   
 13   8  11  1   
 14   9  12  1   
 15   9  28  1   
 16   9  29  1   
 17  10  30  1   
 18  10  31  1   
 19  10  32  1   
 20  11  13  1   
 21  12  14  1   
 22  12  15  1   
 23  13  33  1   
 24  13  34  1   
 25  13  35  1   
 26  14  16  1   
 27  14  36  1   
 28  14  37  1   
 29  15  17  1   
 30  15  38  1   
 31  15  39  1   
 32  16  18  1   
 33  16  19  1   
 34  16  40  1   
 35  17  18  1   
 36  17  41  1   
 37  17  42  1   
 38  18  20  1   
 39  18  43  1   
 40  19  21  1   
 41  19  44  1   
 42  19  45  1   
 43  20  22  1   
 44  20  23  1   
 45  20  46  1   
 46  21  23  1   
 47  22  24  1   
 48  22  25  1   
 49  22  47  1   
 50  23  48  1   
 51  23  49  1   
 52  24  25  1   
 53  24  50  1   
 54  24  51  1   
 55  25  52  1   
 56  25  53  1   
@<TRIPOS>SUBSTRUCTURE
  1 ****  12 GROUP 4 **** **** 0

# MOE 2024.06 (io_trps.svl 2023.06)
