@<TRIPOS>MOLECULE
NONAME
48 49 1 0 0 
SMALL
USER_CHARGES


@<TRIPOS>ATOM
  1 O       -1.2420     0.3650     2.4090 O.2   1 <1>  -0.5700 
  2 C       -1.4740     0.5210     1.2350 C.2   1 <1>   0.5690 
  3 N       -1.8040    -0.5110     0.4230 N.am  1 <1>  -0.7300 
  4 C       -1.4330     1.9300     0.6500 C.3   1 <1>  -0.0190 
  5 C       -2.1700    -1.8620     0.8770 C.3   1 <1>   0.2840 
  6 C       -2.7940     2.3270     0.0440 C.3   1 <1>  -0.1600 
  7 C       -0.2870     2.1080    -0.3740 C.3   1 <1>  -0.1600 
  8 C       -3.5820    -2.1330     0.3870 C.ar  1 <1>  -0.1440 
  9 C       -2.8250     3.8020    -0.4040 C.3   1 <1>   0.2000 
 10 C       -0.5180     3.2660    -1.3660 C.3   1 <1>  -0.1600 
 11 C       -3.8230    -2.8730    -0.7670 C.ar  1 <1>   0.0820 
 12 C       -4.6480    -1.6120     1.1020 C.ar  1 <1>  -0.1500 
 13 O       -3.6670     3.9020    -1.5270 O.3   1 <1>  -0.5600 
 14 C       -1.4190     4.3500    -0.7690 C.3   1 <1>   0.2000 
 15 O       -2.7460    -3.3520    -1.4490 O.3   1 <1>  -0.3630 
 16 C       -5.1350    -3.0860    -1.1840 C.ar  1 <1>  -0.1500 
 17 C       -5.9530    -1.8190     0.6880 C.ar  1 <1>   0.0820 
 18 C       -5.0330     3.8990    -1.2460 C.3   1 <1>   0.0400 
 19 O       -1.5560     5.3540    -1.7050 O.3   1 <1>  -0.6800 
 20 C       -2.8970    -4.1670    -2.5900 C.3   1 <1>   0.0400 
 21 C       -6.1940    -2.5640    -0.4620 C.ar  1 <1>  -0.1500 
 22 O       -6.9310    -1.2640     1.4500 O.3   1 <1>  -0.3620 
 23 C       -8.2930    -1.4940     1.1660 C.3   1 <1>   0.0400 
 24 H       -2.0370    -0.3360    -0.5540 H     1 <1>   0.3700 
 25 H       -1.2440     2.5980     1.4740 H     1 <1>   0.0800 
 26 H       -1.4710    -2.5780     0.4830 H     1 <1>   0.0800 
 27 H       -2.1360    -1.9180     1.9530 H     1 <1>   0.0800 
 28 H       -3.5690     2.1620     0.7720 H     1 <1>   0.0800 
 29 H       -2.9900     1.6950    -0.8050 H     1 <1>   0.0800 
 30 H        0.6260     2.2800     0.1710 H     1 <1>   0.0800 
 31 H       -0.1480     1.2030    -0.9410 H     1 <1>   0.0800 
 32 H       -3.2230     4.4210     0.3830 H     1 <1>   0.0800 
 33 H       -0.9950     2.8780    -2.2500 H     1 <1>   0.0800 
 34 H        0.4280     3.6910    -1.6520 H     1 <1>   0.0800 
 35 H       -4.4730    -1.0330     1.9910 H     1 <1>   0.1500 
 36 H       -0.9430     4.7700     0.1010 H     1 <1>   0.0800 
 37 H       -5.3540    -3.6540    -2.0680 H     1 <1>   0.1500 
 38 H       -5.5640     4.0040    -2.1760 H     1 <1>   0.0800 
 39 H       -5.2660     4.7290    -0.6020 H     1 <1>   0.0800 
 40 H       -5.3050     2.9680    -0.7800 H     1 <1>   0.0800 
 41 H       -2.3650     5.1280    -2.2170 H     1 <1>   0.4000 
 42 H       -1.9180    -4.4430    -2.9360 H     1 <1>   0.0800 
 43 H       -3.4090    -3.6090    -3.3540 H     1 <1>   0.0800 
 44 H       -3.4510    -5.0490    -2.3180 H     1 <1>   0.0800 
 45 H       -7.1930    -2.7440    -0.8100 H     1 <1>   0.1500 
 46 H       -8.8790    -0.9910     1.9150 H     1 <1>   0.0800 
 47 H       -8.4840    -2.5520     1.2030 H     1 <1>   0.0800 
 48 H       -8.5210    -1.0930     0.1940 H     1 <1>   0.0800 
@<TRIPOS>BOND
  1   1   2  2   
  2   2   3  am  
  3   2   4  1   
  4   3   5  1   
  5   3  24  1   
  6   4   6  1   
  7   4   7  1   
  8   4  25  1   
  9   5   8  1   
 10   5  26  1   
 11   5  27  1   
 12   6   9  1   
 13   6  28  1   
 14   6  29  1   
 15   7  10  1   
 16   7  30  1   
 17   7  31  1   
 18   8  11  ar  
 19   8  12  ar  
 20   9  13  1   
 21   9  14  1   
 22   9  32  1   
 23  10  14  1   
 24  10  33  1   
 25  10  34  1   
 26  11  15  1   
 27  11  16  ar  
 28  12  17  ar  
 29  12  35  1   
 30  13  18  1   
 31  14  19  1   
 32  14  36  1   
 33  15  20  1   
 34  16  21  ar  
 35  16  37  1   
 36  17  21  ar  
 37  17  22  1   
 38  18  38  1   
 39  18  39  1   
 40  18  40  1   
 41  19  41  1   
 42  20  42  1   
 43  20  43  1   
 44  20  44  1   
 45  21  45  1   
 46  22  23  1   
 47  23  46  1   
 48  23  47  1   
 49  23  48  1   
@<TRIPOS>SUBSTRUCTURE
  1 ****   3 GROUP 4 **** **** 0

# MOE 2024.06 (io_trps.svl 2023.06)
