@<TRIPOS>MOLECULE
NONAME
36 36 1 0 0 
SMALL
USER_CHARGES


@<TRIPOS>ATOM
  1 N       -0.2560    -0.1110    -0.1910 N.4   1 <1>  -0.9590 
  2 C       -1.1200    -0.9620     0.6980 C.3   1 <1>   0.3430 
  3 C        1.1460    -0.6510    -0.1780 C.3   1 <1>   0.3430 
  4 C       -0.2300     1.3480     0.2140 C.3   1 <1>   0.3430 
  5 C       -1.1770    -2.3880     0.1470 C.3   1 <1>  -0.1600 
  6 C        1.1580    -2.0690    -0.7520 C.3   1 <1>  -0.1600 
  7 C       -1.5830     2.1340     0.1320 C.3   1 <1>   0.4230 
  8 C        0.2220    -3.0020     0.0240 C.3   1 <1>  -0.1600 
  9 N       -2.2110     2.1600    -1.2270 N.4   1 <1>  -0.8530 
 10 C       -1.3980     3.5890     0.6200 C.3   1 <1>  -0.0800 
 11 C       -2.7470     4.3110     0.7900 C.3   1 <1>  -0.2400 
 12 C       -0.4740     4.4420    -0.2720 C.3   1 <1>  -0.2400 
 13 H       -0.5700    -0.2480    -1.1600 H     1 <1>   0.4500 
 14 H       -0.7110    -0.9850     1.6960 H     1 <1>   0.0800 
 15 H       -2.1210    -0.5670     0.7510 H     1 <1>   0.0800 
 16 H        1.7960    -0.0260    -0.7710 H     1 <1>   0.0800 
 17 H        1.5260    -0.6720     0.8320 H     1 <1>   0.0800 
 18 H        0.1230     1.4110     1.2310 H     1 <1>   0.0800 
 19 H        0.4950     1.8640    -0.3930 H     1 <1>   0.0800 
 20 H       -1.7700    -2.9980     0.8080 H     1 <1>   0.0800 
 21 H       -1.6660    -2.3920    -0.8120 H     1 <1>   0.0800 
 22 H        0.8770    -2.0440    -1.7910 H     1 <1>   0.0800 
 23 H        2.1610    -2.4580    -0.7040 H     1 <1>   0.0800 
 24 H       -2.2690     1.6630     0.8180 H     1 <1>   0.0800 
 25 H        0.1620    -3.9580    -0.4720 H     1 <1>   0.0800 
 26 H        0.6250    -3.1760     1.0090 H     1 <1>   0.0800 
 27 H       -1.5990     2.6020    -1.9240 H     1 <1>   0.4500 
 28 H       -3.0480     2.7590    -1.1830 H     1 <1>   0.4500 
 29 H       -2.5250     1.2470    -1.5700 H     1 <1>   0.4500 
 30 H       -0.9490     3.5470     1.6000 H     1 <1>   0.0800 
 31 H       -3.2270     4.5130    -0.1520 H     1 <1>   0.0800 
 32 H       -2.5910     5.2600     1.2780 H     1 <1>   0.0800 
 33 H       -3.4180     3.7410     1.4110 H     1 <1>   0.0800 
 34 H       -0.8830     4.5920    -1.2560 H     1 <1>   0.0800 
 35 H        0.5090     4.0130    -0.3630 H     1 <1>   0.0800 
 36 H       -0.3490     5.4170     0.1710 H     1 <1>   0.0800 
@<TRIPOS>BOND
  1   1   2  1   
  2   1   3  1   
  3   1   4  1   
  4   1  13  1   
  5   2   5  1   
  6   2  14  1   
  7   2  15  1   
  8   3   6  1   
  9   3  16  1   
 10   3  17  1   
 11   4   7  1   
 12   4  18  1   
 13   4  19  1   
 14   5   8  1   
 15   5  20  1   
 16   5  21  1   
 17   6   8  1   
 18   6  22  1   
 19   6  23  1   
 20   7   9  1   
 21   7  10  1   
 22   7  24  1   
 23   8  25  1   
 24   8  26  1   
 25   9  27  1   
 26   9  28  1   
 27   9  29  1   
 28  10  11  1   
 29  10  12  1   
 30  10  30  1   
 31  11  31  1   
 32  11  32  1   
 33  11  33  1   
 34  12  34  1   
 35  12  35  1   
 36  12  36  1   
@<TRIPOS>SUBSTRUCTURE
  1 ****   4 GROUP 4 **** **** 0

# MOE 2024.06 (io_trps.svl 2023.06)
