@<TRIPOS>MOLECULE
NONAME
46 48 1 0 0 
SMALL
USER_CHARGES


@<TRIPOS>ATOM
  1 O       -0.2600     0.8620     1.1060 O.2   1 <1>  -0.5700 
  2 C       -0.0130     1.9910     0.7270 C.2   1 <1>   0.6900 
  3 N       -1.0010     2.9460     0.7010 N.am  1 <1>  -0.6600 
  4 N        1.2510     2.3410     0.3460 N.am  1 <1>  -0.5470 
  5 C       -2.3380     2.6850     1.3180 C.3   1 <1>   0.1400 
  6 C       -0.9340     4.2290    -0.0530 C.3   1 <1>   0.1400 
  7 C        2.4110     1.5800     0.1460 C.ar  1 <1>   0.1170 
  8 C       -3.4570     2.6600     0.2470 C.3   1 <1>   0.0000 
  9 C       -2.0230     4.2590    -1.1320 C.3   1 <1>  -0.1600 
 10 C        3.6440     2.2160     0.2070 C.ar  1 <1>  -0.1500 
 11 C        2.3850     0.2180    -0.1350 C.ar  1 <1>  -0.1500 
 12 C       -4.8490     2.4140     0.8660 C.3   1 <1>   0.2000 
 13 C       -3.4200     3.9810    -0.5520 C.3   1 <1>  -0.1600 
 14 C       -3.3050     1.4290    -0.6640 C.3   1 <1>  -0.1600 
 15 C        4.8240     1.5220     0.0020 C.ar  1 <1>   0.0830 
 16 C        3.5570    -0.4880    -0.3410 C.ar  1 <1>  -0.1500 
 17 O       -5.0120     3.0220     2.0990 O.3   1 <1>  -0.6800 
 18 C       -5.0150     0.8980     1.0010 C.3   1 <1>  -0.1600 
 19 C       -3.9340     0.2700     0.1130 C.3   1 <1>  -0.1600 
 20 O        5.9740     2.2380     0.0850 O.3   1 <1>  -0.3630 
 21 C        4.7790     0.1580    -0.2730 C.ar  1 <1>  -0.1500 
 22 C        7.2310     1.6210    -0.0770 C.3   1 <1>   0.0400 
 23 H        1.3810     3.3440     0.3130 H     1 <1>   0.3700 
 24 H       -2.3270     1.7580     1.8650 H     1 <1>   0.0800 
 25 H       -2.5320     3.4730     2.0240 H     1 <1>   0.0800 
 26 H       -1.0840     5.0440     0.6350 H     1 <1>   0.0800 
 27 H        0.0250     4.3570    -0.5220 H     1 <1>   0.0800 
 28 H       -2.0190     5.2230    -1.6090 H     1 <1>   0.0800 
 29 H       -1.7860     3.5260    -1.8830 H     1 <1>   0.0800 
 30 H        3.6990     3.2660     0.4220 H     1 <1>   0.1500 
 31 H        1.4440    -0.2980    -0.1960 H     1 <1>   0.1500 
 32 H       -5.6110     2.7990     0.2080 H     1 <1>   0.0800 
 33 H       -4.1420     3.9540    -1.3490 H     1 <1>   0.0800 
 34 H       -3.6930     4.7900     0.1050 H     1 <1>   0.0800 
 35 H       -3.8610     1.5780    -1.5730 H     1 <1>   0.0800 
 36 H       -2.2810     1.2180    -0.9220 H     1 <1>   0.0800 
 37 H        3.5150    -1.5420    -0.5530 H     1 <1>   0.1500 
 38 H       -4.5020     2.5380     2.7750 H     1 <1>   0.4000 
 39 H       -4.8870     0.5680     2.0170 H     1 <1>   0.0800 
 40 H       -5.9930     0.6120     0.6560 H     1 <1>   0.0800 
 41 H       -3.1810    -0.1930     0.7300 H     1 <1>   0.0800 
 42 H       -4.3400    -0.4730    -0.5520 H     1 <1>   0.0800 
 43 H        5.6740    -0.4110    -0.4370 H     1 <1>   0.1500 
 44 H        7.9900     2.3730     0.0410 H     1 <1>   0.0800 
 45 H        7.2870     1.1970    -1.0640 H     1 <1>   0.0800 
 46 H        7.3470     0.8630     0.6770 H     1 <1>   0.0800 
@<TRIPOS>BOND
  1   1   2  2   
  2   2   3  am  
  3   2   4  am  
  4   3   5  1   
  5   3   6  1   
  6   4   7  1   
  7   4  23  1   
  8   5   8  1   
  9   5  24  1   
 10   5  25  1   
 11   6   9  1   
 12   6  26  1   
 13   6  27  1   
 14   7  10  ar  
 15   7  11  ar  
 16   8  12  1   
 17   8  13  1   
 18   8  14  1   
 19   9  13  1   
 20   9  28  1   
 21   9  29  1   
 22  10  15  ar  
 23  10  30  1   
 24  11  16  ar  
 25  11  31  1   
 26  12  17  1   
 27  12  18  1   
 28  12  32  1   
 29  13  33  1   
 30  13  34  1   
 31  14  19  1   
 32  14  35  1   
 33  14  36  1   
 34  15  20  1   
 35  15  21  ar  
 36  16  21  ar  
 37  16  37  1   
 38  17  38  1   
 39  18  19  1   
 40  18  39  1   
 41  18  40  1   
 42  19  41  1   
 43  19  42  1   
 44  20  22  1   
 45  21  43  1   
 46  22  44  1   
 47  22  45  1   
 48  22  46  1   
@<TRIPOS>SUBSTRUCTURE
  1 ****   2 GROUP 4 **** **** 0

# MOE 2024.06 (io_trps.svl 2023.06)
