@<TRIPOS>MOLECULE
NONAME
52 56 1 0 0 
SMALL
USER_CHARGES


@<TRIPOS>ATOM
  1 O        0.0690    -0.5350     2.3800 O.2   1 <1>  -0.5700 
  2 C       -0.6670     0.2600     1.8430 C.2   1 <1>   0.5690 
  3 N       -1.7010    -0.1500     1.0360 N.am  1 <1>  -0.6600 
  4 C       -0.3970     1.7230     2.1200 C.3   1 <1>   0.1570 
  5 C       -2.6370     0.7540     0.2900 C.3   1 <1>   0.1400 
  6 C       -1.9330    -1.5980     0.7410 C.3   1 <1>   0.1400 
  7 N        0.1330     2.3780     0.9170 N.pl3 1 <1>   0.3140 
  8 C       -4.1040     0.3170     0.4750 C.3   1 <1>   0.1900 
  9 C       -3.4150    -1.9720     0.9120 C.3   1 <1>   0.1100 
 10 N       -0.5190     3.3970     0.3380 N.2   1 <1>  -0.7070 
 11 C        1.2740     2.0740     0.2860 C.2   1 <1>  -0.3020 
 12 N       -4.2890    -1.1050     0.0920 N.3   1 <1>  -0.8100 
 13 C       -5.0400     1.2250    -0.3470 C.3   1 <1>   0.1200 
 14 C        0.2470     3.7320    -0.6790 C.ar  1 <1>   0.2890 
 15 C        1.3960     2.9270    -0.7660 C.ar  1 <1>   0.0000 
 16 C       -5.7180    -1.4800     0.2160 C.3   1 <1>   0.3330 
 17 O       -6.3720     0.8340    -0.1760 O.3   1 <1>  -0.5600 
 18 C        0.0490     4.7550    -1.6360 C.ar  1 <1>  -0.1500 
 19 C        2.3370     3.1420    -1.8050 C.ar  1 <1>  -0.1500 
 20 C       -5.9620    -2.8980    -0.3000 C.ar  1 <1>  -0.1440 
 21 C       -6.6120    -0.4920    -0.5650 C.3   1 <1>   0.1200 
 22 C        0.9640     4.9510    -2.6290 C.ar  1 <1>  -0.1500 
 23 C        2.1200     4.1350    -2.7130 C.ar  1 <1>  -0.1500 
 24 C       -6.7160    -3.7910     0.4490 C.ar  1 <1>  -0.1500 
 25 C       -5.4420    -3.3120    -1.5190 C.ar  1 <1>  -0.1500 
 26 C       -6.9470    -5.0750    -0.0140 C.ar  1 <1>  -0.1500 
 27 C       -5.6720    -4.5950    -1.9830 C.ar  1 <1>  -0.1500 
 28 C       -6.4250    -5.4780    -1.2300 C.ar  1 <1>  -0.1500 
 29 H        0.3300     1.8130     2.9050 H     1 <1>   0.0800 
 30 H       -1.2990     2.2140     2.4270 H     1 <1>   0.0800 
 31 H       -2.5430     1.7690     0.6240 H     1 <1>   0.0800 
 32 H       -2.3880     0.7260    -0.7570 H     1 <1>   0.0800 
 33 H       -1.6350    -1.8020    -0.2730 H     1 <1>   0.0800 
 34 H       -1.3390    -2.2180     1.3900 H     1 <1>   0.0800 
 35 H       -4.3560     0.4430     1.5140 H     1 <1>   0.0800 
 36 H       -3.6820    -1.8920     1.9510 H     1 <1>   0.0800 
 37 H       -3.5380    -2.9990     0.6150 H     1 <1>   0.0800 
 38 H        1.9380     1.2870     0.5930 H     1 <1>   0.1500 
 39 H       -4.7970     1.1740    -1.3940 H     1 <1>   0.0800 
 40 H       -4.9560     2.2460    -0.0190 H     1 <1>   0.0800 
 41 H       -6.0040    -1.4320     1.2520 H     1 <1>   0.0800 
 42 H       -0.8370     5.3540    -1.5400 H     1 <1>   0.1500 
 43 H        3.2040     2.5080    -1.8440 H     1 <1>   0.1500 
 44 H       -7.6480    -0.7090    -0.3790 H     1 <1>   0.0800 
 45 H       -6.4280    -0.5780    -1.6220 H     1 <1>   0.0800 
 46 H        0.8300     5.7260    -3.3640 H     1 <1>   0.1500 
 47 H        2.8180     4.3210    -3.5110 H     1 <1>   0.1500 
 48 H       -7.1300    -3.4920     1.3960 H     1 <1>   0.1500 
 49 H       -4.8500    -2.6300    -2.1050 H     1 <1>   0.1500 
 50 H       -7.5330    -5.7610     0.5730 H     1 <1>   0.1500 
 51 H       -5.2630    -4.9060    -2.9290 H     1 <1>   0.1500 
 52 H       -6.6040    -6.4760    -1.5900 H     1 <1>   0.1500 
@<TRIPOS>BOND
  1   1   2  2   
  2   2   3  am  
  3   2   4  1   
  4   3   5  1   
  5   3   6  1   
  6   4   7  1   
  7   4  29  1   
  8   4  30  1   
  9   5   8  1   
 10   5  31  1   
 11   5  32  1   
 12   6   9  1   
 13   6  33  1   
 14   6  34  1   
 15   7  10  1   
 16   7  11  1   
 17   8  12  1   
 18   8  13  1   
 19   8  35  1   
 20   9  12  1   
 21   9  36  1   
 22   9  37  1   
 23  10  14  2   
 24  11  15  2   
 25  11  38  1   
 26  12  16  1   
 27  13  17  1   
 28  13  39  1   
 29  13  40  1   
 30  14  15  ar  
 31  14  18  ar  
 32  15  19  ar  
 33  16  20  1   
 34  16  21  1   
 35  16  41  1   
 36  17  21  1   
 37  18  22  ar  
 38  18  42  1   
 39  19  23  ar  
 40  19  43  1   
 41  20  24  ar  
 42  20  25  ar  
 43  21  44  1   
 44  21  45  1   
 45  22  23  ar  
 46  22  46  1   
 47  23  47  1   
 48  24  26  ar  
 49  24  48  1   
 50  25  27  ar  
 51  25  49  1   
 52  26  28  ar  
 53  26  50  1   
 54  27  28  ar  
 55  27  51  1   
 56  28  52  1   
@<TRIPOS>SUBSTRUCTURE
  1 ****   5 GROUP 4 **** **** 0

# MOE 2024.06 (io_trps.svl 2023.06)
