@<TRIPOS>MOLECULE
NONAME
40 42 1 0 0 
SMALL
USER_CHARGES


@<TRIPOS>ATOM
  1 F       -1.5740     1.1890     1.2610 F     1 <1>  -0.3400 
  2 C       -1.7380     2.3080     0.5620 C.3   1 <1>   1.2010 
  3 F       -2.1550     3.2220     1.4360 F     1 <1>  -0.3400 
  4 F       -2.7640     2.0950    -0.2570 F     1 <1>  -0.3400 
  5 C       -0.4490     2.7620    -0.1850 C.2   1 <1>   0.1080 
  6 N        0.2700     2.0290    -1.0080 N.2   1 <1>  -0.7070 
  7 C        0.1000     4.0360    -0.0650 C.2   1 <1>  -0.1500 
  8 N        1.2670     2.8270    -1.4160 N.pl3 1 <1>   0.3000 
  9 C        1.2060     4.0560    -0.8600 C.2   1 <1>  -0.2370 
 10 C        2.1720     5.0660    -1.1500 C.2   1 <1>   0.7150 
 11 O        3.1110     4.8490    -1.8940 O.2   1 <1>  -0.5700 
 12 N        2.1250     6.2920    -0.5510 N.am  1 <1>  -0.6600 
 13 C        2.7250     6.4020     0.8230 C.3   1 <1>   0.2200 
 14 C        2.0760     7.5030    -1.4280 C.3   1 <1>   0.1400 
 15 C        2.1960     7.6110     1.6130 C.3   1 <1>   0.1200 
 16 C        4.2770     6.4220     0.7620 C.3   1 <1>   0.3430 
 17 C        3.0810     8.6140    -1.0700 C.3   1 <1>  -0.0800 
 18 O        2.9590     8.7470     1.3380 O.3   1 <1>  -0.5600 
 19 N        4.8140     6.7730    -0.6010 N.4   1 <1>  -0.9590 
 20 C        2.6440     9.4180     0.1650 C.3   1 <1>   0.1200 
 21 C        4.5660     8.1950    -1.0020 C.3   1 <1>   0.3430 
 22 C        6.2570     6.4210    -0.7240 C.3   1 <1>   0.2630 
 23 H       -0.2900     4.8390     0.5370 H     1 <1>   0.1500 
 24 H        1.9870     2.5210    -2.0860 H     1 <1>   0.2700 
 25 H        2.4310     5.5290     1.3790 H     1 <1>   0.0800 
 26 H        2.2480     7.2020    -2.4500 H     1 <1>   0.0800 
 27 H        1.0770     7.9050    -1.3910 H     1 <1>   0.0800 
 28 H        2.3070     7.4200     2.6670 H     1 <1>   0.0800 
 29 H        1.1550     7.8000     1.4130 H     1 <1>   0.0800 
 30 H        4.6270     5.4400     1.0310 H     1 <1>   0.0800 
 31 H        4.6570     7.1110     1.4980 H     1 <1>   0.0800 
 32 H        3.0190     9.3230    -1.8770 H     1 <1>   0.0800 
 33 H        4.2740     6.1720    -1.2620 H     1 <1>   0.4500 
 34 H        1.5880     9.6320     0.1530 H     1 <1>   0.0800 
 35 H        3.1710    10.3570     0.1950 H     1 <1>   0.0800 
 36 H        5.0800     8.8540    -0.3210 H     1 <1>   0.0800 
 37 H        4.9930     8.3460    -1.9800 H     1 <1>   0.0800 
 38 H        6.8460     7.0090    -0.0400 H     1 <1>   0.0800 
 39 H        6.6020     6.6070    -1.7280 H     1 <1>   0.0800 
 40 H        6.4070     5.3760    -0.5020 H     1 <1>   0.0800 
@<TRIPOS>BOND
  1   1   2  1   
  2   2   3  1   
  3   2   4  1   
  4   2   5  1   
  5   5   6  2   
  6   5   7  1   
  7   6   8  1   
  8   7   9  2   
  9   7  23  1   
 10   8   9  1   
 11   8  24  1   
 12   9  10  1   
 13  10  11  2   
 14  10  12  am  
 15  12  13  1   
 16  12  14  1   
 17  13  15  1   
 18  13  16  1   
 19  13  25  1   
 20  14  17  1   
 21  14  26  1   
 22  14  27  1   
 23  15  18  1   
 24  15  28  1   
 25  15  29  1   
 26  16  19  1   
 27  16  30  1   
 28  16  31  1   
 29  17  20  1   
 30  17  21  1   
 31  17  32  1   
 32  18  20  1   
 33  19  21  1   
 34  19  22  1   
 35  19  33  1   
 36  20  34  1   
 37  20  35  1   
 38  21  36  1   
 39  21  37  1   
 40  22  38  1   
 41  22  39  1   
 42  22  40  1   
@<TRIPOS>SUBSTRUCTURE
  1 ****  10 GROUP 4 **** **** 0

# MOE 2024.06 (io_trps.svl 2023.06)
