@<TRIPOS>MOLECULE
NONAME
47 50 1 0 0 
SMALL
USER_CHARGES


@<TRIPOS>ATOM
  1 F       -0.3200    -0.2970    -0.9300 F     1 <1>  -0.1900 
  2 C       -1.4680    -0.8820    -0.6520 C.ar  1 <1>   0.1900 
  3 C       -2.6290    -0.1550    -0.3890 C.ar  1 <1>   0.4100 
  4 C       -1.5150    -2.2470    -0.6350 C.ar  1 <1>   0.1600 
  5 N       -3.7500    -0.8060    -0.1410 N.ar  1 <1>  -0.6200 
  6 N       -2.7020     1.2390    -0.3800 N.pl3 1 <1>  -0.8380 
  7 N       -2.6310    -2.8980    -0.3790 N.ar  1 <1>  -0.6200 
  8 C       -3.6980    -2.1350    -0.1430 C.ar  1 <1>   0.7200 
  9 C       -1.5720     2.1010     0.0430 C.3   1 <1>   0.2090 
 10 C       -3.9900     1.9500    -0.1940 C.3   1 <1>   0.2090 
 11 N       -4.8750    -2.7930     0.1330 N.pl3 1 <1>  -0.8380 
 12 C       -2.2190     3.3310     0.6690 C.3   1 <1>  -0.1600 
 13 C       -3.6020     3.4050     0.0310 C.3   1 <1>  -0.1600 
 14 C       -6.1970    -2.1230     0.0350 C.3   1 <1>   0.2090 
 15 C       -5.0210    -4.2590    -0.0270 C.3   1 <1>   0.2090 
 16 C       -7.2000    -3.2450    -0.2400 C.3   1 <1>   0.2000 
 17 C       -6.5080    -4.5370     0.1920 C.3   1 <1>  -0.0800 
 18 O       -8.3760    -3.0780     0.4790 O.3   1 <1>  -0.6800 
 19 C       -7.0250    -5.7710    -0.5630 C.3   1 <1>  -0.0170 
 20 C       -6.3010    -7.0330    -0.1210 C.ar  1 <1>  -0.1440 
 21 C       -5.2550    -7.5730    -0.8430 C.ar  1 <1>  -0.1500 
 22 C       -6.6550    -7.7040     1.0320 C.ar  1 <1>  -0.1500 
 23 C       -4.6330    -8.7240    -0.3890 C.ar  1 <1>   0.1600 
 24 C       -5.9670    -8.8490     1.3970 C.ar  1 <1>   0.1600 
 25 N       -4.9640    -9.3750     0.7140 N.ar  1 <1>  -0.6200 
 26 H       -0.6250    -2.8160    -0.8350 H     1 <1>   0.1500 
 27 H       -0.9370     1.5950     0.7510 H     1 <1>   0.0800 
 28 H       -1.0010     2.3790    -0.8260 H     1 <1>   0.0800 
 29 H       -4.6190     1.8320    -1.0600 H     1 <1>   0.0800 
 30 H       -4.4930     1.5610     0.6760 H     1 <1>   0.0800 
 31 H       -2.3140     3.1710     1.7280 H     1 <1>   0.0800 
 32 H       -1.6380     4.2190     0.4960 H     1 <1>   0.0800 
 33 H       -3.5420     3.8990    -0.9220 H     1 <1>   0.0800 
 34 H       -4.3160     3.9170     0.6510 H     1 <1>   0.0800 
 35 H       -6.4080    -1.6270     0.9660 H     1 <1>   0.0800 
 36 H       -6.2020    -1.4080    -0.7700 H     1 <1>   0.0800 
 37 H       -4.7210    -4.5360    -1.0230 H     1 <1>   0.0800 
 38 H       -4.4120    -4.7840     0.6890 H     1 <1>   0.0800 
 39 H       -7.4430    -3.2620    -1.2880 H     1 <1>   0.0800 
 40 H       -6.6460    -4.6800     1.2500 H     1 <1>   0.0800 
 41 H       -8.1800    -3.0370     1.4350 H     1 <1>   0.4000 
 42 H       -6.8970    -5.6330    -1.6230 H     1 <1>   0.0800 
 43 H       -8.0790    -5.8840    -0.3780 H     1 <1>   0.0800 
 44 H       -4.9170    -7.1120    -1.7530 H     1 <1>   0.1500 
 45 H       -7.4600    -7.3480     1.6480 H     1 <1>   0.1500 
 46 H       -3.8190    -9.1310    -0.9650 H     1 <1>   0.1500 
 47 H       -6.2580    -9.3590     2.2990 H     1 <1>   0.1500 
@<TRIPOS>BOND
  1   1   2  1   
  2   2   3  ar  
  3   2   4  ar  
  4   3   5  ar  
  5   3   6  1   
  6   4   7  ar  
  7   4  26  1   
  8   5   8  ar  
  9   6   9  1   
 10   6  10  1   
 11   7   8  ar  
 12   8  11  1   
 13   9  12  1   
 14   9  27  1   
 15   9  28  1   
 16  10  13  1   
 17  10  29  1   
 18  10  30  1   
 19  11  14  1   
 20  11  15  1   
 21  12  13  1   
 22  12  31  1   
 23  12  32  1   
 24  13  33  1   
 25  13  34  1   
 26  14  16  1   
 27  14  35  1   
 28  14  36  1   
 29  15  17  1   
 30  15  37  1   
 31  15  38  1   
 32  16  17  1   
 33  16  18  1   
 34  16  39  1   
 35  17  19  1   
 36  17  40  1   
 37  18  41  1   
 38  19  20  1   
 39  19  42  1   
 40  19  43  1   
 41  20  21  ar  
 42  20  22  ar  
 43  21  23  ar  
 44  21  44  1   
 45  22  24  ar  
 46  22  45  1   
 47  23  25  ar  
 48  23  46  1   
 49  24  25  ar  
 50  24  47  1   
@<TRIPOS>SUBSTRUCTURE
  1 ****  11 GROUP 4 **** **** 0

# MOE 2024.06 (io_trps.svl 2023.06)
