@<TRIPOS>MOLECULE
NONAME
49 51 1 0 0 
SMALL
USER_CHARGES


@<TRIPOS>ATOM
  1 O        3.6490     0.4040     1.8800 O.co2 1 <1>  -0.9000 
  2 C        3.9010     0.6320     0.6920 C.2   1 <1>   0.9060 
  3 O        5.0550     0.7670     0.2690 O.co2 1 <1>  -0.9000 
  4 C        2.7480     0.7990    -0.2740 C.3   1 <1>  -0.1220 
  5 C        2.4850     2.2780    -0.5090 C.ar  1 <1>  -0.1440 
  6 C        2.7640     2.8690    -1.7280 C.ar  1 <1>  -0.1500 
  7 C        2.0280     3.0490     0.5440 C.ar  1 <1>  -0.1500 
  8 C        2.6480     4.2380    -1.8760 C.ar  1 <1>  -0.1500 
  9 C        1.9110     4.4160     0.4040 C.ar  1 <1>  -0.1500 
 10 C        2.2630     5.0170    -0.7950 C.ar  1 <1>  -0.1440 
 11 C        2.3180     6.5200    -0.8770 C.3   1 <1>   0.4870 
 12 N        3.5050     6.9340    -0.0810 N.4   1 <1>  -0.8520 
 13 C        3.6080     8.3710     0.2630 C.3   1 <1>   0.2960 
 14 C        4.7770     6.4210    -0.6660 C.3   1 <1>   0.5240 
 15 C        2.3930     9.2120     0.4780 C.3   1 <1>  -0.2000 
 16 C        3.2440     9.4110    -0.7440 C.3   1 <1>  -0.2000 
 17 C        5.8380     6.4770     0.4070 C.2   1 <1>  -0.1810 
 18 C        6.0860     5.4810     1.3440 C.2   1 <1>   0.1080 
 19 C        6.7360     7.4540     0.6880 C.2   1 <1>  -0.3320 
 20 N        7.0240     5.8290     2.1680 N.2   1 <1>  -0.7070 
 21 C        5.4110     4.1220     1.4530 C.3   1 <1>  -0.0590 
 22 N        7.4340     7.0300     1.7610 N.pl3 1 <1>   0.3140 
 23 C        6.9970     8.7810    -0.0120 C.3   1 <1>  -0.0600 
 24 C        8.5330     7.7200     2.4510 C.3   1 <1>   0.0160 
 25 H        1.8810     0.3270     0.1460 H     1 <1>   0.0800 
 26 H        3.0050     0.2990    -1.1870 H     1 <1>   0.0800 
 27 H        3.1030     2.2590    -2.5480 H     1 <1>   0.1500 
 28 H        1.8010     2.5720     1.4860 H     1 <1>   0.1500 
 29 H        2.8910     4.6750    -2.8290 H     1 <1>   0.1500 
 30 H        1.5730     4.9900     1.2500 H     1 <1>   0.1500 
 31 H        1.4160     6.9290    -0.4550 H     1 <1>   0.0800 
 32 H        2.4100     6.8460    -1.8990 H     1 <1>   0.0800 
 33 H        3.4410     6.4160     0.8050 H     1 <1>   0.4500 
 34 H        4.4480     8.5710     0.9120 H     1 <1>   0.1000 
 35 H        5.0710     7.0210    -1.5100 H     1 <1>   0.0800 
 36 H        4.6690     5.3980    -0.9880 H     1 <1>   0.0800 
 37 H        2.4270     9.9750     1.2370 H     1 <1>   0.1000 
 38 H        1.4010     8.8190     0.3530 H     1 <1>   0.1000 
 39 H        2.8330     9.1400    -1.7000 H     1 <1>   0.1000 
 40 H        3.8320    10.3110    -0.7970 H     1 <1>   0.1000 
 41 H        5.0080     3.7970     0.5120 H     1 <1>   0.0800 
 42 H        4.6270     4.1470     2.1850 H     1 <1>   0.0800 
 43 H        6.1300     3.3840     1.7640 H     1 <1>   0.0800 
 44 H        6.3700     8.8930    -0.8770 H     1 <1>   0.0800 
 45 H        8.0220     8.8290    -0.3350 H     1 <1>   0.0800 
 46 H        6.8100     9.6010     0.6590 H     1 <1>   0.0800 
 47 H        8.1960     8.6830     2.7830 H     1 <1>   0.0800 
 48 H        9.3600     7.8280     1.7760 H     1 <1>   0.0800 
 49 H        8.8370     7.1330     3.2990 H     1 <1>   0.0800 
@<TRIPOS>BOND
  1   1   2  ar  
  2   2   3  ar  
  3   2   4  1   
  4   4   5  1   
  5   4  25  1   
  6   4  26  1   
  7   5   6  ar  
  8   5   7  ar  
  9   6   8  ar  
 10   6  27  1   
 11   7   9  ar  
 12   7  28  1   
 13   8  10  ar  
 14   8  29  1   
 15   9  10  ar  
 16   9  30  1   
 17  10  11  1   
 18  11  12  1   
 19  11  31  1   
 20  11  32  1   
 21  12  13  1   
 22  12  14  1   
 23  12  33  1   
 24  13  15  1   
 25  13  16  1   
 26  13  34  1   
 27  14  17  1   
 28  14  35  1   
 29  14  36  1   
 30  15  16  1   
 31  15  37  1   
 32  15  38  1   
 33  16  39  1   
 34  16  40  1   
 35  17  18  1   
 36  17  19  2   
 37  18  20  2   
 38  18  21  1   
 39  19  22  1   
 40  19  23  1   
 41  20  22  1   
 42  21  41  1   
 43  21  42  1   
 44  21  43  1   
 45  22  24  1   
 46  23  44  1   
 47  23  45  1   
 48  23  46  1   
 49  24  47  1   
 50  24  48  1   
 51  24  49  1   
@<TRIPOS>SUBSTRUCTURE
  1 ****  14 GROUP 4 **** **** 0

# MOE 2024.06 (io_trps.svl 2023.06)
