@<TRIPOS>MOLECULE
NONAME
50 53 1 0 0 
SMALL
USER_CHARGES


@<TRIPOS>ATOM
  1 O       -1.0460     0.5100     1.9160 O.2   1 <1>  -0.5700 
  2 C       -1.8210     1.0340     1.1400 C.2   1 <1>   0.5440 
  3 N       -2.7580     0.2480     0.5140 N.am  1 <1>  -0.6600 
  4 C       -1.7530     2.4540     0.8810 C.ar  1 <1>   0.0860 
  5 C       -3.6560     0.6860    -0.5860 C.3   1 <1>   0.1400 
  6 C       -2.8310    -1.2230     0.6910 C.3   1 <1>   0.1400 
  7 C       -0.7070     3.0090     0.1060 C.ar  1 <1>   0.1660 
  8 C       -2.7100     3.3100     1.3600 C.ar  1 <1>  -0.1500 
  9 C       -4.5970    -0.5000    -0.7960 C.3   1 <1>   0.2000 
 10 C       -3.7320    -1.7170    -0.4480 C.3   1 <1>  -0.0800 
 11 N       -0.6110     4.2670    -0.1980 N.ar  1 <1>  -0.6200 
 12 C        0.3920     2.1050    -0.4280 C.3   1 <1>  -0.0970 
 13 C       -2.6360     4.6770     1.0600 C.ar  1 <1>   0.0000 
 14 O       -5.6330    -0.3910     0.1200 O.3   1 <1>  -0.6800 
 15 C       -4.5190    -2.9980    -0.1120 C.3   1 <1>   0.0200 
 16 C       -1.5590     5.1280     0.2640 C.ar  1 <1>   0.3100 
 17 C       -3.5910     5.6050     1.5180 C.ar  1 <1>  -0.1500 
 18 C       -3.6280    -4.2130     0.0870 C.2   1 <1>  -0.0400 
 19 C       -1.4790     6.5040    -0.0500 C.ar  1 <1>  -0.1430 
 20 C       -3.4900     6.9300     1.2000 C.ar  1 <1>  -0.1500 
 21 O       -4.1720    -5.3250     0.5040 O.3   1 <1>  -0.0190 
 22 C       -2.3140    -4.4400    -0.0780 C.2   1 <1>  -0.1500 
 23 C       -2.4280     7.3810     0.4110 C.ar  1 <1>  -0.1500 
 24 C       -0.3280     7.0180    -0.9060 C.3   1 <1>  -0.0970 
 25 N       -3.2960    -6.2800     0.6310 N.2   1 <1>  -0.4100 
 26 C       -2.1670    -5.7750     0.2870 C.2   1 <1>   0.1080 
 27 C       -0.8610    -6.5370     0.2850 C.3   1 <1>  -0.0590 
 28 H       -4.1960     1.5830    -0.3370 H     1 <1>   0.0800 
 29 H       -3.0690     0.8510    -1.4730 H     1 <1>   0.0800 
 30 H       -1.8480    -1.6600     0.6450 H     1 <1>   0.0800 
 31 H       -3.2670    -1.4370     1.6530 H     1 <1>   0.0800 
 32 H       -3.5200     2.9440     1.9650 H     1 <1>   0.1500 
 33 H       -5.0170    -0.5380    -1.7860 H     1 <1>   0.0800 
 34 H       -3.1030    -1.9180    -1.2980 H     1 <1>   0.0800 
 35 H       -0.0290     1.3190    -1.0260 H     1 <1>   0.0800 
 36 H        0.9380     1.6730     0.3910 H     1 <1>   0.0800 
 37 H        1.0790     2.6660    -1.0360 H     1 <1>   0.0800 
 38 H       -5.2540    -0.2200     1.0060 H     1 <1>   0.4000 
 39 H       -5.2100    -3.2120    -0.9090 H     1 <1>   0.0800 
 40 H       -5.0950    -2.8520     0.7850 H     1 <1>   0.0800 
 41 H       -4.4050     5.2530     2.1260 H     1 <1>   0.1500 
 42 H       -4.2200     7.6400     1.5490 H     1 <1>   0.1500 
 43 H       -1.5270    -3.7890    -0.4090 H     1 <1>   0.1500 
 44 H       -2.3740     8.4300     0.1760 H     1 <1>   0.1500 
 45 H       -0.3990     8.0800    -1.0610 H     1 <1>   0.0800 
 46 H       -0.3400     6.5300    -1.8650 H     1 <1>   0.0800 
 47 H        0.6090     6.8030    -0.4240 H     1 <1>   0.0800 
 48 H       -0.4360    -6.5300    -0.7020 H     1 <1>   0.0800 
 49 H       -1.0300    -7.5560     0.5840 H     1 <1>   0.0800 
 50 H       -0.1720    -6.0830     0.9730 H     1 <1>   0.0800 
@<TRIPOS>BOND
  1   1   2  2   
  2   2   3  am  
  3   2   4  1   
  4   3   5  1   
  5   3   6  1   
  6   4   7  ar  
  7   4   8  ar  
  8   5   9  1   
  9   5  28  1   
 10   5  29  1   
 11   6  10  1   
 12   6  30  1   
 13   6  31  1   
 14   7  11  ar  
 15   7  12  1   
 16   8  13  ar  
 17   8  32  1   
 18   9  10  1   
 19   9  14  1   
 20   9  33  1   
 21  10  15  1   
 22  10  34  1   
 23  11  16  ar  
 24  12  35  1   
 25  12  36  1   
 26  12  37  1   
 27  13  16  ar  
 28  13  17  ar  
 29  14  38  1   
 30  15  18  1   
 31  15  39  1   
 32  15  40  1   
 33  16  19  ar  
 34  17  20  ar  
 35  17  41  1   
 36  18  21  1   
 37  18  22  2   
 38  19  23  ar  
 39  19  24  1   
 40  20  23  ar  
 41  20  42  1   
 42  21  25  1   
 43  22  26  1   
 44  22  43  1   
 45  23  44  1   
 46  24  45  1   
 47  24  46  1   
 48  24  47  1   
 49  25  26  2   
 50  26  27  1   
 51  27  48  1   
 52  27  49  1   
 53  27  50  1   
@<TRIPOS>SUBSTRUCTURE
  1 ****   3 GROUP 4 **** **** 0

# MOE 2024.06 (io_trps.svl 2023.06)
