@<TRIPOS>MOLECULE
NONAME
45 47 1 0 0 
SMALL
USER_CHARGES


@<TRIPOS>ATOM
  1 O       -2.1240     0.7620    -2.1170 O.2   1 <1>  -0.5700 
  2 C       -1.7160     0.6050    -0.9820 C.2   1 <1>   0.7160 
  3 N       -1.6560    -0.6610    -0.4840 N.am  1 <1>  -0.7300 
  4 C       -1.3310     1.7290    -0.1680 C.2   1 <1>  -0.0860 
  5 C       -2.0720    -1.8900    -1.1990 C.3   1 <1>   0.2200 
  6 C       -0.8600     1.7000     1.1480 C.2   1 <1>   0.1390 
  7 C       -1.3370     3.0590    -0.4570 C.2   1 <1>  -0.3020 
  8 C       -3.4300    -2.3770    -0.7070 C.3   1 <1>  -0.0800 
  9 C       -1.1850    -3.0380    -0.7420 C.3   1 <1>   0.1200 
 10 N       -0.6050     2.8770     1.6230 N.2   1 <1>  -0.7070 
 11 N       -0.9000     3.7280     0.6220 N.pl3 1 <1>   0.3140 
 12 C       -3.0730    -3.1880     0.5450 C.3   1 <1>   0.1200 
 13 C       -4.4970    -1.2900    -0.4770 C.3   1 <1>  -0.0160 
 14 O       -1.6910    -3.4050     0.5050 O.3   1 <1>  -0.5600 
 15 C       -0.7350     5.2000     0.7740 C.3   1 <1>   0.1760 
 16 C       -5.8140    -1.9060    -0.0340 C.ar  1 <1>  -0.1430 
 17 C       -2.0850     5.9160     0.6260 C.3   1 <1>  -0.2400 
 18 C        0.2870     5.7390    -0.2370 C.3   1 <1>  -0.2400 
 19 C       -6.2110    -1.9120     1.2880 C.ar  1 <1>  -0.1500 
 20 C       -6.6820    -2.4910    -0.9340 C.ar  1 <1>  -0.1500 
 21 C       -7.4190    -2.4920     1.6370 C.ar  1 <1>   0.1600 
 22 C       -7.8680    -3.0440    -0.4800 C.ar  1 <1>   0.1600 
 23 N       -8.2550    -3.0610     0.7850 N.ar  1 <1>  -0.6200 
 24 H       -1.3470    -0.8270     0.4740 H     1 <1>   0.3700 
 25 H       -2.0400    -1.7450    -2.2660 H     1 <1>   0.0800 
 26 H       -0.7170     0.8020     1.7230 H     1 <1>   0.1500 
 27 H       -1.6310     3.5360    -1.3740 H     1 <1>   0.1500 
 28 H       -3.8120    -3.0700    -1.4360 H     1 <1>   0.0800 
 29 H       -0.1500    -2.7580    -0.6490 H     1 <1>   0.0800 
 30 H       -1.2800    -3.8840    -1.4010 H     1 <1>   0.0800 
 31 H       -3.5770    -4.1390     0.5610 H     1 <1>   0.0800 
 32 H       -3.2910    -2.6460     1.4490 H     1 <1>   0.0800 
 33 H       -4.6480    -0.7390    -1.3890 H     1 <1>   0.0800 
 34 H       -4.1680    -0.5890     0.2700 H     1 <1>   0.0800 
 35 H       -0.3600     5.3760     1.7670 H     1 <1>   0.0800 
 36 H       -2.4860     5.7760    -0.3620 H     1 <1>   0.0800 
 37 H       -1.9630     6.9700     0.8000 H     1 <1>   0.0800 
 38 H       -2.7830     5.5330     1.3500 H     1 <1>   0.0800 
 39 H       -0.0590     5.5960    -1.2450 H     1 <1>   0.0800 
 40 H        1.2280     5.2330    -0.1110 H     1 <1>   0.0800 
 41 H        0.4450     6.7900    -0.0760 H     1 <1>   0.0800 
 42 H       -5.5950    -1.4710     2.0500 H     1 <1>   0.1500 
 43 H       -6.4480    -2.5210    -1.9820 H     1 <1>   0.1500 
 44 H       -7.7120    -2.4880     2.6730 H     1 <1>   0.1500 
 45 H       -8.5330    -3.4970    -1.1950 H     1 <1>   0.1500 
@<TRIPOS>BOND
  1   1   2  2   
  2   2   3  am  
  3   2   4  1   
  4   3   5  1   
  5   3  24  1   
  6   4   6  1   
  7   4   7  2   
  8   5   8  1   
  9   5   9  1   
 10   5  25  1   
 11   6  10  2   
 12   6  26  1   
 13   7  11  1   
 14   7  27  1   
 15   8  12  1   
 16   8  13  1   
 17   8  28  1   
 18   9  14  1   
 19   9  29  1   
 20   9  30  1   
 21  10  11  1   
 22  11  15  1   
 23  12  14  1   
 24  12  31  1   
 25  12  32  1   
 26  13  16  1   
 27  13  33  1   
 28  13  34  1   
 29  15  17  1   
 30  15  18  1   
 31  15  35  1   
 32  16  19  ar  
 33  16  20  ar  
 34  17  36  1   
 35  17  37  1   
 36  17  38  1   
 37  18  39  1   
 38  18  40  1   
 39  18  41  1   
 40  19  21  ar  
 41  19  42  1   
 42  20  22  ar  
 43  20  43  1   
 44  21  23  ar  
 45  21  44  1   
 46  22  23  ar  
 47  22  45  1   
@<TRIPOS>SUBSTRUCTURE
  1 ****   3 GROUP 4 **** **** 0

# MOE 2024.06 (io_trps.svl 2023.06)
