@<TRIPOS>MOLECULE
NONAME
48 50 1 0 0 
SMALL
USER_CHARGES


@<TRIPOS>ATOM
  1 F       -2.6970    -0.8100    -2.0920 F     1 <1>  -0.3400 
  2 C       -2.7320    -2.1030    -1.7930 C.3   1 <1>   1.1640 
  3 F       -1.5110    -2.4200    -1.3770 F     1 <1>  -0.3400 
  4 F       -2.9140    -2.7460    -2.9390 F     1 <1>  -0.3400 
  5 C       -3.8250    -2.4480    -0.7690 C.ar  1 <1>  -0.1440 
  6 C       -3.6500    -3.4850     0.1420 C.ar  1 <1>  -0.1500 
  7 C       -5.0190    -1.7350    -0.7370 C.ar  1 <1>  -0.1500 
  8 C       -4.6390    -3.7980     1.0570 C.ar  1 <1>  -0.1500 
  9 C       -6.0080    -2.0490     0.1790 C.ar  1 <1>  -0.1500 
 10 C       -5.8270    -3.0860     1.0790 C.ar  1 <1>  -0.1430 
 11 C       -6.9210    -3.4470     2.0800 C.3   1 <1>   0.0450 
 12 C       -7.2630    -4.9320     2.1000 C.2   1 <1>   0.5690 
 13 O       -7.0680    -5.5430     3.1240 O.2   1 <1>  -0.5700 
 14 N       -7.7850    -5.5470     0.9940 N.am  1 <1>  -0.6600 
 15 C       -7.9120    -4.9700    -0.3700 C.3   1 <1>   0.1400 
 16 C       -8.1940    -6.9680     0.9810 C.3   1 <1>   0.1400 
 17 C       -8.5320    -6.0770    -1.2340 C.3   1 <1>   0.2000 
 18 C       -8.1650    -7.3680    -0.4950 C.3   1 <1>  -0.0800 
 19 O       -9.9250    -5.9420    -1.2470 O.3   1 <1>  -0.5600 
 20 C       -9.0670    -8.5720    -0.8250 C.3   1 <1>   0.0200 
 21 C      -10.4310    -5.0950    -2.2300 C.3   1 <1>   0.0400 
 22 C       -8.5760    -9.8750    -0.2140 C.2   1 <1>  -0.0400 
 23 O       -9.3050   -10.9490    -0.3610 O.3   1 <1>  -0.0190 
 24 C       -7.4860   -10.2170     0.4920 C.2   1 <1>  -0.1500 
 25 N       -8.7650   -11.9880     0.2090 N.2   1 <1>  -0.4100 
 26 C       -7.6670   -11.5750     0.7320 C.2   1 <1>   0.1080 
 27 C       -6.7100   -12.4540     1.5040 C.3   1 <1>  -0.0590 
 28 H       -2.7380    -4.0600     0.1480 H     1 <1>   0.1500 
 29 H       -5.1870    -0.9240    -1.4270 H     1 <1>   0.1500 
 30 H       -4.4800    -4.6050     1.7550 H     1 <1>   0.1500 
 31 H       -6.9210    -1.4770     0.1850 H     1 <1>   0.1500 
 32 H       -7.8210    -2.9020     1.8670 H     1 <1>   0.0800 
 33 H       -6.5950    -3.1580     3.0630 H     1 <1>   0.0800 
 34 H       -8.5190    -4.0830    -0.3600 H     1 <1>   0.0800 
 35 H       -6.9300    -4.7370    -0.7410 H     1 <1>   0.0800 
 36 H       -7.5290    -7.5660     1.5790 H     1 <1>   0.0800 
 37 H       -9.1940    -7.0420     1.3740 H     1 <1>   0.0800 
 38 H       -8.1630    -6.0730    -2.2450 H     1 <1>   0.0800 
 39 H       -7.1500    -7.6140    -0.7500 H     1 <1>   0.0800 
 40 H       -9.1160    -8.6970    -1.8920 H     1 <1>   0.0800 
 41 H      -10.0670    -8.3850    -0.4730 H     1 <1>   0.0800 
 42 H      -11.5010    -5.0580    -2.1180 H     1 <1>   0.0800 
 43 H      -10.1850    -5.4900    -3.2000 H     1 <1>   0.0800 
 44 H      -10.0210    -4.1090    -2.1060 H     1 <1>   0.0800 
 45 H       -6.6500    -9.6260     0.8160 H     1 <1>   0.1500 
 46 H       -6.5890   -12.0730     2.5020 H     1 <1>   0.0800 
 47 H       -5.7550   -12.4730     1.0120 H     1 <1>   0.0800 
 48 H       -7.0940   -13.4570     1.5580 H     1 <1>   0.0800 
@<TRIPOS>BOND
  1   1   2  1   
  2   2   3  1   
  3   2   4  1   
  4   2   5  1   
  5   5   6  ar  
  6   5   7  ar  
  7   6   8  ar  
  8   6  28  1   
  9   7   9  ar  
 10   7  29  1   
 11   8  10  ar  
 12   8  30  1   
 13   9  10  ar  
 14   9  31  1   
 15  10  11  1   
 16  11  12  1   
 17  11  32  1   
 18  11  33  1   
 19  12  13  2   
 20  12  14  am  
 21  14  15  1   
 22  14  16  1   
 23  15  17  1   
 24  15  34  1   
 25  15  35  1   
 26  16  18  1   
 27  16  36  1   
 28  16  37  1   
 29  17  18  1   
 30  17  19  1   
 31  17  38  1   
 32  18  20  1   
 33  18  39  1   
 34  19  21  1   
 35  20  22  1   
 36  20  40  1   
 37  20  41  1   
 38  21  42  1   
 39  21  43  1   
 40  21  44  1   
 41  22  23  1   
 42  22  24  2   
 43  23  25  1   
 44  24  26  1   
 45  24  45  1   
 46  25  26  2   
 47  26  27  1   
 48  27  46  1   
 49  27  47  1   
 50  27  48  1   
@<TRIPOS>SUBSTRUCTURE
  1 ****  15 GROUP 4 **** **** 0

# MOE 2024.06 (io_trps.svl 2023.06)
