@<TRIPOS>MOLECULE
NONAME
47 49 1 0 0 
SMALL
USER_CHARGES


@<TRIPOS>ATOM
  1 O       -1.5020    -0.3750    -1.8790 O.2   1 <1>  -0.5700 
  2 C       -2.0930     0.2990    -1.0780 C.2   1 <1>   0.5690 
  3 N       -3.4360     0.2190    -0.9840 N.am  1 <1>  -0.7300 
  4 C       -1.3120     1.2300    -0.1840 C.3   1 <1>  -0.1790 
  5 C       -4.3360     0.8880    -0.0300 C.3   1 <1>   0.2840 
  6 C       -5.5670     0.0250     0.1610 C.ar  1 <1>  -0.1430 
  7 C       -6.8130     0.4620    -0.2590 C.ar  1 <1>   0.1600 
  8 C       -5.4730    -1.2160     0.7610 C.ar  1 <1>  -0.1500 
  9 N       -7.9400    -0.2150    -0.1310 N.ar  1 <1>  -0.6200 
 10 C       -6.6380    -1.9320     0.8990 C.ar  1 <1>  -0.1500 
 11 C       -7.8480    -1.4100     0.4420 C.ar  1 <1>   0.4100 
 12 N       -9.0190    -2.1370     0.5900 N.pl3 1 <1>  -0.8380 
 13 C      -10.3210    -1.5610     0.1450 C.3   1 <1>   0.2090 
 14 C       -9.0350    -3.6020     0.3110 C.3   1 <1>   0.2090 
 15 C      -11.2940    -2.7320     0.2240 C.3   1 <1>   0.2000 
 16 C      -10.4360    -3.9130    -0.2310 C.3   1 <1>  -0.0800 
 17 O      -11.6380    -2.8990     1.5570 O.3   1 <1>  -0.6800 
 18 C      -10.9600    -5.3060     0.1650 C.3   1 <1>   0.0210 
 19 C      -10.0060    -6.4040    -0.2670 C.2   1 <1>   0.1080 
 20 N       -9.5400    -6.5080    -1.4730 N.2   1 <1>  -0.7070 
 21 C       -9.5280    -7.4090     0.5680 C.2   1 <1>  -0.1500 
 22 N       -8.7490    -7.5970    -1.4410 N.pl3 1 <1>   0.3000 
 23 C       -8.7230    -8.1590    -0.2140 C.2   1 <1>  -0.3320 
 24 C       -7.9220    -9.3980     0.1400 C.3   1 <1>  -0.0600 
 25 H       -3.8920    -0.4430    -1.6170 H     1 <1>   0.3700 
 26 H       -1.7120     2.2240    -0.2480 H     1 <1>   0.0800 
 27 H       -0.2840     1.2510    -0.4970 H     1 <1>   0.0800 
 28 H       -1.3580     0.8830     0.8310 H     1 <1>   0.0800 
 29 H       -3.8410     1.0230     0.9160 H     1 <1>   0.0800 
 30 H       -4.6090     1.8540    -0.4180 H     1 <1>   0.0800 
 31 H       -6.8940     1.4270    -0.7290 H     1 <1>   0.1500 
 32 H       -4.5300    -1.6070     1.1040 H     1 <1>   0.1500 
 33 H       -6.6270    -2.8960     1.3680 H     1 <1>   0.1500 
 34 H      -10.6240    -0.7390     0.7710 H     1 <1>   0.0800 
 35 H      -10.2350    -1.2230    -0.8740 H     1 <1>   0.0800 
 36 H       -8.2810    -3.8720    -0.4110 H     1 <1>   0.0800 
 37 H       -8.8580    -4.1360     1.2280 H     1 <1>   0.0800 
 38 H      -12.1890    -2.5930    -0.3580 H     1 <1>   0.0800 
 39 H      -10.3710    -3.8750    -1.3050 H     1 <1>   0.0800 
 40 H      -10.8230    -2.7370     2.0800 H     1 <1>   0.4000 
 41 H      -11.9130    -5.4740    -0.3030 H     1 <1>   0.0800 
 42 H      -11.0990    -5.3680     1.2290 H     1 <1>   0.0800 
 43 H       -9.7680    -7.5370     1.6080 H     1 <1>   0.1500 
 44 H       -8.2450    -7.9310    -2.2710 H     1 <1>   0.2700 
 45 H       -8.0690    -9.6510     1.1750 H     1 <1>   0.0800 
 46 H       -6.8730    -9.2240    -0.0250 H     1 <1>   0.0800 
 47 H       -8.2390   -10.2300    -0.4640 H     1 <1>   0.0800 
@<TRIPOS>BOND
  1   1   2  2   
  2   2   3  am  
  3   2   4  1   
  4   3   5  1   
  5   3  25  1   
  6   4  26  1   
  7   4  27  1   
  8   4  28  1   
  9   5   6  1   
 10   5  29  1   
 11   5  30  1   
 12   6   7  ar  
 13   6   8  ar  
 14   7   9  ar  
 15   7  31  1   
 16   8  10  ar  
 17   8  32  1   
 18   9  11  ar  
 19  10  11  ar  
 20  10  33  1   
 21  11  12  1   
 22  12  13  1   
 23  12  14  1   
 24  13  15  1   
 25  13  34  1   
 26  13  35  1   
 27  14  16  1   
 28  14  36  1   
 29  14  37  1   
 30  15  16  1   
 31  15  17  1   
 32  15  38  1   
 33  16  18  1   
 34  16  39  1   
 35  17  40  1   
 36  18  19  1   
 37  18  41  1   
 38  18  42  1   
 39  19  20  2   
 40  19  21  1   
 41  20  22  1   
 42  21  23  2   
 43  21  43  1   
 44  22  23  1   
 45  22  44  1   
 46  23  24  1   
 47  24  45  1   
 48  24  46  1   
 49  24  47  1   
@<TRIPOS>SUBSTRUCTURE
  1 ****  11 GROUP 4 **** **** 0

# MOE 2024.06 (io_trps.svl 2023.06)
