@<TRIPOS>MOLECULE
NONAME
46 49 1 0 0 
SMALL
USER_CHARGES


@<TRIPOS>ATOM
  1 O        0.7210    -0.1470    -0.9050 O.2   1 <1>  -0.5700 
  2 C        1.2550    -1.1420    -0.4760 C.2   1 <1>   0.5690 
  3 N        0.5640    -2.2540    -0.0800 N.am  1 <1>  -0.6600 
  4 C        2.7660    -1.1760    -0.3570 C.3   1 <1>  -0.0990 
  5 C        1.2920    -3.4390     0.4380 C.3   1 <1>   0.1400 
  6 C       -0.9200    -2.3310    -0.1030 C.3   1 <1>   0.0600 
  7 C        3.3240    -2.5120    -0.8850 C.3   1 <1>  -0.0800 
  8 C        2.5030    -3.7460    -0.4630 C.3   1 <1>  -0.0800 
  9 C        4.7620    -2.7840    -0.4340 C.3   1 <1>  -0.1600 
 10 C        3.5000    -4.7080     0.1940 C.3   1 <1>  -0.1600 
 11 C        4.8790    -4.3040    -0.3330 C.3   1 <1>   0.1900 
 12 N        5.9630    -4.7490     0.5720 N.3   1 <1>  -0.8100 
 13 C        7.3140    -4.2950     0.1330 C.3   1 <1>   0.2900 
 14 C        5.9710    -6.2140     0.7300 C.3   1 <1>   0.0300 
 15 C        7.6630    -2.8650     0.5350 C.2   1 <1>   0.2980 
 16 O        7.5430    -2.5150     1.7900 O.3   1 <1>  -0.0190 
 17 N        8.0780    -1.9540    -0.2470 N.2   1 <1>  -0.5650 
 18 N        7.9050    -1.2690     1.8080 N.2   1 <1>  -0.4100 
 19 C        8.2180    -0.9330     0.6060 C.2   1 <1>   0.5150 
 20 C        8.6670     0.3830     0.2050 C.2   1 <1>   0.1410 
 21 O        8.9780     0.6570    -1.0590 O.3   1 <1>  -0.2800 
 22 C        8.8500     1.5100     0.9470 C.2   1 <1>  -0.1500 
 23 C        9.3510     1.9170    -1.1390 C.2   1 <1>  -0.0100 
 24 C        9.2940     2.5050     0.0740 C.2   1 <1>  -0.1500 
 25 H        3.1920    -0.3560    -0.9050 H     1 <1>   0.0800 
 26 H        3.0110    -1.0500     0.6810 H     1 <1>   0.0800 
 27 H        1.6220    -3.2220     1.4400 H     1 <1>   0.0800 
 28 H        0.6390    -4.2940     0.4730 H     1 <1>   0.0800 
 29 H       -1.2320    -3.1320    -0.7510 H     1 <1>   0.0800 
 30 H       -1.3400    -1.4100    -0.4690 H     1 <1>   0.0800 
 31 H       -1.2910    -2.5090     0.8910 H     1 <1>   0.0800 
 32 H        3.3090    -2.4710    -1.9620 H     1 <1>   0.0800 
 33 H        2.1300    -4.2120    -1.3600 H     1 <1>   0.0800 
 34 H        4.9240    -2.3560     0.5410 H     1 <1>   0.0800 
 35 H        5.4640    -2.3700    -1.1360 H     1 <1>   0.0800 
 36 H        3.2630    -5.7280    -0.0460 H     1 <1>   0.0800 
 37 H        3.4890    -4.5730     1.2620 H     1 <1>   0.0800 
 38 H        5.0190    -4.7160    -1.3190 H     1 <1>   0.0800 
 39 H        8.0640    -4.9220     0.5810 H     1 <1>   0.0800 
 40 H        7.4040    -4.3950    -0.9350 H     1 <1>   0.0800 
 41 H        6.7760    -6.5120     1.3810 H     1 <1>   0.0800 
 42 H        6.0930    -6.6980    -0.2240 H     1 <1>   0.0800 
 43 H        5.0550    -6.5510     1.1820 H     1 <1>   0.0800 
 44 H        8.6870     1.6270     2.0040 H     1 <1>   0.1500 
 45 H        9.6420     2.3140    -2.0970 H     1 <1>   0.1500 
 46 H        9.5330     3.5190     0.3430 H     1 <1>   0.1500 
@<TRIPOS>BOND
  1   1   2  2   
  2   2   3  am  
  3   2   4  1   
  4   3   5  1   
  5   3   6  1   
  6   4   7  1   
  7   4  25  1   
  8   4  26  1   
  9   5   8  1   
 10   5  27  1   
 11   5  28  1   
 12   6  29  1   
 13   6  30  1   
 14   6  31  1   
 15   7   8  1   
 16   7   9  1   
 17   7  32  1   
 18   8  10  1   
 19   8  33  1   
 20   9  11  1   
 21   9  34  1   
 22   9  35  1   
 23  10  11  1   
 24  10  36  1   
 25  10  37  1   
 26  11  12  1   
 27  11  38  1   
 28  12  13  1   
 29  12  14  1   
 30  13  15  1   
 31  13  39  1   
 32  13  40  1   
 33  14  41  1   
 34  14  42  1   
 35  14  43  1   
 36  15  16  1   
 37  15  17  2   
 38  16  18  1   
 39  17  19  1   
 40  18  19  2   
 41  19  20  1   
 42  20  21  1   
 43  20  22  2   
 44  21  23  1   
 45  22  24  1   
 46  22  44  1   
 47  23  24  2   
 48  23  45  1   
 49  24  46  1   
@<TRIPOS>SUBSTRUCTURE
  1 ****   9 GROUP 4 **** **** 0

# MOE 2024.06 (io_trps.svl 2023.06)
