@<TRIPOS>MOLECULE
NONAME
60 63 1 0 0 
SMALL
USER_CHARGES


@<TRIPOS>ATOM
  1 O       -0.9490     3.2480     2.8350 O.2   1 <1>  -0.5700 
  2 C        0.1750     3.2550     2.3910 C.2   1 <1>   0.5690 
  3 N        1.1530     2.6030     3.0650 N.am  1 <1>  -0.7300 
  4 C        0.4840     3.9680     1.0460 C.3   1 <1>   0.2510 
  5 C        2.5490     2.5010     2.5830 C.3   1 <1>   0.1400 
  6 N        1.9440     3.9870     0.6720 N.3   1 <1>  -0.8100 
  7 C       -0.0730     5.4070     1.0540 C.3   1 <1>  -0.0990 
  8 C        2.6190     2.7290     1.0640 C.3   1 <1>   0.1100 
  9 C        2.1490     4.2920    -0.7630 C.3   1 <1>   0.2530 
 10 C       -0.9660     5.6520    -0.1480 C.2   1 <1>   0.5690 
 11 C        3.6300     4.3690    -1.1190 C.ar  1 <1>  -0.1440 
 12 O       -0.4820     6.2650    -1.0700 O.2   1 <1>  -0.5700 
 13 N       -2.2560     5.1800    -0.2050 N.am  1 <1>  -0.6600 
 14 C        4.4500     5.2820    -0.4740 C.ar  1 <1>  -0.1500 
 15 C        4.1720     3.5340    -2.0840 C.ar  1 <1>  -0.1500 
 16 C       -3.0350     5.3300    -1.4750 C.3   1 <1>   0.1400 
 17 C       -2.9700     4.5260     0.9380 C.3   1 <1>   0.1400 
 18 C        5.7960     5.3600    -0.7870 C.ar  1 <1>  -0.1500 
 19 C        5.5190     3.6100    -2.3990 C.ar  1 <1>  -0.1500 
 20 C       -4.0180     4.1710    -1.6190 C.3   1 <1>  -0.1600 
 21 C       -4.4830     4.7290     0.8290 C.3   1 <1>  -0.1600 
 22 C        6.3320     4.5230    -1.7500 C.ar  1 <1>  -0.1500 
 23 C       -5.0600     4.1910    -0.4940 C.3   1 <1>   0.4180 
 24 O       -6.0640     5.0760    -0.9210 O.3   1 <1>  -0.5600 
 25 C       -5.6390     2.7870    -0.3150 C.2   1 <1>  -0.2880 
 26 C       -7.3080     4.9780    -0.2870 C.3   1 <1>   0.1200 
 27 C       -6.9430     2.5040    -0.3660 C.2   1 <1>  -0.2760 
 28 C       -7.9520     3.6160    -0.5820 C.3   1 <1>  -0.0220 
 29 C       -7.5260     1.1090    -0.2270 C.3   1 <1>  -0.1020 
 30 H        0.9160     2.1930     3.9700 H     1 <1>   0.3700 
 31 H       -0.0430     3.3990     0.3000 H     1 <1>   0.0800 
 32 H        2.9410     1.5270     2.8160 H     1 <1>   0.0800 
 33 H        3.1530     3.2400     3.0810 H     1 <1>   0.0800 
 34 H        0.7380     6.1120     1.0410 H     1 <1>   0.0800 
 35 H       -0.6250     5.6100     1.9500 H     1 <1>   0.0800 
 36 H        2.1690     1.8950     0.5520 H     1 <1>   0.0800 
 37 H        3.6600     2.7620     0.7900 H     1 <1>   0.0800 
 38 H        1.7170     5.2470    -0.9980 H     1 <1>   0.0800 
 39 H        1.6610     3.5480    -1.3690 H     1 <1>   0.0800 
 40 H        4.0330     5.9300     0.2780 H     1 <1>   0.1500 
 41 H        3.5510     2.8220    -2.5960 H     1 <1>   0.1500 
 42 H       -2.3670     5.3390    -2.3200 H     1 <1>   0.0800 
 43 H       -3.5680     6.2660    -1.4580 H     1 <1>   0.0800 
 44 H       -2.6430     4.9410     1.8730 H     1 <1>   0.0800 
 45 H       -2.7470     3.4720     0.9370 H     1 <1>   0.0800 
 46 H        6.4230     6.0720    -0.2800 H     1 <1>   0.1500 
 47 H        5.9340     2.9610    -3.1490 H     1 <1>   0.1500 
 48 H       -3.4580     3.2550    -1.5950 H     1 <1>   0.0800 
 49 H       -4.5170     4.2190    -2.5690 H     1 <1>   0.0800 
 50 H       -4.6770     5.7840     0.9080 H     1 <1>   0.0800 
 51 H       -4.9630     4.2420     1.6580 H     1 <1>   0.0800 
 52 H        7.3780     4.5840    -1.9950 H     1 <1>   0.1500 
 53 H       -4.8830     2.0420    -0.1470 H     1 <1>   0.1500 
 54 H       -7.9300     5.7750    -0.6540 H     1 <1>   0.0800 
 55 H       -7.1650     5.1070     0.7720 H     1 <1>   0.0800 
 56 H       -8.3070     3.5950    -1.5970 H     1 <1>   0.0800 
 57 H       -8.7960     3.4880     0.0720 H     1 <1>   0.0800 
 58 H       -8.0780     0.8500    -1.1130 H     1 <1>   0.0800 
 59 H       -8.1870     1.0640     0.6210 H     1 <1>   0.0800 
 60 H       -6.7430     0.3850    -0.0890 H     1 <1>   0.0800 
@<TRIPOS>BOND
  1   1   2  2   
  2   2   3  am  
  3   2   4  1   
  4   3   5  1   
  5   3  30  1   
  6   4   6  1   
  7   4   7  1   
  8   4  31  1   
  9   5   8  1   
 10   5  32  1   
 11   5  33  1   
 12   6   8  1   
 13   6   9  1   
 14   7  10  1   
 15   7  34  1   
 16   7  35  1   
 17   8  36  1   
 18   8  37  1   
 19   9  11  1   
 20   9  38  1   
 21   9  39  1   
 22  10  12  2   
 23  10  13  am  
 24  11  14  ar  
 25  11  15  ar  
 26  13  16  1   
 27  13  17  1   
 28  14  18  ar  
 29  14  40  1   
 30  15  19  ar  
 31  15  41  1   
 32  16  20  1   
 33  16  42  1   
 34  16  43  1   
 35  17  21  1   
 36  17  44  1   
 37  17  45  1   
 38  18  22  ar  
 39  18  46  1   
 40  19  22  ar  
 41  19  47  1   
 42  20  23  1   
 43  20  48  1   
 44  20  49  1   
 45  21  23  1   
 46  21  50  1   
 47  21  51  1   
 48  22  52  1   
 49  23  24  1   
 50  23  25  1   
 51  24  26  1   
 52  25  27  2   
 53  25  53  1   
 54  26  28  1   
 55  26  54  1   
 56  26  55  1   
 57  27  28  1   
 58  27  29  1   
 59  28  56  1   
 60  28  57  1   
 61  29  58  1   
 62  29  59  1   
 63  29  60  1   
@<TRIPOS>SUBSTRUCTURE
  1 ****  10 GROUP 4 **** **** 0

# MOE 2024.06 (io_trps.svl 2023.06)
