@<TRIPOS>MOLECULE
NONAME
51 53 1 0 0 
SMALL
USER_CHARGES


@<TRIPOS>ATOM
  1 O        4.4910     2.4550     1.8690 O.co2 1 <1>  -0.9000 
  2 C        4.9530     1.3070     1.8230 C.2   1 <1>   0.9060 
  3 O        5.9220     0.9930     2.5300 O.co2 1 <1>  -0.9000 
  4 C        4.4040     0.3480     0.7740 C.3   1 <1>   0.0140 
  5 O        5.3920    -0.1880    -0.1130 O.3   1 <1>  -0.3630 
  6 C        6.3670     0.5800    -0.6820 C.ar  1 <1>   0.0830 
  7 C        7.6100     0.0150    -1.0120 C.ar  1 <1>   0.0820 
  8 C        6.1480     1.9280    -0.9560 C.ar  1 <1>  -0.1500 
  9 O        8.0060    -1.2600    -0.7330 O.3   1 <1>  -0.3630 
 10 C        8.5580     0.7890    -1.6580 C.ar  1 <1>  -0.1500 
 11 C        7.1310     2.7140    -1.5410 C.ar  1 <1>  -0.1440 
 12 C        7.4890    -1.9530     0.3850 C.3   1 <1>   0.0400 
 13 C        8.3240     2.1250    -1.9260 C.ar  1 <1>  -0.1500 
 14 C        6.8910     4.2060    -1.7460 C.3   1 <1>   0.2530 
 15 N        7.4330     5.0040    -0.6230 N.3   1 <1>  -0.8100 
 16 C        6.7070     4.8550     0.6840 C.3   1 <1>   0.1900 
 17 C        8.8900     5.2450    -0.6540 C.3   1 <1>   0.1100 
 18 C        6.7300     6.1520     1.5100 C.3   1 <1>   0.1200 
 19 C        7.1640     3.6660     1.5560 C.3   1 <1>   0.3430 
 20 C        9.5660     5.4120     0.7190 C.3   1 <1>  -0.0800 
 21 O        7.9180     6.3040     2.2350 O.3   1 <1>  -0.5600 
 22 N        8.5290     3.1630     1.2340 N.4   1 <1>  -0.9590 
 23 C        9.0370     6.6340     1.4840 C.3   1 <1>   0.1200 
 24 C        9.5930     4.1360     1.5870 C.3   1 <1>   0.3430 
 25 C        8.6730     1.8230     1.8700 C.3   1 <1>   0.2630 
 26 H        3.6660     0.8560     0.1840 H     1 <1>   0.0800 
 27 H        3.9410    -0.4770     1.2780 H     1 <1>   0.0800 
 28 H        5.2040     2.3760    -0.7020 H     1 <1>   0.1500 
 29 H        9.4880     0.3320    -1.9460 H     1 <1>   0.1500 
 30 H        8.1680    -2.7480     0.6320 H     1 <1>   0.0800 
 31 H        6.5300    -2.3620     0.1240 H     1 <1>   0.0800 
 32 H        7.3950    -1.2720     1.2140 H     1 <1>   0.0800 
 33 H        9.0790     2.6960    -2.4370 H     1 <1>   0.1500 
 34 H        5.8330     4.3920    -1.8320 H     1 <1>   0.0800 
 35 H        7.3460     4.5260    -2.6680 H     1 <1>   0.0800 
 36 H        5.6670     4.6820     0.4630 H     1 <1>   0.0800 
 37 H        9.3820     4.4440    -1.1720 H     1 <1>   0.0800 
 38 H        9.0590     6.1370    -1.2340 H     1 <1>   0.0800 
 39 H        5.9340     6.1110     2.2340 H     1 <1>   0.0800 
 40 H        6.5720     7.0120     0.8840 H     1 <1>   0.0800 
 41 H        6.4890     2.8710     1.3500 H     1 <1>   0.0800 
 42 H        7.0680     3.9030     2.6020 H     1 <1>   0.0800 
 43 H       10.5930     5.6440     0.5070 H     1 <1>   0.0800 
 44 H        8.4840     3.0480     0.2090 H     1 <1>   0.4500 
 45 H        8.7950     7.4490     0.8220 H     1 <1>   0.0800 
 46 H        9.7820     6.9750     2.1820 H     1 <1>   0.0800 
 47 H        9.5010     4.4090     2.6260 H     1 <1>   0.0800 
 48 H       10.5480     3.6580     1.4540 H     1 <1>   0.0800 
 49 H        8.5260     1.8950     2.9350 H     1 <1>   0.0800 
 50 H        9.6450     1.4060     1.6680 H     1 <1>   0.0800 
 51 H        7.9250     1.1510     1.4800 H     1 <1>   0.0800 
@<TRIPOS>BOND
  1   1   2  ar  
  2   2   3  ar  
  3   2   4  1   
  4   4   5  1   
  5   4  26  1   
  6   4  27  1   
  7   5   6  1   
  8   6   7  ar  
  9   6   8  ar  
 10   7   9  1   
 11   7  10  ar  
 12   8  11  ar  
 13   8  28  1   
 14   9  12  1   
 15  10  13  ar  
 16  10  29  1   
 17  11  13  ar  
 18  11  14  1   
 19  12  30  1   
 20  12  31  1   
 21  12  32  1   
 22  13  33  1   
 23  14  15  1   
 24  14  34  1   
 25  14  35  1   
 26  15  16  1   
 27  15  17  1   
 28  16  18  1   
 29  16  19  1   
 30  16  36  1   
 31  17  20  1   
 32  17  37  1   
 33  17  38  1   
 34  18  21  1   
 35  18  39  1   
 36  18  40  1   
 37  19  22  1   
 38  19  41  1   
 39  19  42  1   
 40  20  23  1   
 41  20  24  1   
 42  20  43  1   
 43  21  23  1   
 44  22  24  1   
 45  22  25  1   
 46  22  44  1   
 47  23  45  1   
 48  23  46  1   
 49  24  47  1   
 50  24  48  1   
 51  25  49  1   
 52  25  50  1   
 53  25  51  1   
@<TRIPOS>SUBSTRUCTURE
  1 ****  19 GROUP 4 **** **** 0

# MOE 2024.06 (io_trps.svl 2023.06)
