@<TRIPOS>MOLECULE
NONAME
42 44 1 0 0 
SMALL
USER_CHARGES


@<TRIPOS>ATOM
  1 O       -0.4590     0.1900     0.7640 O.2   1 <1>  -0.5700 
  2 C       -1.4590     0.8220     0.4690 C.2   1 <1>   0.5440 
  3 N       -2.6480     0.1380     0.3360 N.am  1 <1>  -0.6600 
  4 C       -1.3840     2.2490     0.2560 C.ar  1 <1>   0.0860 
  5 C       -3.8390     0.6660    -0.3790 C.3   1 <1>   0.1400 
  6 C       -2.7300    -1.3440     0.4340 C.3   1 <1>   0.1400 
  7 C       -0.5360     2.7880    -0.7260 C.ar  1 <1>   0.1000 
  8 C       -2.1570     3.1240     1.0210 C.ar  1 <1>  -0.1500 
  9 C       -4.8670    -0.4600    -0.2850 C.3   1 <1>   0.2000 
 10 C       -4.0100    -1.7290    -0.3170 C.3   1 <1>  -0.0800 
 11 N        0.2840     1.9760    -1.4920 N.pl3 1 <1>  -0.9000 
 12 C       -0.5070     4.1630    -0.9380 C.ar  1 <1>  -0.1500 
 13 C       -2.1090     4.4860     0.8010 C.ar  1 <1>   0.0820 
 14 O       -5.4980    -0.3590     0.9460 O.3   1 <1>  -0.6800 
 15 C       -4.6930    -3.0000     0.2220 C.3   1 <1>  -0.0160 
 16 C       -1.2890     5.0120    -0.1810 C.ar  1 <1>  -0.1500 
 17 O       -2.8590     5.3250     1.5390 O.3   1 <1>  -0.5330 
 18 C       -3.7910    -4.2140     0.0600 C.ar  1 <1>  -0.1440 
 19 C       -3.0080    -4.6900     1.0920 C.ar  1 <1>  -0.1500 
 20 C       -3.7100    -4.9020    -1.1340 C.ar  1 <1>  -0.1500 
 21 C       -2.2010    -5.7970     0.8850 C.ar  1 <1>   0.1600 
 22 C       -2.8710    -6.0000    -1.2360 C.ar  1 <1>   0.1600 
 23 N       -2.1140    -6.4640    -0.2550 N.ar  1 <1>  -0.6200 
 24 H       -4.2100     1.5750     0.0600 H     1 <1>   0.0800 
 25 H       -3.5780     0.8420    -1.4080 H     1 <1>   0.0800 
 26 H       -1.8640    -1.8110    -0.0060 H     1 <1>   0.0800 
 27 H       -2.7910    -1.6200     1.4720 H     1 <1>   0.0800 
 28 H       -2.7910     2.7200     1.7880 H     1 <1>   0.1500 
 29 H       -5.6130    -0.4210    -1.0600 H     1 <1>   0.0800 
 30 H       -3.7340    -1.9070    -1.3420 H     1 <1>   0.0800 
 31 H        0.4720     1.0500    -1.0740 H     1 <1>   0.4000 
 32 H        1.1400     2.3940    -1.8680 H     1 <1>   0.4000 
 33 H        0.1340     4.5650    -1.7010 H     1 <1>   0.1500 
 34 H       -4.8110    -0.2700     1.6380 H     1 <1>   0.4000 
 35 H       -5.6120    -3.1660    -0.3130 H     1 <1>   0.0800 
 36 H       -4.9460    -2.8790     1.2610 H     1 <1>   0.0800 
 37 H       -1.2680     6.0750    -0.3420 H     1 <1>   0.1500 
 38 H       -3.3660     4.8720     2.2360 H     1 <1>   0.4500 
 39 H       -3.0150    -4.2130     2.0550 H     1 <1>   0.1500 
 40 H       -4.2890    -4.5960    -1.9850 H     1 <1>   0.1500 
 41 H       -1.5960    -6.1530     1.7010 H     1 <1>   0.1500 
 42 H       -2.8210    -6.5240    -2.1740 H     1 <1>   0.1500 
@<TRIPOS>BOND
  1   1   2  2   
  2   2   3  am  
  3   2   4  1   
  4   3   5  1   
  5   3   6  1   
  6   4   7  ar  
  7   4   8  ar  
  8   5   9  1   
  9   5  24  1   
 10   5  25  1   
 11   6  10  1   
 12   6  26  1   
 13   6  27  1   
 14   7  11  1   
 15   7  12  ar  
 16   8  13  ar  
 17   8  28  1   
 18   9  10  1   
 19   9  14  1   
 20   9  29  1   
 21  10  15  1   
 22  10  30  1   
 23  11  31  1   
 24  11  32  1   
 25  12  16  ar  
 26  12  33  1   
 27  13  16  ar  
 28  13  17  1   
 29  14  34  1   
 30  15  18  1   
 31  15  35  1   
 32  15  36  1   
 33  16  37  1   
 34  17  38  1   
 35  18  19  ar  
 36  18  20  ar  
 37  19  21  ar  
 38  19  39  1   
 39  20  22  ar  
 40  20  40  1   
 41  21  23  ar  
 42  21  41  1   
 43  22  23  ar  
 44  22  42  1   
@<TRIPOS>SUBSTRUCTURE
  1 ****   3 GROUP 4 **** **** 0

# MOE 2024.06 (io_trps.svl 2023.06)
