@<TRIPOS>MOLECULE
NONAME
41 42 1 0 0 
SMALL
USER_CHARGES


@<TRIPOS>ATOM
  1 O        0.0730    -0.0820    -0.6140 O.2   1 <1>  -0.5700 
  2 C        1.1970    -0.4700    -0.3620 C.2   1 <1>   0.5440 
  3 N        2.1940     0.4280    -0.0520 N.am  1 <1>  -0.4940 
  4 C        1.4850    -1.8850    -0.3580 C.ar  1 <1>   0.0860 
  5 C        2.1860     1.8440    -0.1210 C.2   1 <1>  -0.0880 
  6 C        2.7020    -2.3800    -0.8200 C.ar  1 <1>   0.1600 
  7 C        0.5670    -2.8190     0.1070 C.ar  1 <1>  -0.1500 
  8 N        3.1870     2.6540     0.3200 N.pl3 1 <1>   0.3140 
  9 C        1.2380     2.6700    -0.6230 C.2   1 <1>  -0.1500 
 10 N        3.0770    -3.6460    -0.8210 N.ar  1 <1>  -0.6200 
 11 C        0.9280    -4.1470     0.1050 C.ar  1 <1>  -0.1500 
 12 N        2.9040     3.9580     0.1100 N.2   1 <1>  -0.7070 
 13 C        4.4470     2.2520     0.9760 C.3   1 <1>   0.0960 
 14 C        1.7380     3.9540    -0.4510 C.2   1 <1>   0.1080 
 15 C        2.1900    -4.5160    -0.3600 C.ar  1 <1>   0.3930 
 16 C        5.4800     1.7800    -0.0580 C.3   1 <1>  -0.1600 
 17 C        1.0320     5.2250    -0.8600 C.3   1 <1>  -0.0590 
 18 O        2.6080    -5.7940    -0.3800 O.3   1 <1>  -0.3620 
 19 C        6.7810     1.3340     0.6210 C.3   1 <1>  -0.1600 
 20 C        1.8040    -6.8820     0.0200 C.3   1 <1>   0.0400 
 21 C        7.8070     0.8670    -0.4150 C.3   1 <1>  -0.2400 
 22 H        3.0510     0.0120     0.3090 H     1 <1>   0.3700 
 23 H        3.4150    -1.6810    -1.2220 H     1 <1>   0.1500 
 24 H       -0.4000    -2.4980     0.4580 H     1 <1>   0.1500 
 25 H        0.2940     2.4070    -1.0630 H     1 <1>   0.1500 
 26 H        0.2320    -4.8800     0.4620 H     1 <1>   0.1500 
 27 H        4.2320     1.4740     1.6830 H     1 <1>   0.0800 
 28 H        4.8290     3.1020     1.5120 H     1 <1>   0.0800 
 29 H        5.6910     2.5930    -0.7330 H     1 <1>   0.0800 
 30 H        5.0770     0.9620    -0.6290 H     1 <1>   0.0800 
 31 H        0.0790     5.0000    -1.3000 H     1 <1>   0.0800 
 32 H        1.6350     5.7560    -1.5730 H     1 <1>   0.0800 
 33 H        0.8850     5.8460     0.0040 H     1 <1>   0.0800 
 34 H        6.5810     0.5280     1.3060 H     1 <1>   0.0800 
 35 H        7.1970     2.1550     1.1820 H     1 <1>   0.0800 
 36 H        2.3740    -7.7830    -0.1130 H     1 <1>   0.0800 
 37 H        0.9240    -6.9130    -0.5990 H     1 <1>   0.0800 
 38 H        1.5450    -6.7640     1.0570 H     1 <1>   0.0800 
 39 H        7.4270     0.0310    -0.9760 H     1 <1>   0.0800 
 40 H        8.7140     0.5620     0.0770 H     1 <1>   0.0800 
 41 H        8.0430     1.6650    -1.0990 H     1 <1>   0.0800 
@<TRIPOS>BOND
  1   1   2  2   
  2   2   3  am  
  3   2   4  1   
  4   3   5  1   
  5   3  22  1   
  6   4   6  ar  
  7   4   7  ar  
  8   5   8  1   
  9   5   9  2   
 10   6  10  ar  
 11   6  23  1   
 12   7  11  ar  
 13   7  24  1   
 14   8  12  1   
 15   8  13  1   
 16   9  14  1   
 17   9  25  1   
 18  10  15  ar  
 19  11  15  ar  
 20  11  26  1   
 21  12  14  2   
 22  13  16  1   
 23  13  27  1   
 24  13  28  1   
 25  14  17  1   
 26  15  18  1   
 27  16  19  1   
 28  16  29  1   
 29  16  30  1   
 30  17  31  1   
 31  17  32  1   
 32  17  33  1   
 33  18  20  1   
 34  19  21  1   
 35  19  34  1   
 36  19  35  1   
 37  20  36  1   
 38  20  37  1   
 39  20  38  1   
 40  21  39  1   
 41  21  40  1   
 42  21  41  1   
@<TRIPOS>SUBSTRUCTURE
  1 ****   3 GROUP 4 **** **** 0

# MOE 2024.06 (io_trps.svl 2023.06)
