@<TRIPOS>MOLECULE
NONAME
46 48 1 0 0 
SMALL
USER_CHARGES


@<TRIPOS>ATOM
  1 S       -2.5940     1.0940    -1.0280 S.3   1 <1>  -0.0800 
  2 C       -1.7760     0.6600     0.4670 C.2   1 <1>  -0.1400 
  3 C       -1.1390     1.8420    -1.6610 C.2   1 <1>  -0.1100 
  4 C       -0.4960     1.0760     0.4370 C.2   1 <1>  -0.1500 
  5 C       -2.5680    -0.0750     1.5390 C.3   1 <1>   0.0810 
  6 C       -0.1330     1.7480    -0.7730 C.2   1 <1>  -0.1500 
  7 C       -2.7980    -1.5450     1.2000 C.2   1 <1>   0.5690 
  8 O       -2.0870    -2.3550     1.7490 O.2   1 <1>  -0.5700 
  9 N       -3.7810    -1.9730     0.3360 N.am  1 <1>  -0.6600 
 10 C       -3.8110    -3.3880    -0.1250 C.3   1 <1>   0.1400 
 11 C       -4.9570    -1.1760    -0.1130 C.3   1 <1>   0.1400 
 12 C       -5.0730    -4.0820     0.4320 C.3   1 <1>   0.4230 
 13 C       -6.2260    -1.8390     0.4400 C.3   1 <1>  -0.1600 
 14 N       -5.1140    -5.5840     0.1780 N.4   1 <1>  -0.9590 
 15 C       -6.3800    -3.3340     0.0300 C.3   1 <1>   0.0000 
 16 C       -6.4760    -6.1930     0.3270 C.3   1 <1>   0.3430 
 17 C       -4.4860    -6.0390    -1.1070 C.3   1 <1>   0.2630 
 18 C       -7.5790    -3.9470     0.8130 C.3   1 <1>  -0.1600 
 19 C       -6.6160    -3.4480    -1.5040 C.3   1 <1>   0.1200 
 20 C       -7.3330    -5.3880     1.3020 C.3   1 <1>  -0.1600 
 21 O       -7.6600    -2.6410    -1.9240 O.3   1 <1>  -0.6800 
 22 H       -1.1920     2.2780    -2.6430 H     1 <1>   0.1500 
 23 H        0.2250     0.9370     1.2240 H     1 <1>   0.1500 
 24 H       -2.0050    -0.0360     2.4540 H     1 <1>   0.0800 
 25 H       -3.4960     0.4270     1.7270 H     1 <1>   0.0800 
 26 H        0.8650     2.1250    -0.9160 H     1 <1>   0.1500 
 27 H       -3.8010    -3.3940    -1.1990 H     1 <1>   0.0800 
 28 H       -2.9350    -3.9110     0.2180 H     1 <1>   0.0800 
 29 H       -4.9030    -0.1620     0.2380 H     1 <1>   0.0800 
 30 H       -4.9830    -1.1430    -1.1900 H     1 <1>   0.0800 
 31 H       -5.0000    -3.9620     1.5000 H     1 <1>   0.0800 
 32 H       -6.1880    -1.7550     1.5130 H     1 <1>   0.0800 
 33 H       -7.0800    -1.2680     0.1200 H     1 <1>   0.0800 
 34 H       -4.5420    -5.9820     0.9390 H     1 <1>   0.4500 
 35 H       -6.9740    -6.2110    -0.6290 H     1 <1>   0.0800 
 36 H       -6.3870    -7.2110     0.6720 H     1 <1>   0.0800 
 37 H       -5.0050    -5.6180    -1.9520 H     1 <1>   0.0800 
 38 H       -4.5250    -7.1140    -1.1810 H     1 <1>   0.0800 
 39 H       -3.4520    -5.7370    -1.1510 H     1 <1>   0.0800 
 40 H       -7.8100    -3.3510     1.6800 H     1 <1>   0.0800 
 41 H       -8.4650    -3.9330     0.2020 H     1 <1>   0.0800 
 42 H       -6.8550    -4.4550    -1.7950 H     1 <1>   0.0800 
 43 H       -5.7510    -3.1320    -2.0580 H     1 <1>   0.0800 
 44 H       -8.2810    -5.8820     1.4320 H     1 <1>   0.0800 
 45 H       -6.8520    -5.3760     2.2660 H     1 <1>   0.0800 
 46 H       -8.5160    -2.9050    -1.5340 H     1 <1>   0.4000 
@<TRIPOS>BOND
  1   1   2  1   
  2   1   3  1   
  3   2   4  2   
  4   2   5  1   
  5   3   6  2   
  6   3  22  1   
  7   4   6  1   
  8   4  23  1   
  9   5   7  1   
 10   5  24  1   
 11   5  25  1   
 12   6  26  1   
 13   7   8  2   
 14   7   9  am  
 15   9  10  1   
 16   9  11  1   
 17  10  12  1   
 18  10  27  1   
 19  10  28  1   
 20  11  13  1   
 21  11  29  1   
 22  11  30  1   
 23  12  14  1   
 24  12  15  1   
 25  12  31  1   
 26  13  15  1   
 27  13  32  1   
 28  13  33  1   
 29  14  16  1   
 30  14  17  1   
 31  14  34  1   
 32  15  18  1   
 33  15  19  1   
 34  16  20  1   
 35  16  35  1   
 36  16  36  1   
 37  17  37  1   
 38  17  38  1   
 39  17  39  1   
 40  18  20  1   
 41  18  40  1   
 42  18  41  1   
 43  19  21  1   
 44  19  42  1   
 45  19  43  1   
 46  20  44  1   
 47  20  45  1   
 48  21  46  1   
@<TRIPOS>SUBSTRUCTURE
  1 ****   9 GROUP 4 **** **** 0

# MOE 2024.06 (io_trps.svl 2023.06)
