@<TRIPOS>MOLECULE
NONAME
38 39 1 0 0 
SMALL
USER_CHARGES


@<TRIPOS>ATOM
  1 CL      -0.5230     1.4960     2.1250 Cl    1 <1>  -0.1770 
  2 C       -0.0740     2.9970     1.3540 C.ar  1 <1>   0.1770 
  3 C        0.5740     3.9700     2.0910 C.ar  1 <1>  -0.1500 
  4 C       -0.3740     3.1880     0.0190 C.ar  1 <1>  -0.1500 
  5 C        0.9340     5.1650     1.4860 C.ar  1 <1>  -0.1440 
  6 C       -0.0170     4.3770    -0.5910 C.ar  1 <1>  -0.1500 
  7 C        0.6380     5.3710     0.1380 C.ar  1 <1>   0.0830 
  8 C        1.6470     6.2330     2.3040 C.3   1 <1>  -0.0960 
  9 O        1.0110     6.5580    -0.4090 O.3   1 <1>  -0.3630 
 10 C        0.7250     6.8770    -1.7660 C.3   1 <1>   0.1810 
 11 C        1.2340     8.2670    -2.1190 C.2   1 <1>   0.5690 
 12 O        1.0690     8.6630    -3.2450 O.2   1 <1>  -0.5700 
 13 N        1.8560     8.9880    -1.1400 N.am  1 <1>  -0.4940 
 14 C        2.3840    10.2600    -1.1680 C.2   1 <1>   0.4420 
 15 S        3.1520    10.8100     0.2830 S.3   1 <1>  -0.0800 
 16 N        2.4140    11.1420    -2.0990 N.2   1 <1>  -0.3380 
 17 C        3.4660    12.3070    -0.5310 C.2   1 <1>   0.1980 
 18 N        3.0320    12.3060    -1.7290 N.2   1 <1>  -0.3380 
 19 C        4.2140    13.3980     0.2380 C.3   1 <1>   0.3800 
 20 O        3.6700    13.5120     1.5240 O.3   1 <1>  -0.5600 
 21 C        4.1170    14.7670    -0.4460 C.3   1 <1>  -0.2400 
 22 C        4.5400    13.9660     2.5140 C.3   1 <1>   0.0400 
 23 H        0.7890     3.7820     3.1270 H     1 <1>   0.1500 
 24 H       -0.8780     2.4120    -0.5280 H     1 <1>   0.1500 
 25 H       -0.2590     4.5040    -1.6290 H     1 <1>   0.1500 
 26 H        1.7940     5.9110     3.3190 H     1 <1>   0.0800 
 27 H        1.0630     7.1360     2.3140 H     1 <1>   0.0800 
 28 H        2.6090     6.4430     1.8710 H     1 <1>   0.0800 
 29 H       -0.3400     6.8430    -1.9080 H     1 <1>   0.0800 
 30 H        1.2060     6.1530    -2.3970 H     1 <1>   0.0800 
 31 H        1.9250     8.4990    -0.2490 H     1 <1>   0.3700 
 32 H        5.2440    13.0970     0.3230 H     1 <1>   0.0800 
 33 H        3.0880    15.0750    -0.4990 H     1 <1>   0.0800 
 34 H        4.5010    14.6990    -1.4470 H     1 <1>   0.0800 
 35 H        4.6880    15.5060     0.0830 H     1 <1>   0.0800 
 36 H        4.0000    13.9890     3.4450 H     1 <1>   0.0800 
 37 H        4.8790    14.9580     2.2740 H     1 <1>   0.0800 
 38 H        5.3710    13.2880     2.5980 H     1 <1>   0.0800 
@<TRIPOS>BOND
  1   1   2  1   
  2   2   3  ar  
  3   2   4  ar  
  4   3   5  ar  
  5   3  23  1   
  6   4   6  ar  
  7   4  24  1   
  8   5   7  ar  
  9   5   8  1   
 10   6   7  ar  
 11   6  25  1   
 12   7   9  1   
 13   8  26  1   
 14   8  27  1   
 15   8  28  1   
 16   9  10  1   
 17  10  11  1   
 18  10  29  1   
 19  10  30  1   
 20  11  12  2   
 21  11  13  am  
 22  13  14  1   
 23  13  31  1   
 24  14  15  1   
 25  14  16  2   
 26  15  17  1   
 27  16  18  1   
 28  17  18  2   
 29  17  19  1   
 30  19  20  1   
 31  19  21  1   
 32  19  32  1   
 33  20  22  1   
 34  21  33  1   
 35  21  34  1   
 36  21  35  1   
 37  22  36  1   
 38  22  37  1   
 39  22  38  1   
@<TRIPOS>SUBSTRUCTURE
  1 ****  13 GROUP 4 **** **** 0

# MOE 2024.06 (io_trps.svl 2023.06)
