@<TRIPOS>MOLECULE
NONAME
46 48 1 0 0 
SMALL
USER_CHARGES


@<TRIPOS>ATOM
  1 S       -0.7090    -0.1250     0.8620 S.o2  1 <1>   1.4470 
  2 O       -1.4060     0.8420     1.6740 O.2   1 <1>  -0.6500 
  3 O       -0.6890    -1.5040     1.2900 O.2   1 <1>  -0.6500 
  4 N       -1.5400    -0.0380    -0.5980 N.am  1 <1>  -0.9140 
  5 C        0.9550     0.4680     0.4560 C.ar  1 <1>  -0.0090 
  6 C       -1.6020    -1.1690    -1.5370 C.3   1 <1>   0.2760 
  7 C        2.0800    -0.3020     0.7290 C.ar  1 <1>  -0.1500 
  8 C        1.1440     1.7060    -0.1450 C.ar  1 <1>  -0.1500 
  9 C       -2.5850    -2.2910    -1.1830 C.3   1 <1>  -0.0800 
 10 C       -0.2750    -1.9030    -1.7950 C.3   1 <1>   0.1200 
 11 C        3.3520     0.1390     0.4070 C.ar  1 <1>  -0.1430 
 12 C        2.4080     2.1650    -0.4730 C.ar  1 <1>  -0.1430 
 13 C       -1.6710    -3.4890    -0.9470 C.3   1 <1>   0.1200 
 14 C       -3.6180    -2.0430    -0.0660 C.3   1 <1>  -0.0170 
 15 O       -0.5710    -3.2650    -1.7670 O.3   1 <1>  -0.5600 
 16 C        3.5100     1.3760    -0.1930 C.ar  1 <1>  -0.1500 
 17 C        4.5620    -0.7240     0.7150 C.3   1 <1>  -0.0970 
 18 C        2.5850     3.5240    -1.1270 C.3   1 <1>  -0.0970 
 19 C       -4.5040    -3.2620     0.1340 C.ar  1 <1>  -0.1430 
 20 C       -5.5830    -3.5280    -0.6850 C.ar  1 <1>  -0.1500 
 21 C       -4.2690    -4.1690     1.1480 C.ar  1 <1>  -0.1500 
 22 C       -6.3510    -4.6580    -0.4580 C.ar  1 <1>   0.1600 
 23 C       -5.0990    -5.2690     1.2880 C.ar  1 <1>   0.1600 
 24 N       -6.1350    -5.5360     0.5090 N.ar  1 <1>  -0.6200 
 25 H       -2.4820     0.2330    -0.3280 H     1 <1>   0.4200 
 26 H       -1.9200    -0.7580    -2.4810 H     1 <1>   0.0800 
 27 H        1.9550    -1.2630     1.1990 H     1 <1>   0.1500 
 28 H        0.2830     2.3180    -0.3570 H     1 <1>   0.1500 
 29 H       -3.1350    -2.5190    -2.0800 H     1 <1>   0.0800 
 30 H        0.4660    -1.7220    -1.0420 H     1 <1>   0.0800 
 31 H        0.1270    -1.6660    -2.7640 H     1 <1>   0.0800 
 32 H       -2.1340    -4.4210    -1.2230 H     1 <1>   0.0800 
 33 H       -1.3270    -3.5420     0.0710 H     1 <1>   0.0800 
 34 H       -4.2360    -1.2010    -0.3230 H     1 <1>   0.0800 
 35 H       -3.1340    -1.8190     0.8660 H     1 <1>   0.0800 
 36 H        4.4960     1.7280    -0.4410 H     1 <1>   0.1500 
 37 H        5.3450    -0.5430     0.0010 H     1 <1>   0.0800 
 38 H        4.3020    -1.7670     0.6740 H     1 <1>   0.0800 
 39 H        4.9300    -0.4960     1.6990 H     1 <1>   0.0800 
 40 H        3.4480     3.5230    -1.7690 H     1 <1>   0.0800 
 41 H        2.7160     4.2760    -0.3710 H     1 <1>   0.0800 
 42 H        1.7230     3.7730    -1.7190 H     1 <1>   0.0800 
 43 H       -5.8340    -2.8700    -1.4960 H     1 <1>   0.1500 
 44 H       -3.4480    -4.0320     1.8290 H     1 <1>   0.1500 
 45 H       -7.1890    -4.8500    -1.1060 H     1 <1>   0.1500 
 46 H       -4.9010    -5.9650     2.0850 H     1 <1>   0.1500 
@<TRIPOS>BOND
  1   1   2  2   
  2   1   3  2   
  3   1   4  am  
  4   1   5  1   
  5   4   6  1   
  6   4  25  1   
  7   5   7  ar  
  8   5   8  ar  
  9   6   9  1   
 10   6  10  1   
 11   6  26  1   
 12   7  11  ar  
 13   7  27  1   
 14   8  12  ar  
 15   8  28  1   
 16   9  13  1   
 17   9  14  1   
 18   9  29  1   
 19  10  15  1   
 20  10  30  1   
 21  10  31  1   
 22  11  16  ar  
 23  11  17  1   
 24  12  16  ar  
 25  12  18  1   
 26  13  15  1   
 27  13  32  1   
 28  13  33  1   
 29  14  19  1   
 30  14  34  1   
 31  14  35  1   
 32  16  36  1   
 33  17  37  1   
 34  17  38  1   
 35  17  39  1   
 36  18  40  1   
 37  18  41  1   
 38  18  42  1   
 39  19  20  ar  
 40  19  21  ar  
 41  20  22  ar  
 42  20  43  1   
 43  21  23  ar  
 44  21  44  1   
 45  22  24  ar  
 46  22  45  1   
 47  23  24  ar  
 48  23  46  1   
@<TRIPOS>SUBSTRUCTURE
  1 ****   3 GROUP 4 **** **** 0

# MOE 2024.06 (io_trps.svl 2023.06)
