@<TRIPOS>MOLECULE
NONAME
51 53 1 0 0 
SMALL
USER_CHARGES


@<TRIPOS>ATOM
  1 CL      -0.1530    -1.5850    -1.3010 Cl    1 <1>  -0.1770 
  2 C       -1.5140    -1.7040    -0.2080 C.ar  1 <1>   0.1770 
  3 C       -2.2080    -0.5780     0.2300 C.ar  1 <1>   0.0820 
  4 C       -1.8960    -2.9710     0.1910 C.ar  1 <1>  -0.1500 
  5 O       -1.8870     0.6890    -0.1200 O.3   1 <1>  -0.3630 
  6 C       -3.3030    -0.7480     1.0620 C.ar  1 <1>  -0.1500 
  7 C       -2.9950    -3.1350     1.0240 C.ar  1 <1>  -0.1430 
  8 C       -0.5740     1.1620     0.1700 C.3   1 <1>   0.1810 
  9 C       -3.6930    -2.0160     1.4610 C.ar  1 <1>  -0.1500 
 10 C       -3.4200    -4.5290     1.4360 C.3   1 <1>   0.4870 
 11 C       -0.5890     2.6440     0.5250 C.2   1 <1>   0.5690 
 12 N       -4.1640    -5.1170     0.2940 N.4   1 <1>  -0.9590 
 13 O        0.3390     3.1150     1.1310 O.2   1 <1>  -0.5700 
 14 N       -1.6260     3.4280     0.1650 N.am  1 <1>  -0.8000 
 15 C       -4.1500    -6.6150     0.3560 C.3   1 <1>   0.5660 
 16 C       -5.5580    -4.5760     0.1800 C.3   1 <1>   0.3430 
 17 C       -2.7080    -7.0670     0.1640 C.ar  1 <1>  -0.1430 
 18 C       -5.0930    -7.2880    -0.6790 C.3   1 <1>   0.2000 
 19 C       -6.3510    -5.2920    -0.9270 C.3   1 <1>   0.1200 
 20 C       -1.9870    -6.7430    -0.9800 C.ar  1 <1>  -0.1500 
 21 C       -2.0970    -7.8100     1.1640 C.ar  1 <1>  -0.1500 
 22 O       -6.3580    -6.6690    -0.6950 O.3   1 <1>  -0.5600 
 23 C       -5.2820    -8.7760    -0.3410 C.3   1 <1>   0.1200 
 24 C       -0.6690    -7.1450    -1.1100 C.ar  1 <1>  -0.1500 
 25 C       -0.7800    -8.2110     1.0310 C.ar  1 <1>  -0.1500 
 26 O       -5.5530    -8.9290     1.0170 O.3   1 <1>  -0.6800 
 27 C       -0.0650    -7.8760    -0.1040 C.ar  1 <1>  -0.1500 
 28 H       -1.3240    -3.8150    -0.1580 H     1 <1>   0.1500 
 29 H       -3.8430     0.1210     1.4000 H     1 <1>   0.1500 
 30 H       -0.1750     0.6060     0.9990 H     1 <1>   0.0800 
 31 H        0.0410     1.0140    -0.6960 H     1 <1>   0.0800 
 32 H       -4.5420    -2.1130     2.1170 H     1 <1>   0.1500 
 33 H       -4.0380    -4.4970     2.3190 H     1 <1>   0.0800 
 34 H       -2.5380    -5.1100     1.6540 H     1 <1>   0.0800 
 35 H       -3.6420    -4.8580    -0.5470 H     1 <1>   0.4500 
 36 H       -1.6320     4.4170     0.4120 H     1 <1>   0.3700 
 37 H       -2.4420     3.0580    -0.3240 H     1 <1>   0.3700 
 38 H       -4.4790    -6.9230     1.3340 H     1 <1>   0.0800 
 39 H       -6.0820    -4.7140     1.1120 H     1 <1>   0.0800 
 40 H       -5.5260    -3.5190    -0.0300 H     1 <1>   0.0800 
 41 H       -4.6840    -7.2080    -1.6710 H     1 <1>   0.0800 
 42 H       -5.9320    -5.1010    -1.8990 H     1 <1>   0.0800 
 43 H       -7.3740    -4.9570    -0.9230 H     1 <1>   0.0800 
 44 H       -2.4280    -6.1830    -1.7870 H     1 <1>   0.1500 
 45 H       -2.6370    -8.0910     2.0540 H     1 <1>   0.1500 
 46 H       -4.3860    -9.3320    -0.5620 H     1 <1>   0.0800 
 47 H       -6.1010    -9.1840    -0.9090 H     1 <1>   0.0800 
 48 H       -0.1080    -6.8940    -1.9960 H     1 <1>   0.1500 
 49 H       -0.3080    -8.7880     1.8090 H     1 <1>   0.1500 
 50 H       -5.9110    -9.8240     1.1980 H     1 <1>   0.4000 
 51 H        0.9610    -8.1900    -0.2070 H     1 <1>   0.1500 
@<TRIPOS>BOND
  1   1   2  1   
  2   2   3  ar  
  3   2   4  ar  
  4   3   5  1   
  5   3   6  ar  
  6   4   7  ar  
  7   4  28  1   
  8   5   8  1   
  9   6   9  ar  
 10   6  29  1   
 11   7   9  ar  
 12   7  10  1   
 13   8  11  1   
 14   8  30  1   
 15   8  31  1   
 16   9  32  1   
 17  10  12  1   
 18  10  33  1   
 19  10  34  1   
 20  11  13  2   
 21  11  14  am  
 22  12  15  1   
 23  12  16  1   
 24  12  35  1   
 25  14  36  1   
 26  14  37  1   
 27  15  17  1   
 28  15  18  1   
 29  15  38  1   
 30  16  19  1   
 31  16  39  1   
 32  16  40  1   
 33  17  20  ar  
 34  17  21  ar  
 35  18  22  1   
 36  18  23  1   
 37  18  41  1   
 38  19  22  1   
 39  19  42  1   
 40  19  43  1   
 41  20  24  ar  
 42  20  44  1   
 43  21  25  ar  
 44  21  45  1   
 45  23  26  1   
 46  23  46  1   
 47  23  47  1   
 48  24  27  ar  
 49  24  48  1   
 50  25  27  ar  
 51  25  49  1   
 52  26  50  1   
 53  27  51  1   
@<TRIPOS>SUBSTRUCTURE
  1 ****   7 GROUP 4 **** **** 0

# MOE 2024.06 (io_trps.svl 2023.06)
