@<TRIPOS>MOLECULE
NONAME
25 26 1 0 0 
SMALL
USER_CHARGES


@<TRIPOS>ATOM
  1 F        0.2510    -0.2130    -0.5080 F     1 <1>  -0.3400 
  2 C        1.3210    -0.8630    -0.0730 C.3   1 <1>   1.3000 
  3 F        1.7330    -0.2650     1.0380 F     1 <1>  -0.3400 
  4 F        0.9380    -2.0970     0.2370 F     1 <1>  -0.3400 
  5 O        2.3180    -0.8710    -1.0720 O.3   1 <1>  -0.3630 
  6 C        3.4930    -1.4590    -0.7690 C.ar  1 <1>   0.0820 
  7 C        4.5300    -0.6980    -0.2530 C.ar  1 <1>  -0.1500 
  8 C        3.6660    -2.8170    -0.9920 C.ar  1 <1>  -0.1500 
  9 C        5.7400    -1.2950     0.0540 C.ar  1 <1>  -0.0320 
 10 C        4.8750    -3.4150    -0.6820 C.ar  1 <1>  -0.1500 
 11 C        5.9070    -2.6540    -0.1580 C.ar  1 <1>  -0.1500 
 12 C        6.8640    -0.4530     0.6260 C.3   1 <1>  -0.0680 
 13 C        7.3310     0.7410    -0.1540 C.3   1 <1>  -0.2470 
 14 C        8.2330    -0.4490     0.0180 C.3   1 <1>  -0.2000 
 15 C        7.5040     2.0580     0.5800 C.2   1 <1>   0.9470 
 16 O        6.5070     2.7690     0.7350 O.co2 1 <1>  -0.9000 
 17 O        8.6230     2.3740     0.9970 O.co2 1 <1>  -0.9000 
 18 H        4.4060     0.3600    -0.0890 H     1 <1>   0.1500 
 19 H        2.8630    -3.4010    -1.4050 H     1 <1>   0.1500 
 20 H        5.0150    -4.4690    -0.8490 H     1 <1>   0.1500 
 21 H        6.8490    -3.1140     0.0860 H     1 <1>   0.1500 
 22 H        6.7920    -0.3300     1.6930 H     1 <1>   0.1000 
 23 H        6.9070     0.9040    -1.1250 H     1 <1>   0.1000 
 24 H        8.4340    -1.0580    -0.8450 H     1 <1>   0.1000 
 25 H        9.0950    -0.3210     0.6510 H     1 <1>   0.1000 
@<TRIPOS>BOND
  1   1   2  1   
  2   2   3  1   
  3   2   4  1   
  4   2   5  1   
  5   5   6  1   
  6   6   7  ar  
  7   6   8  ar  
  8   7   9  ar  
  9   7  18  1   
 10   8  10  ar  
 11   8  19  1   
 12   9  11  ar  
 13   9  12  1   
 14  10  11  ar  
 15  10  20  1   
 16  11  21  1   
 17  12  13  1   
 18  12  14  1   
 19  12  22  1   
 20  13  14  1   
 21  13  15  1   
 22  13  23  1   
 23  14  24  1   
 24  14  25  1   
 25  15  16  ar  
 26  15  17  ar  
@<TRIPOS>SUBSTRUCTURE
  1 ****   7 GROUP 4 **** **** 0

# MOE 2024.06 (io_trps.svl 2023.06)
