@<TRIPOS>MOLECULE
NONAME
53 55 1 0 0 
SMALL
USER_CHARGES


@<TRIPOS>ATOM
  1 O       -1.1050     1.6830    -0.8530 O.2   1 <1>  -0.5700 
  2 C       -0.7200     2.7540    -0.4610 C.2   1 <1>   0.5690 
  3 N       -1.5860     3.6470     0.0650 N.am  1 <1>  -0.7300 
  4 C        0.7620     3.1300    -0.5910 C.3   1 <1>   0.1810 
  5 C       -1.1800     4.9630     0.6030 C.3   1 <1>   0.3640 
  6 O        1.1310     4.2590     0.1810 O.3   1 <1>  -0.5600 
  7 C       -2.2330     5.9930     0.1940 C.ar  1 <1>  -0.1440 
  8 C        0.2350     5.3530     0.1020 C.3   1 <1>   0.2610 
  9 C       -2.9360     6.6860     1.1710 C.ar  1 <1>  -0.1500 
 10 C       -2.5130     6.2480    -1.1420 C.ar  1 <1>  -0.1500 
 11 C        0.8090     6.5580     0.8600 C.2   1 <1>   0.5690 
 12 C       -3.8970     7.6180     0.8210 C.ar  1 <1>  -0.1500 
 13 C       -3.4690     7.1860    -1.4940 C.ar  1 <1>  -0.1500 
 14 O        0.1380     7.1880     1.6470 O.2   1 <1>  -0.5700 
 15 N        2.0780     6.9580     0.5930 N.am  1 <1>  -0.7300 
 16 C       -4.1620     7.8710    -0.5130 C.ar  1 <1>  -0.1500 
 17 C        2.8140     7.9910     1.3540 C.3   1 <1>   0.2840 
 18 C        3.2400     9.1510     0.4580 C.ar  1 <1>  -0.1430 
 19 C        2.3710     9.8820    -0.3590 C.ar  1 <1>  -0.1430 
 20 C        4.5840     9.4990     0.4920 C.ar  1 <1>  -0.1500 
 21 C        2.8720    10.9370    -1.1120 C.ar  1 <1>  -0.1500 
 22 C        0.8810     9.5950    -0.5080 C.3   1 <1>   0.4860 
 23 C        5.0690    10.5500    -0.2620 C.ar  1 <1>  -0.1500 
 24 C        4.2110    11.2720    -1.0650 C.ar  1 <1>  -0.1500 
 25 N        0.1190     9.8420     0.7500 N.4   1 <1>  -0.9590 
 26 C       -1.3500     9.7620     0.5040 C.3   1 <1>   0.2630 
 27 C        0.5020    11.1150     1.4340 C.3   1 <1>   0.2630 
 28 H       -2.5720     3.3880     0.1460 H     1 <1>   0.3700 
 29 H        0.9840     3.3370    -1.6210 H     1 <1>   0.0800 
 30 H        1.3660     2.3010    -0.2680 H     1 <1>   0.0800 
 31 H       -1.1520     4.8890     1.6770 H     1 <1>   0.0800 
 32 H        0.1710     5.6300    -0.9330 H     1 <1>   0.0800 
 33 H       -2.7420     6.4990     2.2150 H     1 <1>   0.1500 
 34 H       -2.0030     5.7060    -1.9210 H     1 <1>   0.1500 
 35 H       -4.4480     8.1370     1.5880 H     1 <1>   0.1500 
 36 H       -3.6860     7.3710    -2.5330 H     1 <1>   0.1500 
 37 H        2.6710     6.3470     0.0190 H     1 <1>   0.3700 
 38 H       -4.9170     8.5890    -0.7870 H     1 <1>   0.1500 
 39 H        2.2120     8.3670     2.1630 H     1 <1>   0.0800 
 40 H        3.6790     7.5280     1.7980 H     1 <1>   0.0800 
 41 H        5.2780     8.9550     1.1120 H     1 <1>   0.1500 
 42 H        2.2270    11.5140    -1.7530 H     1 <1>   0.1500 
 43 H        0.7470     8.5730    -0.8190 H     1 <1>   0.0800 
 44 H        0.4880    10.2250    -1.2880 H     1 <1>   0.0800 
 45 H        6.1150    10.8060    -0.2240 H     1 <1>   0.1500 
 46 H        4.5890    12.0910    -1.6540 H     1 <1>   0.1500 
 47 H        0.3440     9.0360     1.3700 H     1 <1>   0.4500 
 48 H       -1.6680    10.5510    -0.1570 H     1 <1>   0.0800 
 49 H       -1.8880     9.8480     1.4330 H     1 <1>   0.0800 
 50 H       -1.6020     8.8120     0.0590 H     1 <1>   0.0800 
 51 H        0.2920    11.9590     0.7980 H     1 <1>   0.0800 
 52 H        1.5550    11.1130     1.6660 H     1 <1>   0.0800 
 53 H       -0.0500    11.2260     2.3530 H     1 <1>   0.0800 
@<TRIPOS>BOND
  1   1   2  2   
  2   2   3  am  
  3   2   4  1   
  4   3   5  1   
  5   3  28  1   
  6   4   6  1   
  7   4  29  1   
  8   4  30  1   
  9   5   7  1   
 10   5   8  1   
 11   5  31  1   
 12   6   8  1   
 13   7   9  ar  
 14   7  10  ar  
 15   8  11  1   
 16   8  32  1   
 17   9  12  ar  
 18   9  33  1   
 19  10  13  ar  
 20  10  34  1   
 21  11  14  2   
 22  11  15  am  
 23  12  16  ar  
 24  12  35  1   
 25  13  16  ar  
 26  13  36  1   
 27  15  17  1   
 28  15  37  1   
 29  16  38  1   
 30  17  18  1   
 31  17  39  1   
 32  17  40  1   
 33  18  19  ar  
 34  18  20  ar  
 35  19  21  ar  
 36  19  22  1   
 37  20  23  ar  
 38  20  41  1   
 39  21  24  ar  
 40  21  42  1   
 41  22  25  1   
 42  22  43  1   
 43  22  44  1   
 44  23  24  ar  
 45  23  45  1   
 46  24  46  1   
 47  25  26  1   
 48  25  27  1   
 49  25  47  1   
 50  26  48  1   
 51  26  49  1   
 52  26  50  1   
 53  27  51  1   
 54  27  52  1   
 55  27  53  1   
@<TRIPOS>SUBSTRUCTURE
  1 ****  11 GROUP 4 **** **** 0

# MOE 2024.06 (io_trps.svl 2023.06)
