@<TRIPOS>MOLECULE
NONAME
41 43 1 0 0 
SMALL
USER_CHARGES


@<TRIPOS>ATOM
  1 O       -3.3150     2.3060    -0.3420 O.2   1 <1>  -0.5700 
  2 C       -2.7490     1.3090     0.0420 C.2   1 <1>   0.5690 
  3 N       -2.9330     0.1110    -0.6010 N.am  1 <1>  -0.6600 
  4 C       -1.8680     1.4560     1.2670 C.3   1 <1>   0.1570 
  5 C       -2.2340    -1.1680    -0.2380 C.3   1 <1>   0.3640 
  6 C       -3.9410    -0.0010    -1.7020 C.3   1 <1>   0.1400 
  7 N       -0.4570     1.2690     0.9100 N.pl3 1 <1>   0.3140 
  8 C       -1.0110    -1.4420    -1.1340 C.ar  1 <1>  -0.1440 
  9 C       -3.2560    -2.3450    -0.2380 C.3   1 <1>   0.2000 
 10 C       -3.9730    -1.4020    -2.3390 C.3   1 <1>   0.1200 
 11 N        0.3020     0.3330     1.5140 N.2   1 <1>  -0.7070 
 12 C        0.2450     1.9370    -0.0270 C.2   1 <1>  -0.3020 
 13 C       -0.1970    -2.5260    -0.8270 C.ar  1 <1>  -0.1500 
 14 C       -0.6580    -0.6430    -2.2180 C.ar  1 <1>  -0.1500 
 15 O       -4.1010    -2.4060    -1.3710 O.3   1 <1>  -0.5600 
 16 C       -4.1840    -2.2770     0.9840 C.3   1 <1>   0.1200 
 17 C        1.4600     0.4200     0.9330 C.2   1 <1>   0.1390 
 18 C        1.4870     1.4110    -0.0400 C.2   1 <1>  -0.1500 
 19 C        0.9190    -2.8210    -1.5910 C.ar  1 <1>  -0.1500 
 20 C        0.4580    -0.9350    -2.9840 C.ar  1 <1>  -0.1500 
 21 O       -3.4570    -2.3660     2.1680 O.3   1 <1>  -0.6800 
 22 C        1.2460    -2.0270    -2.6740 C.ar  1 <1>  -0.1500 
 23 H       -2.1460     0.7320     2.0090 H     1 <1>   0.0800 
 24 H       -1.9860     2.4380     1.6810 H     1 <1>   0.0800 
 25 H       -1.8470    -1.0900     0.7610 H     1 <1>   0.0800 
 26 H       -4.9160     0.2270    -1.3070 H     1 <1>   0.0800 
 27 H       -3.7190     0.7300    -2.4600 H     1 <1>   0.0800 
 28 H       -2.7290    -3.2810    -0.2070 H     1 <1>   0.0800 
 29 H       -3.0780    -1.5890    -2.9050 H     1 <1>   0.0800 
 30 H       -4.8130    -1.4840    -3.0070 H     1 <1>   0.0800 
 31 H       -0.1740     2.7270    -0.6240 H     1 <1>   0.1500 
 32 H       -0.4200    -3.1490     0.0200 H     1 <1>   0.1500 
 33 H       -1.2370     0.2230    -2.4790 H     1 <1>   0.1500 
 34 H       -4.8950    -3.0850     0.9640 H     1 <1>   0.0800 
 35 H       -4.7110    -1.3390     0.9940 H     1 <1>   0.0800 
 36 H        2.2970    -0.2090     1.1830 H     1 <1>   0.1500 
 37 H        2.3290     1.6720    -0.6560 H     1 <1>   0.1500 
 38 H        1.5340    -3.6670    -1.3400 H     1 <1>   0.1500 
 39 H        0.7130    -0.3070    -3.8200 H     1 <1>   0.1500 
 40 H       -3.2000    -3.2920     2.3540 H     1 <1>   0.4000 
 41 H        2.1120    -2.2550    -3.2690 H     1 <1>   0.1500 
@<TRIPOS>BOND
  1   1   2  2   
  2   2   3  am  
  3   2   4  1   
  4   3   5  1   
  5   3   6  1   
  6   4   7  1   
  7   4  23  1   
  8   4  24  1   
  9   5   8  1   
 10   5   9  1   
 11   5  25  1   
 12   6  10  1   
 13   6  26  1   
 14   6  27  1   
 15   7  11  1   
 16   7  12  1   
 17   8  13  ar  
 18   8  14  ar  
 19   9  15  1   
 20   9  16  1   
 21   9  28  1   
 22  10  15  1   
 23  10  29  1   
 24  10  30  1   
 25  11  17  2   
 26  12  18  2   
 27  12  31  1   
 28  13  19  ar  
 29  13  32  1   
 30  14  20  ar  
 31  14  33  1   
 32  16  21  1   
 33  16  34  1   
 34  16  35  1   
 35  17  18  1   
 36  17  36  1   
 37  18  37  1   
 38  19  22  ar  
 39  19  38  1   
 40  20  22  ar  
 41  20  39  1   
 42  21  40  1   
 43  22  41  1   
@<TRIPOS>SUBSTRUCTURE
  1 ****   5 GROUP 4 **** **** 0

# MOE 2024.06 (io_trps.svl 2023.06)
