@<TRIPOS>MOLECULE
NONAME
53 56 1 0 0 
SMALL
USER_CHARGES


@<TRIPOS>ATOM
  1 S       -0.9240     1.5560    -1.9390 S.3   1 <1>  -0.0800 
  2 C       -0.4200     2.5950    -0.6230 C.2   1 <1>  -0.1400 
  3 C        0.6610     1.7000    -2.6850 C.2   1 <1>  -0.1100 
  4 C        0.8510     2.9920    -0.7580 C.2   1 <1>  -0.1810 
  5 C       -1.3370     2.9780     0.5060 C.3   1 <1>   0.0200 
  6 C        1.4730     2.4830    -1.9470 C.2   1 <1>  -0.1500 
  7 C        1.5100     3.8950     0.2870 C.3   1 <1>   0.4610 
  8 C       -0.7270     4.2140     1.1850 C.3   1 <1>   0.1200 
  9 O        0.6540     4.0480     1.4060 O.3   1 <1>  -0.5600 
 10 C        2.7900     3.2430     0.8240 C.3   1 <1>  -0.1600 
 11 C        1.8160     5.2820    -0.2990 C.3   1 <1>  -0.1600 
 12 C        3.5280     4.1600     1.8020 C.3   1 <1>   0.1400 
 13 C        2.5570     6.1620     0.7080 C.3   1 <1>   0.1400 
 14 N        3.8000     5.4610     1.1300 N.am  1 <1>  -0.6600 
 15 C        5.0870     5.8880     0.9060 C.2   1 <1>   0.5690 
 16 O        6.0440     5.2700     1.3070 O.2   1 <1>  -0.5700 
 17 C        5.3740     7.1620     0.1360 C.3   1 <1>  -0.0990 
 18 C        5.2990     8.3890     1.0480 C.3   1 <1>   0.0210 
 19 C        5.5120     9.6510     0.2320 C.2   1 <1>  -0.1810 
 20 C        4.5310    10.4320    -0.3740 C.2   1 <1>   0.1080 
 21 C        6.6770    10.2600    -0.0820 C.2   1 <1>  -0.3320 
 22 N        5.0330    11.4400    -1.0120 N.2   1 <1>  -0.7070 
 23 C        3.0410    10.1840    -0.3320 C.3   1 <1>  -0.0590 
 24 N        6.3580    11.3390    -0.8310 N.pl3 1 <1>   0.3140 
 25 C        8.1010     9.8710     0.2850 C.3   1 <1>  -0.0600 
 26 C        7.2780    12.3210    -1.4160 C.3   1 <1>   0.0160 
 27 H        0.8190     1.1750    -3.6100 H     1 <1>   0.1500 
 28 H       -1.4170     2.1670     1.2070 H     1 <1>   0.0800 
 29 H       -2.3170     3.2120     0.1320 H     1 <1>   0.0800 
 30 H        2.4920     2.7230    -2.1940 H     1 <1>   0.1500 
 31 H       -1.1950     4.3810     2.1400 H     1 <1>   0.0800 
 32 H       -0.8720     5.0860     0.5730 H     1 <1>   0.0800 
 33 H        3.4540     3.0160     0.0110 H     1 <1>   0.0800 
 34 H        2.5400     2.3170     1.3070 H     1 <1>   0.0800 
 35 H        0.9080     5.7590    -0.6120 H     1 <1>   0.0800 
 36 H        2.4320     5.1680    -1.1710 H     1 <1>   0.0800 
 37 H        4.4440     3.6890     2.1180 H     1 <1>   0.0800 
 38 H        2.9240     4.3310     2.6770 H     1 <1>   0.0800 
 39 H        1.9380     6.3270     1.5740 H     1 <1>   0.0800 
 40 H        2.7700     7.1190     0.2700 H     1 <1>   0.0800 
 41 H        4.6990     7.2590    -0.6910 H     1 <1>   0.0800 
 42 H        6.3650     7.0980    -0.2740 H     1 <1>   0.0800 
 43 H        6.0550     8.3150     1.8100 H     1 <1>   0.0800 
 44 H        4.3470     8.4320     1.5440 H     1 <1>   0.0800 
 45 H        2.7190    10.0430     0.6820 H     1 <1>   0.0800 
 46 H        2.8030     9.3150    -0.9150 H     1 <1>   0.0800 
 47 H        2.5220    11.0300    -0.7450 H     1 <1>   0.0800 
 48 H        8.1140     8.9590     0.8530 H     1 <1>   0.0800 
 49 H        8.5550    10.6460     0.8750 H     1 <1>   0.0800 
 50 H        8.6850     9.7200    -0.6060 H     1 <1>   0.0800 
 51 H        7.8440    12.7830    -0.6300 H     1 <1>   0.0800 
 52 H        6.7080    13.0680    -1.9370 H     1 <1>   0.0800 
 53 H        7.9340    11.8230    -2.1030 H     1 <1>   0.0800 
@<TRIPOS>BOND
  1   1   2  1   
  2   1   3  1   
  3   2   4  2   
  4   2   5  1   
  5   3   6  2   
  6   3  27  1   
  7   4   6  1   
  8   4   7  1   
  9   5   8  1   
 10   5  28  1   
 11   5  29  1   
 12   6  30  1   
 13   7   9  1   
 14   7  10  1   
 15   7  11  1   
 16   8   9  1   
 17   8  31  1   
 18   8  32  1   
 19  10  12  1   
 20  10  33  1   
 21  10  34  1   
 22  11  13  1   
 23  11  35  1   
 24  11  36  1   
 25  12  14  1   
 26  12  37  1   
 27  12  38  1   
 28  13  14  1   
 29  13  39  1   
 30  13  40  1   
 31  14  15  am  
 32  15  16  2   
 33  15  17  1   
 34  17  18  1   
 35  17  41  1   
 36  17  42  1   
 37  18  19  1   
 38  18  43  1   
 39  18  44  1   
 40  19  20  1   
 41  19  21  2   
 42  20  22  2   
 43  20  23  1   
 44  21  24  1   
 45  21  25  1   
 46  22  24  1   
 47  23  45  1   
 48  23  46  1   
 49  23  47  1   
 50  24  26  1   
 51  25  48  1   
 52  25  49  1   
 53  25  50  1   
 54  26  51  1   
 55  26  52  1   
 56  26  53  1   
@<TRIPOS>SUBSTRUCTURE
  1 ****  13 GROUP 4 **** **** 0

# MOE 2024.06 (io_trps.svl 2023.06)
