@<TRIPOS>MOLECULE
NONAME
46 48 1 0 0 
SMALL
USER_CHARGES


@<TRIPOS>ATOM
  1 CL       1.2860     0.5190     2.5360 Cl    1 <1>  -0.1770 
  2 C        2.1680     1.1770     1.1690 C.ar  1 <1>   0.1770 
  3 C        2.7790     0.3270     0.2380 C.ar  1 <1>   0.1000 
  4 C        2.2390     2.5500     1.0670 C.ar  1 <1>  -0.1500 
  5 N        2.7130    -1.0650     0.3380 N.pl3 1 <1>  -0.8380 
  6 C        3.4560     0.9420    -0.8130 C.ar  1 <1>  -0.1500 
  7 C        2.9330     3.1620     0.0230 C.ar  1 <1>   0.0860 
  8 C        1.4050    -1.7520     0.2230 C.3   1 <1>   0.2090 
  9 C        3.8180    -1.9800    -0.0420 C.3   1 <1>   0.2090 
 10 C        3.5300     2.3180    -0.9170 C.ar  1 <1>  -0.1500 
 11 C        3.0220     4.6060    -0.0670 C.2   1 <1>   0.5440 
 12 C        1.7110    -3.0540    -0.5060 C.3   1 <1>  -0.1600 
 13 C        3.1650    -3.3520    -0.1540 C.3   1 <1>  -0.1600 
 14 O        2.1830     5.3200     0.4500 O.2   1 <1>  -0.5700 
 15 N        4.0690     5.2070    -0.7090 N.am  1 <1>  -0.7300 
 16 C        4.2340     6.6740    -0.8580 C.3   1 <1>   0.1400 
 17 C        4.7740     7.2810     0.4400 C.3   1 <1>   0.1400 
 18 N        4.8980     8.7560     0.3020 N.am  1 <1>  -0.6600 
 19 C        6.0060     9.3160    -0.2840 C.2   1 <1>   0.7800 
 20 C        3.7600     9.5560     0.8130 C.3   1 <1>   0.1400 
 21 O        6.8910     8.6440    -0.7720 O.2   1 <1>  -0.5700 
 22 O        6.1270    10.6440    -0.3370 O.3   1 <1>  -0.4300 
 23 C        3.8320    10.9780     0.2640 C.3   1 <1>  -0.1600 
 24 C        5.2620    11.5050     0.3670 C.3   1 <1>   0.1200 
 25 H        1.7530     3.1590     1.8080 H     1 <1>   0.1500 
 26 H        3.9210     0.3360    -1.5660 H     1 <1>   0.1500 
 27 H        0.6930    -1.1500    -0.3160 H     1 <1>   0.0800 
 28 H        1.0310    -1.9580     1.2110 H     1 <1>   0.0800 
 29 H        4.5910    -1.9710     0.7080 H     1 <1>   0.0800 
 30 H        4.2310    -1.6960    -0.9930 H     1 <1>   0.0800 
 31 H        4.0540     2.7450    -1.7530 H     1 <1>   0.1500 
 32 H        1.6150    -2.8900    -1.5640 H     1 <1>   0.0800 
 33 H        1.0450    -3.8440    -0.2080 H     1 <1>   0.0800 
 34 H        3.2170    -3.8390     0.8040 H     1 <1>   0.0800 
 35 H        3.6500    -3.9680    -0.8890 H     1 <1>   0.0800 
 36 H        4.8650     4.6430    -1.0110 H     1 <1>   0.3700 
 37 H        3.2780     7.1130    -1.0880 H     1 <1>   0.0800 
 38 H        4.9140     6.8770    -1.6670 H     1 <1>   0.0800 
 39 H        5.7420     6.8610     0.6550 H     1 <1>   0.0800 
 40 H        4.1100     7.0480     1.2550 H     1 <1>   0.0800 
 41 H        3.8080     9.5750     1.8890 H     1 <1>   0.0800 
 42 H        2.8290     9.0980     0.5210 H     1 <1>   0.0800 
 43 H        3.1650    11.6140     0.8180 H     1 <1>   0.0800 
 44 H        3.5180    10.9900    -0.7650 H     1 <1>   0.0800 
 45 H        5.3480    12.4860    -0.0650 H     1 <1>   0.0800 
 46 H        5.5890    11.5360     1.3930 H     1 <1>   0.0800 
@<TRIPOS>BOND
  1   1   2  1   
  2   2   3  ar  
  3   2   4  ar  
  4   3   5  1   
  5   3   6  ar  
  6   4   7  ar  
  7   4  25  1   
  8   5   8  1   
  9   5   9  1   
 10   6  10  ar  
 11   6  26  1   
 12   7  10  ar  
 13   7  11  1   
 14   8  12  1   
 15   8  27  1   
 16   8  28  1   
 17   9  13  1   
 18   9  29  1   
 19   9  30  1   
 20  10  31  1   
 21  11  14  2   
 22  11  15  am  
 23  12  13  1   
 24  12  32  1   
 25  12  33  1   
 26  13  34  1   
 27  13  35  1   
 28  15  16  1   
 29  15  36  1   
 30  16  17  1   
 31  16  37  1   
 32  16  38  1   
 33  17  18  1   
 34  17  39  1   
 35  17  40  1   
 36  18  19  am  
 37  18  20  1   
 38  19  21  2   
 39  19  22  1   
 40  20  23  1   
 41  20  41  1   
 42  20  42  1   
 43  22  24  1   
 44  23  24  1   
 45  23  43  1   
 46  23  44  1   
 47  24  45  1   
 48  24  46  1   
@<TRIPOS>SUBSTRUCTURE
  1 ****  11 GROUP 4 **** **** 0

# MOE 2024.06 (io_trps.svl 2023.06)
