@<TRIPOS>MOLECULE
NONAME
21 22 1 0 0 
SMALL
USER_CHARGES


@<TRIPOS>ATOM
  1 O       11.0460     0.8350    -0.8780 O.2   1 <1>  -0.5700 
  2 C        9.9990     0.4530    -0.4190 C.2   1 <1>   0.6900 
  3 N        9.8820    -0.2720     0.7210 N.am  1 <1>  -0.4900 
  4 N        8.7850     0.7320    -0.9490 N.am  1 <1>  -0.6550 
  5 C        8.5840    -0.4660     1.0380 C.2   1 <1>   0.5770 
  6 C        7.7440     0.2010    -0.0480 C.3   1 <1>   0.2780 
  7 O        8.1370    -1.0450     1.9940 O.2   1 <1>  -0.5700 
  8 C        6.6420     1.1880     0.4150 C.3   1 <1>   0.0000 
  9 C        6.6320    -0.6570    -0.7010 C.3   1 <1>   0.0000 
 10 C        5.6980    -0.0490     0.3840 C.3   1 <1>   0.4720 
 11 N        4.3340     0.2460    -0.0950 N.4   1 <1>  -0.8220 
 12 H       10.6840    -0.5730     1.2680 H     1 <1>   0.3700 
 13 H        8.6710     1.4530    -1.6650 H     1 <1>   0.3700 
 14 H        6.3990     1.9260    -0.3310 H     1 <1>   0.0000 
 15 H        6.7990     1.5820     1.4030 H     1 <1>   0.0000 
 16 H        6.7790    -1.7170    -0.5940 H     1 <1>   0.0000 
 17 H        6.3860    -0.3370    -1.7000 H     1 <1>   0.0000 
 18 H        5.7070    -0.6050     1.3040 H     1 <1>   0.0000 
 19 H        4.3510     0.7730    -0.9740 H     1 <1>   0.4500 
 20 H        3.8240     0.7950     0.6070 H     1 <1>   0.4500 
 21 H        3.8180    -0.6280    -0.2480 H     1 <1>   0.4500 
@<TRIPOS>BOND
  1   1   2  2   
  2   2   3  am  
  3   2   4  am  
  4   3   5  am  
  5   3  12  1   
  6   4   6  1   
  7   4  13  1   
  8   5   6  1   
  9   5   7  2   
 10   6   8  1   
 11   6   9  1   
 12   8  10  1   
 13   8  14  1   
 14   8  15  1   
 15   9  10  1   
 16   9  16  1   
 17   9  17  1   
 18  10  11  1   
 19  10  18  1   
 20  11  19  1   
 21  11  20  1   
 22  11  21  1   
@<TRIPOS>SUBSTRUCTURE
  1 ****   6 GROUP 4 **** **** 0

# MOE 2024.06 (io_trps.svl 2023.06)
