@<TRIPOS>MOLECULE
NONAME
46 47 1 0 0 
SMALL
USER_CHARGES


@<TRIPOS>ATOM
  1 O       -0.3890     2.7800     2.5450 O.co2 1 <1>  -0.9000 
  2 C       -1.3100     2.9300     1.7430 C.2   1 <1>   0.9060 
  3 O       -2.2200     3.7430     1.9370 O.co2 1 <1>  -0.9000 
  4 C       -1.1240     2.3200     0.3780 C.3   1 <1>  -0.1860 
  5 C       -2.2230     2.5530    -0.6830 C.3   1 <1>   0.2000 
  6 C        0.1950     2.9060    -0.1080 C.3   1 <1>   0.3430 
  7 O       -3.4410     2.7030    -0.0680 O.3   1 <1>  -0.6800 
  8 C       -1.9820     3.7930    -1.5550 C.3   1 <1>  -0.1600 
  9 N        0.1050     4.3930    -0.3440 N.4   1 <1>  -0.9590 
 10 C       -1.2600     4.8700    -0.7550 C.3   1 <1>   0.3430 
 11 C        0.5090     5.1260     0.8960 C.3   1 <1>   0.4860 
 12 C        0.8490     6.5510     0.5010 C.ar  1 <1>  -0.1430 
 13 C       -0.0770     7.5640     0.7080 C.ar  1 <1>  -0.1500 
 14 C        2.0740     6.8520    -0.0790 C.ar  1 <1>  -0.1500 
 15 C        0.2000     8.8640     0.3240 C.ar  1 <1>   0.0820 
 16 C        2.3680     8.1540    -0.4480 C.ar  1 <1>  -0.1500 
 17 O       -0.7810     9.7820     0.5210 O.3   1 <1>  -0.3630 
 18 C        1.4460     9.1650    -0.2390 C.ar  1 <1>   0.0820 
 19 C       -1.1900    10.5660    -0.5820 C.3   1 <1>   0.0400 
 20 O        1.8080    10.4210    -0.5870 O.3   1 <1>  -0.3630 
 21 C        2.0320    11.3170     0.4780 C.3   1 <1>   0.2580 
 22 C        2.1840    12.7080    -0.1060 C.2   1 <1>  -0.2880 
 23 C        1.4320    13.7670     0.2100 C.2   1 <1>  -0.3000 
 24 H       -1.0040     1.2650     0.5230 H     1 <1>   0.0800 
 25 H       -2.3080     1.6910    -1.3230 H     1 <1>   0.0800 
 26 H        0.4630     2.4160    -1.0290 H     1 <1>   0.0800 
 27 H        0.9660     2.6930     0.6170 H     1 <1>   0.0800 
 28 H       -3.2810     3.1800     0.8030 H     1 <1>   0.4000 
 29 H       -1.3840     3.5310    -2.4090 H     1 <1>   0.0800 
 30 H       -2.9200     4.1710    -1.9220 H     1 <1>   0.0800 
 31 H        0.7780     4.6650    -1.0650 H     1 <1>   0.4500 
 32 H       -1.8490     5.0890     0.1230 H     1 <1>   0.0800 
 33 H       -1.1750     5.7770    -1.3320 H     1 <1>   0.0800 
 34 H       -0.2910     5.1210     1.6200 H     1 <1>   0.0800 
 35 H        1.3660     4.6550     1.3490 H     1 <1>   0.0800 
 36 H       -1.0290     7.3540     1.1660 H     1 <1>   0.1500 
 37 H        2.8110     6.0840    -0.2410 H     1 <1>   0.1500 
 38 H        3.3170     8.3950    -0.8940 H     1 <1>   0.1500 
 39 H       -2.1600    10.9740    -0.3610 H     1 <1>   0.0800 
 40 H       -1.2430     9.9440    -1.4570 H     1 <1>   0.0800 
 41 H       -0.4900    11.3670    -0.7320 H     1 <1>   0.0800 
 42 H        1.1980    11.2780     1.1580 H     1 <1>   0.0800 
 43 H        2.9280    11.0140     0.9900 H     1 <1>   0.0800 
 44 H        2.9820    12.7560    -0.8270 H     1 <1>   0.1500 
 45 H        1.5610    14.7430    -0.2240 H     1 <1>   0.1500 
 46 H        0.6260    13.7490     0.9240 H     1 <1>   0.1500 
@<TRIPOS>BOND
  1   1   2  ar  
  2   2   3  ar  
  3   2   4  1   
  4   4   5  1   
  5   4   6  1   
  6   4  24  1   
  7   5   7  1   
  8   5   8  1   
  9   5  25  1   
 10   6   9  1   
 11   6  26  1   
 12   6  27  1   
 13   7  28  1   
 14   8  10  1   
 15   8  29  1   
 16   8  30  1   
 17   9  10  1   
 18   9  11  1   
 19   9  31  1   
 20  10  32  1   
 21  10  33  1   
 22  11  12  1   
 23  11  34  1   
 24  11  35  1   
 25  12  13  ar  
 26  12  14  ar  
 27  13  15  ar  
 28  13  36  1   
 29  14  16  ar  
 30  14  37  1   
 31  15  17  1   
 32  15  18  ar  
 33  16  18  ar  
 34  16  38  1   
 35  17  19  1   
 36  18  20  1   
 37  19  39  1   
 38  19  40  1   
 39  19  41  1   
 40  20  21  1   
 41  21  22  1   
 42  21  42  1   
 43  21  43  1   
 44  22  23  2   
 45  22  44  1   
 46  23  45  1   
 47  23  46  1   
@<TRIPOS>SUBSTRUCTURE
  1 ****  12 GROUP 4 **** **** 0

# MOE 2024.06 (io_trps.svl 2023.06)
