@<TRIPOS>MOLECULE
Untitled Document
53 56 1 0 0 
SMALL
USER_CHARGES


@<TRIPOS>ATOM
  1 S       -1.5150    -2.1740    -2.4590 S.3   1 <1>  -0.2430 
  2 C       -0.4190    -3.0980    -1.4250 C.2   1 <1>   0.7710 
  3 C       -2.3580    -1.5040    -1.0510 C.ar  1 <1>   0.1020 
  4 O        0.4440    -3.8020    -1.8970 O.2   1 <1>  -0.5700 
  5 N       -0.7180    -2.8760    -0.1010 N.am  1 <1>  -0.4770 
  6 C       -1.7920    -1.9930     0.1130 C.ar  1 <1>   0.1170 
  7 C       -3.4220    -0.6270    -1.0730 C.ar  1 <1>  -0.1500 
  8 C        0.0380    -3.5130     1.0040 C.3   1 <1>   0.0600 
  9 C       -2.3280    -1.5730     1.3230 C.ar  1 <1>  -0.1500 
 10 C       -3.9550    -0.2200     0.1430 C.ar  1 <1>  -0.1440 
 11 C       -3.4020    -0.6930     1.3310 C.ar  1 <1>  -0.1500 
 12 C       -5.1400     0.7280     0.1700 C.3   1 <1>  -0.0160 
 13 C       -6.4260    -0.0880     0.0170 C.3   1 <1>   0.3430 
 14 N       -7.6510     0.7600     0.1190 N.4   1 <1>  -0.9590 
 15 C       -8.8830    -0.1070     0.2380 C.3   1 <1>   0.3430 
 16 C       -7.8090     1.7120    -1.0480 C.3   1 <1>   0.3430 
 17 C      -10.1790     0.7190     0.3560 C.3   1 <1>   0.2090 
 18 C       -9.0910     2.5620    -0.9480 C.3   1 <1>   0.2090 
 19 N      -10.2950     1.7000    -0.7630 N.pl3 1 <1>  -0.8380 
 20 C      -11.5120     2.3960    -0.7950 C.ar  1 <1>   0.1000 
 21 C      -11.9130     3.3260     0.1830 C.ar  1 <1>   0.0820 
 22 C      -12.3610     2.1420    -1.8630 C.ar  1 <1>  -0.1500 
 23 O      -11.0680     3.5710     1.2350 O.3   1 <1>  -0.3620 
 24 C      -13.1440     3.9650     0.0580 C.ar  1 <1>  -0.1500 
 25 C      -13.5810     2.7810    -1.9780 C.ar  1 <1>  -0.1500 
 26 C      -11.4150     4.4890     2.2500 C.3   1 <1>   0.0400 
 27 C      -13.9730     3.6930    -1.0170 C.ar  1 <1>  -0.1500 
 28 H       -3.8050    -0.2860    -2.0180 H     1 <1>   0.1500 
 29 H        0.8160    -4.1440     0.6090 H     1 <1>   0.0800 
 30 H       -0.6270    -4.1130     1.6000 H     1 <1>   0.0800 
 31 H        0.4860    -2.7540     1.6210 H     1 <1>   0.0800 
 32 H       -1.9120    -1.9280     2.2490 H     1 <1>   0.1500 
 33 H       -3.8000    -0.3780     2.2810 H     1 <1>   0.1500 
 34 H       -5.0380     1.4350    -0.6330 H     1 <1>   0.0800 
 35 H       -5.1490     1.2640     1.1030 H     1 <1>   0.0800 
 36 H       -6.4430    -0.8370     0.7920 H     1 <1>   0.0800 
 37 H       -6.4120    -0.6000    -0.9320 H     1 <1>   0.0800 
 38 H       -7.6070     1.3290     0.9750 H     1 <1>   0.4500 
 39 H       -8.8000    -0.7470     1.1000 H     1 <1>   0.0800 
 40 H       -8.9680    -0.7340    -0.6340 H     1 <1>   0.0800 
 41 H       -7.8530     1.1510    -1.9670 H     1 <1>   0.0800 
 42 H       -6.9620     2.3740    -1.1030 H     1 <1>   0.0800 
 43 H      -10.1960     1.2330     1.3010 H     1 <1>   0.0800 
 44 H      -11.0280     0.0570     0.3280 H     1 <1>   0.0800 
 45 H       -9.2090     3.1370    -1.8500 H     1 <1>   0.0800 
 46 H       -9.0030     3.2530    -0.1280 H     1 <1>   0.0800 
 47 H      -12.0570     1.4320    -2.6100 H     1 <1>   0.1500 
 48 H      -13.4850     4.6800     0.7820 H     1 <1>   0.1500 
 49 H      -14.2240     2.5690    -2.8150 H     1 <1>   0.1500 
 50 H      -10.6140     4.5200     2.9660 H     1 <1>   0.0800 
 51 H      -12.3180     4.1550     2.7300 H     1 <1>   0.0800 
 52 H      -11.5500     5.4620     1.8120 H     1 <1>   0.0800 
 53 H      -14.9220     4.1920    -1.1060 H     1 <1>   0.1500 
@<TRIPOS>BOND
  1   1   2  1   
  2   1   3  1   
  3   2   4  2   
  4   2   5  am  
  5   3   6  ar  
  6   3   7  ar  
  7   5   6  1   
  8   5   8  1   
  9   6   9  ar  
 10   7  10  ar  
 11   7  28  1   
 12   8  29  1   
 13   8  30  1   
 14   8  31  1   
 15   9  11  ar  
 16   9  32  1   
 17  10  11  ar  
 18  10  12  1   
 19  11  33  1   
 20  12  13  1   
 21  12  34  1   
 22  12  35  1   
 23  13  14  1   
 24  13  36  1   
 25  13  37  1   
 26  14  15  1   
 27  14  16  1   
 28  14  38  1   
 29  15  17  1   
 30  15  39  1   
 31  15  40  1   
 32  16  18  1   
 33  16  41  1   
 34  16  42  1   
 35  17  19  1   
 36  17  43  1   
 37  17  44  1   
 38  18  19  1   
 39  18  45  1   
 40  18  46  1   
 41  19  20  1   
 42  20  21  ar  
 43  20  22  ar  
 44  21  23  1   
 45  21  24  ar  
 46  22  25  ar  
 47  22  47  1   
 48  23  26  1   
 49  24  27  ar  
 50  24  48  1   
 51  25  27  ar  
 52  25  49  1   
 53  26  50  1   
 54  26  51  1   
 55  26  52  1   
 56  27  53  1   
@<TRIPOS>SUBSTRUCTURE
  1 ****  13 GROUP 4 **** **** 0

# MOE 2024.06 (io_trps.svl 2023.06)
