@<TRIPOS>MOLECULE
NONAME
53 57 1 0 0 
SMALL
USER_CHARGES


@<TRIPOS>ATOM
  1 S       -0.4850     0.5020    -2.4380 S.3   1 <1>  -0.0800 
  2 C       -1.2130     1.0890    -0.9500 C.2   1 <1>  -0.1400 
  3 C       -1.8410    -0.5850    -2.7090 C.2   1 <1>  -0.1100 
  4 C       -2.3900     0.4890    -0.7300 C.2   1 <1>  -0.1810 
  5 C       -0.5530     2.1400    -0.0650 C.3   1 <1>   0.4600 
  6 C       -2.7540    -0.4730    -1.7240 C.2   1 <1>  -0.1500 
  7 C       -3.1980     0.8590     0.4940 C.3   1 <1>   0.0210 
  8 O       -1.3100     2.2690     1.1230 O.3   1 <1>  -0.5600 
  9 C        0.8450     1.6860     0.3660 C.3   1 <1>  -0.1600 
 10 C       -0.4830     3.5050    -0.7640 C.3   1 <1>  -0.1600 
 11 C       -2.7150     2.2230     1.0240 C.3   1 <1>   0.1200 
 12 C        1.5260     2.7480     1.2260 C.3   1 <1>   0.2090 
 13 C        0.2290     4.5430     0.1030 C.3   1 <1>   0.2090 
 14 N        1.5830     4.0270     0.4600 N.pl3 1 <1>  -0.8380 
 15 C        2.7250     4.7450     0.2600 C.ar  1 <1>   0.4100 
 16 N        2.6150     6.0720     0.2590 N.ar  1 <1>  -0.6200 
 17 C        3.9500     4.1230     0.0630 C.ar  1 <1>  -0.1500 
 18 C        3.7060     6.7830     0.1040 C.ar  1 <1>   0.7710 
 19 C        5.0730     4.8820    -0.1200 C.ar  1 <1>   0.4610 
 20 N        4.9090     6.2140    -0.0920 N.ar  1 <1>  -0.1790 
 21 N        3.6310     8.1430     0.1240 N.pl3 1 <1>  -0.8380 
 22 N        6.3080     4.3600    -0.3310 N.pl3 1 <1>  -0.9000 
 23 C        4.6610     9.0720     0.7060 C.3   1 <1>   0.2090 
 24 C        2.3080     8.8370    -0.0630 C.3   1 <1>   0.2090 
 25 C        4.7070    10.4050    -0.0640 C.3   1 <1>   0.1200 
 26 C        2.4780    10.1930    -0.7720 C.3   1 <1>   0.1200 
 27 O        3.4350    10.9780    -0.1200 O.3   1 <1>  -0.5600 
 28 H       -1.8090    -1.2030    -3.5890 H     1 <1>   0.1500 
 29 H       -3.6720    -1.0290    -1.6550 H     1 <1>   0.1500 
 30 H       -3.0750     0.1070     1.2520 H     1 <1>   0.0800 
 31 H       -4.2410     0.9240     0.2430 H     1 <1>   0.0800 
 32 H        1.4520     1.5010    -0.5000 H     1 <1>   0.0800 
 33 H        0.7620     0.7660     0.9140 H     1 <1>   0.0800 
 34 H       -1.4690     3.8450    -1.0150 H     1 <1>   0.0800 
 35 H        0.0610     3.4020    -1.6850 H     1 <1>   0.0800 
 36 H       -3.1190     2.4020     2.0050 H     1 <1>   0.0800 
 37 H       -3.0370     3.0130     0.3700 H     1 <1>   0.0800 
 38 H        2.5080     2.4200     1.5130 H     1 <1>   0.0800 
 39 H        0.9580     2.9040     2.1290 H     1 <1>   0.0800 
 40 H       -0.3330     4.7240     1.0040 H     1 <1>   0.0800 
 41 H        0.3000     5.4680    -0.4420 H     1 <1>   0.0800 
 42 H        4.0080     3.0540     0.0380 H     1 <1>   0.1500 
 43 H        5.6720     6.8370    -0.2940 H     1 <1>   0.4570 
 44 H        7.1840     4.8770    -0.4670 H     1 <1>   0.4000 
 45 H        6.4570     3.3430    -0.3690 H     1 <1>   0.4000 
 46 H        5.6400     8.6290     0.7010 H     1 <1>   0.0800 
 47 H        4.4020     9.2840     1.7300 H     1 <1>   0.0800 
 48 H        1.8500     8.9990     0.8980 H     1 <1>   0.0800 
 49 H        1.6390     8.2270    -0.6470 H     1 <1>   0.0800 
 50 H        5.0640    10.2610    -1.0690 H     1 <1>   0.0800 
 51 H        5.3550    11.1030     0.4360 H     1 <1>   0.0800 
 52 H        1.5490    10.7340    -0.7630 H     1 <1>   0.0800 
 53 H        2.7840    10.0530    -1.7950 H     1 <1>   0.0800 
@<TRIPOS>BOND
  1   1   2  1   
  2   1   3  1   
  3   2   4  2   
  4   2   5  1   
  5   3   6  2   
  6   3  28  1   
  7   4   6  1   
  8   4   7  1   
  9   5   8  1   
 10   5   9  1   
 11   5  10  1   
 12   6  29  1   
 13   7  11  1   
 14   7  30  1   
 15   7  31  1   
 16   8  11  1   
 17   9  12  1   
 18   9  32  1   
 19   9  33  1   
 20  10  13  1   
 21  10  34  1   
 22  10  35  1   
 23  11  36  1   
 24  11  37  1   
 25  12  14  1   
 26  12  38  1   
 27  12  39  1   
 28  13  14  1   
 29  13  40  1   
 30  13  41  1   
 31  14  15  1   
 32  15  16  ar  
 33  15  17  ar  
 34  16  18  ar  
 35  17  19  ar  
 36  17  42  1   
 37  18  20  ar  
 38  18  21  1   
 39  19  20  ar  
 40  19  22  1   
 41  20  43  1   
 42  21  23  1   
 43  21  24  1   
 44  22  44  1   
 45  22  45  1   
 46  23  25  1   
 47  23  46  1   
 48  23  47  1   
 49  24  26  1   
 50  24  48  1   
 51  24  49  1   
 52  25  27  1   
 53  25  50  1   
 54  25  51  1   
 55  26  27  1   
 56  26  52  1   
 57  26  53  1   
@<TRIPOS>SUBSTRUCTURE
  1 ****  14 GROUP 4 **** **** 0

# MOE 2024.06 (io_trps.svl 2023.06)
