@<TRIPOS>MOLECULE
NONAME
46 48 1 0 0 
SMALL
USER_CHARGES


@<TRIPOS>ATOM
  1 O        1.4740    -0.2750     1.3560 O.3   1 <1>  -0.3630 
  2 C        0.9980    -1.4360     0.8420 C.ar  1 <1>   0.0830 
  3 C        2.6730     0.2860     0.8520 C.3   1 <1>   0.1200 
  4 C        1.4960    -1.9740    -0.3420 C.ar  1 <1>  -0.1440 
  5 C       -0.0180    -2.0790     1.5260 C.ar  1 <1>  -0.1500 
  6 C        2.7020     0.2020    -0.6810 C.3   1 <1>  -0.0800 
  7 C        0.9670    -3.1620    -0.8220 C.ar  1 <1>  -0.1500 
  8 C        2.6080    -1.2710    -1.1010 C.3   1 <1>  -0.0160 
  9 C       -0.5470    -3.2640     1.0470 C.ar  1 <1>   0.0830 
 10 C        3.9690     0.8400    -1.2650 C.3   1 <1>   0.2090 
 11 C       -0.0480    -3.8070    -0.1350 C.ar  1 <1>  -0.1500 
 12 O       -1.5400    -3.8330     1.7780 O.3   1 <1>  -0.3630 
 13 N        4.0460     2.2770    -0.9050 N.pl3 1 <1>  -0.8690 
 14 C       -2.1500    -5.0380     1.3740 C.3   1 <1>   0.0400 
 15 C        4.8440     2.8160     0.0790 C.ar  1 <1>   0.4100 
 16 N        5.5600     1.9750     0.7960 N.ar  1 <1>  -0.6200 
 17 C        4.8780     4.1860     0.3150 C.ar  1 <1>  -0.1440 
 18 C        6.3060     2.5070     1.7400 C.ar  1 <1>   0.4770 
 19 C        5.6980     4.6090     1.3330 C.ar  1 <1>   0.1600 
 20 C        4.0320     5.1390    -0.5360 C.3   1 <1>  -0.0170 
 21 N        6.4210     3.7810     2.0600 N.ar  1 <1>  -0.6200 
 22 C        7.1240     1.5430     2.5640 C.3   1 <1>  -0.0970 
 23 C        4.1910     6.6280    -0.2090 C.3   1 <1>  -0.2400 
 24 H        3.4990    -0.2530     1.2820 H     1 <1>   0.0800 
 25 H        2.7150     1.3070     1.1860 H     1 <1>   0.0800 
 26 H       -0.3970    -1.6530     2.4360 H     1 <1>   0.1500 
 27 H        1.8470     0.7290    -1.0660 H     1 <1>   0.0800 
 28 H        1.3430    -3.5910    -1.7340 H     1 <1>   0.1500 
 29 H        2.4280    -1.3370    -2.1590 H     1 <1>   0.0800 
 30 H        3.5330    -1.7750    -0.8800 H     1 <1>   0.0800 
 31 H        3.9580     0.7540    -2.3380 H     1 <1>   0.0800 
 32 H        4.8410     0.3190    -0.9060 H     1 <1>   0.0800 
 33 H       -0.4360    -4.7240    -0.5330 H     1 <1>   0.1500 
 34 H        3.3950     2.8950    -1.3900 H     1 <1>   0.4000 
 35 H       -2.9010    -5.2910     2.0990 H     1 <1>   0.0800 
 36 H       -1.4030    -5.8110     1.3360 H     1 <1>   0.0800 
 37 H       -2.6060    -4.8920     0.4110 H     1 <1>   0.0800 
 38 H        5.7820     5.6510     1.5800 H     1 <1>   0.1500 
 39 H        2.9950     4.8740    -0.4160 H     1 <1>   0.0800 
 40 H        4.2910     4.9910    -1.5710 H     1 <1>   0.0800 
 41 H        7.3130     0.6450     2.0070 H     1 <1>   0.0800 
 42 H        6.5840     1.2970     3.4590 H     1 <1>   0.0800 
 43 H        8.0620     1.9930     2.8290 H     1 <1>   0.0800 
 44 H        3.8920     6.8270     0.8060 H     1 <1>   0.0800 
 45 H        3.5690     7.2130    -0.8630 H     1 <1>   0.0800 
 46 H        5.2120     6.9380    -0.3480 H     1 <1>   0.0800 
@<TRIPOS>BOND
  1   1   2  1   
  2   1   3  1   
  3   2   4  ar  
  4   2   5  ar  
  5   3   6  1   
  6   3  24  1   
  7   3  25  1   
  8   4   7  ar  
  9   4   8  1   
 10   5   9  ar  
 11   5  26  1   
 12   6   8  1   
 13   6  10  1   
 14   6  27  1   
 15   7  11  ar  
 16   7  28  1   
 17   8  29  1   
 18   8  30  1   
 19   9  11  ar  
 20   9  12  1   
 21  10  13  1   
 22  10  31  1   
 23  10  32  1   
 24  11  33  1   
 25  12  14  1   
 26  13  15  1   
 27  13  34  1   
 28  14  35  1   
 29  14  36  1   
 30  14  37  1   
 31  15  16  ar  
 32  15  17  ar  
 33  16  18  ar  
 34  17  19  ar  
 35  17  20  1   
 36  18  21  ar  
 37  18  22  1   
 38  19  21  ar  
 39  19  38  1   
 40  20  23  1   
 41  20  39  1   
 42  20  40  1   
 43  22  41  1   
 44  22  42  1   
 45  22  43  1   
 46  23  44  1   
 47  23  45  1   
 48  23  46  1   
@<TRIPOS>SUBSTRUCTURE
  1 ****   3 GROUP 4 **** **** 0

# MOE 2024.06 (io_trps.svl 2023.06)
