@<TRIPOS>MOLECULE
NONAME
26 26 1 0 0 
SMALL
USER_CHARGES


@<TRIPOS>ATOM
  1 N       -0.0770    -0.2640     0.8410 N.1   1 <1>   0.6880 
  2 N       -1.0300    -0.6940     0.1500 N.2   1 <1>  -0.5640 
  3 N        0.8650     0.1500     1.5210 N.1   1 <1>  -0.3700 
  4 C       -1.1480    -2.1110    -0.2110 C.3   1 <1>   0.0860 
  5 C        0.0430    -2.9850     0.2240 C.3   1 <1>  -0.1600 
  6 C       -0.0700    -4.4410    -0.2690 C.3   1 <1>  -0.0800 
  7 C       -1.2750    -5.1750     0.3520 C.3   1 <1>  -0.1600 
  8 C        1.2340    -5.1960     0.0480 C.3   1 <1>  -0.1600 
  9 C       -1.3380    -6.6420    -0.0960 C.3   1 <1>  -0.1600 
 10 C        1.1690    -6.6600    -0.4060 C.3   1 <1>  -0.1600 
 11 C       -0.0310    -7.3790     0.2200 C.3   1 <1>  -0.1600 
 12 H       -1.2540    -2.1720    -1.2810 H     1 <1>   0.0800 
 13 H       -2.0550    -2.4850     0.2290 H     1 <1>   0.0800 
 14 H        0.1210    -2.9860     1.2970 H     1 <1>   0.0800 
 15 H        0.9460    -2.5660    -0.1860 H     1 <1>   0.0800 
 16 H       -0.1940    -4.4300    -1.3400 H     1 <1>   0.0800 
 17 H       -2.1940    -4.6960     0.0660 H     1 <1>   0.0800 
 18 H       -1.2030    -5.1390     1.4260 H     1 <1>   0.0800 
 19 H        1.4170    -5.1660     1.1090 H     1 <1>   0.0800 
 20 H        2.0620    -4.7140    -0.4430 H     1 <1>   0.0800 
 21 H       -1.5210    -6.6830    -1.1560 H     1 <1>   0.0800 
 22 H       -2.1570    -7.1350     0.3990 H     1 <1>   0.0800 
 23 H        2.0770    -7.1650    -0.1260 H     1 <1>   0.0800 
 24 H        1.0870    -6.6970    -1.4790 H     1 <1>   0.0800 
 25 H       -0.0850    -8.3860    -0.1550 H     1 <1>   0.0800 
 26 H        0.1010    -7.4300     1.2870 H     1 <1>   0.0800 
@<TRIPOS>BOND
  1   1   2  2   
  2   1   3  3   
  3   2   4  1   
  4   4   5  1   
  5   4  12  1   
  6   4  13  1   
  7   5   6  1   
  8   5  14  1   
  9   5  15  1   
 10   6   7  1   
 11   6   8  1   
 12   6  16  1   
 13   7   9  1   
 14   7  17  1   
 15   7  18  1   
 16   8  10  1   
 17   8  19  1   
 18   8  20  1   
 19   9  11  1   
 20   9  21  1   
 21   9  22  1   
 22  10  11  1   
 23  10  23  1   
 24  10  24  1   
 25  11  25  1   
 26  11  26  1   
@<TRIPOS>SUBSTRUCTURE
  1 ****   5 GROUP 4 **** **** 0

# MOE 2024.06 (io_trps.svl 2023.06)
