@<TRIPOS>MOLECULE
NONAME
43 44 1 0 0 
SMALL
USER_CHARGES


@<TRIPOS>ATOM
  1 S        0.8120     0.0660     0.4440 S.o2  1 <1>   1.3330 
  2 O        1.0600    -1.3560     0.3540 O.2   1 <1>  -0.6500 
  3 O        0.7360     0.6960     1.7420 O.2   1 <1>  -0.6500 
  4 N       -0.6340     0.3890    -0.3860 N.am  1 <1>  -0.8490 
  5 C        2.0430     0.9360    -0.5230 C.3   1 <1>  -0.0550 
  6 C       -1.8050     0.3050     0.4920 C.3   1 <1>   0.1160 
  7 C       -0.8330    -0.4590    -1.5660 C.3   1 <1>   0.1160 
  8 C        3.4480     0.9010     0.1030 C.3   1 <1>  -0.0800 
  9 C        4.4780     1.6080    -0.7510 C.3   1 <1>   0.2200 
 10 C        4.0530    -0.4930     0.2340 C.3   1 <1>   0.1200 
 11 N        4.4770     3.0620    -0.4870 N.am  1 <1>  -0.7300 
 12 C        5.7820     0.9240    -0.3550 C.3   1 <1>   0.1200 
 13 O        5.4370    -0.3210     0.1790 O.3   1 <1>  -0.5600 
 14 C        3.8290     3.9870    -1.2410 C.2   1 <1>   0.5690 
 15 O        3.1650     3.6610    -2.1960 O.2   1 <1>  -0.5700 
 16 C        3.9130     5.4630    -0.8850 C.3   1 <1>   0.0810 
 17 C        5.1450     5.8060    -0.0650 C.2   1 <1>  -0.0400 
 18 O        5.2500     5.3760     1.1650 O.3   1 <1>  -0.0190 
 19 C        6.2510     6.5100    -0.3510 C.2   1 <1>  -0.1500 
 20 N        6.3730     5.7400     1.7100 N.2   1 <1>  -0.4100 
 21 C        6.9950     6.4300     0.8230 C.2   1 <1>   0.1080 
 22 C        8.3530     7.0620     1.0350 C.3   1 <1>  -0.0590 
 23 H        2.0830     0.5180    -1.5100 H     1 <1>   0.0800 
 24 H        1.7390     1.9610    -0.6190 H     1 <1>   0.0800 
 25 H       -2.7010     0.5330    -0.0580 H     1 <1>   0.0800 
 26 H       -1.7140     1.0170     1.2950 H     1 <1>   0.0800 
 27 H       -1.8870    -0.6830     0.9130 H     1 <1>   0.0800 
 28 H       -1.7200    -0.1540    -2.0940 H     1 <1>   0.0800 
 29 H       -0.9360    -1.4920    -1.2750 H     1 <1>   0.0800 
 30 H        0.0050    -0.3700    -2.2340 H     1 <1>   0.0800 
 31 H        3.4200     1.3420     1.0860 H     1 <1>   0.0800 
 32 H        4.2950     1.4220    -1.7970 H     1 <1>   0.0800 
 33 H        3.7700    -1.1260    -0.5900 H     1 <1>   0.0800 
 34 H        3.7930    -0.9690     1.1650 H     1 <1>   0.0800 
 35 H        5.0010     3.3730     0.3400 H     1 <1>   0.3700 
 36 H        6.2980     1.4730     0.4130 H     1 <1>   0.0800 
 37 H        6.4250     0.7700    -1.2030 H     1 <1>   0.0800 
 38 H        3.9270     6.0290    -1.7970 H     1 <1>   0.0800 
 39 H        3.0310     5.7350    -0.3370 H     1 <1>   0.0800 
 40 H        6.5330     7.0210    -1.2530 H     1 <1>   0.1500 
 41 H        9.0510     6.6790     0.3150 H     1 <1>   0.0800 
 42 H        8.7120     6.8380     2.0230 H     1 <1>   0.0800 
 43 H        8.2790     8.1290     0.9260 H     1 <1>   0.0800 
@<TRIPOS>BOND
  1   1   2  2   
  2   1   3  2   
  3   1   4  am  
  4   1   5  1   
  5   4   6  1   
  6   4   7  1   
  7   5   8  1   
  8   5  23  1   
  9   5  24  1   
 10   6  25  1   
 11   6  26  1   
 12   6  27  1   
 13   7  28  1   
 14   7  29  1   
 15   7  30  1   
 16   8   9  1   
 17   8  10  1   
 18   8  31  1   
 19   9  11  1   
 20   9  12  1   
 21   9  32  1   
 22  10  13  1   
 23  10  33  1   
 24  10  34  1   
 25  11  14  am  
 26  11  35  1   
 27  12  13  1   
 28  12  36  1   
 29  12  37  1   
 30  14  15  2   
 31  14  16  1   
 32  16  17  1   
 33  16  38  1   
 34  16  39  1   
 35  17  18  1   
 36  17  19  2   
 37  18  20  1   
 38  19  21  1   
 39  19  40  1   
 40  20  21  2   
 41  21  22  1   
 42  22  41  1   
 43  22  42  1   
 44  22  43  1   
@<TRIPOS>SUBSTRUCTURE
  1 ****  11 GROUP 4 **** **** 0

# MOE 2024.06 (io_trps.svl 2023.06)
