@<TRIPOS>MOLECULE
NONAME
48 51 1 0 0 
SMALL
USER_CHARGES


@<TRIPOS>ATOM
  1 O       -1.2810     0.9160     2.4860 O.2   1 <1>  -0.5700 
  2 C       -1.5460     1.8220     1.7100 C.2   1 <1>   0.5440 
  3 N       -2.8900     2.0690     1.4550 N.am  1 <1>  -0.6600 
  4 C       -0.4380     2.5910     1.1280 C.ar  1 <1>   0.3960 
  5 C       -3.9370     1.0620     1.7980 C.3   1 <1>   0.1400 
  6 C       -3.3910     3.2650     0.7380 C.3   1 <1>   0.1400 
  7 N       -0.4570     2.9940    -0.1280 N.ar  1 <1>  -0.6200 
  8 C        0.6680     2.8790     1.9610 C.ar  1 <1>  -0.1500 
  9 C       -4.2170     0.1450     0.6010 C.3   1 <1>   0.1400 
 10 C       -3.8840     2.8890    -0.6600 C.3   1 <1>  -0.1600 
 11 C        0.5970     3.6920    -0.6100 C.ar  1 <1>   0.3100 
 12 C        1.7390     3.5840     1.5040 C.ar  1 <1>  -0.1500 
 13 N       -5.1680     0.7040    -0.4190 N.am  1 <1>  -0.6600 
 14 C       -5.2430     2.1810    -0.6490 C.3   1 <1>   0.1400 
 15 C        1.7240     4.0210     0.1720 C.ar  1 <1>   0.0000 
 16 C        0.5700     4.1150    -1.9490 C.ar  1 <1>  -0.1500 
 17 C       -6.0350    -0.1400    -1.1040 C.2   1 <1>   0.7160 
 18 C        2.7730     4.7590    -0.4090 C.ar  1 <1>  -0.1500 
 19 C        1.5990     4.8320    -2.4980 C.ar  1 <1>  -0.1500 
 20 O       -7.0070     0.3690    -1.6440 O.2   1 <1>  -0.5700 
 21 C       -5.8510    -1.5920    -1.1830 C.2   1 <1>   0.1410 
 22 C        2.7130     5.1590    -1.7170 C.ar  1 <1>  -0.1500 
 23 N       -4.6230    -2.2010    -1.2330 N.2   1 <1>  -0.5650 
 24 C       -6.8110    -2.5720    -1.2400 C.2   1 <1>  -0.3320 
 25 C       -4.8690    -3.4620    -1.3230 C.2   1 <1>   0.0360 
 26 N       -6.1830    -3.7510    -1.3330 N.pl3 1 <1>   0.0330 
 27 C       -8.3290    -2.4680    -1.2160 C.3   1 <1>  -0.0600 
 28 H       -4.8420     1.5470     2.1180 H     1 <1>   0.0800 
 29 H       -3.5940     0.4540     2.6160 H     1 <1>   0.0800 
 30 H       -2.6150     4.0050     0.6600 H     1 <1>   0.0800 
 31 H       -4.1910     3.7090     1.3050 H     1 <1>   0.0800 
 32 H        0.6410     2.5200     2.9750 H     1 <1>   0.1500 
 33 H       -4.6330    -0.7650     0.9930 H     1 <1>   0.0800 
 34 H       -3.2870    -0.1090     0.1200 H     1 <1>   0.0800 
 35 H       -3.1490     2.3040    -1.1860 H     1 <1>   0.0800 
 36 H       -4.0070     3.8070    -1.2060 H     1 <1>   0.0800 
 37 H        2.5830     3.8080     2.1320 H     1 <1>   0.1500 
 38 H       -5.7000     2.3570    -1.6080 H     1 <1>   0.0800 
 39 H       -5.8870     2.6200     0.0940 H     1 <1>   0.0800 
 40 H       -0.2930     3.8530    -2.5340 H     1 <1>   0.1500 
 41 H        3.6280     5.0060     0.1950 H     1 <1>   0.1500 
 42 H        1.5650     5.1500    -3.5260 H     1 <1>   0.1500 
 43 H        3.5160     5.7230    -2.1600 H     1 <1>   0.1500 
 44 H       -4.1140    -4.2260    -1.3860 H     1 <1>   0.1500 
 45 H       -6.6040    -4.6820    -1.4030 H     1 <1>   0.2700 
 46 H       -8.6440    -1.4610    -1.0140 H     1 <1>   0.0800 
 47 H       -8.7340    -3.1050    -0.4500 H     1 <1>   0.0800 
 48 H       -8.7330    -2.7630    -2.1680 H     1 <1>   0.0800 
@<TRIPOS>BOND
  1   1   2  2   
  2   2   3  am  
  3   2   4  1   
  4   3   5  1   
  5   3   6  1   
  6   4   7  ar  
  7   4   8  ar  
  8   5   9  1   
  9   5  28  1   
 10   5  29  1   
 11   6  10  1   
 12   6  30  1   
 13   6  31  1   
 14   7  11  ar  
 15   8  12  ar  
 16   8  32  1   
 17   9  13  1   
 18   9  33  1   
 19   9  34  1   
 20  10  14  1   
 21  10  35  1   
 22  10  36  1   
 23  11  15  ar  
 24  11  16  ar  
 25  12  15  ar  
 26  12  37  1   
 27  13  14  1   
 28  13  17  am  
 29  14  38  1   
 30  14  39  1   
 31  15  18  ar  
 32  16  19  ar  
 33  16  40  1   
 34  17  20  2   
 35  17  21  1   
 36  18  22  ar  
 37  18  41  1   
 38  19  22  ar  
 39  19  42  1   
 40  21  23  1   
 41  21  24  2   
 42  22  43  1   
 43  23  25  2   
 44  24  26  1   
 45  24  27  1   
 46  25  26  1   
 47  25  44  1   
 48  26  45  1   
 49  27  46  1   
 50  27  47  1   
 51  27  48  1   
@<TRIPOS>SUBSTRUCTURE
  1 ****   3 GROUP 4 **** **** 0

# MOE 2024.06 (io_trps.svl 2023.06)
