@<TRIPOS>MOLECULE
NONAME
48 51 1 0 0 
SMALL
USER_CHARGES


@<TRIPOS>ATOM
  1 F       -1.0810    -0.5750     0.4660 F     1 <1>  -0.1900 
  2 C       -2.2730    -0.0370     0.4280 C.ar  1 <1>   0.1900 
  3 C       -2.4700     1.3120     0.1120 C.ar  1 <1>   0.0830 
  4 C       -3.3330    -0.8730     0.7220 C.ar  1 <1>  -0.1500 
  5 O       -1.5100     2.2320    -0.1930 O.3   1 <1>  -0.3630 
  6 C       -3.7710     1.7860     0.1030 C.ar  1 <1>  -0.1500 
  7 C       -4.6190    -0.3660     0.7040 C.ar  1 <1>  -0.1500 
  8 C       -0.1400     1.9120    -0.2910 C.3   1 <1>   0.0400 
  9 C       -4.8690     0.9720     0.3920 C.ar  1 <1>   0.0530 
 10 C       -6.2080     1.5120     0.3780 C.2   1 <1>   0.0870 
 11 O       -6.4070     2.7560     0.7300 O.3   1 <1>  -0.0190 
 12 C       -7.4250     0.9850     0.0720 C.2   1 <1>  -0.0860 
 13 N       -7.6650     3.1020     0.6920 N.2   1 <1>  -0.4100 
 14 C       -8.3000     2.0540     0.2970 C.2   1 <1>   0.3720 
 15 C       -7.7450    -0.3270    -0.4020 C.2   1 <1>   0.7160 
 16 N       -9.6900     2.0410     0.1290 N.pl3 1 <1>  -0.8210 
 17 O       -7.0110    -0.8740    -1.2080 O.2   1 <1>  -0.5700 
 18 N       -8.8370    -1.0200     0.0610 N.am  1 <1>  -0.6600 
 19 C      -10.4100     1.8720     1.4170 C.3   1 <1>   0.1290 
 20 C      -10.2140     3.1950    -0.6500 C.3   1 <1>   0.1290 
 21 C       -8.8550    -2.4300     0.2650 C.3   1 <1>   0.2200 
 22 C      -10.1410    -1.0860    -0.7650 C.3   1 <1>   0.1400 
 23 C      -10.2130    -2.2930     1.0460 C.3   1 <1>  -0.1600 
 24 C       -8.9110    -3.9160     0.3750 C.3   1 <1>  -0.1600 
 25 C      -10.8640    -2.4150    -0.2420 C.3   1 <1>  -0.0800 
 26 C      -10.2810    -3.8950    -0.4430 C.3   1 <1>  -0.1600 
 27 H       -3.1520    -1.9050     0.9590 H     1 <1>   0.1500 
 28 H       -3.9350     2.8210    -0.1390 H     1 <1>   0.1500 
 29 H       -5.4410    -1.0200     0.9370 H     1 <1>   0.1500 
 30 H        0.3920     2.8010    -0.5750 H     1 <1>   0.0800 
 31 H       -0.0100     1.1540    -1.0430 H     1 <1>   0.0800 
 32 H        0.2090     1.5700     0.6670 H     1 <1>   0.0800 
 33 H      -11.4520     1.6780     1.2340 H     1 <1>   0.0800 
 34 H      -10.3120     2.7630     2.0150 H     1 <1>   0.0800 
 35 H       -9.9930     1.0420     1.9610 H     1 <1>   0.0800 
 36 H      -11.2350     3.0110    -0.9360 H     1 <1>   0.0800 
 37 H       -9.6240     3.3300    -1.5400 H     1 <1>   0.0800 
 38 H      -10.1640     4.0950    -0.0620 H     1 <1>   0.0800 
 39 H       -8.5710    -2.5910    -0.7780 H     1 <1>   0.0800 
 40 H      -10.7460    -0.2190    -0.5640 H     1 <1>   0.0800 
 41 H       -9.9310    -1.1360    -1.8210 H     1 <1>   0.0800 
 42 H      -10.5360    -3.0500     1.7490 H     1 <1>   0.0800 
 43 H      -10.4200    -1.3640     1.5680 H     1 <1>   0.0800 
 44 H       -8.1240    -4.4120    -0.1690 H     1 <1>   0.0800 
 45 H       -8.9540    -4.3160     1.3760 H     1 <1>   0.0800 
 46 H      -11.9380    -2.3540    -0.2070 H     1 <1>   0.0800 
 47 H      -10.9570    -4.6390    -0.0580 H     1 <1>   0.0800 
 48 H      -10.1190    -4.0880    -1.4910 H     1 <1>   0.0800 
@<TRIPOS>BOND
  1   1   2  1   
  2   2   3  ar  
  3   2   4  ar  
  4   3   5  1   
  5   3   6  ar  
  6   4   7  ar  
  7   4  27  1   
  8   5   8  1   
  9   6   9  ar  
 10   6  28  1   
 11   7   9  ar  
 12   7  29  1   
 13   8  30  1   
 14   8  31  1   
 15   8  32  1   
 16   9  10  1   
 17  10  11  1   
 18  10  12  2   
 19  11  13  1   
 20  12  14  1   
 21  12  15  1   
 22  13  14  2   
 23  14  16  1   
 24  15  17  2   
 25  15  18  am  
 26  16  19  1   
 27  16  20  1   
 28  18  21  1   
 29  18  22  1   
 30  19  33  1   
 31  19  34  1   
 32  19  35  1   
 33  20  36  1   
 34  20  37  1   
 35  20  38  1   
 36  21  23  1   
 37  21  24  1   
 38  21  39  1   
 39  22  25  1   
 40  22  40  1   
 41  22  41  1   
 42  23  25  1   
 43  23  42  1   
 44  23  43  1   
 45  24  26  1   
 46  24  44  1   
 47  24  45  1   
 48  25  26  1   
 49  25  46  1   
 50  26  47  1   
 51  26  48  1   
@<TRIPOS>SUBSTRUCTURE
  1 ****  12 GROUP 4 **** **** 0

# MOE 2024.06 (io_trps.svl 2023.06)
