@<TRIPOS>MOLECULE
NONAME
50 51 1 0 0 
SMALL
USER_CHARGES


@<TRIPOS>ATOM
  1 O       -3.1610    -1.7390     0.2650 O.2   1 <1>  -0.5700 
  2 C       -2.4800    -0.8040    -0.0800 C.2   1 <1>   0.5690 
  3 N       -1.5290    -0.9350    -1.0420 N.am  1 <1>  -0.7300 
  4 C       -2.7130     0.5610     0.5630 C.3   1 <1>  -0.0190 
  5 C       -1.1490    -2.2040    -1.7090 C.3   1 <1>   0.1400 
  6 C       -3.1240     1.6230    -0.4760 C.3   1 <1>  -0.1600 
  7 C       -1.4940     1.0250     1.3980 C.3   1 <1>  -0.1600 
  8 C       -2.1650    -2.5630    -2.7980 C.3   1 <1>  -0.0990 
  9 C       -3.5080     2.9650     0.1830 C.3   1 <1>   0.2000 
 10 C       -1.4350     2.5500     1.6150 C.3   1 <1>  -0.1600 
 11 C       -2.8260    -3.8950    -2.5200 C.2   1 <1>   0.5690 
 12 O       -3.1210     3.9950    -0.6920 O.3   1 <1>  -0.5600 
 13 C       -2.8280     3.1830     1.5600 C.3   1 <1>   0.2000 
 14 O       -2.6340    -4.7950    -3.3000 O.2   1 <1>  -0.5700 
 15 N       -3.5920    -3.9990    -1.3940 N.am  1 <1>  -0.5470 
 16 C       -4.0370     4.2900    -1.7010 C.3   1 <1>   0.0400 
 17 O       -2.6910     4.5360     1.7910 O.3   1 <1>  -0.6800 
 18 C       -4.3360    -5.0560    -0.8520 C.ar  1 <1>   0.1170 
 19 C       -4.7670    -4.9430     0.4640 C.ar  1 <1>  -0.1500 
 20 C       -4.6750    -6.2040    -1.5620 C.ar  1 <1>  -0.1500 
 21 C       -5.5110    -5.9430     1.0680 C.ar  1 <1>  -0.1440 
 22 C       -5.4180    -7.2070    -0.9690 C.ar  1 <1>  -0.1500 
 23 C       -5.8360    -7.0780     0.3440 C.ar  1 <1>  -0.1500 
 24 C       -5.9710    -5.8020     2.5070 C.3   1 <1>  -0.0970 
 25 H       -0.9910    -0.1110    -1.3160 H     1 <1>   0.3700 
 26 H       -3.5440     0.4430     1.2390 H     1 <1>   0.0800 
 27 H       -0.1700    -2.0940    -2.1460 H     1 <1>   0.0800 
 28 H       -1.0900    -2.9880    -0.9700 H     1 <1>   0.0800 
 29 H       -3.9600     1.2600    -1.0470 H     1 <1>   0.0800 
 30 H       -2.2990     1.7840    -1.1480 H     1 <1>   0.0800 
 31 H       -1.5360     0.5310     2.3540 H     1 <1>   0.0800 
 32 H       -0.5760     0.7190     0.9270 H     1 <1>   0.0800 
 33 H       -1.6560    -2.6310    -3.7420 H     1 <1>   0.0800 
 34 H       -2.9270    -1.8120    -2.8880 H     1 <1>   0.0800 
 35 H       -4.5730     3.0150     0.3340 H     1 <1>   0.0800 
 36 H       -0.8310     2.9920     0.8410 H     1 <1>   0.0800 
 37 H       -0.9740     2.7620     2.5650 H     1 <1>   0.0800 
 38 H       -3.4370     2.7740     2.3480 H     1 <1>   0.0800 
 39 H       -3.5570    -3.1700    -0.7850 H     1 <1>   0.3700 
 40 H       -3.6290     5.0830    -2.3020 H     1 <1>   0.0800 
 41 H       -4.9620     4.6150    -1.2560 H     1 <1>   0.0800 
 42 H       -4.1940     3.4190    -2.3120 H     1 <1>   0.0800 
 43 H       -2.5760     4.9500     0.9060 H     1 <1>   0.4000 
 44 H       -4.5130    -4.0570     1.0190 H     1 <1>   0.1500 
 45 H       -4.3630    -6.3180    -2.5830 H     1 <1>   0.1500 
 46 H       -5.6710    -8.0890    -1.5300 H     1 <1>   0.1500 
 47 H       -6.4140    -7.8630     0.7990 H     1 <1>   0.1500 
 48 H       -5.8690    -6.7390     3.0230 H     1 <1>   0.0800 
 49 H       -7.0020    -5.5010     2.5310 H     1 <1>   0.0800 
 50 H       -5.3820    -5.0650     3.0240 H     1 <1>   0.0800 
@<TRIPOS>BOND
  1   1   2  2   
  2   2   3  am  
  3   2   4  1   
  4   3   5  1   
  5   3  25  1   
  6   4   6  1   
  7   4   7  1   
  8   4  26  1   
  9   5   8  1   
 10   5  27  1   
 11   5  28  1   
 12   6   9  1   
 13   6  29  1   
 14   6  30  1   
 15   7  10  1   
 16   7  31  1   
 17   7  32  1   
 18   8  11  1   
 19   8  33  1   
 20   8  34  1   
 21   9  12  1   
 22   9  13  1   
 23   9  35  1   
 24  10  13  1   
 25  10  36  1   
 26  10  37  1   
 27  11  14  2   
 28  11  15  am  
 29  12  16  1   
 30  13  17  1   
 31  13  38  1   
 32  15  18  1   
 33  15  39  1   
 34  16  40  1   
 35  16  41  1   
 36  16  42  1   
 37  17  43  1   
 38  18  19  ar  
 39  18  20  ar  
 40  19  21  ar  
 41  19  44  1   
 42  20  22  ar  
 43  20  45  1   
 44  21  23  ar  
 45  21  24  1   
 46  22  23  ar  
 47  22  46  1   
 48  23  47  1   
 49  24  48  1   
 50  24  49  1   
 51  24  50  1   
@<TRIPOS>SUBSTRUCTURE
  1 ****   1 GROUP 4 **** **** 0

# MOE 2024.06 (io_trps.svl 2023.06)
