@<TRIPOS>MOLECULE
NONAME
49 51 1 0 0 
SMALL
USER_CHARGES


@<TRIPOS>ATOM
  1 O        1.3120    -0.7670    -1.9820 O.2   1 <1>  -0.5700 
  2 C        1.0820    -1.4850    -1.0400 C.2   1 <1>   0.5690 
  3 N        2.0210    -1.9860    -0.2130 N.am  1 <1>  -0.6600 
  4 C       -0.3010    -1.8760    -0.6060 C.3   1 <1>  -0.0990 
  5 C        1.4370    -2.6960     0.9380 C.3   1 <1>   0.1400 
  6 C        3.4860    -1.6890    -0.2860 C.3   1 <1>   0.2010 
  7 C       -0.0600    -2.8130     0.5940 C.3   1 <1>   0.0640 
  8 C        3.8290    -0.2600     0.1310 C.2   1 <1>   0.5690 
  9 C       -0.4380    -4.2550     0.2570 C.ar  1 <1>  -0.1440 
 10 O        4.5550    -0.0960     1.0850 O.2   1 <1>  -0.5700 
 11 N        3.2870     0.7650    -0.5960 N.am  1 <1>  -0.4940 
 12 C        0.1970    -4.9400    -0.7700 C.ar  1 <1>  -0.1500 
 13 C       -1.4290    -4.8990     0.9830 C.ar  1 <1>  -0.1500 
 14 C        3.3200     2.1690    -0.4150 C.2   1 <1>  -0.0880 
 15 C       -0.1510    -6.2460    -1.0650 C.ar  1 <1>  -0.1500 
 16 C       -1.7790    -6.2060     0.6890 C.ar  1 <1>  -0.1500 
 17 N        4.3340     2.9470     0.0650 N.pl3 1 <1>   0.3140 
 18 C        2.3040     3.0110    -0.7110 C.2   1 <1>  -0.1500 
 19 C       -1.1400    -6.8810    -0.3350 C.ar  1 <1>  -0.1500 
 20 N        3.9650     4.2550     0.0960 N.2   1 <1>  -0.7070 
 21 C        5.7020     2.5130     0.4500 C.3   1 <1>   0.0960 
 22 C        2.7600     4.2750    -0.3700 C.2   1 <1>   0.1080 
 23 C        6.7780     3.5770     0.1680 C.3   1 <1>  -0.1600 
 24 C        1.9730     5.5570    -0.5100 C.3   1 <1>  -0.0590 
 25 C        8.1800     3.0520     0.4960 C.3   1 <1>  -0.2400 
 26 H       -0.8250    -2.3610    -1.4090 H     1 <1>   0.0800 
 27 H       -0.8360    -0.9950    -0.3040 H     1 <1>   0.0800 
 28 H        1.5790    -2.1120     1.8320 H     1 <1>   0.0800 
 29 H        1.8930    -3.6650     1.0620 H     1 <1>   0.0800 
 30 H        3.8200    -1.8360    -1.2970 H     1 <1>   0.0800 
 31 H        4.0230    -2.3760     0.3440 H     1 <1>   0.0800 
 32 H       -0.6400    -2.4810     1.4370 H     1 <1>   0.0800 
 33 H        2.5910     0.4410    -1.2870 H     1 <1>   0.3700 
 34 H        0.9680    -4.4620    -1.3500 H     1 <1>   0.1500 
 35 H       -1.9390    -4.3920     1.7830 H     1 <1>   0.1500 
 36 H        0.3460    -6.7690    -1.8640 H     1 <1>   0.1500 
 37 H       -2.5490    -6.6990     1.2570 H     1 <1>   0.1500 
 38 H        1.3400     2.7710    -1.1190 H     1 <1>   0.1500 
 39 H       -1.4120    -7.8970    -0.5640 H     1 <1>   0.1500 
 40 H        5.9380     1.6270    -0.1060 H     1 <1>   0.0800 
 41 H        5.6890     2.2690     1.4950 H     1 <1>   0.0800 
 42 H        6.5800     4.4510     0.7650 H     1 <1>   0.0800 
 43 H        6.7350     3.8590    -0.8700 H     1 <1>   0.0800 
 44 H        0.9960     5.3570    -0.9110 H     1 <1>   0.0800 
 45 H        2.4960     6.2260    -1.1670 H     1 <1>   0.0800 
 46 H        1.8720     6.0210     0.4540 H     1 <1>   0.0800 
 47 H        8.2450     2.7790     1.5340 H     1 <1>   0.0800 
 48 H        8.9130     3.8140     0.2960 H     1 <1>   0.0800 
 49 H        8.4110     2.1900    -0.1060 H     1 <1>   0.0800 
@<TRIPOS>BOND
  1   1   2  2   
  2   2   3  am  
  3   2   4  1   
  4   3   5  1   
  5   3   6  1   
  6   4   7  1   
  7   4  26  1   
  8   4  27  1   
  9   5   7  1   
 10   5  28  1   
 11   5  29  1   
 12   6   8  1   
 13   6  30  1   
 14   6  31  1   
 15   7   9  1   
 16   7  32  1   
 17   8  10  2   
 18   8  11  am  
 19   9  12  ar  
 20   9  13  ar  
 21  11  14  1   
 22  11  33  1   
 23  12  15  ar  
 24  12  34  1   
 25  13  16  ar  
 26  13  35  1   
 27  14  17  1   
 28  14  18  2   
 29  15  19  ar  
 30  15  36  1   
 31  16  19  ar  
 32  16  37  1   
 33  17  20  1   
 34  17  21  1   
 35  18  22  1   
 36  18  38  1   
 37  19  39  1   
 38  20  22  2   
 39  21  23  1   
 40  21  40  1   
 41  21  41  1   
 42  22  24  1   
 43  23  25  1   
 44  23  42  1   
 45  23  43  1   
 46  24  44  1   
 47  24  45  1   
 48  24  46  1   
 49  25  47  1   
 50  25  48  1   
 51  25  49  1   
@<TRIPOS>SUBSTRUCTURE
  1 ****   3 GROUP 4 **** **** 0

# MOE 2024.06 (io_trps.svl 2023.06)
