@<TRIPOS>MOLECULE
NONAME
47 49 1 0 0 
SMALL
USER_CHARGES


@<TRIPOS>ATOM
  1 O       -1.1670    -0.2350     0.3490 O.2   1 <1>  -0.5700 
  2 C       -1.7870     0.5950    -0.2970 C.2   1 <1>   0.7150 
  3 N       -2.9940     0.2000    -0.8300 N.am  1 <1>  -0.6600 
  4 C       -1.3110     1.9440    -0.4710 C.2   1 <1>  -0.2370 
  5 C       -3.2450    -1.2390    -1.0660 C.3   1 <1>   0.1400 
  6 C       -4.2330     0.9660    -0.5100 C.3   1 <1>   0.1400 
  7 N       -0.3480     2.5500     0.3030 N.pl3 1 <1>   0.0480 
  8 C       -1.7050     2.8570    -1.4180 C.2   1 <1>  -0.1500 
  9 C       -4.0090    -1.7030     0.1810 C.3   1 <1>   0.4230 
 10 C       -5.1000     0.2130     0.5370 C.3   1 <1>  -0.1600 
 11 C       -0.1690     3.8110    -0.1590 C.2   1 <1>  -0.3020 
 12 C        0.3940     1.9760     1.4420 C.3   1 <1>   0.0160 
 13 C       -0.9890     4.0320    -1.2180 C.2   1 <1>  -0.1500 
 14 N       -3.6620    -3.0630     0.7300 N.4   1 <1>  -0.9590 
 15 C       -5.5460    -1.2770     0.0680 C.3   1 <1>   0.0000 
 16 C       -3.8790    -4.1580    -0.2250 C.3   1 <1>   0.3430 
 17 C       -2.2690    -3.0730     1.2810 C.3   1 <1>   0.2630 
 18 C       -6.0120    -2.7280    -0.4720 C.3   1 <1>  -0.1600 
 19 C       -7.0790    -0.8060     0.0440 C.3   1 <1>   0.1200 
 20 C       -5.0700    -3.7950    -1.0890 C.3   1 <1>  -0.1600 
 21 O       -7.5340    -0.7800     1.3610 O.3   1 <1>  -0.6800 
 22 H       -3.8330    -1.3560    -1.9590 H     1 <1>   0.0800 
 23 H       -2.3140    -1.7650    -1.1830 H     1 <1>   0.0800 
 24 H       -3.9740     1.9380    -0.1230 H     1 <1>   0.0800 
 25 H       -4.7960     1.1150    -1.4170 H     1 <1>   0.0800 
 26 H       -2.4340     2.7130    -2.1960 H     1 <1>   0.1500 
 27 H       -3.5490    -1.1010     0.9410 H     1 <1>   0.0800 
 28 H       -4.5980     0.2060     1.4920 H     1 <1>   0.0800 
 29 H       -5.8680     0.9340     0.7680 H     1 <1>   0.0800 
 30 H        0.5350     4.4960     0.2810 H     1 <1>   0.1500 
 31 H        1.0300     2.7260     1.8760 H     1 <1>   0.0800 
 32 H        0.9950     1.1560     1.0950 H     1 <1>   0.0800 
 33 H       -0.3020     1.6260     2.1810 H     1 <1>   0.0800 
 34 H       -1.0800     4.9300    -1.8050 H     1 <1>   0.1500 
 35 H       -4.3210    -3.2040     1.5090 H     1 <1>   0.4500 
 36 H       -3.0100    -4.2990    -0.8480 H     1 <1>   0.0800 
 37 H       -4.0720    -5.0750     0.3100 H     1 <1>   0.0800 
 38 H       -1.5500    -2.9050     0.4950 H     1 <1>   0.0800 
 39 H       -2.0550    -4.0180     1.7520 H     1 <1>   0.0800 
 40 H       -2.1510    -2.2890     2.0120 H     1 <1>   0.0800 
 41 H       -6.5630    -3.2180     0.3180 H     1 <1>   0.0800 
 42 H       -6.6760    -2.6290    -1.3170 H     1 <1>   0.0800 
 43 H       -7.8210    -1.3980    -0.4650 H     1 <1>   0.0800 
 44 H       -7.2270     0.1640    -0.4040 H     1 <1>   0.0800 
 45 H       -4.7090    -3.4530    -2.0430 H     1 <1>   0.0800 
 46 H       -5.6280    -4.6940    -1.2900 H     1 <1>   0.0800 
 47 H       -8.4660    -0.4790     1.4080 H     1 <1>   0.4000 
@<TRIPOS>BOND
  1   1   2  2   
  2   2   3  am  
  3   2   4  1   
  4   3   5  1   
  5   3   6  1   
  6   4   7  1   
  7   4   8  2   
  8   5   9  1   
  9   5  22  1   
 10   5  23  1   
 11   6  10  1   
 12   6  24  1   
 13   6  25  1   
 14   7  11  1   
 15   7  12  1   
 16   8  13  1   
 17   8  26  1   
 18   9  14  1   
 19   9  15  1   
 20   9  27  1   
 21  10  15  1   
 22  10  28  1   
 23  10  29  1   
 24  11  13  2   
 25  11  30  1   
 26  12  31  1   
 27  12  32  1   
 28  12  33  1   
 29  13  34  1   
 30  14  16  1   
 31  14  17  1   
 32  14  35  1   
 33  15  18  1   
 34  15  19  1   
 35  16  20  1   
 36  16  36  1   
 37  16  37  1   
 38  17  38  1   
 39  17  39  1   
 40  17  40  1   
 41  18  20  1   
 42  18  41  1   
 43  18  42  1   
 44  19  21  1   
 45  19  43  1   
 46  19  44  1   
 47  20  45  1   
 48  20  46  1   
 49  21  47  1   
@<TRIPOS>SUBSTRUCTURE
  1 ****   3 GROUP 4 **** **** 0

# MOE 2024.06 (io_trps.svl 2023.06)
