@<TRIPOS>MOLECULE
NONAME
54 56 1 0 0 
SMALL
USER_CHARGES


@<TRIPOS>ATOM
  1 S        0.4300     0.5370     1.5890 S.o2  1 <1>   1.4470 
  2 O        0.0560    -0.0620     2.8530 O.2   1 <1>  -0.6500 
  3 O        0.6860     1.9620     1.5430 O.2   1 <1>  -0.6500 
  4 N       -0.8490     0.2580     0.5100 N.am  1 <1>  -0.8490 
  5 C        1.8090    -0.4200     0.8740 C.ar  1 <1>  -0.0090 
  6 C       -2.1470     0.6100     1.1050 C.3   1 <1>   0.1960 
  7 C       -0.6670     0.9770    -0.7560 C.3   1 <1>   0.1960 
  8 C        3.1520    -0.0620     1.0220 C.ar  1 <1>  -0.1440 
  9 C        1.5240    -1.5820     0.1650 C.ar  1 <1>  -0.1500 
 10 C       -3.3140     0.1490     0.2100 C.3   1 <1>   0.0000 
 11 C       -1.7380     0.5500    -1.7640 C.3   1 <1>  -0.1600 
 12 C        4.1490    -0.8310     0.4400 C.ar  1 <1>  -0.1500 
 13 C        3.5710     1.1670     1.8190 C.3   1 <1>  -0.0970 
 14 C        2.5210    -2.3560    -0.4180 C.ar  1 <1>   0.0830 
 15 C       -4.6610     0.4980     0.8690 C.3   1 <1>   0.2000 
 16 C       -3.1540     0.7680    -1.2050 C.3   1 <1>  -0.1600 
 17 C       -3.4130    -1.3860     0.1250 C.3   1 <1>  -0.1600 
 18 C        3.8470    -1.9710    -0.2820 C.ar  1 <1>  -0.1430 
 19 O        2.2570    -3.4860    -1.1260 O.3   1 <1>  -0.3630 
 20 O       -5.0080     1.8340     0.6630 O.3   1 <1>  -0.5600 
 21 C       -5.6810    -0.4550     0.2430 C.3   1 <1>  -0.1600 
 22 C       -4.8820    -1.6940    -0.1880 C.3   1 <1>  -0.1600 
 23 C        4.9630    -2.7920    -0.9110 C.3   1 <1>  -0.0970 
 24 C        0.9460    -3.9880    -1.2680 C.3   1 <1>   0.0400 
 25 C       -6.0470     2.3040     1.4620 C.3   1 <1>   0.0400 
 26 H       -2.2460     0.1390     2.0680 H     1 <1>   0.0800 
 27 H       -2.2030     1.6770     1.2530 H     1 <1>   0.0800 
 28 H       -0.7300     2.0400    -0.5880 H     1 <1>   0.0800 
 29 H        0.3050     0.7590    -1.1660 H     1 <1>   0.0800 
 30 H        0.4960    -1.8760     0.0760 H     1 <1>   0.1500 
 31 H       -1.6210     1.1240    -2.6660 H     1 <1>   0.0800 
 32 H       -1.5870    -0.4830    -2.0190 H     1 <1>   0.0800 
 33 H        5.1790    -0.5390     0.5530 H     1 <1>   0.1500 
 34 H        4.6310     1.1670     2.0030 H     1 <1>   0.0800 
 35 H        3.0730     1.1870     2.7730 H     1 <1>   0.0800 
 36 H        3.3230     2.0620     1.2770 H     1 <1>   0.0800 
 37 H       -4.5940     0.3140     1.9290 H     1 <1>   0.0800 
 38 H       -3.8830     0.3660    -1.8850 H     1 <1>   0.0800 
 39 H       -3.3210     1.8300    -1.1470 H     1 <1>   0.0800 
 40 H       -2.7490    -1.8130    -0.6040 H     1 <1>   0.0800 
 41 H       -3.1680    -1.8110     1.0840 H     1 <1>   0.0800 
 42 H       -6.4460    -0.7170     0.9520 H     1 <1>   0.0800 
 43 H       -6.1280     0.0030    -0.6220 H     1 <1>   0.0800 
 44 H       -5.2070    -2.5750     0.3380 H     1 <1>   0.0800 
 45 H       -5.0080    -1.8550    -1.2450 H     1 <1>   0.0800 
 46 H        5.9260    -2.3550    -0.7200 H     1 <1>   0.0800 
 47 H        4.8170    -2.8500    -1.9740 H     1 <1>   0.0800 
 48 H        4.9520    -3.7890    -0.5070 H     1 <1>   0.0800 
 49 H        0.9970    -4.8940    -1.8450 H     1 <1>   0.0800 
 50 H        0.3470    -3.2590    -1.7840 H     1 <1>   0.0800 
 51 H        0.5450    -4.1970    -0.2920 H     1 <1>   0.0800 
 52 H       -6.2020     3.3430     1.2300 H     1 <1>   0.0800 
 53 H       -5.7730     2.2020     2.4980 H     1 <1>   0.0800 
 54 H       -6.9440     1.7500     1.2490 H     1 <1>   0.0800 
@<TRIPOS>BOND
  1   1   2  2   
  2   1   3  2   
  3   1   4  am  
  4   1   5  1   
  5   4   6  1   
  6   4   7  1   
  7   5   8  ar  
  8   5   9  ar  
  9   6  10  1   
 10   6  26  1   
 11   6  27  1   
 12   7  11  1   
 13   7  28  1   
 14   7  29  1   
 15   8  12  ar  
 16   8  13  1   
 17   9  14  ar  
 18   9  30  1   
 19  10  15  1   
 20  10  16  1   
 21  10  17  1   
 22  11  16  1   
 23  11  31  1   
 24  11  32  1   
 25  12  18  ar  
 26  12  33  1   
 27  13  34  1   
 28  13  35  1   
 29  13  36  1   
 30  14  18  ar  
 31  14  19  1   
 32  15  20  1   
 33  15  21  1   
 34  15  37  1   
 35  16  38  1   
 36  16  39  1   
 37  17  22  1   
 38  17  40  1   
 39  17  41  1   
 40  18  23  1   
 41  19  24  1   
 42  20  25  1   
 43  21  22  1   
 44  21  42  1   
 45  21  43  1   
 46  22  44  1   
 47  22  45  1   
 48  23  46  1   
 49  23  47  1   
 50  23  48  1   
 51  24  49  1   
 52  24  50  1   
 53  24  51  1   
 54  25  52  1   
 55  25  53  1   
 56  25  54  1   
@<TRIPOS>SUBSTRUCTURE
  1 ****   4 GROUP 4 **** **** 0

# MOE 2024.06 (io_trps.svl 2023.06)
