@<TRIPOS>MOLECULE
NONAME
56 60 1 0 0 
SMALL
USER_CHARGES


@<TRIPOS>ATOM
  1 O        0.5850     0.9760    -2.2190 O.2   1 <1>  -0.5700 
  2 C       -0.0270     1.8510    -1.6300 C.2   1 <1>   0.5440 
  3 N       -1.3960     1.7190    -1.5010 N.am  1 <1>  -0.6600 
  4 C        0.6750     2.9970    -1.1010 C.ar  1 <1>   0.0860 
  5 C       -2.3340     2.8500    -1.2190 C.3   1 <1>   0.1400 
  6 C       -2.0500     0.3930    -1.7030 C.3   1 <1>   0.1400 
  7 C        1.3920     2.9400     0.1100 C.ar  1 <1>   0.1000 
  8 C        0.6390     4.2080    -1.7940 C.ar  1 <1>  -0.1500 
  9 C       -3.1410     2.6140     0.0770 C.3   1 <1>   0.1440 
 10 C       -3.4280     0.3200    -1.0190 C.3   1 <1>  -0.1600 
 11 N        1.5800     1.7760     0.8530 N.pl3 1 <1>  -0.8380 
 12 C        1.9860     4.0990     0.5980 C.ar  1 <1>  -0.1500 
 13 C        1.2420     5.3470    -1.2980 C.ar  1 <1>  -0.1500 
 14 C       -4.4050     3.4550    -0.0110 C.ar  1 <1>   0.1670 
 15 C       -3.4490     1.1090     0.3020 C.3   1 <1>  -0.1600 
 16 C       -2.4220     3.2380     1.3040 C.3   1 <1>  -0.1600 
 17 C        2.4830     0.7240     0.2800 C.3   1 <1>   0.2090 
 18 C        0.4600     1.2300     1.6710 C.3   1 <1>   0.2090 
 19 C        1.9130     5.2930    -0.0890 C.ar  1 <1>  -0.1500 
 20 N       -5.4460     3.1910    -0.7650 N.ar  1 <1>  -0.6200 
 21 C       -4.3350     4.5580     0.7890 C.ar  1 <1>  -0.1430 
 22 C       -3.0270     4.6330     1.5320 C.3   1 <1>  -0.0170 
 23 C        1.8300    -0.6740     0.2940 C.3   1 <1>   0.1200 
 24 C        0.8950    -0.0460     2.4180 C.3   1 <1>   0.1200 
 25 C       -6.4190     4.0860    -0.6790 C.ar  1 <1>   0.7200 
 26 C       -5.4120     5.4120     0.8040 C.ar  1 <1>   0.1600 
 27 O        1.3830    -1.0600     1.5720 O.3   1 <1>  -0.5600 
 28 N       -6.4750     5.1790     0.0680 N.ar  1 <1>  -0.6200 
 29 N       -7.4960     3.8420    -1.4240 N.pl3 1 <1>  -0.9000 
 30 H       -3.0180     2.9170    -2.0480 H     1 <1>   0.0800 
 31 H       -1.8190     3.7900    -1.1610 H     1 <1>   0.0800 
 32 H       -1.4100    -0.3670    -1.2870 H     1 <1>   0.0800 
 33 H       -2.1490     0.2010    -2.7570 H     1 <1>   0.0800 
 34 H        0.1220     4.2470    -2.7380 H     1 <1>   0.1500 
 35 H       -3.6770    -0.7100    -0.8380 H     1 <1>   0.0800 
 36 H       -4.1750     0.7170    -1.6850 H     1 <1>   0.0800 
 37 H        2.5200     4.0440     1.5290 H     1 <1>   0.1500 
 38 H        1.1950     6.2720    -1.8470 H     1 <1>   0.1500 
 39 H       -4.4060     0.9980     0.7820 H     1 <1>   0.0800 
 40 H       -2.7070     0.6780     0.9490 H     1 <1>   0.0800 
 41 H       -1.3590     3.3000     1.1590 H     1 <1>   0.0800 
 42 H       -2.6180     2.6440     2.1790 H     1 <1>   0.0800 
 43 H        3.3910     0.6910     0.8560 H     1 <1>   0.0800 
 44 H        2.7470     0.9800    -0.7310 H     1 <1>   0.0800 
 45 H       -0.3760     1.0010     1.0360 H     1 <1>   0.0800 
 46 H        0.1550     1.9720     2.3870 H     1 <1>   0.0800 
 47 H        2.3840     6.1760     0.3070 H     1 <1>   0.1500 
 48 H       -2.4040     5.3940     1.0940 H     1 <1>   0.0800 
 49 H       -3.1730     4.8360     2.5790 H     1 <1>   0.0800 
 50 H        2.5320    -1.4140    -0.0450 H     1 <1>   0.0800 
 51 H        0.9840    -0.6860    -0.3690 H     1 <1>   0.0800 
 52 H        0.0680    -0.4550     2.9700 H     1 <1>   0.0800 
 53 H        1.6790     0.2010     3.1120 H     1 <1>   0.0800 
 54 H       -5.4010     6.2930     1.4230 H     1 <1>   0.1500 
 55 H       -8.3390     4.3320    -1.1360 H     1 <1>   0.4000 
 56 H       -7.6050     2.8790    -1.7290 H     1 <1>   0.4000 
@<TRIPOS>BOND
  1   1   2  2   
  2   2   3  am  
  3   2   4  1   
  4   3   5  1   
  5   3   6  1   
  6   4   7  ar  
  7   4   8  ar  
  8   5   9  1   
  9   5  30  1   
 10   5  31  1   
 11   6  10  1   
 12   6  32  1   
 13   6  33  1   
 14   7  11  1   
 15   7  12  ar  
 16   8  13  ar  
 17   8  34  1   
 18   9  14  1   
 19   9  15  1   
 20   9  16  1   
 21  10  15  1   
 22  10  35  1   
 23  10  36  1   
 24  11  17  1   
 25  11  18  1   
 26  12  19  ar  
 27  12  37  1   
 28  13  19  ar  
 29  13  38  1   
 30  14  20  ar  
 31  14  21  ar  
 32  15  39  1   
 33  15  40  1   
 34  16  22  1   
 35  16  41  1   
 36  16  42  1   
 37  17  23  1   
 38  17  43  1   
 39  17  44  1   
 40  18  24  1   
 41  18  45  1   
 42  18  46  1   
 43  19  47  1   
 44  20  25  ar  
 45  21  22  1   
 46  21  26  ar  
 47  22  48  1   
 48  22  49  1   
 49  23  27  1   
 50  23  50  1   
 51  23  51  1   
 52  24  27  1   
 53  24  52  1   
 54  24  53  1   
 55  25  28  ar  
 56  25  29  1   
 57  26  28  ar  
 58  26  54  1   
 59  29  55  1   
 60  29  56  1   
@<TRIPOS>SUBSTRUCTURE
  1 ****   5 GROUP 4 **** **** 0

# MOE 2024.06 (io_trps.svl 2023.06)
