@<TRIPOS>MOLECULE
NONAME
55 57 1 0 0 
SMALL
USER_CHARGES


@<TRIPOS>ATOM
  1 O       -0.3190     0.8890     1.5030 O.2   1 <1>  -0.5700 
  2 C       -0.2730     2.0860     1.3430 C.2   1 <1>   0.5690 
  3 N       -1.3490     2.8040     0.8880 N.am  1 <1>  -0.6600 
  4 C        1.0510     2.7970     1.6350 C.3   1 <1>   0.1810 
  5 C       -1.2610     4.2890     0.6880 C.3   1 <1>   0.3640 
  6 C       -2.6970     2.1900     0.7080 C.3   1 <1>   0.0600 
  7 O        0.9100     4.1840     1.8170 O.3   1 <1>  -0.5600 
  8 C       -1.8360     4.6680    -0.6860 C.ar  1 <1>  -0.1430 
  9 C        0.1850     4.8260     0.7870 C.3   1 <1>   0.2610 
 10 C       -2.7980     5.6650    -0.8480 C.ar  1 <1>  -0.1430 
 11 C       -1.3610     4.0020    -1.8100 C.ar  1 <1>  -0.1500 
 12 C        0.1460     6.3490     0.9960 C.2   1 <1>   0.5690 
 13 C       -3.2460     5.9820    -2.1220 C.ar  1 <1>  -0.1500 
 14 C       -3.3910     6.4340     0.3270 C.3   1 <1>  -0.0960 
 15 C       -1.8140     4.3230    -3.0760 C.ar  1 <1>  -0.1500 
 16 O       -0.3340     6.7650     2.0290 O.2   1 <1>  -0.5700 
 17 N        0.6120     7.2280     0.0440 N.am  1 <1>  -0.6600 
 18 C       -2.7570     5.3180    -3.2320 C.ar  1 <1>  -0.1500 
 19 C        0.6170     8.7020     0.3130 C.3   1 <1>   0.2840 
 20 C        1.1130     6.8450    -1.3050 C.3   1 <1>   0.1400 
 21 C        2.0220     9.2050     0.6220 C.ar  1 <1>   0.1670 
 22 C        2.5780     6.3980    -1.2280 C.3   1 <1>  -0.1600 
 23 N        2.6020     9.9800    -0.2860 N.ar  1 <1>  -0.6200 
 24 C        2.6190     8.8310     1.8170 C.ar  1 <1>  -0.1500 
 25 C        3.0540     5.8340    -2.5710 C.3   1 <1>  -0.2400 
 26 C        3.8230    10.3940     0.0130 C.ar  1 <1>   0.1600 
 27 C        3.8910     9.2710     2.1140 C.ar  1 <1>  -0.1500 
 28 C        4.5020    10.0750     1.1770 C.ar  1 <1>  -0.1500 
 29 H        1.7350     2.6280     0.8240 H     1 <1>   0.0800 
 30 H        1.4760     2.3940     2.5360 H     1 <1>   0.0800 
 31 H       -1.8340     4.7460     1.4730 H     1 <1>   0.0800 
 32 H       -3.4310     2.7510     1.2580 H     1 <1>   0.0800 
 33 H       -2.7040     1.1740     1.0640 H     1 <1>   0.0800 
 34 H       -2.9630     2.1880    -0.3350 H     1 <1>   0.0800 
 35 H        0.6960     4.6020    -0.1270 H     1 <1>   0.0800 
 36 H       -0.6310     3.2170    -1.7070 H     1 <1>   0.1500 
 37 H       -3.9840     6.7520    -2.2630 H     1 <1>   0.1500 
 38 H       -4.1830     7.0840     0.0020 H     1 <1>   0.0800 
 39 H       -2.6390     7.0410     0.7960 H     1 <1>   0.0800 
 40 H       -3.8010     5.7550     1.0520 H     1 <1>   0.0800 
 41 H       -1.4360     3.7980    -3.9360 H     1 <1>   0.1500 
 42 H       -3.1140     5.5750    -4.2140 H     1 <1>   0.1500 
 43 H        0.2300     9.2250    -0.5440 H     1 <1>   0.0800 
 44 H       -0.0230     8.9400     1.1440 H     1 <1>   0.0800 
 45 H        0.5010     6.0590    -1.7100 H     1 <1>   0.0800 
 46 H        1.0340     7.6850    -1.9750 H     1 <1>   0.0800 
 47 H        3.1940     7.2410    -0.9670 H     1 <1>   0.0800 
 48 H        2.7020     5.6470    -0.4680 H     1 <1>   0.0800 
 49 H        2.0890     8.1950     2.5060 H     1 <1>   0.1500 
 50 H        2.9690     6.5810    -3.3410 H     1 <1>   0.0800 
 51 H        2.4680     4.9760    -2.8520 H     1 <1>   0.0800 
 52 H        4.0850     5.5370    -2.4980 H     1 <1>   0.0800 
 53 H        4.3120    11.0240    -0.7110 H     1 <1>   0.1500 
 54 H        4.3810     8.9970     3.0320 H     1 <1>   0.1500 
 55 H        5.4940    10.4530     1.3450 H     1 <1>   0.1500 
@<TRIPOS>BOND
  1   1   2  2   
  2   2   3  am  
  3   2   4  1   
  4   3   5  1   
  5   3   6  1   
  6   4   7  1   
  7   4  29  1   
  8   4  30  1   
  9   5   8  1   
 10   5   9  1   
 11   5  31  1   
 12   6  32  1   
 13   6  33  1   
 14   6  34  1   
 15   7   9  1   
 16   8  10  ar  
 17   8  11  ar  
 18   9  12  1   
 19   9  35  1   
 20  10  13  ar  
 21  10  14  1   
 22  11  15  ar  
 23  11  36  1   
 24  12  16  2   
 25  12  17  am  
 26  13  18  ar  
 27  13  37  1   
 28  14  38  1   
 29  14  39  1   
 30  14  40  1   
 31  15  18  ar  
 32  15  41  1   
 33  17  19  1   
 34  17  20  1   
 35  18  42  1   
 36  19  21  1   
 37  19  43  1   
 38  19  44  1   
 39  20  22  1   
 40  20  45  1   
 41  20  46  1   
 42  21  23  ar  
 43  21  24  ar  
 44  22  25  1   
 45  22  47  1   
 46  22  48  1   
 47  23  26  ar  
 48  24  27  ar  
 49  24  49  1   
 50  25  50  1   
 51  25  51  1   
 52  25  52  1   
 53  26  28  ar  
 54  26  53  1   
 55  27  28  ar  
 56  27  54  1   
 57  28  55  1   
@<TRIPOS>SUBSTRUCTURE
  1 ****  12 GROUP 4 **** **** 0

# MOE 2024.06 (io_trps.svl 2023.06)
