@<TRIPOS>MOLECULE
NONAME
51 54 1 0 0 
SMALL
USER_CHARGES


@<TRIPOS>ATOM
  1 O       -0.2770     1.0340    -1.0970 O.2   1 <1>  -0.5700 
  2 C       -0.2810     2.2420    -1.0400 C.2   1 <1>   0.5690 
  3 N       -1.1140     2.9510    -0.2130 N.am  1 <1>  -0.5090 
  4 C        0.6810     3.0000    -1.9540 C.3   1 <1>   0.1810 
  5 C       -1.2170     4.4420    -0.2970 C.3   1 <1>   0.3640 
  6 C       -2.0130     2.2980     0.7690 C.3   1 <1>   0.0490 
  7 O        0.9350     4.3030    -1.4940 O.3   1 <1>  -0.5600 
  8 C       -2.6510     4.8510    -0.6220 C.ar  1 <1>  -0.1440 
  9 C       -0.2380     5.0770    -1.3140 C.3   1 <1>   0.2610 
 10 C       -1.8880     2.6670     2.2150 C.3   1 <1>  -0.2000 
 11 C       -1.4480     1.3180     1.7480 C.3   1 <1>  -0.2000 
 12 C       -3.2690     5.8480     0.1210 C.ar  1 <1>   0.1600 
 13 C       -3.3640     4.2530    -1.6470 C.ar  1 <1>  -0.1500 
 14 C        0.0840     6.5100    -0.8770 C.2   1 <1>   0.5690 
 15 N       -4.5070     6.2760    -0.0640 N.ar  1 <1>  -0.6200 
 16 C       -4.6530     4.6940    -1.8560 C.ar  1 <1>  -0.1500 
 17 O       -0.3940     7.3960    -1.5480 O.2   1 <1>  -0.5700 
 18 N        0.8430     6.8010     0.2370 N.am  1 <1>  -0.6600 
 19 C       -5.1680     5.6920    -1.0490 C.ar  1 <1>   0.1600 
 20 C        1.5990     5.8190     1.0790 C.3   1 <1>   0.1400 
 21 C        1.2180     8.2100     0.5730 C.3   1 <1>   0.1400 
 22 C        3.1110     6.1050     1.0020 C.3   1 <1>   0.2000 
 23 C        2.7510     8.3820     0.5460 C.3   1 <1>   0.2000 
 24 O        3.3620     7.4300     1.3670 O.3   1 <1>  -0.5600 
 25 C        3.9120     5.2210     1.9540 C.3   1 <1>  -0.2400 
 26 C        3.1840     9.7530     1.0570 C.3   1 <1>  -0.2400 
 27 H        0.2750     3.0550    -2.9470 H     1 <1>   0.0800 
 28 H        1.6200     2.4780    -1.9910 H     1 <1>   0.0800 
 29 H       -0.9760     4.8270     0.6770 H     1 <1>   0.0800 
 30 H       -2.9950     2.1030     0.3680 H     1 <1>   0.1000 
 31 H       -0.7210     5.1360    -2.2730 H     1 <1>   0.0800 
 32 H       -1.1250     3.3510     2.5410 H     1 <1>   0.1000 
 33 H       -2.7820     2.7290     2.8120 H     1 <1>   0.1000 
 34 H       -2.0420     0.4610     2.0120 H     1 <1>   0.1000 
 35 H       -0.3980     1.0900     1.6950 H     1 <1>   0.1000 
 36 H       -2.7200     6.3260     0.9140 H     1 <1>   0.1500 
 37 H       -2.9430     3.4720    -2.2560 H     1 <1>   0.1500 
 38 H       -5.2560     4.2680    -2.6370 H     1 <1>   0.1500 
 39 H       -6.1770     6.0270    -1.2210 H     1 <1>   0.1500 
 40 H        1.2790     5.9140     2.1010 H     1 <1>   0.0800 
 41 H        1.4170     4.8070     0.7760 H     1 <1>   0.0800 
 42 H        0.7740     8.9020    -0.1210 H     1 <1>   0.0800 
 43 H        0.8500     8.4490     1.5550 H     1 <1>   0.0800 
 44 H        3.4610     5.9570    -0.0070 H     1 <1>   0.0800 
 45 H        3.1130     8.2440    -0.4600 H     1 <1>   0.0800 
 46 H        3.5970     5.3830     2.9690 H     1 <1>   0.0800 
 47 H        4.9590     5.4490     1.8670 H     1 <1>   0.0800 
 48 H        3.7680     4.1850     1.7050 H     1 <1>   0.0800 
 49 H        2.8590     9.8930     2.0720 H     1 <1>   0.0800 
 50 H        2.7560    10.5270     0.4460 H     1 <1>   0.0800 
 51 H        4.2550     9.8360     1.0130 H     1 <1>   0.0800 
@<TRIPOS>BOND
  1   1   2  2   
  2   2   3  am  
  3   2   4  1   
  4   3   5  1   
  5   3   6  1   
  6   4   7  1   
  7   4  27  1   
  8   4  28  1   
  9   5   8  1   
 10   5   9  1   
 11   5  29  1   
 12   6  10  1   
 13   6  11  1   
 14   6  30  1   
 15   7   9  1   
 16   8  12  ar  
 17   8  13  ar  
 18   9  14  1   
 19   9  31  1   
 20  10  11  1   
 21  10  32  1   
 22  10  33  1   
 23  11  34  1   
 24  11  35  1   
 25  12  15  ar  
 26  12  36  1   
 27  13  16  ar  
 28  13  37  1   
 29  14  17  2   
 30  14  18  am  
 31  15  19  ar  
 32  16  19  ar  
 33  16  38  1   
 34  18  20  1   
 35  18  21  1   
 36  19  39  1   
 37  20  22  1   
 38  20  40  1   
 39  20  41  1   
 40  21  23  1   
 41  21  42  1   
 42  21  43  1   
 43  22  24  1   
 44  22  25  1   
 45  22  44  1   
 46  23  24  1   
 47  23  26  1   
 48  23  45  1   
 49  25  46  1   
 50  25  47  1   
 51  25  48  1   
 52  26  49  1   
 53  26  50  1   
 54  26  51  1   
@<TRIPOS>SUBSTRUCTURE
  1 ****   5 GROUP 4 **** **** 0

# MOE 2024.06 (io_trps.svl 2023.06)
