@<TRIPOS>MOLECULE
NONAME
41 42 1 0 0 
SMALL
USER_CHARGES


@<TRIPOS>ATOM
  1 S       -0.1720     0.3070     1.4920 S.3   1 <1>  -0.0800 
  2 C       -1.5740     0.3320     0.4300 C.2   1 <1>  -0.1400 
  3 C        0.6660     1.4790     0.4930 C.2   1 <1>  -0.1100 
  4 C       -1.3710     1.1890    -0.5910 C.2   1 <1>  -0.1500 
  5 C       -2.7330    -0.5680     0.8250 C.3   1 <1>   0.6030 
  6 C       -0.0960     1.8380    -0.5550 C.2   1 <1>  -0.1500 
  7 N       -2.6960    -1.8140     0.0000 N.4   1 <1>  -0.9590 
  8 C       -4.0510     0.1730     0.6020 C.3   1 <1>  -0.2400 
  9 C       -3.7840    -2.7780     0.3850 C.3   1 <1>   0.3430 
 10 C       -1.3460    -2.4710     0.0620 C.3   1 <1>   0.2630 
 11 C       -3.9290    -3.9560    -0.5870 C.3   1 <1>   0.1200 
 12 O       -5.0310    -4.6800    -0.1650 O.3   1 <1>  -0.5600 
 13 C       -5.3490    -5.7950    -0.9440 C.3   1 <1>   0.2630 
 14 C       -6.5930    -6.4390    -0.3600 C.ar  1 <1>  -0.1430 
 15 C       -7.8260    -6.2800    -0.9760 C.ar  1 <1>  -0.1500 
 16 C       -6.5070    -7.1970     0.7990 C.ar  1 <1>  -0.1500 
 17 C       -8.9560    -6.8750    -0.4430 C.ar  1 <1>  -0.1500 
 18 C       -7.6360    -7.7920     1.3330 C.ar  1 <1>  -0.1500 
 19 C       -8.8620    -7.6320     0.7110 C.ar  1 <1>  -0.1500 
 20 H        1.6530     1.7820     0.8000 H     1 <1>   0.1500 
 21 H       -2.0620     1.4140    -1.3870 H     1 <1>   0.1500 
 22 H       -2.6390    -0.8130     1.8720 H     1 <1>   0.0800 
 23 H        0.1880     2.5470    -1.3160 H     1 <1>   0.1500 
 24 H       -2.8540    -1.4970    -0.9640 H     1 <1>   0.4500 
 25 H       -4.2370     0.3320    -0.4450 H     1 <1>   0.0800 
 26 H       -3.9960     1.1360     1.0800 H     1 <1>   0.0800 
 27 H       -4.8780    -0.3500     1.0450 H     1 <1>   0.0800 
 28 H       -4.7320    -2.2680     0.4040 H     1 <1>   0.0800 
 29 H       -3.5940    -3.1670     1.3730 H     1 <1>   0.0800 
 30 H       -1.1110    -2.7530     1.0760 H     1 <1>   0.0800 
 31 H       -0.5800    -1.7960    -0.2900 H     1 <1>   0.0800 
 32 H       -1.3220    -3.3520    -0.5560 H     1 <1>   0.0800 
 33 H       -3.0690    -4.6020    -0.5560 H     1 <1>   0.0800 
 34 H       -4.1150    -3.6080    -1.5880 H     1 <1>   0.0800 
 35 H       -4.5250    -6.4870    -0.9190 H     1 <1>   0.0800 
 36 H       -5.5280    -5.4770    -1.9570 H     1 <1>   0.0800 
 37 H       -7.9150    -5.6930    -1.8730 H     1 <1>   0.1500 
 38 H       -5.5590    -7.3230     1.2920 H     1 <1>   0.1500 
 39 H       -9.9090    -6.7480    -0.9250 H     1 <1>   0.1500 
 40 H       -7.5620    -8.3780     2.2320 H     1 <1>   0.1500 
 41 H       -9.7410    -8.0940     1.1260 H     1 <1>   0.1500 
@<TRIPOS>BOND
  1   1   2  1   
  2   1   3  1   
  3   2   4  2   
  4   2   5  1   
  5   3   6  2   
  6   3  20  1   
  7   4   6  1   
  8   4  21  1   
  9   5   7  1   
 10   5   8  1   
 11   5  22  1   
 12   6  23  1   
 13   7   9  1   
 14   7  10  1   
 15   7  24  1   
 16   8  25  1   
 17   8  26  1   
 18   8  27  1   
 19   9  11  1   
 20   9  28  1   
 21   9  29  1   
 22  10  30  1   
 23  10  31  1   
 24  10  32  1   
 25  11  12  1   
 26  11  33  1   
 27  11  34  1   
 28  12  13  1   
 29  13  14  1   
 30  13  35  1   
 31  13  36  1   
 32  14  15  ar  
 33  14  16  ar  
 34  15  17  ar  
 35  15  37  1   
 36  16  18  ar  
 37  16  38  1   
 38  17  19  ar  
 39  17  39  1   
 40  18  19  ar  
 41  18  40  1   
 42  19  41  1   
@<TRIPOS>SUBSTRUCTURE
  1 ****   9 GROUP 4 **** **** 0

# MOE 2024.06 (io_trps.svl 2023.06)
