@<TRIPOS>MOLECULE
NONAME
44 47 1 0 0 
SMALL
USER_CHARGES


@<TRIPOS>ATOM
  1 O        1.9290    -0.8330     2.0550 O.2   1 <1>  -0.5700 
  2 C        2.5490    -1.2200     1.0850 C.2   1 <1>   0.7030 
  3 N        3.6530    -0.4780     0.6740 N.am  1 <1>  -0.6600 
  4 C        2.0510    -2.4220     0.4220 C.2   1 <1>   0.2770 
  5 C        4.1180     0.6440     1.5980 C.3   1 <1>   0.2200 
  6 C        4.0180    -0.4150    -0.7830 C.3   1 <1>   0.1400 
  7 N        0.7480    -2.8790     0.5480 N.pl3 1 <1>  -0.7000 
  8 C        2.6720    -3.3270    -0.3770 C.2   1 <1>   0.2000 
  9 C        3.4110     1.9730     1.2810 C.3   1 <1>   0.1200 
 10 C        5.6510     0.8480     1.6920 C.3   1 <1>   0.3430 
 11 C        4.6970     0.8840    -1.2560 C.3   1 <1>  -0.0800 
 12 C        0.5950    -4.0080    -0.1520 C.cat 1 <1>   0.7910 
 13 N        1.7750    -4.3040    -0.7470 N.pl3 1 <1>  -0.6290 
 14 O        4.0510     2.6420     0.2400 O.3   1 <1>  -0.5600 
 15 N        6.4510     0.3540     0.5170 N.4   1 <1>  -0.9590 
 16 C        3.8310     2.1330    -1.0320 C.3   1 <1>   0.1200 
 17 C        6.1370     1.0930    -0.7490 C.3   1 <1>   0.3430 
 18 C       -0.5250    -4.8380    -0.3210 C.2   1 <1>  -0.1410 
 19 C        1.8910    -5.4350    -1.5300 C.2   1 <1>   0.2290 
 20 C        7.9130     0.4590     0.8190 C.3   1 <1>   0.2630 
 21 C       -0.4230    -5.9600    -1.0970 C.2   1 <1>  -0.1500 
 22 C        0.8140    -6.2540    -1.7080 C.2   1 <1>  -0.1500 
 23 H        3.8140     0.4020     2.6020 H     1 <1>   0.0800 
 24 H        4.6670    -1.2420    -1.0160 H     1 <1>   0.0800 
 25 H        3.1200    -0.5400    -1.3660 H     1 <1>   0.0800 
 26 H        0.0420    -2.4320     1.1440 H     1 <1>   0.4500 
 27 H        3.6990    -3.3470    -0.6990 H     1 <1>   0.1500 
 28 H        3.4670     2.6200     2.1400 H     1 <1>   0.0800 
 29 H        2.3700     1.8280     1.0440 H     1 <1>   0.0800 
 30 H        5.9890     0.3370     2.5790 H     1 <1>   0.0800 
 31 H        5.8450     1.8980     1.8440 H     1 <1>   0.0800 
 32 H        4.7770     0.7960    -2.3260 H     1 <1>   0.0800 
 33 H        6.2070    -0.6350     0.3900 H     1 <1>   0.4500 
 34 H        2.7800     1.9370    -1.1690 H     1 <1>   0.0800 
 35 H        4.1200     2.9060    -1.7250 H     1 <1>   0.0800 
 36 H        6.3090     2.1480    -0.6060 H     1 <1>   0.0800 
 37 H        6.8140     0.7580    -1.5180 H     1 <1>   0.0800 
 38 H       -1.4450    -4.5730     0.1670 H     1 <1>   0.1500 
 39 H        2.8460    -5.6480    -1.9870 H     1 <1>   0.1500 
 40 H        8.1900     1.4900     0.9710 H     1 <1>   0.0800 
 41 H        8.4950     0.0650     0.0010 H     1 <1>   0.0800 
 42 H        8.1550    -0.0970     1.7100 H     1 <1>   0.0800 
 43 H       -1.2600    -6.6230    -1.2530 H     1 <1>   0.1500 
 44 H        0.8890    -7.1400    -2.3180 H     1 <1>   0.1500 
@<TRIPOS>BOND
  1   1   2  2   
  2   2   3  am  
  3   2   4  1   
  4   3   5  1   
  5   3   6  1   
  6   4   7  1   
  7   4   8  2   
  8   5   9  1   
  9   5  10  1   
 10   5  23  1   
 11   6  11  1   
 12   6  24  1   
 13   6  25  1   
 14   7  12  ar  
 15   7  26  1   
 16   8  13  1   
 17   8  27  1   
 18   9  14  1   
 19   9  28  1   
 20   9  29  1   
 21  10  15  1   
 22  10  30  1   
 23  10  31  1   
 24  11  16  1   
 25  11  17  1   
 26  11  32  1   
 27  12  13  ar  
 28  12  18  1   
 29  13  19  1   
 30  14  16  1   
 31  15  17  1   
 32  15  20  1   
 33  15  33  1   
 34  16  34  1   
 35  16  35  1   
 36  17  36  1   
 37  17  37  1   
 38  18  21  2   
 39  18  38  1   
 40  19  22  2   
 41  19  39  1   
 42  20  40  1   
 43  20  41  1   
 44  20  42  1   
 45  21  22  1   
 46  21  43  1   
 47  22  44  1   
@<TRIPOS>SUBSTRUCTURE
  1 ****   2 GROUP 4 **** **** 0

# MOE 2024.06 (io_trps.svl 2023.06)
