@<TRIPOS>MOLECULE
NONAME
51 55 1 0 0 
SMALL
USER_CHARGES


@<TRIPOS>ATOM
  1 O        3.4390     0.7580     2.2400 O.3   1 <1>  -0.6800 
  2 C        2.7480     0.0910     1.2300 C.3   1 <1>   0.2000 
  3 C        3.2770    -1.3390     1.1510 C.3   1 <1>  -0.0800 
  4 C        3.1630     0.6840    -0.1190 C.3   1 <1>   0.3430 
  5 C        4.5760    -1.2090     0.3360 C.3   1 <1>   0.3430 
  6 C        2.2580    -2.2770     0.4700 C.3   1 <1>  -0.0160 
  7 N        4.4920     0.0770    -0.4180 N.4   1 <1>  -0.9590 
  8 C        2.8000    -3.6900     0.3430 C.ar  1 <1>   0.1670 
  9 C        5.5830     1.0180    -0.0470 C.3   1 <1>   0.5230 
 10 N        3.5350    -3.9460    -0.6950 N.ar  1 <1>  -0.6200 
 11 C        2.4970    -4.6340     1.3370 C.ar  1 <1>  -0.1500 
 12 C        5.6150     2.1460    -1.0650 C.2   1 <1>   0.0060 
 13 C        4.0250    -5.2080    -0.8270 C.ar  1 <1>   0.3100 
 14 C        2.9860    -5.9010     1.2370 C.ar  1 <1>  -0.1500 
 15 N        5.1620     2.0380    -2.2790 N.2   1 <1>  -0.5650 
 16 N        6.1260     3.3660    -0.7730 N.pl3 1 <1>   0.2940 
 17 C        3.7830    -6.2220     0.1260 C.ar  1 <1>   0.0000 
 18 C        4.8100    -5.5200    -1.9490 C.ar  1 <1>  -0.1500 
 19 C        5.3970     3.2530    -2.8110 C.2   1 <1>   0.0770 
 20 C        5.9820     4.0700    -1.9080 C.2   1 <1>  -0.3020 
 21 C        6.7210     3.8460     0.4960 C.3   1 <1>  -0.0910 
 22 C        4.3420    -7.4990    -0.0750 C.ar  1 <1>  -0.1500 
 23 C        5.3420    -6.7690    -2.1280 C.ar  1 <1>  -0.1500 
 24 C        5.9120     3.8270     1.7620 C.3   1 <1>  -0.2000 
 25 C        6.2310     5.1290     1.0980 C.3   1 <1>  -0.2000 
 26 C        5.1070    -7.7680    -1.1780 C.ar  1 <1>  -0.1500 
 27 H        3.0780     0.5290     3.1240 H     1 <1>   0.4000 
 28 H        1.6900     0.1720     1.4160 H     1 <1>   0.0800 
 29 H        3.4910    -1.7330     2.1300 H     1 <1>   0.0800 
 30 H        3.2000     1.7610    -0.0870 H     1 <1>   0.0800 
 31 H        2.4560     0.3810    -0.8730 H     1 <1>   0.0800 
 32 H        4.7100    -2.0360    -0.3400 H     1 <1>   0.0800 
 33 H        5.4150    -1.1840     1.0110 H     1 <1>   0.0800 
 34 H        2.0090    -1.9200    -0.5140 H     1 <1>   0.0800 
 35 H        1.3460    -2.3020     1.0410 H     1 <1>   0.0800 
 36 H        4.5800    -0.0410    -1.4420 H     1 <1>   0.4500 
 37 H        5.4160     1.4070     0.9430 H     1 <1>   0.0800 
 38 H        6.5320     0.5080    -0.0650 H     1 <1>   0.0800 
 39 H        1.8790    -4.3520     2.1700 H     1 <1>   0.1500 
 40 H        2.7770    -6.6540     1.9770 H     1 <1>   0.1500 
 41 H        4.9780    -4.7440    -2.6720 H     1 <1>   0.1500 
 42 H        5.1310     3.4830    -3.8320 H     1 <1>   0.1500 
 43 H        6.2980     5.0930    -2.0070 H     1 <1>   0.1500 
 44 H        7.7790     3.6490     0.5430 H     1 <1>   0.1000 
 45 H        4.1560    -8.2650     0.6570 H     1 <1>   0.1500 
 46 H        5.9420    -6.9980    -2.9930 H     1 <1>   0.1500 
 47 H        4.8810     3.5150     1.7570 H     1 <1>   0.1000 
 48 H        6.3980     3.6230     2.7010 H     1 <1>   0.1000 
 49 H        6.9340     5.7830     1.5840 H     1 <1>   0.1000 
 50 H        5.4340     5.6700     0.6150 H     1 <1>   0.1000 
 51 H        5.5320    -8.7460    -1.3300 H     1 <1>   0.1500 
@<TRIPOS>BOND
  1   1   2  1   
  2   1  27  1   
  3   2   3  1   
  4   2   4  1   
  5   2  28  1   
  6   3   5  1   
  7   3   6  1   
  8   3  29  1   
  9   4   7  1   
 10   4  30  1   
 11   4  31  1   
 12   5   7  1   
 13   5  32  1   
 14   5  33  1   
 15   6   8  1   
 16   6  34  1   
 17   6  35  1   
 18   7   9  1   
 19   7  36  1   
 20   8  10  ar  
 21   8  11  ar  
 22   9  12  1   
 23   9  37  1   
 24   9  38  1   
 25  10  13  ar  
 26  11  14  ar  
 27  11  39  1   
 28  12  15  2   
 29  12  16  1   
 30  13  17  ar  
 31  13  18  ar  
 32  14  17  ar  
 33  14  40  1   
 34  15  19  1   
 35  16  20  1   
 36  16  21  1   
 37  17  22  ar  
 38  18  23  ar  
 39  18  41  1   
 40  19  20  2   
 41  19  42  1   
 42  20  43  1   
 43  21  24  1   
 44  21  25  1   
 45  21  44  1   
 46  22  26  ar  
 47  22  45  1   
 48  23  26  ar  
 49  23  46  1   
 50  24  25  1   
 51  24  47  1   
 52  24  48  1   
 53  25  49  1   
 54  25  50  1   
 55  26  51  1   
@<TRIPOS>SUBSTRUCTURE
  1 ****   5 GROUP 4 **** **** 0

# MOE 2024.06 (io_trps.svl 2023.06)
