@<TRIPOS>MOLECULE
NONAME
42 44 1 0 0 
SMALL
USER_CHARGES


@<TRIPOS>ATOM
  1 CL       2.2140    -2.8580    -1.7940 Cl    1 <1>  -0.1770 
  2 C        1.1030    -3.8090    -0.8460 C.ar  1 <1>   0.1770 
  3 C        1.4720    -5.0770    -0.4430 C.ar  1 <1>  -0.1500 
  4 C       -0.1320    -3.2780    -0.5130 C.ar  1 <1>  -0.1500 
  5 C        0.5630    -5.8010     0.3030 C.ar  1 <1>   0.1900 
  6 C       -1.0270    -4.0250     0.2410 C.ar  1 <1>  -0.1500 
  7 F        0.8970    -7.0040     0.6870 F     1 <1>  -0.1900 
  8 C       -0.6840    -5.3070     0.6560 C.ar  1 <1>  -0.1440 
  9 C       -1.6350    -6.1540     1.4800 C.3   1 <1>   0.4870 
 10 N       -2.3160    -7.1300     0.5960 N.4   1 <1>  -0.9590 
 11 C       -3.0880    -6.5590    -0.5460 C.3   1 <1>   0.3430 
 12 C       -3.1850    -8.1250     1.2620 C.3   1 <1>   0.3430 
 13 C       -4.1960    -7.5730    -0.8600 C.3   1 <1>   0.2000 
 14 C       -4.0200    -8.7310     0.1320 C.3   1 <1>  -0.0800 
 15 O       -5.4350    -6.9790    -0.6470 O.3   1 <1>  -0.6800 
 16 C       -3.3480    -9.9680    -0.5100 C.3   1 <1>   0.0210 
 17 C       -1.8430    -9.8680    -0.7290 C.2   1 <1>   0.1080 
 18 N       -1.2560    -8.8980    -1.3640 N.2   1 <1>  -0.7070 
 19 C       -0.9350   -10.8160    -0.2730 C.2   1 <1>  -0.1500 
 20 N        0.0550    -9.2310    -1.3640 N.pl3 1 <1>   0.3000 
 21 C        0.2700   -10.3780    -0.6910 C.2   1 <1>  -0.3320 
 22 C        1.6390   -11.0050    -0.4980 C.3   1 <1>  -0.0600 
 23 H        2.4350    -5.4790    -0.7020 H     1 <1>   0.1500 
 24 H       -0.3830    -2.2840    -0.8420 H     1 <1>   0.1500 
 25 H       -1.9800    -3.5930     0.4970 H     1 <1>   0.1500 
 26 H       -2.3610    -5.5220     1.9630 H     1 <1>   0.0800 
 27 H       -1.0770    -6.6770     2.2400 H     1 <1>   0.0800 
 28 H       -1.5810    -7.6970     0.1160 H     1 <1>   0.4500 
 29 H       -3.5250    -5.6090    -0.2870 H     1 <1>   0.0800 
 30 H       -2.4420    -6.4390    -1.4010 H     1 <1>   0.0800 
 31 H       -2.6050    -8.8780     1.7720 H     1 <1>   0.0800 
 32 H       -3.8340    -7.6310     1.9660 H     1 <1>   0.0800 
 33 H       -4.1550    -7.8880    -1.8900 H     1 <1>   0.0800 
 34 H       -4.9770    -9.0510     0.5090 H     1 <1>   0.0800 
 35 H       -5.6470    -6.8560     0.2980 H     1 <1>   0.4000 
 36 H       -3.8150   -10.1840    -1.4550 H     1 <1>   0.0800 
 37 H       -3.5310   -10.8180     0.1230 H     1 <1>   0.0800 
 38 H       -1.1620   -11.7100     0.2820 H     1 <1>   0.1500 
 39 H        0.7780    -8.6690    -1.8330 H     1 <1>   0.2700 
 40 H        1.5540   -11.9180     0.0640 H     1 <1>   0.0800 
 41 H        2.2880   -10.3340     0.0370 H     1 <1>   0.0800 
 42 H        2.0830   -11.2340    -1.4520 H     1 <1>   0.0800 
@<TRIPOS>BOND
  1   1   2  1   
  2   2   3  ar  
  3   2   4  ar  
  4   3   5  ar  
  5   3  23  1   
  6   4   6  ar  
  7   4  24  1   
  8   5   7  1   
  9   5   8  ar  
 10   6   8  ar  
 11   6  25  1   
 12   8   9  1   
 13   9  10  1   
 14   9  26  1   
 15   9  27  1   
 16  10  11  1   
 17  10  12  1   
 18  10  28  1   
 19  11  13  1   
 20  11  29  1   
 21  11  30  1   
 22  12  14  1   
 23  12  31  1   
 24  12  32  1   
 25  13  14  1   
 26  13  15  1   
 27  13  33  1   
 28  14  16  1   
 29  14  34  1   
 30  15  35  1   
 31  16  17  1   
 32  16  36  1   
 33  16  37  1   
 34  17  18  2   
 35  17  19  1   
 36  18  20  1   
 37  19  21  2   
 38  19  38  1   
 39  20  21  1   
 40  20  39  1   
 41  21  22  1   
 42  22  40  1   
 43  22  41  1   
 44  22  42  1   
@<TRIPOS>SUBSTRUCTURE
  1 ****  10 GROUP 4 **** **** 0

# MOE 2024.06 (io_trps.svl 2023.06)
