@<TRIPOS>MOLECULE
NONAME
43 45 1 0 0 
SMALL
USER_CHARGES


@<TRIPOS>ATOM
  1 CL      -2.7350     0.6330    -2.2150 Cl    1 <1>  -0.1770 
  2 C       -3.1850    -0.4750    -0.9400 C.ar  1 <1>   0.1770 
  3 C       -3.7010     0.0060     0.2550 C.ar  1 <1>  -0.1440 
  4 C       -3.0230    -1.8270    -1.1650 C.ar  1 <1>  -0.1500 
  5 C       -4.0310    -0.9080     1.2430 C.ar  1 <1>  -0.1500 
  6 C       -3.9170     1.4940     0.4830 C.3   1 <1>  -0.0960 
  7 C       -3.3900    -2.7560    -0.1940 C.ar  1 <1>   0.0860 
  8 C       -3.8680    -2.2650     1.0210 C.ar  1 <1>  -0.1500 
  9 C       -3.2690    -4.1790    -0.4430 C.2   1 <1>   0.5440 
 10 O       -2.2130    -4.6170    -0.8570 O.2   1 <1>  -0.5700 
 11 N       -4.3020    -5.0650    -0.2070 N.am  1 <1>  -0.6600 
 12 C       -5.7130    -4.9190    -0.6820 C.3   1 <1>   0.2200 
 13 C       -3.9630    -6.4550     0.2080 C.3   1 <1>   0.0600 
 14 C       -6.6510    -4.3780     0.3950 C.3   1 <1>  -0.1600 
 15 C       -5.9520    -4.0520    -1.9340 C.3   1 <1>  -0.1600 
 16 C       -7.8380    -3.8650    -0.4190 C.3   1 <1>  -0.0800 
 17 C       -7.1810    -3.1710    -1.6220 C.3   1 <1>  -0.0800 
 18 C       -8.8630    -3.0270     0.3630 C.3   1 <1>   0.1400 
 19 C       -6.7410    -1.7210    -1.3140 C.3   1 <1>  -0.0990 
 20 N       -8.4840    -1.6050     0.4510 N.am  1 <1>  -0.7300 
 21 C       -7.6310    -0.9520    -0.3640 C.2   1 <1>   0.5690 
 22 O       -7.5520     0.2490    -0.3200 O.2   1 <1>  -0.5700 
 23 H       -2.6160    -2.1690    -2.0990 H     1 <1>   0.1500 
 24 H       -4.4230    -0.5670     2.1860 H     1 <1>   0.1500 
 25 H       -4.2650     1.6860     1.4810 H     1 <1>   0.0800 
 26 H       -4.6540     1.8630    -0.2090 H     1 <1>   0.0800 
 27 H       -2.9970     2.0310     0.3320 H     1 <1>   0.0800 
 28 H       -4.1200    -2.9640     1.7990 H     1 <1>   0.1500 
 29 H       -6.0720    -5.9020    -0.9370 H     1 <1>   0.0800 
 30 H       -4.6750    -6.8090     0.9320 H     1 <1>   0.0800 
 31 H       -2.9810    -6.4820     0.6500 H     1 <1>   0.0800 
 32 H       -3.9690    -7.1020    -0.6520 H     1 <1>   0.0800 
 33 H       -6.9430    -5.1470     1.0870 H     1 <1>   0.0800 
 34 H       -6.2010    -3.5620     0.9260 H     1 <1>   0.0800 
 35 H       -5.0990    -3.4670    -2.2200 H     1 <1>   0.0800 
 36 H       -6.1870    -4.7050    -2.7560 H     1 <1>   0.0800 
 37 H       -8.3620    -4.7330    -0.7840 H     1 <1>   0.0800 
 38 H       -7.8680    -3.1540    -2.4510 H     1 <1>   0.0800 
 39 H       -8.9830    -3.4290     1.3540 H     1 <1>   0.0800 
 40 H       -9.8160    -3.0850    -0.1370 H     1 <1>   0.0800 
 41 H       -6.6520    -1.1680    -2.2310 H     1 <1>   0.0800 
 42 H       -5.7790    -1.7250    -0.8540 H     1 <1>   0.0800 
 43 H       -9.0460    -1.0110     1.0640 H     1 <1>   0.3700 
@<TRIPOS>BOND
  1   1   2  1   
  2   2   3  ar  
  3   2   4  ar  
  4   3   5  ar  
  5   3   6  1   
  6   4   7  ar  
  7   4  23  1   
  8   5   8  ar  
  9   5  24  1   
 10   6  25  1   
 11   6  26  1   
 12   6  27  1   
 13   7   8  ar  
 14   7   9  1   
 15   8  28  1   
 16   9  10  2   
 17   9  11  am  
 18  11  12  1   
 19  11  13  1   
 20  12  14  1   
 21  12  15  1   
 22  12  29  1   
 23  13  30  1   
 24  13  31  1   
 25  13  32  1   
 26  14  16  1   
 27  14  33  1   
 28  14  34  1   
 29  15  17  1   
 30  15  35  1   
 31  15  36  1   
 32  16  17  1   
 33  16  18  1   
 34  16  37  1   
 35  17  19  1   
 36  17  38  1   
 37  18  20  1   
 38  18  39  1   
 39  18  40  1   
 40  19  21  1   
 41  19  41  1   
 42  19  42  1   
 43  20  21  am  
 44  20  43  1   
 45  21  22  2   
@<TRIPOS>SUBSTRUCTURE
  1 ****   7 GROUP 4 **** **** 0

# MOE 2024.06 (io_trps.svl 2023.06)
