@<TRIPOS>MOLECULE
NONAME
43 44 1 0 0 
SMALL
USER_CHARGES


@<TRIPOS>ATOM
  1 O       -0.5940    -1.4450    -0.2110 O.3   1 <1>  -0.5600 
  2 C       -0.2010    -1.9470     1.0420 C.3   1 <1>   0.2000 
  3 C       -0.3980    -0.0690    -0.3770 C.3   1 <1>   0.1200 
  4 C        1.3190    -1.7600     1.1920 C.3   1 <1>  -0.1600 
  5 C       -0.6260    -3.4290     1.1060 C.3   1 <1>   0.3430 
  6 C        1.1000     0.2460    -0.2960 C.3   1 <1>  -0.1600 
  7 C        1.7040    -0.2880     1.0080 C.3   1 <1>  -0.1600 
  8 N       -0.5140    -4.0420    -0.2570 N.4   1 <1>  -0.9590 
  9 C       -1.7980    -4.6420    -0.7340 C.3   1 <1>   0.4810 
 10 C        0.6950    -4.8830    -0.4580 C.3   1 <1>   0.3430 
 11 C       -2.2880    -5.8680     0.0540 C.2   1 <1>  -0.0380 
 12 C        1.0470    -4.9090    -1.9390 C.3   1 <1>  -0.2400 
 13 N       -3.4650    -6.4600    -0.3540 N.pl3 1 <1>  -0.5500 
 14 C       -1.6870    -6.4440     1.1260 C.2   1 <1>  -0.1360 
 15 C       -3.9800    -7.5530     0.2860 C.2   1 <1>   0.4390 
 16 C       -2.2610    -7.5770     1.7570 C.2   1 <1>   0.7670 
 17 N       -3.4280    -8.1080     1.2960 N.2   1 <1>  -0.6610 
 18 C       -5.2730    -8.1080    -0.2590 C.3   1 <1>  -0.1790 
 19 O       -1.7090    -8.0780     2.7200 O.2   1 <1>  -0.5700 
 20 H       -0.7130    -1.3940     1.8130 H     1 <1>   0.0800 
 21 H       -0.9470     0.4570     0.3870 H     1 <1>   0.0800 
 22 H       -0.7890     0.2120    -1.3410 H     1 <1>   0.0800 
 23 H        1.8370    -2.3500     0.4570 H     1 <1>   0.0800 
 24 H        1.6360    -2.0890     2.1660 H     1 <1>   0.0800 
 25 H       -1.6490    -3.4700     1.4420 H     1 <1>   0.0800 
 26 H       -0.0220    -3.9580     1.8250 H     1 <1>   0.0800 
 27 H        1.2460     1.3110    -0.3540 H     1 <1>   0.0800 
 28 H        1.5970    -0.1960    -1.1420 H     1 <1>   0.0800 
 29 H        2.7760    -0.1800     0.9890 H     1 <1>   0.0800 
 30 H        1.3280     0.2900     1.8360 H     1 <1>   0.0800 
 31 H       -0.3810    -3.1870    -0.8350 H     1 <1>   0.4500 
 32 H       -1.6890    -4.9260    -1.7670 H     1 <1>   0.0800 
 33 H       -2.5660    -3.8860    -0.6910 H     1 <1>   0.0800 
 34 H        0.5260    -5.8860    -0.1020 H     1 <1>   0.0800 
 35 H        1.5250    -4.4660     0.0890 H     1 <1>   0.0800 
 36 H        0.2860    -5.4000    -2.5170 H     1 <1>   0.0800 
 37 H        1.9620    -5.4590    -2.0720 H     1 <1>   0.0800 
 38 H        1.2050    -3.9120    -2.3130 H     1 <1>   0.0800 
 39 H       -4.0100    -6.1150    -1.1510 H     1 <1>   0.4000 
 40 H       -0.7730    -6.1120     1.5690 H     1 <1>   0.1500 
 41 H       -6.0470    -7.3670    -0.2010 H     1 <1>   0.0800 
 42 H       -5.5770    -8.9630     0.3190 H     1 <1>   0.0800 
 43 H       -5.1430    -8.4170    -1.2790 H     1 <1>   0.0800 
@<TRIPOS>BOND
  1   1   2  1   
  2   1   3  1   
  3   2   4  1   
  4   2   5  1   
  5   2  20  1   
  6   3   6  1   
  7   3  21  1   
  8   3  22  1   
  9   4   7  1   
 10   4  23  1   
 11   4  24  1   
 12   5   8  1   
 13   5  25  1   
 14   5  26  1   
 15   6   7  1   
 16   6  27  1   
 17   6  28  1   
 18   7  29  1   
 19   7  30  1   
 20   8   9  1   
 21   8  10  1   
 22   8  31  1   
 23   9  11  1   
 24   9  32  1   
 25   9  33  1   
 26  10  12  1   
 27  10  34  1   
 28  10  35  1   
 29  11  13  1   
 30  11  14  2   
 31  12  36  1   
 32  12  37  1   
 33  12  38  1   
 34  13  15  1   
 35  13  39  1   
 36  14  16  1   
 37  14  40  1   
 38  15  17  2   
 39  15  18  1   
 40  16  17  1   
 41  16  19  2   
 42  18  41  1   
 43  18  42  1   
 44  18  43  1   
@<TRIPOS>SUBSTRUCTURE
  1 ****   8 GROUP 4 **** **** 0

# MOE 2024.06 (io_trps.svl 2023.06)
