@<TRIPOS>MOLECULE
NONAME
38 39 1 0 0 
SMALL
USER_CHARGES


@<TRIPOS>ATOM
  1 S       -0.2210    -0.3680    -0.9740 S.3   1 <1>  -0.4600 
  2 C       -1.4560    -1.3090    -0.0390 C.3   1 <1>   0.0700 
  3 C        1.3130    -0.5170    -0.0080 C.3   1 <1>   0.0700 
  4 C       -1.2000    -2.8070    -0.2540 C.3   1 <1>   0.4230 
  5 C        2.2110    -1.6270    -0.5750 C.3   1 <1>   0.0700 
  6 N       -2.4120    -3.6060     0.1000 N.4   1 <1>  -0.9060 
  7 C        0.0380    -3.2820     0.5290 C.3   1 <1>   0.0700 
  8 S        1.4400    -3.2880    -0.6180 S.3   1 <1>  -0.4600 
  9 C       -2.3650    -4.9850    -0.4520 C.3   1 <1>   0.3430 
 10 C       -3.6450    -5.7070    -0.0550 C.3   1 <1>  -0.1600 
 11 C       -3.7220    -7.1070    -0.6870 C.3   1 <1>  -0.0170 
 12 C       -5.0460    -7.7750    -0.3550 C.ar  1 <1>   0.1670 
 13 N       -6.1270    -7.1730    -0.8250 N.ar  1 <1>  -0.6200 
 14 C       -5.0690    -8.9410     0.3970 C.ar  1 <1>  -0.1500 
 15 C       -7.2800    -7.7580    -0.5370 C.ar  1 <1>   0.1600 
 16 C       -6.2770    -9.5360     0.6920 C.ar  1 <1>  -0.1500 
 17 C       -7.4080    -8.9190     0.2050 C.ar  1 <1>  -0.1500 
 18 H       -2.4080    -1.0130    -0.4440 H     1 <1>   0.0800 
 19 H       -1.3810    -1.0130     0.9920 H     1 <1>   0.0800 
 20 H        1.0610    -0.6770     1.0240 H     1 <1>   0.0800 
 21 H        1.8140     0.4310    -0.0950 H     1 <1>   0.0800 
 22 H       -1.0040    -2.9510    -1.3060 H     1 <1>   0.0800 
 23 H        3.1040    -1.7210     0.0180 H     1 <1>   0.0800 
 24 H        2.4940    -1.3960    -1.5880 H     1 <1>   0.0800 
 25 H       -3.2430    -3.1450    -0.2930 H     1 <1>   0.4500 
 26 H       -2.5450    -3.6400     1.1180 H     1 <1>   0.4500 
 27 H       -0.0590    -4.2990     0.8600 H     1 <1>   0.0800 
 28 H        0.2860    -2.6570     1.3670 H     1 <1>   0.0800 
 29 H       -1.5100    -5.5200    -0.0680 H     1 <1>   0.0800 
 30 H       -2.2890    -4.9480    -1.5280 H     1 <1>   0.0800 
 31 H       -4.4940    -5.1360    -0.3910 H     1 <1>   0.0800 
 32 H       -3.7010    -5.8100     1.0150 H     1 <1>   0.0800 
 33 H       -2.9070    -7.7170    -0.3410 H     1 <1>   0.0800 
 34 H       -3.6500    -7.0330    -1.7590 H     1 <1>   0.0800 
 35 H       -4.1580    -9.3870     0.7510 H     1 <1>   0.1500 
 36 H       -8.1720    -7.2880    -0.9140 H     1 <1>   0.1500 
 37 H       -6.3340   -10.4410     1.2720 H     1 <1>   0.1500 
 38 H       -8.3820    -9.3320     0.3960 H     1 <1>   0.1500 
@<TRIPOS>BOND
  1   1   2  1   
  2   1   3  1   
  3   2   4  1   
  4   2  18  1   
  5   2  19  1   
  6   3   5  1   
  7   3  20  1   
  8   3  21  1   
  9   4   6  1   
 10   4   7  1   
 11   4  22  1   
 12   5   8  1   
 13   5  23  1   
 14   5  24  1   
 15   6   9  1   
 16   6  25  1   
 17   6  26  1   
 18   7   8  1   
 19   7  27  1   
 20   7  28  1   
 21   9  10  1   
 22   9  29  1   
 23   9  30  1   
 24  10  11  1   
 25  10  31  1   
 26  10  32  1   
 27  11  12  1   
 28  11  33  1   
 29  11  34  1   
 30  12  13  ar  
 31  12  14  ar  
 32  13  15  ar  
 33  14  16  ar  
 34  14  35  1   
 35  15  17  ar  
 36  15  36  1   
 37  16  17  ar  
 38  16  37  1   
 39  17  38  1   
@<TRIPOS>SUBSTRUCTURE
  1 ****   9 GROUP 4 **** **** 0

# MOE 2024.06 (io_trps.svl 2023.06)
