@<TRIPOS>MOLECULE
NONAME
51 53 1 0 0 
SMALL
USER_CHARGES


@<TRIPOS>ATOM
  1 O        0.5030     1.3260     1.2100 O.2   1 <1>  -0.5700 
  2 C        0.4390     2.1650     0.3290 C.2   1 <1>   0.6900 
  3 N       -0.7030     2.8930     0.1350 N.am  1 <1>  -0.6600 
  4 N        1.5100     2.3770    -0.4750 N.am  1 <1>  -0.7300 
  5 C       -1.9620     2.4980     0.8430 C.3   1 <1>   0.1400 
  6 C       -0.7620     4.1090    -0.7280 C.3   1 <1>   0.1400 
  7 C        2.7720     1.6030    -0.4220 C.3   1 <1>   0.1400 
  8 C       -3.2320     2.8550     0.0330 C.3   1 <1>   0.0000 
  9 C       -1.8720     5.0520    -0.2610 C.3   1 <1>  -0.1600 
 10 C        3.7640     2.2880     0.5160 C.3   1 <1>  -0.0170 
 11 C       -4.4760     2.3640     0.8030 C.3   1 <1>   0.2000 
 12 C       -3.2610     4.3840    -0.2450 C.3   1 <1>  -0.1600 
 13 C       -3.2980     2.0100    -1.2560 C.3   1 <1>  -0.1600 
 14 C        5.0720     1.5140     0.5530 C.ar  1 <1>  -0.1440 
 15 O       -5.6200     2.9910     0.2920 O.3   1 <1>  -0.5600 
 16 C       -4.5730     0.8630     0.4970 C.3   1 <1>  -0.1600 
 17 C       -3.8550     0.6440    -0.8410 C.3   1 <1>  -0.1600 
 18 C        6.1520     1.9100    -0.2220 C.ar  1 <1>  -0.1500 
 19 C        5.1910     0.3960     1.3640 C.ar  1 <1>  -0.1500 
 20 C       -6.6970     3.0610     1.1710 C.3   1 <1>   0.0400 
 21 C        7.3370     1.1960    -0.1860 C.ar  1 <1>  -0.1500 
 22 C        6.3760    -0.3190     1.4010 C.ar  1 <1>  -0.1500 
 23 C        7.4500     0.0810     0.6260 C.ar  1 <1>  -0.1500 
 24 H        1.3840     3.0010    -1.2660 H     1 <1>   0.3700 
 25 H       -1.9390     1.4400     1.0400 H     1 <1>   0.0800 
 26 H       -1.9880     3.0040     1.7920 H     1 <1>   0.0800 
 27 H        0.1800     4.6290    -0.6850 H     1 <1>   0.0800 
 28 H       -0.9450     3.8100    -1.7450 H     1 <1>   0.0800 
 29 H        2.5690     0.6070    -0.0650 H     1 <1>   0.0800 
 30 H        3.1900     1.5280    -1.4100 H     1 <1>   0.0800 
 31 H       -1.6270     5.3880     0.7320 H     1 <1>   0.0800 
 32 H       -1.9000     5.9200    -0.8950 H     1 <1>   0.0800 
 33 H        3.9450     3.2940     0.1840 H     1 <1>   0.0800 
 34 H        3.3460     2.3280     1.5070 H     1 <1>   0.0800 
 35 H       -4.3990     2.5720     1.8570 H     1 <1>   0.0800 
 36 H       -3.7610     4.5690    -1.1790 H     1 <1>   0.0800 
 37 H       -3.8440     4.8750     0.5150 H     1 <1>   0.0800 
 38 H       -3.9950     2.4580    -1.9420 H     1 <1>   0.0800 
 39 H       -2.3480     1.9120    -1.7510 H     1 <1>   0.0800 
 40 H       -4.0600     0.3120     1.2650 H     1 <1>   0.0800 
 41 H       -5.5930     0.5250     0.4570 H     1 <1>   0.0800 
 42 H       -3.0510    -0.0600    -0.7140 H     1 <1>   0.0800 
 43 H       -4.5320     0.2710    -1.5890 H     1 <1>   0.0800 
 44 H        6.0760     2.7760    -0.8560 H     1 <1>   0.1500 
 45 H        4.3600     0.0790     1.9700 H     1 <1>   0.1500 
 46 H       -7.5160     3.5300     0.6560 H     1 <1>   0.0800 
 47 H       -6.4180     3.6540     2.0240 H     1 <1>   0.0800 
 48 H       -6.9800     2.0690     1.4740 H     1 <1>   0.0800 
 49 H        8.1720     1.5090    -0.7890 H     1 <1>   0.1500 
 50 H        6.4600    -1.1850     2.0330 H     1 <1>   0.1500 
 51 H        8.3720    -0.4740     0.6540 H     1 <1>   0.1500 
@<TRIPOS>BOND
  1   1   2  2   
  2   2   3  am  
  3   2   4  am  
  4   3   5  1   
  5   3   6  1   
  6   4   7  1   
  7   4  24  1   
  8   5   8  1   
  9   5  25  1   
 10   5  26  1   
 11   6   9  1   
 12   6  27  1   
 13   6  28  1   
 14   7  10  1   
 15   7  29  1   
 16   7  30  1   
 17   8  11  1   
 18   8  12  1   
 19   8  13  1   
 20   9  12  1   
 21   9  31  1   
 22   9  32  1   
 23  10  14  1   
 24  10  33  1   
 25  10  34  1   
 26  11  15  1   
 27  11  16  1   
 28  11  35  1   
 29  12  36  1   
 30  12  37  1   
 31  13  17  1   
 32  13  38  1   
 33  13  39  1   
 34  14  18  ar  
 35  14  19  ar  
 36  15  20  1   
 37  16  17  1   
 38  16  40  1   
 39  16  41  1   
 40  17  42  1   
 41  17  43  1   
 42  18  21  ar  
 43  18  44  1   
 44  19  22  ar  
 45  19  45  1   
 46  20  46  1   
 47  20  47  1   
 48  20  48  1   
 49  21  23  ar  
 50  21  49  1   
 51  22  23  ar  
 52  22  50  1   
 53  23  51  1   
@<TRIPOS>SUBSTRUCTURE
  1 ****   2 GROUP 4 **** **** 0

# MOE 2024.06 (io_trps.svl 2023.06)
