@<TRIPOS>MOLECULE
NONAME
45 46 1 0 0 
SMALL
USER_CHARGES


@<TRIPOS>ATOM
  1 S        0.8460     0.1750    -1.0110 S.o2  1 <1>   1.3330 
  2 O        0.5680     0.8970    -2.2280 O.2   1 <1>  -0.6500 
  3 O        1.7460    -0.9540    -0.9970 O.2   1 <1>  -0.6500 
  4 N        1.4280     1.2980     0.1800 N.am  1 <1>  -0.6930 
  5 C       -0.6990    -0.3490    -0.3000 C.3   1 <1>  -0.1350 
  6 C        1.3150     2.6770     0.0300 C.ar  1 <1>   0.1990 
  7 C        2.2960     0.7300     1.2430 C.3   1 <1>   0.1160 
  8 C        2.4190     3.5100     0.1930 C.ar  1 <1>  -0.1500 
  9 C        0.1010     3.2800    -0.2850 C.ar  1 <1>  -0.1500 
 10 C        2.3100     4.8820     0.0680 C.ar  1 <1>  -0.1500 
 11 C       -0.0070     4.6510    -0.4080 C.ar  1 <1>  -0.1500 
 12 C        1.0890     5.4970    -0.2250 C.ar  1 <1>   0.0860 
 13 C        0.9500     6.9370    -0.3400 C.2   1 <1>   0.5440 
 14 O        0.0230     7.4270    -0.9550 O.2   1 <1>  -0.5700 
 15 N        1.8490     7.7790     0.2590 N.am  1 <1>  -0.7300 
 16 C        1.8220     9.2540     0.1770 C.3   1 <1>   0.1400 
 17 C        3.2330     9.7580    -0.1220 C.3   1 <1>  -0.1600 
 18 C        3.2610    11.2870    -0.2480 C.3   1 <1>   0.0200 
 19 C        4.6720    11.7920    -0.4700 C.2   1 <1>   0.1980 
 20 S        5.3620    11.6090    -2.0700 S.3   1 <1>  -0.0800 
 21 N        5.4450    12.3470     0.3740 N.2   1 <1>  -0.5650 
 22 C        6.8190    12.3640    -1.4940 C.2   1 <1>  -0.1100 
 23 C        6.6620    12.6730    -0.1980 C.2   1 <1>   0.0460 
 24 C        7.6800    13.3430     0.6980 C.3   1 <1>  -0.0590 
 25 H       -1.1630    -1.0780    -0.9350 H     1 <1>   0.0800 
 26 H       -1.3650     0.4840    -0.1930 H     1 <1>   0.0800 
 27 H       -0.5340    -0.7880     0.6630 H     1 <1>   0.0800 
 28 H        1.8380    -0.1500     1.6590 H     1 <1>   0.0800 
 29 H        2.4440     1.4480     2.0310 H     1 <1>   0.0800 
 30 H        3.2490     0.4580     0.8230 H     1 <1>   0.0800 
 31 H        3.3770     3.0740     0.4060 H     1 <1>   0.1500 
 32 H       -0.7690     2.6730    -0.4390 H     1 <1>   0.1500 
 33 H        3.1920     5.4850     0.1880 H     1 <1>   0.1500 
 34 H       -0.9610     5.0880    -0.6550 H     1 <1>   0.1500 
 35 H        2.5540     7.3880     0.8830 H     1 <1>   0.3700 
 36 H        1.4700     9.6530     1.1130 H     1 <1>   0.0800 
 37 H        1.1470     9.5670    -0.6030 H     1 <1>   0.0800 
 38 H        3.5770     9.3200    -1.0420 H     1 <1>   0.0800 
 39 H        3.8970     9.4630     0.6720 H     1 <1>   0.0800 
 40 H        2.8830    11.7320     0.6550 H     1 <1>   0.0800 
 41 H        2.6400    11.6070    -1.0660 H     1 <1>   0.0800 
 42 H        7.6310    12.4930    -2.1850 H     1 <1>   0.1500 
 43 H        7.2760    14.2640     1.0760 H     1 <1>   0.0800 
 44 H        8.5820    13.5520     0.1530 H     1 <1>   0.0800 
 45 H        7.9110    12.6980     1.5260 H     1 <1>   0.0800 
@<TRIPOS>BOND
  1   1   2  2   
  2   1   3  2   
  3   1   4  am  
  4   1   5  1   
  5   4   6  1   
  6   4   7  1   
  7   5  25  1   
  8   5  26  1   
  9   5  27  1   
 10   6   8  ar  
 11   6   9  ar  
 12   7  28  1   
 13   7  29  1   
 14   7  30  1   
 15   8  10  ar  
 16   8  31  1   
 17   9  11  ar  
 18   9  32  1   
 19  10  12  ar  
 20  10  33  1   
 21  11  12  ar  
 22  11  34  1   
 23  12  13  1   
 24  13  14  2   
 25  13  15  am  
 26  15  16  1   
 27  15  35  1   
 28  16  17  1   
 29  16  36  1   
 30  16  37  1   
 31  17  18  1   
 32  17  38  1   
 33  17  39  1   
 34  18  19  1   
 35  18  40  1   
 36  18  41  1   
 37  19  20  1   
 38  19  21  2   
 39  20  22  1   
 40  21  23  1   
 41  22  23  2   
 42  22  42  1   
 43  23  24  1   
 44  24  43  1   
 45  24  44  1   
 46  24  45  1   
@<TRIPOS>SUBSTRUCTURE
  1 ****  10 GROUP 4 **** **** 0

# MOE 2024.06 (io_trps.svl 2023.06)
