@<TRIPOS>MOLECULE
NONAME
55 58 1 0 0 
SMALL
USER_CHARGES


@<TRIPOS>ATOM
  1 O        0.1510    -0.5700     1.0560 O.2   1 <1>  -0.5700 
  2 C        0.9910    -0.8810     0.2320 C.2   1 <1>   0.5440 
  3 N        1.8360     0.0610    -0.2890 N.am  1 <1>  -0.4930 
  4 C        1.1090    -2.2600    -0.2080 C.ar  1 <1>   0.0860 
  5 C        2.1020     1.3950     0.1050 C.2   1 <1>   0.0630 
  6 C       -0.0070    -3.0940    -0.2500 C.ar  1 <1>  -0.1500 
  7 C        2.3320    -2.8070    -0.6050 C.ar  1 <1>  -0.1500 
  8 C        3.3980     1.9220     0.1210 C.2   1 <1>   0.3720 
  9 C        1.3080     2.4130     0.5040 C.2   1 <1>  -0.3320 
 10 C        0.0560    -4.4130    -0.6830 C.ar  1 <1>   0.0000 
 11 C        2.4230    -4.1170    -1.0380 C.ar  1 <1>  -0.1500 
 12 N        3.4310     3.1540     0.5190 N.2   1 <1>  -0.7070 
 13 N        4.5460     1.1890    -0.2450 N.pl3 1 <1>  -0.8210 
 14 N        2.1360     3.4560     0.7650 N.pl3 1 <1>   0.3140 
 15 C       -0.2060     2.4670     0.6470 C.3   1 <1>  -0.0600 
 16 C       -1.1330    -5.2370    -0.7300 C.ar  1 <1>   0.0000 
 17 C        1.2930    -4.9100    -1.0780 C.ar  1 <1>  -0.1500 
 18 C        5.3680     0.8550     0.9490 C.3   1 <1>   0.2090 
 19 C        5.4130     1.9270    -1.2080 C.3   1 <1>   0.2090 
 20 C        1.7560     4.7870     1.2540 C.3   1 <1>   0.0160 
 21 C       -1.2610    -6.4160     0.0160 C.ar  1 <1>   0.0830 
 22 C       -2.1960    -4.8530    -1.5430 C.ar  1 <1>  -0.1500 
 23 C        6.8160     1.0820     0.5420 C.3   1 <1>  -0.1600 
 24 C        6.7280     2.1940    -0.4890 C.3   1 <1>  -0.1600 
 25 O       -0.2200    -6.7760     0.8120 O.3   1 <1>  -0.3630 
 26 C       -2.4280    -7.1730    -0.0680 C.ar  1 <1>  -0.1500 
 27 C       -3.3520    -5.6060    -1.6230 C.ar  1 <1>  -0.1500 
 28 C       -0.2880    -7.8750     1.6920 C.3   1 <1>   0.0400 
 29 C       -3.4680    -6.7690    -0.8840 C.ar  1 <1>  -0.1500 
 30 H        2.6030    -0.2950    -0.8590 H     1 <1>   0.3700 
 31 H       -0.9560    -2.7000     0.0700 H     1 <1>   0.1500 
 32 H        3.2270    -2.2110    -0.5680 H     1 <1>   0.1500 
 33 H        3.3730    -4.5230    -1.3400 H     1 <1>   0.1500 
 34 H       -0.6590     1.6440     0.1250 H     1 <1>   0.0800 
 35 H       -0.5950     3.3770     0.2280 H     1 <1>   0.0800 
 36 H       -0.4800     2.4040     1.6840 H     1 <1>   0.0800 
 37 H        1.3610    -5.9310    -1.4110 H     1 <1>   0.1500 
 38 H        5.1990    -0.1650     1.2480 H     1 <1>   0.0800 
 39 H        5.1140     1.5080     1.7700 H     1 <1>   0.0800 
 40 H        4.9580     2.8470    -1.5380 H     1 <1>   0.0800 
 41 H        5.5830     1.2990    -2.0640 H     1 <1>   0.0800 
 42 H        1.1320     4.6790     2.1210 H     1 <1>   0.0800 
 43 H        1.2250     5.3070     0.4800 H     1 <1>   0.0800 
 44 H        2.6430     5.3330     1.5140 H     1 <1>   0.0800 
 45 H       -2.1100    -3.9510    -2.1230 H     1 <1>   0.1500 
 46 H        7.1990     0.1850     0.0890 H     1 <1>   0.0800 
 47 H        7.4300     1.3480     1.3840 H     1 <1>   0.0800 
 48 H        6.6600     3.1470     0.0060 H     1 <1>   0.0800 
 49 H        7.5630     2.2030    -1.1660 H     1 <1>   0.0800 
 50 H       -2.5460    -8.0790     0.4930 H     1 <1>   0.1500 
 51 H       -4.1600    -5.2880    -2.2580 H     1 <1>   0.1500 
 52 H        0.6360    -7.9190     2.2410 H     1 <1>   0.0800 
 53 H       -0.4160    -8.7750     1.1180 H     1 <1>   0.0800 
 54 H       -1.1090    -7.7270     2.3710 H     1 <1>   0.0800 
 55 H       -4.3680    -7.3560    -0.9450 H     1 <1>   0.1500 
@<TRIPOS>BOND
  1   1   2  2   
  2   2   3  am  
  3   2   4  1   
  4   3   5  1   
  5   3  30  1   
  6   4   6  ar  
  7   4   7  ar  
  8   5   8  1   
  9   5   9  2   
 10   6  10  ar  
 11   6  31  1   
 12   7  11  ar  
 13   7  32  1   
 14   8  12  2   
 15   8  13  1   
 16   9  14  1   
 17   9  15  1   
 18  10  16  1   
 19  10  17  ar  
 20  11  17  ar  
 21  11  33  1   
 22  12  14  1   
 23  13  18  1   
 24  13  19  1   
 25  14  20  1   
 26  15  34  1   
 27  15  35  1   
 28  15  36  1   
 29  16  21  ar  
 30  16  22  ar  
 31  17  37  1   
 32  18  23  1   
 33  18  38  1   
 34  18  39  1   
 35  19  24  1   
 36  19  40  1   
 37  19  41  1   
 38  20  42  1   
 39  20  43  1   
 40  20  44  1   
 41  21  25  1   
 42  21  26  ar  
 43  22  27  ar  
 44  22  45  1   
 45  23  24  1   
 46  23  46  1   
 47  23  47  1   
 48  24  48  1   
 49  24  49  1   
 50  25  28  1   
 51  26  29  ar  
 52  26  50  1   
 53  27  29  ar  
 54  27  51  1   
 55  28  52  1   
 56  28  53  1   
 57  28  54  1   
 58  29  55  1   
@<TRIPOS>SUBSTRUCTURE
  1 ****   4 GROUP 4 **** **** 0

# MOE 2024.06 (io_trps.svl 2023.06)
