@<TRIPOS>MOLECULE
NONAME
61 64 1 0 0 
SMALL
USER_CHARGES


@<TRIPOS>ATOM
  1 O       -1.0280    -0.2860    -2.0900 O.2   1 <1>  -0.5700 
  2 C       -1.5200     0.6740    -1.5390 C.2   1 <1>   0.5690 
  3 N       -1.9690     0.5640    -0.2590 N.am  1 <1>  -0.7300 
  4 C       -1.7050     2.0080    -2.3260 C.3   1 <1>   0.3410 
  5 C       -1.8340    -0.6160     0.6200 C.3   1 <1>   0.2200 
  6 O       -1.6680     3.1810    -1.5070 O.3   1 <1>  -0.3630 
  7 C       -3.1090     2.0240    -2.9490 C.3   1 <1>  -0.2400 
  8 C       -0.6760     2.1880    -3.4580 C.3   1 <1>  -0.2400 
  9 C       -3.1840    -1.2790     0.8470 C.3   1 <1>  -0.0800 
 10 C       -1.5120    -0.1420     2.0320 C.3   1 <1>   0.1200 
 11 C       -0.9380     3.2710    -0.3660 C.ar  1 <1>   0.0820 
 12 C       -3.7950    -0.4240     1.9610 C.3   1 <1>   0.1200 
 13 C       -4.0600    -1.4560    -0.4100 C.3   1 <1>  -0.0160 
 14 O       -2.7360     0.2380     2.5920 O.3   1 <1>  -0.5600 
 15 C       -1.5960     3.4460     0.8530 C.ar  1 <1>  -0.1440 
 16 C        0.4450     3.1820    -0.4100 C.ar  1 <1>  -0.1500 
 17 C       -5.3830    -2.1350    -0.0700 C.ar  1 <1>  -0.1440 
 18 C       -0.8490     3.4840     2.0280 C.ar  1 <1>  -0.1440 
 19 C       -3.1170     3.5830     0.9190 C.3   1 <1>  -0.0970 
 20 C        1.1790     3.2290     0.7580 C.ar  1 <1>  -0.1500 
 21 C       -6.5890    -1.4280     0.1680 C.ar  1 <1>   0.0000 
 22 C       -5.4230    -3.4960     0.0200 C.ar  1 <1>  -0.1500 
 23 C        0.5330     3.3740     1.9700 C.ar  1 <1>  -0.1500 
 24 C       -1.5100     3.6370     3.3920 C.3   1 <1>  -0.0970 
 25 C       -7.7370    -2.1880     0.5030 C.ar  1 <1>   0.3100 
 26 C       -6.7320    -0.0220     0.0930 C.ar  1 <1>  -0.1500 
 27 C       -6.6160    -4.1490     0.3490 C.ar  1 <1>   0.1600 
 28 N       -7.7340    -3.5420     0.5890 N.ar  1 <1>  -0.6200 
 29 C       -8.9460    -1.5220     0.7610 C.ar  1 <1>  -0.1500 
 30 C       -7.9260     0.5970     0.3480 C.ar  1 <1>  -0.1500 
 31 C       -9.0480    -0.1600     0.6890 C.ar  1 <1>  -0.1500 
 32 H       -2.2180     1.4280     0.2380 H     1 <1>   0.3700 
 33 H       -1.0910    -1.2950     0.2360 H     1 <1>   0.0800 
 34 H       -3.2260     1.1870    -3.6130 H     1 <1>   0.0800 
 35 H       -3.2630     2.9300    -3.5070 H     1 <1>   0.0800 
 36 H       -3.8550     1.9500    -2.1790 H     1 <1>   0.0800 
 37 H       -0.8560     1.4630    -4.2320 H     1 <1>   0.0800 
 38 H        0.3200     2.0180    -3.0990 H     1 <1>   0.0800 
 39 H       -0.7490     3.1720    -3.8840 H     1 <1>   0.0800 
 40 H       -3.0030    -2.2540     1.2630 H     1 <1>   0.0800 
 41 H       -0.8290     0.6880     2.0470 H     1 <1>   0.0800 
 42 H       -1.1190    -0.9500     2.6230 H     1 <1>   0.0800 
 43 H       -4.3210    -1.0220     2.6860 H     1 <1>   0.0800 
 44 H       -4.4500     0.3310     1.5680 H     1 <1>   0.0800 
 45 H       -3.5220    -2.0700    -1.1120 H     1 <1>   0.0800 
 46 H       -4.2310    -0.5200    -0.9050 H     1 <1>   0.0800 
 47 H        0.9580     3.0850    -1.3460 H     1 <1>   0.1500 
 48 H       -3.3760     4.5190     1.3810 H     1 <1>   0.0800 
 49 H       -3.5350     2.7820     1.5020 H     1 <1>   0.0800 
 50 H       -3.5740     3.5660    -0.0530 H     1 <1>   0.0800 
 51 H        2.2520     3.1560     0.7250 H     1 <1>   0.1500 
 52 H       -4.5490    -4.0960    -0.1550 H     1 <1>   0.1500 
 53 H        1.1170     3.4060     2.8730 H     1 <1>   0.1500 
 54 H       -0.7790     3.6280     4.1800 H     1 <1>   0.0800 
 55 H       -2.1940     2.8260     3.5630 H     1 <1>   0.0800 
 56 H       -2.0460     4.5670     3.4420 H     1 <1>   0.0800 
 57 H       -5.8900     0.5860    -0.1720 H     1 <1>   0.1500 
 58 H       -6.6010    -5.2240     0.4090 H     1 <1>   0.1500 
 59 H       -9.7960    -2.1260     1.0180 H     1 <1>   0.1500 
 60 H       -8.0170     1.6680     0.2890 H     1 <1>   0.1500 
 61 H       -9.9830     0.3370     0.8890 H     1 <1>   0.1500 
@<TRIPOS>BOND
  1   1   2  2   
  2   2   3  am  
  3   2   4  1   
  4   3   5  1   
  5   3  32  1   
  6   4   6  1   
  7   4   7  1   
  8   4   8  1   
  9   5   9  1   
 10   5  10  1   
 11   5  33  1   
 12   6  11  1   
 13   7  34  1   
 14   7  35  1   
 15   7  36  1   
 16   8  37  1   
 17   8  38  1   
 18   8  39  1   
 19   9  12  1   
 20   9  13  1   
 21   9  40  1   
 22  10  14  1   
 23  10  41  1   
 24  10  42  1   
 25  11  15  ar  
 26  11  16  ar  
 27  12  14  1   
 28  12  43  1   
 29  12  44  1   
 30  13  17  1   
 31  13  45  1   
 32  13  46  1   
 33  15  18  ar  
 34  15  19  1   
 35  16  20  ar  
 36  16  47  1   
 37  17  21  ar  
 38  17  22  ar  
 39  18  23  ar  
 40  18  24  1   
 41  19  48  1   
 42  19  49  1   
 43  19  50  1   
 44  20  23  ar  
 45  20  51  1   
 46  21  25  ar  
 47  21  26  ar  
 48  22  27  ar  
 49  22  52  1   
 50  23  53  1   
 51  24  54  1   
 52  24  55  1   
 53  24  56  1   
 54  25  28  ar  
 55  25  29  ar  
 56  26  30  ar  
 57  26  57  1   
 58  27  28  ar  
 59  27  58  1   
 60  29  31  ar  
 61  29  59  1   
 62  30  31  ar  
 63  30  60  1   
 64  31  61  1   
@<TRIPOS>SUBSTRUCTURE
  1 ****   3 GROUP 4 **** **** 0

# MOE 2024.06 (io_trps.svl 2023.06)
