@<TRIPOS>MOLECULE
NONAME
43 45 1 0 0 
SMALL
USER_CHARGES


@<TRIPOS>ATOM
  1 O        3.8700    -1.3220     0.5630 O.2   1 <1>  -0.5700 
  2 C        2.6970    -1.2980     0.2740 C.2   1 <1>   0.5690 
  3 N        1.9880    -0.1260     0.1750 N.am  1 <1>  -0.4940 
  4 C        1.9990    -2.6370     0.0120 C.3   1 <1>   0.2370 
  5 C        2.3440     1.2090     0.4860 C.2   1 <1>  -0.0880 
  6 N        0.6150    -2.4160    -0.4900 N.pl3 1 <1>   0.0480 
  7 C        2.0130    -3.5540     1.2580 C.3   1 <1>  -0.1600 
  8 N        3.5120     1.8700     0.2160 N.pl3 1 <1>   0.3140 
  9 C        1.5380     2.0960     1.1140 C.2   1 <1>  -0.1500 
 10 C        0.2340    -2.4350    -1.7970 C.2   1 <1>  -0.3020 
 11 C       -0.4770    -2.0300     0.2310 C.2   1 <1>  -0.3020 
 12 C        1.3910    -4.9370     1.0070 C.3   1 <1>  -0.2400 
 13 N        3.4470     3.1530     0.6700 N.2   1 <1>  -0.7070 
 14 C        4.6800     1.3510    -0.5700 C.3   1 <1>   0.1760 
 15 C        2.2730     3.2680     1.2020 C.2   1 <1>   0.1390 
 16 C       -1.0720    -2.0750    -1.9000 C.2   1 <1>  -0.1500 
 17 C       -1.5260    -1.8170    -0.6040 C.2   1 <1>  -0.1500 
 18 C        5.8920     1.0950     0.3300 C.3   1 <1>  -0.1600 
 19 C        5.2010     2.3660    -1.5970 C.3   1 <1>  -0.1600 
 20 C        6.6550     2.4190     0.3890 C.3   1 <1>  -0.1600 
 21 C        6.3100     3.1680    -0.9030 C.3   1 <1>  -0.1600 
 22 H        0.9930    -0.2610    -0.0450 H     1 <1>   0.3700 
 23 H        2.5500    -3.1300    -0.7670 H     1 <1>   0.0800 
 24 H        1.5070    -3.0670     2.0730 H     1 <1>   0.0800 
 25 H        3.0360    -3.6940     1.5630 H     1 <1>   0.0800 
 26 H        0.5390     1.9520     1.4810 H     1 <1>   0.1500 
 27 H        0.9080    -2.7010    -2.5930 H     1 <1>   0.1500 
 28 H       -0.4590    -1.9270     1.3030 H     1 <1>   0.1500 
 29 H        0.3460    -4.8510     0.7620 H     1 <1>   0.0800 
 30 H        1.4780    -5.5430     1.8920 H     1 <1>   0.0800 
 31 H        1.8950    -5.4380     0.2000 H     1 <1>   0.0800 
 32 H        4.3770     0.4530    -1.0720 H     1 <1>   0.0800 
 33 H        1.9190     4.1780     1.6570 H     1 <1>   0.1500 
 34 H       -1.6690    -1.9960    -2.7930 H     1 <1>   0.1500 
 35 H       -2.5270    -1.5100    -0.3500 H     1 <1>   0.1500 
 36 H        6.5140     0.3520    -0.1370 H     1 <1>   0.0800 
 37 H        5.6050     0.7410     1.3060 H     1 <1>   0.0800 
 38 H        4.4150     3.0000    -1.9710 H     1 <1>   0.0800 
 39 H        5.6320     1.8270    -2.4210 H     1 <1>   0.0800 
 40 H        7.7150     2.2620     0.4940 H     1 <1>   0.0800 
 41 H        6.3020     2.9910     1.2310 H     1 <1>   0.0800 
 42 H        5.9540     4.1560    -0.6610 H     1 <1>   0.0800 
 43 H        7.1710     3.2560    -1.5430 H     1 <1>   0.0800 
@<TRIPOS>BOND
  1   1   2  2   
  2   2   3  am  
  3   2   4  1   
  4   3   5  1   
  5   3  22  1   
  6   4   6  1   
  7   4   7  1   
  8   4  23  1   
  9   5   8  1   
 10   5   9  2   
 11   6  10  1   
 12   6  11  1   
 13   7  12  1   
 14   7  24  1   
 15   7  25  1   
 16   8  13  1   
 17   8  14  1   
 18   9  15  1   
 19   9  26  1   
 20  10  16  2   
 21  10  27  1   
 22  11  17  2   
 23  11  28  1   
 24  12  29  1   
 25  12  30  1   
 26  12  31  1   
 27  13  15  2   
 28  14  18  1   
 29  14  19  1   
 30  14  32  1   
 31  15  33  1   
 32  16  17  1   
 33  16  34  1   
 34  17  35  1   
 35  18  20  1   
 36  18  36  1   
 37  18  37  1   
 38  19  21  1   
 39  19  38  1   
 40  19  39  1   
 41  20  21  1   
 42  20  40  1   
 43  20  41  1   
 44  21  42  1   
 45  21  43  1   
@<TRIPOS>SUBSTRUCTURE
  1 ****   3 GROUP 4 **** **** 0

# MOE 2024.06 (io_trps.svl 2023.06)
