@<TRIPOS>MOLECULE
NONAME
42 45 1 0 0 
SMALL
USER_CHARGES


@<TRIPOS>ATOM
  1 CL      -0.8150    -0.5340     0.7710 Cl    1 <1>  -0.1230 
  2 C        0.6420    -1.4980     0.8120 C.2   1 <1>   0.1230 
  3 C        1.7290    -1.1880    -0.0750 C.ar  1 <1>   0.0000 
  4 C        0.8130    -2.5600     1.6160 C.2   1 <1>  -0.1400 
  5 C        2.7860    -2.0740     0.0840 C.ar  1 <1>   0.0400 
  6 C        1.8560    -0.1820    -1.0300 C.ar  1 <1>  -0.1500 
  7 S        2.4080    -3.2690     1.3380 S.3   1 <1>  -0.0800 
  8 C       -0.0820    -3.2110     2.6520 C.3   1 <1>   0.3890 
  9 C        3.9510    -2.0040    -0.6560 C.ar  1 <1>  -0.1500 
 10 C        3.0140    -0.0950    -1.7850 C.ar  1 <1>  -0.1500 
 11 N       -0.6460    -4.5060     2.1800 N.pl3 1 <1>  -0.8690 
 12 C        4.0560    -0.9990    -1.6020 C.ar  1 <1>  -0.1500 
 13 C       -0.7400    -5.1450     1.0070 C.ar  1 <1>   0.7710 
 14 N       -1.4200    -6.2710     1.0340 N.ar  1 <1>  -0.6200 
 15 N       -0.1780    -4.6630    -0.1170 N.ar  1 <1>  -0.1790 
 16 C       -1.5540    -6.9460    -0.0940 C.ar  1 <1>   0.4100 
 17 C       -0.2930    -5.3190    -1.2950 C.ar  1 <1>   0.2110 
 18 N       -2.2580    -8.1060    -0.0470 N.pl3 1 <1>  -0.8380 
 19 C       -0.9920    -6.4790    -1.2990 C.ar  1 <1>  -0.1500 
 20 C       -2.4250    -9.1050    -1.1450 C.3   1 <1>   0.2090 
 21 C       -2.9570    -8.5980     1.1750 C.3   1 <1>   0.2090 
 22 C       -2.8290   -10.3970    -0.4370 C.3   1 <1>   0.2000 
 23 C       -3.6230    -9.9120     0.7660 C.3   1 <1>  -0.1600 
 24 O       -1.6860   -11.0170     0.0360 O.3   1 <1>  -0.6800 
 25 H        1.0600     0.5270    -1.1760 H     1 <1>   0.1500 
 26 H       -0.8940    -2.5450     2.8930 H     1 <1>   0.0800 
 27 H        0.4860    -3.3760     3.5530 H     1 <1>   0.0800 
 28 H        4.7500    -2.7070    -0.4970 H     1 <1>   0.1500 
 29 H        3.1150     0.6840    -2.5220 H     1 <1>   0.1500 
 30 H       -1.1240    -5.0160     2.9320 H     1 <1>   0.4000 
 31 H        4.9500    -0.9100    -2.1980 H     1 <1>   0.1500 
 32 H        0.3540    -3.8020    -0.0140 H     1 <1>   0.4570 
 33 H        0.1670    -4.9040    -2.1780 H     1 <1>   0.1500 
 34 H       -1.1260    -7.0450    -2.2000 H     1 <1>   0.1500 
 35 H       -1.5220    -9.2460    -1.7140 H     1 <1>   0.0800 
 36 H       -3.2210    -8.7850    -1.7950 H     1 <1>   0.0800 
 37 H       -3.6830    -7.8800     1.5170 H     1 <1>   0.0800 
 38 H       -2.2330    -8.7720     1.9540 H     1 <1>   0.0800 
 39 H       -3.3650   -11.0880    -1.0660 H     1 <1>   0.0800 
 40 H       -4.6340    -9.7040     0.4640 H     1 <1>   0.0800 
 41 H       -3.6460   -10.6300     1.5660 H     1 <1>   0.0800 
 42 H       -1.1660   -10.3610     0.5420 H     1 <1>   0.4000 
@<TRIPOS>BOND
  1   1   2  1   
  2   2   3  1   
  3   2   4  2   
  4   3   5  ar  
  5   3   6  ar  
  6   4   7  1   
  7   4   8  1   
  8   5   7  1   
  9   5   9  ar  
 10   6  10  ar  
 11   6  25  1   
 12   8  11  1   
 13   8  26  1   
 14   8  27  1   
 15   9  12  ar  
 16   9  28  1   
 17  10  12  ar  
 18  10  29  1   
 19  11  13  1   
 20  11  30  1   
 21  12  31  1   
 22  13  14  ar  
 23  13  15  ar  
 24  14  16  ar  
 25  15  17  ar  
 26  15  32  1   
 27  16  18  1   
 28  16  19  ar  
 29  17  19  ar  
 30  17  33  1   
 31  18  20  1   
 32  18  21  1   
 33  19  34  1   
 34  20  22  1   
 35  20  35  1   
 36  20  36  1   
 37  21  23  1   
 38  21  37  1   
 39  21  38  1   
 40  22  23  1   
 41  22  24  1   
 42  22  39  1   
 43  23  40  1   
 44  23  41  1   
 45  24  42  1   
@<TRIPOS>SUBSTRUCTURE
  1 ****  15 GROUP 4 **** **** 0

# MOE 2024.06 (io_trps.svl 2023.06)
