@<TRIPOS>MOLECULE
NONAME
40 42 1 0 0 
SMALL
USER_CHARGES


@<TRIPOS>ATOM
  1 O        1.8300    -0.8650    -0.0380 O.2   1 <1>  -0.5700 
  2 C        1.2420    -1.5850    -0.8040 C.2   1 <1>   0.5690 
  3 N        1.0450    -1.2120    -2.0830 N.am  1 <1>  -0.8000 
  4 C        0.7010    -2.9340    -0.3240 C.3   1 <1>   0.1710 
  5 N       -0.5610    -3.3720    -0.9950 N.3   1 <1>  -0.8100 
  6 C       -1.7170    -2.5340    -0.6230 C.3   1 <1>   0.1100 
  7 C       -0.9370    -4.7260    -0.5800 C.3   1 <1>   0.1100 
  8 C       -2.3900    -3.1950     0.5860 C.3   1 <1>   0.2000 
  9 C       -1.7200    -4.5630     0.7250 C.3   1 <1>  -0.0800 
 10 O       -2.1620    -2.4550     1.7360 O.3   1 <1>  -0.6800 
 11 C       -2.7140    -5.6990     1.0120 C.3   1 <1>  -0.0170 
 12 C       -1.9820    -7.0320     1.1460 C.ar  1 <1>  -0.1430 
 13 C       -1.8290    -7.9570     0.0830 C.ar  1 <1>   0.0000 
 14 C       -1.4190    -7.3540     2.3460 C.ar  1 <1>  -0.1500 
 15 C       -1.0730    -9.1290     0.3400 C.ar  1 <1>   0.3100 
 16 C       -2.3740    -7.7990    -1.2140 C.ar  1 <1>  -0.1500 
 17 C       -0.7050    -8.5480     2.4970 C.ar  1 <1>   0.1600 
 18 N       -0.5210    -9.4080     1.5470 N.ar  1 <1>  -0.6200 
 19 C       -0.8790   -10.0560    -0.6960 C.ar  1 <1>  -0.1500 
 20 C       -2.1680    -8.7250    -2.2000 C.ar  1 <1>  -0.1500 
 21 C       -1.4090    -9.8680    -1.9420 C.ar  1 <1>  -0.1500 
 22 H        1.3770    -0.3120    -2.4270 H     1 <1>   0.3700 
 23 H        0.4800    -1.7930    -2.7060 H     1 <1>   0.3700 
 24 H        0.5590    -2.8810     0.7400 H     1 <1>   0.0800 
 25 H        1.4680    -3.6640    -0.5140 H     1 <1>   0.0800 
 26 H       -1.4400    -1.5110    -0.4280 H     1 <1>   0.0800 
 27 H       -2.4110    -2.5440    -1.4450 H     1 <1>   0.0800 
 28 H       -1.5740    -5.1410    -1.3410 H     1 <1>   0.0800 
 29 H       -0.0800    -5.3690    -0.4620 H     1 <1>   0.0800 
 30 H       -3.4540    -3.2640     0.4390 H     1 <1>   0.0800 
 31 H       -1.0020    -4.5350     1.5250 H     1 <1>   0.0800 
 32 H       -1.2120    -2.2440     1.8140 H     1 <1>   0.4000 
 33 H       -3.4770    -5.7410     0.2580 H     1 <1>   0.0800 
 34 H       -3.2140    -5.4840     1.9410 H     1 <1>   0.0800 
 35 H       -1.5000    -6.7030     3.1970 H     1 <1>   0.1500 
 36 H       -2.9670    -6.9360    -1.4410 H     1 <1>   0.1500 
 37 H       -0.2780    -8.7610     3.4620 H     1 <1>   0.1500 
 38 H       -0.2950   -10.9300    -0.4720 H     1 <1>   0.1500 
 39 H       -2.5870    -8.5890    -3.1830 H     1 <1>   0.1500 
 40 H       -1.2520   -10.5890    -2.7260 H     1 <1>   0.1500 
@<TRIPOS>BOND
  1   1   2  2   
  2   2   3  am  
  3   2   4  1   
  4   3  22  1   
  5   3  23  1   
  6   4   5  1   
  7   4  24  1   
  8   4  25  1   
  9   5   6  1   
 10   5   7  1   
 11   6   8  1   
 12   6  26  1   
 13   6  27  1   
 14   7   9  1   
 15   7  28  1   
 16   7  29  1   
 17   8   9  1   
 18   8  10  1   
 19   8  30  1   
 20   9  11  1   
 21   9  31  1   
 22  10  32  1   
 23  11  12  1   
 24  11  33  1   
 25  11  34  1   
 26  12  13  ar  
 27  12  14  ar  
 28  13  15  ar  
 29  13  16  ar  
 30  14  17  ar  
 31  14  35  1   
 32  15  18  ar  
 33  15  19  ar  
 34  16  20  ar  
 35  16  36  1   
 36  17  18  ar  
 37  17  37  1   
 38  19  21  ar  
 39  19  38  1   
 40  20  21  ar  
 41  20  39  1   
 42  21  40  1   
@<TRIPOS>SUBSTRUCTURE
  1 ****   7 GROUP 4 **** **** 0

# MOE 2024.06 (io_trps.svl 2023.06)
