@<TRIPOS>MOLECULE
NONAME
45 47 1 0 0 
SMALL
USER_CHARGES


@<TRIPOS>ATOM
  1 O       -0.6430     0.1920     0.7340 O.2   1 <1>  -0.5700 
  2 C       -1.6630     0.7680     0.4020 C.2   1 <1>   0.5440 
  3 N       -1.5680     2.0640    -0.0750 N.am  1 <1>  -0.6600 
  4 C       -2.9260     0.0780     0.5060 C.ar  1 <1>   0.0860 
  5 C       -2.5960     2.7000    -0.9440 C.3   1 <1>   0.0600 
  6 C       -0.3120     2.8510     0.0730 C.3   1 <1>   0.0600 
  7 C       -3.0450    -1.2410     0.0780 C.ar  1 <1>   0.1600 
  8 C       -4.0700     0.6670     1.0350 C.ar  1 <1>  -0.1500 
  9 N       -4.1490    -1.9670     0.0940 N.ar  1 <1>  -0.6200 
 10 C       -5.2240    -0.0750     1.0670 C.ar  1 <1>  -0.1500 
 11 C       -5.2390    -1.3820     0.5800 C.ar  1 <1>   0.4100 
 12 N       -6.4030    -2.1240     0.5920 N.pl3 1 <1>  -0.8380 
 13 C       -7.7260    -1.5130     0.3040 C.3   1 <1>   0.2090 
 14 C       -6.4100    -3.5560     0.1870 C.3   1 <1>   0.2090 
 15 C       -8.5610    -2.6290    -0.3280 C.3   1 <1>   0.2000 
 16 C       -7.8880    -3.9330     0.0870 C.3   1 <1>  -0.0800 
 17 O       -9.8750    -2.6120     0.1210 O.3   1 <1>  -0.6800 
 18 C       -8.1820    -5.0880    -0.8860 C.3   1 <1>  -0.0170 
 19 C       -7.5380    -6.3880    -0.4300 C.ar  1 <1>   0.1670 
 20 N       -6.2620    -6.5550    -0.7360 N.ar  1 <1>  -0.6200 
 21 C       -8.2890    -7.3280     0.2740 C.ar  1 <1>   0.1600 
 22 C       -5.7910    -7.7080    -0.2940 C.ar  1 <1>   0.1600 
 23 N       -7.8210    -8.4830     0.7170 N.ar  1 <1>  -0.6200 
 24 C       -6.5440    -8.6410     0.4090 C.ar  1 <1>   0.1600 
 25 H       -2.1230     3.1390    -1.8060 H     1 <1>   0.0800 
 26 H       -3.1070     3.4710    -0.3940 H     1 <1>   0.0800 
 27 H       -3.3130     1.9750    -1.2870 H     1 <1>   0.0800 
 28 H       -0.5460     3.8710     0.3220 H     1 <1>   0.0800 
 29 H        0.2420     2.8250    -0.8490 H     1 <1>   0.0800 
 30 H        0.3010     2.4400     0.8570 H     1 <1>   0.0800 
 31 H       -2.1580    -1.7170    -0.3060 H     1 <1>   0.1500 
 32 H       -4.0370     1.6740     1.4120 H     1 <1>   0.1500 
 33 H       -6.1230     0.3400     1.4780 H     1 <1>   0.1500 
 34 H       -8.1680    -1.1800     1.2270 H     1 <1>   0.0800 
 35 H       -7.6210    -0.6880    -0.3790 H     1 <1>   0.0800 
 36 H       -5.9260    -3.6630    -0.7700 H     1 <1>   0.0800 
 37 H       -5.8920    -4.1610     0.9130 H     1 <1>   0.0800 
 38 H       -8.5650    -2.5130    -1.3980 H     1 <1>   0.0800 
 39 H       -8.2090    -4.2050     1.0770 H     1 <1>   0.0800 
 40 H       -9.9020    -2.7340     1.0900 H     1 <1>   0.4000 
 41 H       -7.8180    -4.8430    -1.8680 H     1 <1>   0.0800 
 42 H       -9.2460    -5.2230    -0.9620 H     1 <1>   0.0800 
 43 H       -9.3230    -7.1160     0.4810 H     1 <1>   0.1500 
 44 H       -4.7570    -7.9270    -0.4970 H     1 <1>   0.1500 
 45 H       -6.0710    -9.5520     0.7280 H     1 <1>   0.1500 
@<TRIPOS>BOND
  1   1   2  2   
  2   2   3  am  
  3   2   4  1   
  4   3   5  1   
  5   3   6  1   
  6   4   7  ar  
  7   4   8  ar  
  8   5  25  1   
  9   5  26  1   
 10   5  27  1   
 11   6  28  1   
 12   6  29  1   
 13   6  30  1   
 14   7   9  ar  
 15   7  31  1   
 16   8  10  ar  
 17   8  32  1   
 18   9  11  ar  
 19  10  11  ar  
 20  10  33  1   
 21  11  12  1   
 22  12  13  1   
 23  12  14  1   
 24  13  15  1   
 25  13  34  1   
 26  13  35  1   
 27  14  16  1   
 28  14  36  1   
 29  14  37  1   
 30  15  16  1   
 31  15  17  1   
 32  15  38  1   
 33  16  18  1   
 34  16  39  1   
 35  17  40  1   
 36  18  19  1   
 37  18  41  1   
 38  18  42  1   
 39  19  20  ar  
 40  19  21  ar  
 41  20  22  ar  
 42  21  23  ar  
 43  21  43  1   
 44  22  24  ar  
 45  22  44  1   
 46  23  24  ar  
 47  24  45  1   
@<TRIPOS>SUBSTRUCTURE
  1 ****  12 GROUP 4 **** **** 0

# MOE 2024.06 (io_trps.svl 2023.06)
