@<TRIPOS>MOLECULE
NONAME
56 60 1 0 0 
SMALL
USER_CHARGES


@<TRIPOS>ATOM
  1 S       -0.3370     1.2950    -2.2670 S.3   1 <1>  -0.0800 
  2 C       -1.2080     1.6480    -0.7820 C.2   1 <1>  -0.1400 
  3 C       -1.6030     0.1890    -2.7840 C.2   1 <1>  -0.1100 
  4 C       -2.3620     0.9700    -0.7380 C.2   1 <1>  -0.1810 
  5 C       -0.6780     2.6070     0.2780 C.3   1 <1>   0.4600 
  6 C       -2.5930     0.1300    -1.8720 C.2   1 <1>  -0.1500 
  7 C       -3.2800     1.1400     0.4510 C.3   1 <1>   0.0210 
  8 O       -1.5340     2.5530     1.4040 O.3   1 <1>  -0.5600 
  9 C        0.7070     2.1720     0.7670 C.3   1 <1>  -0.1600 
 10 C       -0.6290     4.0510    -0.2410 C.3   1 <1>  -0.1600 
 11 C       -2.9210     2.4500     1.1800 C.3   1 <1>   0.1200 
 12 C        1.2690     3.1440     1.8050 C.3   1 <1>   0.1400 
 13 C       -0.0600     5.0090     0.8070 C.3   1 <1>   0.1400 
 14 N        1.2800     4.5230     1.2380 N.am  1 <1>  -0.6600 
 15 C        2.4580     5.2090     1.0150 C.2   1 <1>   0.5440 
 16 O        3.5150     4.6110     1.0840 O.2   1 <1>  -0.5700 
 17 C        2.4750     6.6210     0.6890 C.ar  1 <1>   0.0860 
 18 C        1.8520     7.5700     1.4990 C.ar  1 <1>  -0.1500 
 19 C        3.1290     7.0850    -0.4510 C.ar  1 <1>  -0.1500 
 20 C        1.8760     8.9140     1.1800 C.ar  1 <1>  -0.1500 
 21 C        3.1530     8.4300    -0.7690 C.ar  1 <1>  -0.1500 
 22 C        2.5340     9.3800     0.0430 C.ar  1 <1>   0.0860 
 23 C        2.5650    10.7950    -0.2740 C.2   1 <1>   0.5440 
 24 O        1.5220    11.4210    -0.2840 O.2   1 <1>  -0.5700 
 25 N        3.7450    11.4540    -0.5500 N.am  1 <1>  -0.6600 
 26 C        3.7700    12.8580    -1.0640 C.3   1 <1>   0.1400 
 27 C        5.0950    10.9530    -0.1500 C.3   1 <1>   0.1400 
 28 C        4.5590    13.7690    -0.1100 C.3   1 <1>   0.1200 
 29 C        5.8080    11.9790     0.7480 C.3   1 <1>   0.1200 
 30 O        5.8310    13.2390     0.1410 O.3   1 <1>  -0.5600 
 31 H       -1.4690    -0.3070    -3.7280 H     1 <1>   0.1500 
 32 H       -3.4810    -0.4730    -1.9490 H     1 <1>   0.1500 
 33 H       -3.1690     0.3060     1.1200 H     1 <1>   0.0800 
 34 H       -4.3040     1.1830     0.1260 H     1 <1>   0.0800 
 35 H        1.3900     2.1290    -0.0610 H     1 <1>   0.0800 
 36 H        0.6420     1.1850     1.1860 H     1 <1>   0.0800 
 37 H       -1.6090     4.3690    -0.5420 H     1 <1>   0.0800 
 38 H       -0.0020     4.0890    -1.1130 H     1 <1>   0.0800 
 39 H       -3.4110     2.4880     2.1370 H     1 <1>   0.0800 
 40 H       -3.2360     3.2990     0.5990 H     1 <1>   0.0800 
 41 H        2.2620     2.8380     2.0880 H     1 <1>   0.0800 
 42 H        0.6550     3.1320     2.6890 H     1 <1>   0.0800 
 43 H       -0.7120     5.0470     1.6640 H     1 <1>   0.0800 
 44 H        0.0010     5.9950     0.3840 H     1 <1>   0.0800 
 45 H        1.3460     7.2390     2.3900 H     1 <1>   0.1500 
 46 H        3.6230     6.3700    -1.0870 H     1 <1>   0.1500 
 47 H        1.3800     9.6280     1.8160 H     1 <1>   0.1500 
 48 H        3.6570     8.7580    -1.6620 H     1 <1>   0.1500 
 49 H        2.7720    13.2430    -1.1790 H     1 <1>   0.0800 
 50 H        4.2400    12.8710    -2.0310 H     1 <1>   0.0800 
 51 H        5.6870    10.7850    -1.0320 H     1 <1>   0.0800 
 52 H        5.0180    10.0240     0.3840 H     1 <1>   0.0800 
 53 H        4.0360    13.8780     0.8250 H     1 <1>   0.0800 
 54 H        4.6880    14.7420    -0.5480 H     1 <1>   0.0800 
 55 H        6.8270    11.6790     0.9190 H     1 <1>   0.0800 
 56 H        5.3080    12.0620     1.6980 H     1 <1>   0.0800 
@<TRIPOS>BOND
  1   1   2  1   
  2   1   3  1   
  3   2   4  2   
  4   2   5  1   
  5   3   6  2   
  6   3  31  1   
  7   4   6  1   
  8   4   7  1   
  9   5   8  1   
 10   5   9  1   
 11   5  10  1   
 12   6  32  1   
 13   7  11  1   
 14   7  33  1   
 15   7  34  1   
 16   8  11  1   
 17   9  12  1   
 18   9  35  1   
 19   9  36  1   
 20  10  13  1   
 21  10  37  1   
 22  10  38  1   
 23  11  39  1   
 24  11  40  1   
 25  12  14  1   
 26  12  41  1   
 27  12  42  1   
 28  13  14  1   
 29  13  43  1   
 30  13  44  1   
 31  14  15  am  
 32  15  16  2   
 33  15  17  1   
 34  17  18  ar  
 35  17  19  ar  
 36  18  20  ar  
 37  18  45  1   
 38  19  21  ar  
 39  19  46  1   
 40  20  22  ar  
 41  20  47  1   
 42  21  22  ar  
 43  21  48  1   
 44  22  23  1   
 45  23  24  2   
 46  23  25  am  
 47  25  26  1   
 48  25  27  1   
 49  26  28  1   
 50  26  49  1   
 51  26  50  1   
 52  27  29  1   
 53  27  51  1   
 54  27  52  1   
 55  28  30  1   
 56  28  53  1   
 57  28  54  1   
 58  29  30  1   
 59  29  55  1   
 60  29  56  1   
@<TRIPOS>SUBSTRUCTURE
  1 ****  17 GROUP 4 **** **** 0

# MOE 2024.06 (io_trps.svl 2023.06)
