@<TRIPOS>MOLECULE
NONAME
49 51 1 0 0 
SMALL
USER_CHARGES


@<TRIPOS>ATOM
  1 O        0.4010     1.1680    -1.7940 O.2   1 <1>  -0.5700 
  2 C        0.3050     2.2940    -1.3640 C.2   1 <1>   0.5690 
  3 N       -0.8050     2.7260    -0.6860 N.am  1 <1>  -0.6600 
  4 C        1.4650     3.2590    -1.6270 C.3   1 <1>   0.1810 
  5 C       -0.8840     4.1200    -0.1410 C.3   1 <1>   0.3640 
  6 C       -1.9170     1.8030    -0.3110 C.3   1 <1>   0.0600 
  7 O        1.4630     4.3860    -0.7830 O.3   1 <1>  -0.5600 
  8 C       -2.2600     4.7320    -0.4460 C.ar  1 <1>  -0.1440 
  9 C        0.2160     5.0450    -0.7110 C.3   1 <1>   0.2610 
 10 C       -3.0860     5.2610     0.5460 C.ar  1 <1>  -0.1440 
 11 C       -2.6900     4.7670    -1.7690 C.ar  1 <1>  -0.1500 
 12 C        0.3190     6.3160     0.1360 C.2   1 <1>   0.5690 
 13 C       -4.3020     5.8260     0.1930 C.ar  1 <1>  -0.1500 
 14 C       -2.7150     5.2400     2.0240 C.3   1 <1>  -0.0960 
 15 C       -3.9050     5.3310    -2.1100 C.ar  1 <1>  -0.1500 
 16 O        0.5230     6.2330     1.3280 O.2   1 <1>  -0.5700 
 17 N        0.2010     7.5350    -0.4610 N.am  1 <1>  -0.7300 
 18 C       -4.7120     5.8650    -1.1260 C.ar  1 <1>  -0.1500 
 19 C        0.2810     8.8290     0.2580 C.3   1 <1>   0.2780 
 20 C        1.7390     9.1830     0.5220 C.2   1 <1>  -0.0380 
 21 N        2.4910     8.2990     1.2480 N.pl3 1 <1>  -0.5500 
 22 C        2.3660    10.3030     0.1010 C.2   1 <1>  -0.1360 
 23 C        3.8050     8.5270     1.5220 C.2   1 <1>   0.4390 
 24 C        3.7360    10.5070     0.4180 C.2   1 <1>   0.7670 
 25 N        4.4330     9.5770     1.1420 N.2   1 <1>  -0.6610 
 26 C        4.5210     7.4630     2.3150 C.3   1 <1>  -0.1790 
 27 O        4.3100    11.5180     0.0450 O.2   1 <1>  -0.5700 
 28 H        1.4240     3.5970    -2.6460 H     1 <1>   0.0800 
 29 H        2.3950     2.7410    -1.4740 H     1 <1>   0.0800 
 30 H       -0.7350     4.0510     0.9210 H     1 <1>   0.0800 
 31 H       -2.0970     1.8580     0.7480 H     1 <1>   0.0800 
 32 H       -1.6710     0.7870    -0.5650 H     1 <1>   0.0800 
 33 H       -2.8150     2.0790    -0.8350 H     1 <1>   0.0800 
 34 H       -0.0460     5.3310    -1.7120 H     1 <1>   0.0800 
 35 H       -2.0820     4.3430    -2.5490 H     1 <1>   0.1500 
 36 H       -4.9470     6.2420     0.9480 H     1 <1>   0.1500 
 37 H       -3.5330     5.5820     2.6320 H     1 <1>   0.0800 
 38 H       -1.8750     5.8840     2.2100 H     1 <1>   0.0800 
 39 H       -2.4720     4.2410     2.3370 H     1 <1>   0.0800 
 40 H       -4.2240     5.3500    -3.1380 H     1 <1>   0.1500 
 41 H        0.1530     7.6080    -1.4790 H     1 <1>   0.3700 
 42 H       -5.6590     6.3070    -1.3850 H     1 <1>   0.1500 
 43 H       -0.1940     9.5970    -0.3280 H     1 <1>   0.0800 
 44 H       -0.2420     8.7480     1.1970 H     1 <1>   0.0800 
 45 H        2.0500     7.4140     1.5550 H     1 <1>   0.4000 
 46 H        1.8890    11.0720    -0.4730 H     1 <1>   0.1500 
 47 H        4.0480     7.3400     3.2710 H     1 <1>   0.0800 
 48 H        5.5470     7.7460     2.4690 H     1 <1>   0.0800 
 49 H        4.4950     6.5320     1.7800 H     1 <1>   0.0800 
@<TRIPOS>BOND
  1   1   2  2   
  2   2   3  am  
  3   2   4  1   
  4   3   5  1   
  5   3   6  1   
  6   4   7  1   
  7   4  28  1   
  8   4  29  1   
  9   5   8  1   
 10   5   9  1   
 11   5  30  1   
 12   6  31  1   
 13   6  32  1   
 14   6  33  1   
 15   7   9  1   
 16   8  10  ar  
 17   8  11  ar  
 18   9  12  1   
 19   9  34  1   
 20  10  13  ar  
 21  10  14  1   
 22  11  15  ar  
 23  11  35  1   
 24  12  16  2   
 25  12  17  am  
 26  13  18  ar  
 27  13  36  1   
 28  14  37  1   
 29  14  38  1   
 30  14  39  1   
 31  15  18  ar  
 32  15  40  1   
 33  17  19  1   
 34  17  41  1   
 35  18  42  1   
 36  19  20  1   
 37  19  43  1   
 38  19  44  1   
 39  20  21  1   
 40  20  22  2   
 41  21  23  1   
 42  21  45  1   
 43  22  24  1   
 44  22  46  1   
 45  23  25  2   
 46  23  26  1   
 47  24  25  1   
 48  24  27  2   
 49  26  47  1   
 50  26  48  1   
 51  26  49  1   
@<TRIPOS>SUBSTRUCTURE
  1 ****  12 GROUP 4 **** **** 0

# MOE 2024.06 (io_trps.svl 2023.06)
