@<TRIPOS>MOLECULE
NONAME
51 53 1 0 0 
SMALL
USER_CHARGES


@<TRIPOS>ATOM
  1 O        3.0410    -0.9240    -3.3870 O.3   1 <1>  -0.6800 
  2 C        2.8540    -1.1270    -2.0300 C.3   1 <1>   0.1200 
  3 C        4.1310    -0.6940    -1.2930 C.3   1 <1>   0.3430 
  4 N        4.0370    -0.8920     0.1920 N.4   1 <1>  -0.9590 
  5 C        5.0530    -0.1240     0.9550 C.3   1 <1>   0.4860 
  6 C        4.0120    -2.3170     0.5990 C.3   1 <1>   0.5240 
  7 C        4.9240     1.3620     0.6380 C.ar  1 <1>  -0.1430 
  8 C        2.5470    -2.7060     0.7570 C.2   1 <1>   0.0460 
  9 C        5.8990     2.0060    -0.1410 C.ar  1 <1>  -0.0230 
 10 C        3.8300     2.0810     1.1170 C.ar  1 <1>  -0.1430 
 11 N        1.6650    -1.8020     1.2400 N.2   1 <1>  -0.5650 
 12 C        1.9290    -3.8740     0.4600 C.2   1 <1>  -0.3320 
 13 N        7.0660     1.3470    -0.6380 N.pl3 1 <1>   0.5930 
 14 C        5.7310     3.3540    -0.4450 C.ar  1 <1>  -0.1500 
 15 C        3.7000     3.4220     0.7980 C.ar  1 <1>  -0.1500 
 16 C        2.7380     1.4700     1.9910 C.3   1 <1>  -0.0970 
 17 C        0.5390    -2.4390     1.2400 C.2   1 <1>   0.0360 
 18 N        0.6310    -3.7040     0.7780 N.pl3 1 <1>   0.0330 
 19 C        2.4630    -5.1790    -0.1080 C.3   1 <1>  -0.0600 
 20 N        7.0570     0.1130    -1.2140 N.2   1 <1>  -0.7070 
 21 C        8.3330     1.8290    -0.6210 C.2   1 <1>  -0.3020 
 22 C        4.6420     4.0640     0.0180 C.ar  1 <1>  -0.1430 
 23 C        8.2870    -0.1230    -1.5540 C.2   1 <1>   0.1390 
 24 C        9.1370     0.9170    -1.2030 C.2   1 <1>  -0.1500 
 25 C        4.4710     5.5340    -0.3230 C.3   1 <1>  -0.0970 
 26 H        2.2270    -1.1180    -3.8950 H     1 <1>   0.4000 
 27 H        2.6470    -2.1720    -1.8830 H     1 <1>   0.0800 
 28 H        2.0140    -0.5330    -1.7130 H     1 <1>   0.0800 
 29 H        4.2930     0.3490    -1.5070 H     1 <1>   0.0800 
 30 H        4.9730    -1.2440    -1.6820 H     1 <1>   0.0800 
 31 H        3.1110    -0.5470     0.4980 H     1 <1>   0.4500 
 32 H        6.0400    -0.4850     0.7270 H     1 <1>   0.0800 
 33 H        4.8950    -0.2660     2.0110 H     1 <1>   0.0800 
 34 H        4.4990    -2.4410     1.5510 H     1 <1>   0.0800 
 35 H        4.5000    -2.9400    -0.1320 H     1 <1>   0.0800 
 36 H        6.4600     3.8570    -1.0570 H     1 <1>   0.1500 
 37 H        2.8530     3.9820     1.1580 H     1 <1>   0.1500 
 38 H        3.1240     0.7240     2.6600 H     1 <1>   0.0800 
 39 H        1.9720     1.0330     1.3760 H     1 <1>   0.0800 
 40 H        2.2780     2.2300     2.5990 H     1 <1>   0.0800 
 41 H       -0.3980    -2.0230     1.5730 H     1 <1>   0.1500 
 42 H       -0.1320    -4.3850     0.6970 H     1 <1>   0.2700 
 43 H        3.5200    -5.1160    -0.2950 H     1 <1>   0.0800 
 44 H        1.9670    -5.4130    -1.0340 H     1 <1>   0.0800 
 45 H        2.2900    -5.9840     0.5860 H     1 <1>   0.0800 
 46 H        8.5790     2.7860    -0.2000 H     1 <1>   0.1500 
 47 H        8.6110    -1.0240    -2.0510 H     1 <1>   0.1500 
 48 H       10.2000     0.9550    -1.3730 H     1 <1>   0.1500 
 49 H        5.4050     5.9670    -0.6350 H     1 <1>   0.0800 
 50 H        4.1180     6.0770     0.5360 H     1 <1>   0.0800 
 51 H        3.7570     5.6430    -1.1190 H     1 <1>   0.0800 
@<TRIPOS>BOND
  1   1   2  1   
  2   1  26  1   
  3   2   3  1   
  4   2  27  1   
  5   2  28  1   
  6   3   4  1   
  7   3  29  1   
  8   3  30  1   
  9   4   5  1   
 10   4   6  1   
 11   4  31  1   
 12   5   7  1   
 13   5  32  1   
 14   5  33  1   
 15   6   8  1   
 16   6  34  1   
 17   6  35  1   
 18   7   9  ar  
 19   7  10  ar  
 20   8  11  1   
 21   8  12  2   
 22   9  13  1   
 23   9  14  ar  
 24  10  15  ar  
 25  10  16  1   
 26  11  17  2   
 27  12  18  1   
 28  12  19  1   
 29  13  20  1   
 30  13  21  1   
 31  14  22  ar  
 32  14  36  1   
 33  15  22  ar  
 34  15  37  1   
 35  16  38  1   
 36  16  39  1   
 37  16  40  1   
 38  17  18  1   
 39  17  41  1   
 40  18  42  1   
 41  19  43  1   
 42  19  44  1   
 43  19  45  1   
 44  20  23  2   
 45  21  24  2   
 46  21  46  1   
 47  22  25  1   
 48  23  24  1   
 49  23  47  1   
 50  24  48  1   
 51  25  49  1   
 52  25  50  1   
 53  25  51  1   
@<TRIPOS>SUBSTRUCTURE
  1 ****   4 GROUP 4 **** **** 0

# MOE 2024.06 (io_trps.svl 2023.06)
