@<TRIPOS>MOLECULE
NONAME
40 42 1 0 0 
SMALL
USER_CHARGES


@<TRIPOS>ATOM
  1 O       -0.6130     0.4850    -1.9200 O.2   1 <1>  -0.5700 
  2 C       -1.4850     1.1680    -1.4210 C.2   1 <1>   0.6160 
  3 N       -2.7570     0.6480    -1.2870 N.am  1 <1>  -0.6600 
  4 C       -1.1710     2.5090    -0.9870 C.2   1 <1>  -0.0140 
  5 C       -3.1260    -0.6880    -1.8520 C.3   1 <1>   0.1400 
  6 C       -3.8350     1.2900    -0.4870 C.3   1 <1>   0.1400 
  7 C       -0.3000     2.7250     0.1480 C.ar  1 <1>   0.0280 
  8 C       -1.6930     3.5940    -1.6280 C.2   1 <1>  -0.1360 
  9 C       -3.5710    -1.6390    -0.7300 C.3   1 <1>   0.2000 
 10 C       -4.2450     0.3600     0.6600 C.3   1 <1>  -0.1600 
 11 C       -0.0390     4.0460     0.5570 C.ar  1 <1>   0.1170 
 12 C        0.3000     1.6880     0.8720 C.ar  1 <1>  -0.1500 
 13 C       -1.4290     4.9220    -1.2100 C.2   1 <1>   0.6160 
 14 O       -4.0300    -2.8240    -1.2890 O.3   1 <1>  -0.6800 
 15 C       -4.6820    -1.0310     0.1490 C.3   1 <1>  -0.0800 
 16 N       -0.6150     5.1010    -0.1390 N.am  1 <1>  -0.5470 
 17 C        0.7870     4.2940     1.6510 C.ar  1 <1>  -0.1500 
 18 C        1.1160     1.9450     1.9530 C.ar  1 <1>  -0.1500 
 19 O       -1.9080     5.8990    -1.7530 O.2   1 <1>  -0.5700 
 20 C       -5.0390    -1.9860     1.3000 C.3   1 <1>   0.1200 
 21 C        1.3610     3.2530     2.3460 C.ar  1 <1>  -0.1500 
 22 O       -6.0590    -1.4410     2.0630 O.3   1 <1>  -0.6800 
 23 H       -3.9290    -0.5510    -2.5540 H     1 <1>   0.0800 
 24 H       -2.2920    -1.1270    -2.3720 H     1 <1>   0.0800 
 25 H       -3.5100     2.2310    -0.0770 H     1 <1>   0.0800 
 26 H       -4.6810     1.4800    -1.1260 H     1 <1>   0.0800 
 27 H       -2.3340     3.4910    -2.4830 H     1 <1>   0.1500 
 28 H       -2.7130    -1.8840    -0.1280 H     1 <1>   0.0800 
 29 H       -3.4150     0.2610     1.3390 H     1 <1>   0.0800 
 30 H       -5.0540     0.8260     1.1940 H     1 <1>   0.0800 
 31 H        0.1340     0.6650     0.5830 H     1 <1>   0.1500 
 32 H       -4.8520    -2.6740    -1.7950 H     1 <1>   0.4000 
 33 H       -5.5570    -0.9010    -0.4640 H     1 <1>   0.0800 
 34 H       -0.4350     6.0710     0.1170 H     1 <1>   0.3700 
 35 H        0.9780     5.3080     1.9520 H     1 <1>   0.1500 
 36 H        1.5700     1.1330     2.4950 H     1 <1>   0.1500 
 37 H       -4.1920    -2.1640     1.9410 H     1 <1>   0.0800 
 38 H       -5.3900    -2.9300     0.9180 H     1 <1>   0.0800 
 39 H        2.0010     3.4470     3.1910 H     1 <1>   0.1500 
 40 H       -5.7410    -0.6600     2.5540 H     1 <1>   0.4000 
@<TRIPOS>BOND
  1   1   2  2   
  2   2   3  am  
  3   2   4  1   
  4   3   5  1   
  5   3   6  1   
  6   4   7  1   
  7   4   8  2   
  8   5   9  1   
  9   5  23  1   
 10   5  24  1   
 11   6  10  1   
 12   6  25  1   
 13   6  26  1   
 14   7  11  ar  
 15   7  12  ar  
 16   8  13  1   
 17   8  27  1   
 18   9  14  1   
 19   9  15  1   
 20   9  28  1   
 21  10  15  1   
 22  10  29  1   
 23  10  30  1   
 24  11  16  1   
 25  11  17  ar  
 26  12  18  ar  
 27  12  31  1   
 28  13  16  am  
 29  13  19  2   
 30  14  32  1   
 31  15  20  1   
 32  15  33  1   
 33  16  34  1   
 34  17  21  ar  
 35  17  35  1   
 36  18  21  ar  
 37  18  36  1   
 38  20  22  1   
 39  20  37  1   
 40  20  38  1   
 41  21  39  1   
 42  22  40  1   
@<TRIPOS>SUBSTRUCTURE
  1 ****   2 GROUP 4 **** **** 0

# MOE 2024.06 (io_trps.svl 2023.06)
