@<TRIPOS>MOLECULE
NONAME
47 49 1 0 0 
SMALL
USER_CHARGES


@<TRIPOS>ATOM
  1 O       -1.0400     1.1740     0.1980 O.2   1 <1>  -0.5700 
  2 C       -0.6910     2.2870    -0.1020 C.2   1 <1>   0.5690 
  3 N       -0.8850     3.3240     0.7430 N.am  1 <1>  -0.7300 
  4 C       -0.0430     2.5470    -1.4690 C.3   1 <1>   0.1810 
  5 C       -0.4510     4.7070     0.4430 C.3   1 <1>   0.3640 
  6 O        0.6030     3.8020    -1.5480 O.3   1 <1>  -0.5600 
  7 C       -1.4970     5.6740     0.9810 C.ar  1 <1>  -0.1440 
  8 C       -0.1780     4.8850    -1.0690 C.3   1 <1>   0.2610 
  9 C       -1.1210     6.6550     1.8870 C.ar  1 <1>  -0.1500 
 10 C       -2.8270     5.5900     0.5900 C.ar  1 <1>  -0.1500 
 11 C        0.5200     6.2200    -1.3220 C.2   1 <1>   0.5690 
 12 C       -2.0580     7.5350     2.4000 C.ar  1 <1>  -0.1500 
 13 C       -3.7640     6.4730     1.0980 C.ar  1 <1>  -0.1500 
 14 O       -0.0770     7.1020    -1.8940 O.2   1 <1>  -0.5700 
 15 N        1.7900     6.4050    -0.8780 N.am  1 <1>  -0.7300 
 16 C       -3.3800     7.4460     2.0040 C.ar  1 <1>  -0.1500 
 17 C        2.4390     7.7220    -0.7490 C.3   1 <1>   0.3200 
 18 C        2.0060     8.3580     0.5650 C.2   1 <1>   0.0070 
 19 N        2.5310     8.0220     1.7030 N.2   1 <1>  -0.5650 
 20 N        1.0440     9.3140     0.6660 N.pl3 1 <1>   0.0480 
 21 C        1.8980     8.8030     2.5940 C.2   1 <1>   0.0770 
 22 C        0.9920     9.5940     1.9850 C.2   1 <1>  -0.3020 
 23 C        0.2320     9.9660    -0.4040 C.3   1 <1>   0.1760 
 24 C        0.5950    11.4520    -0.5050 C.3   1 <1>  -0.2400 
 25 C       -1.2670     9.7880    -0.1410 C.3   1 <1>  -0.2400 
 26 H       -1.3300     3.1590     1.6470 H     1 <1>   0.3700 
 27 H       -0.7970     2.5060    -2.2340 H     1 <1>   0.0800 
 28 H        0.6910     1.7870    -1.6660 H     1 <1>   0.0800 
 29 H        0.4720     4.8800     0.9720 H     1 <1>   0.0800 
 30 H       -1.1080     4.8890    -1.6100 H     1 <1>   0.0800 
 31 H       -0.0940     6.7460     2.2020 H     1 <1>   0.1500 
 32 H       -3.1430     4.8340    -0.1080 H     1 <1>   0.1500 
 33 H       -1.7530     8.2900     3.1030 H     1 <1>   0.1500 
 34 H       -4.7930     6.4030     0.7890 H     1 <1>   0.1500 
 35 H        2.2740     5.6470    -0.3930 H     1 <1>   0.3700 
 36 H       -4.1090     8.1310     2.4010 H     1 <1>   0.1500 
 37 H        3.5070     7.5880    -0.7390 H     1 <1>   0.0800 
 38 H        2.1900     8.3430    -1.5900 H     1 <1>   0.0800 
 39 H        2.1320     8.7560     3.6450 H     1 <1>   0.1500 
 40 H        0.3290    10.3260     2.4070 H     1 <1>   0.1500 
 41 H        0.4580     9.5000    -1.3440 H     1 <1>   0.0800 
 42 H        0.3470    11.9670     0.4060 H     1 <1>   0.0800 
 43 H        0.0520    11.9070    -1.3130 H     1 <1>   0.0800 
 44 H        1.6470    11.5630    -0.6990 H     1 <1>   0.0800 
 45 H       -1.5540    10.2310     0.7950 H     1 <1>   0.0800 
 46 H       -1.5120     8.7410    -0.1300 H     1 <1>   0.0800 
 47 H       -1.8350    10.2500    -0.9280 H     1 <1>   0.0800 
@<TRIPOS>BOND
  1   1   2  2   
  2   2   3  am  
  3   2   4  1   
  4   3   5  1   
  5   3  26  1   
  6   4   6  1   
  7   4  27  1   
  8   4  28  1   
  9   5   7  1   
 10   5   8  1   
 11   5  29  1   
 12   6   8  1   
 13   7   9  ar  
 14   7  10  ar  
 15   8  11  1   
 16   8  30  1   
 17   9  12  ar  
 18   9  31  1   
 19  10  13  ar  
 20  10  32  1   
 21  11  14  2   
 22  11  15  am  
 23  12  16  ar  
 24  12  33  1   
 25  13  16  ar  
 26  13  34  1   
 27  15  17  1   
 28  15  35  1   
 29  16  36  1   
 30  17  18  1   
 31  17  37  1   
 32  17  38  1   
 33  18  19  2   
 34  18  20  1   
 35  19  21  1   
 36  20  22  1   
 37  20  23  1   
 38  21  22  2   
 39  21  39  1   
 40  22  40  1   
 41  23  24  1   
 42  23  25  1   
 43  23  41  1   
 44  24  42  1   
 45  24  43  1   
 46  24  44  1   
 47  25  45  1   
 48  25  46  1   
 49  25  47  1   
@<TRIPOS>SUBSTRUCTURE
  1 ****   7 GROUP 4 **** **** 0

# MOE 2024.06 (io_trps.svl 2023.06)
