@<TRIPOS>MOLECULE
NONAME
43 45 1 0 0 
SMALL
USER_CHARGES


@<TRIPOS>ATOM
  1 F       -1.4810    -3.2770    -2.2930 F     1 <1>  -0.1900 
  2 C       -2.1720    -2.9340    -1.2390 C.ar  1 <1>   0.1900 
  3 C       -2.5090    -1.6030    -1.0440 C.ar  1 <1>  -0.1440 
  4 C       -2.5420    -3.9330    -0.3600 C.ar  1 <1>  -0.1500 
  5 C       -3.2440    -1.2830     0.0870 C.ar  1 <1>  -0.1500 
  6 C       -2.0850    -0.5250    -2.0310 C.3   1 <1>  -0.0960 
  7 C       -3.2830    -3.6000     0.7660 C.ar  1 <1>  -0.1430 
  8 C       -3.6260    -2.2710     0.9830 C.ar  1 <1>  -0.1500 
  9 C       -3.7170    -4.6790     1.7370 C.3   1 <1>   0.4870 
 10 N       -4.7380    -5.5140     1.0630 N.4   1 <1>  -0.9590 
 11 C       -5.9950    -4.7940     0.6770 C.3   1 <1>   0.3430 
 12 C       -5.1400    -6.7490     1.7720 C.3   1 <1>   0.3430 
 13 C       -7.1430    -5.7860     0.9350 C.3   1 <1>   0.2000 
 14 C       -6.4520    -7.1440     1.0890 C.3   1 <1>  -0.0800 
 15 O       -7.7820    -5.4680     2.1270 O.3   1 <1>  -0.6800 
 16 C       -6.2690    -7.8160    -0.3020 C.3   1 <1>  -0.0170 
 17 C       -4.8840    -8.3940    -0.5710 C.ar  1 <1>   0.1670 
 18 N       -3.9330    -7.5210    -0.8840 N.ar  1 <1>  -0.6200 
 19 C       -4.6750    -9.7690    -0.4930 C.ar  1 <1>   0.1600 
 20 C       -2.7790    -8.1220    -1.1470 C.ar  1 <1>   0.1600 
 21 N       -3.5150   -10.3580    -0.7200 N.ar  1 <1>  -0.6200 
 22 C       -2.5770    -9.4940    -1.0640 C.ar  1 <1>   0.1600 
 23 H       -2.2450    -4.9440    -0.5710 H     1 <1>   0.1500 
 24 H       -3.5200    -0.2590     0.2760 H     1 <1>   0.1500 
 25 H       -2.4320     0.4440    -1.7200 H     1 <1>   0.0800 
 26 H       -2.4910    -0.7380    -3.0040 H     1 <1>   0.0800 
 27 H       -1.0130    -0.4970    -2.1050 H     1 <1>   0.0800 
 28 H       -4.1940    -1.9830     1.8520 H     1 <1>   0.1500 
 29 H       -4.1240    -4.2340     2.6300 H     1 <1>   0.0800 
 30 H       -2.8640    -5.2810     2.0070 H     1 <1>   0.0800 
 31 H       -4.3090    -5.8560     0.1780 H     1 <1>   0.4500 
 32 H       -6.1400    -3.8990     1.2600 H     1 <1>   0.0800 
 33 H       -5.9530    -4.5330    -0.3680 H     1 <1>   0.0800 
 34 H       -4.3890    -7.5190     1.6910 H     1 <1>   0.0800 
 35 H       -5.3210    -6.5360     2.8130 H     1 <1>   0.0800 
 36 H       -7.8860    -5.7630     0.1540 H     1 <1>   0.0800 
 37 H       -7.0190    -7.8070     1.7210 H     1 <1>   0.0800 
 38 H       -7.2040    -5.5140     2.9110 H     1 <1>   0.4000 
 39 H       -6.4680    -7.1110    -1.0920 H     1 <1>   0.0800 
 40 H       -7.0070    -8.5920    -0.4090 H     1 <1>   0.0800 
 41 H       -5.4970   -10.4140    -0.2330 H     1 <1>   0.1500 
 42 H       -1.9490    -7.5060    -1.4460 H     1 <1>   0.1500 
 43 H       -1.6030    -9.8920    -1.2920 H     1 <1>   0.1500 
@<TRIPOS>BOND
  1   1   2  1   
  2   2   3  ar  
  3   2   4  ar  
  4   3   5  ar  
  5   3   6  1   
  6   4   7  ar  
  7   4  23  1   
  8   5   8  ar  
  9   5  24  1   
 10   6  25  1   
 11   6  26  1   
 12   6  27  1   
 13   7   8  ar  
 14   7   9  1   
 15   8  28  1   
 16   9  10  1   
 17   9  29  1   
 18   9  30  1   
 19  10  11  1   
 20  10  12  1   
 21  10  31  1   
 22  11  13  1   
 23  11  32  1   
 24  11  33  1   
 25  12  14  1   
 26  12  34  1   
 27  12  35  1   
 28  13  14  1   
 29  13  15  1   
 30  13  36  1   
 31  14  16  1   
 32  14  37  1   
 33  15  38  1   
 34  16  17  1   
 35  16  39  1   
 36  16  40  1   
 37  17  18  ar  
 38  17  19  ar  
 39  18  20  ar  
 40  19  21  ar  
 41  19  41  1   
 42  20  22  ar  
 43  20  42  1   
 44  21  22  ar  
 45  22  43  1   
@<TRIPOS>SUBSTRUCTURE
  1 ****  10 GROUP 4 **** **** 0

# MOE 2024.06 (io_trps.svl 2023.06)
