@<TRIPOS>MOLECULE
NONAME
46 48 1 0 0 
SMALL
USER_CHARGES


@<TRIPOS>ATOM
  1 O        1.6740    -0.7770    -1.6570 O.2   1 <1>  -0.5700 
  2 C        1.5060    -0.8660    -0.4660 C.2   1 <1>   0.5690 
  3 N        1.6470     0.1940     0.3590 N.am  1 <1>  -0.7300 
  4 C        1.1310    -2.2060     0.1230 C.3   1 <1>  -0.0990 
  5 C        2.1030     1.5250    -0.0670 C.3   1 <1>   0.4000 
  6 C       -0.2630    -2.6360    -0.3530 C.3   1 <1>   0.0200 
  7 C        3.5340     1.7050     0.4390 C.2   1 <1>   0.0060 
  8 C        1.1180     2.5720     0.4730 C.3   1 <1>  -0.1600 
  9 C       -0.6670    -3.9620     0.2590 C.2   1 <1>   0.2980 
 10 N        3.8520     2.1230     1.6280 N.2   1 <1>  -0.5650 
 11 N        4.6110     1.4050    -0.3310 N.pl3 1 <1>   0.0480 
 12 C        1.4430     3.9930    -0.0170 C.3   1 <1>  -0.1600 
 13 O       -0.9230    -4.0090     1.5400 O.3   1 <1>  -0.0190 
 14 N       -0.7820    -5.0600    -0.3630 N.2   1 <1>  -0.5650 
 15 C        5.1960     2.1060     1.6300 C.2   1 <1>   0.0770 
 16 C        5.6760     1.6710     0.4470 C.2   1 <1>  -0.3020 
 17 C        4.6510     0.8640    -1.7030 C.3   1 <1>   0.0160 
 18 C        0.4150     5.0020     0.5020 C.3   1 <1>  -0.2400 
 19 N       -1.2270    -5.2510     1.7560 N.2   1 <1>  -0.4100 
 20 C       -1.1460    -5.8760     0.6330 C.2   1 <1>   0.5150 
 21 C       -1.4020    -7.2830     0.4080 C.2   1 <1>   0.1410 
 22 O       -1.7610    -8.0880     1.4050 O.3   1 <1>  -0.2800 
 23 C       -1.3390    -8.0160    -0.7370 C.2   1 <1>  -0.1500 
 24 C       -1.9270    -9.3040     0.9250 C.2   1 <1>  -0.0100 
 25 C       -1.6810    -9.3270    -0.4000 C.2   1 <1>  -0.1500 
 26 H        1.6820     0.0780     1.3730 H     1 <1>   0.3700 
 27 H        1.1530    -2.1510     1.1960 H     1 <1>   0.0800 
 28 H        1.8570    -2.9330    -0.1920 H     1 <1>   0.0800 
 29 H        2.0910     1.5830    -1.1420 H     1 <1>   0.0800 
 30 H       -0.2640    -2.7300    -1.4250 H     1 <1>   0.0800 
 31 H       -0.9910    -1.8910    -0.0840 H     1 <1>   0.0800 
 32 H        1.1380     2.5560     1.5490 H     1 <1>   0.0800 
 33 H        0.1270     2.3110     0.1460 H     1 <1>   0.0800 
 34 H        1.4500     4.0160    -1.0930 H     1 <1>   0.0800 
 35 H        2.4220     4.2810     0.3300 H     1 <1>   0.0800 
 36 H        5.7570     2.4130     2.4980 H     1 <1>   0.1500 
 37 H        6.6930     1.5380     0.1280 H     1 <1>   0.1500 
 38 H        4.2200    -0.1200    -1.7100 H     1 <1>   0.0800 
 39 H        5.6700     0.8080    -2.0400 H     1 <1>   0.0800 
 40 H        4.0940     1.5050    -2.3610 H     1 <1>   0.0800 
 41 H       -0.5710     4.7530     0.1520 H     1 <1>   0.0800 
 42 H        0.6620     5.9890     0.1540 H     1 <1>   0.0800 
 43 H        0.4110     5.0120     1.5780 H     1 <1>   0.0800 
 44 H       -1.0780    -7.6640    -1.7200 H     1 <1>   0.1500 
 45 H       -2.2220   -10.0910     1.5970 H     1 <1>   0.1500 
 46 H       -1.7280   -10.1600    -1.0800 H     1 <1>   0.1500 
@<TRIPOS>BOND
  1   1   2  2   
  2   2   3  am  
  3   2   4  1   
  4   3   5  1   
  5   3  26  1   
  6   4   6  1   
  7   4  27  1   
  8   4  28  1   
  9   5   7  1   
 10   5   8  1   
 11   5  29  1   
 12   6   9  1   
 13   6  30  1   
 14   6  31  1   
 15   7  10  2   
 16   7  11  1   
 17   8  12  1   
 18   8  32  1   
 19   8  33  1   
 20   9  13  1   
 21   9  14  2   
 22  10  15  1   
 23  11  16  1   
 24  11  17  1   
 25  12  18  1   
 26  12  34  1   
 27  12  35  1   
 28  13  19  1   
 29  14  20  1   
 30  15  16  2   
 31  15  36  1   
 32  16  37  1   
 33  17  38  1   
 34  17  39  1   
 35  17  40  1   
 36  18  41  1   
 37  18  42  1   
 38  18  43  1   
 39  19  20  2   
 40  20  21  1   
 41  21  22  1   
 42  21  23  2   
 43  22  24  1   
 44  23  25  1   
 45  23  44  1   
 46  24  25  2   
 47  24  45  1   
 48  25  46  1   
@<TRIPOS>SUBSTRUCTURE
  1 ****   4 GROUP 4 **** **** 0

# MOE 2024.06 (io_trps.svl 2023.06)
