@<TRIPOS>MOLECULE
NONAME
42 44 1 0 0 
SMALL
USER_CHARGES


@<TRIPOS>ATOM
  1 O        0.6730    -0.2420     1.6340 O.2   1 <1>  -0.5700 
  2 C        1.4720    -0.8670     0.9630 C.2   1 <1>   0.5440 
  3 N        2.4860    -0.1890     0.3200 N.am  1 <1>  -0.6600 
  4 C        1.3180    -2.3050     0.8580 C.ar  1 <1>   0.0860 
  5 C        2.8240     1.2180     0.6730 C.3   1 <1>   0.1400 
  6 C        3.1860    -0.6950    -0.8920 C.3   1 <1>   0.1400 
  7 C        0.1020    -2.8920     0.5700 C.ar  1 <1>  -0.1500 
  8 C        2.3670    -3.1930     1.0550 C.ar  1 <1>  -0.1500 
  9 C        4.3380     1.3460     0.8800 C.3   1 <1>  -0.1600 
 10 C        4.7020    -0.5950    -0.6920 C.3   1 <1>  -0.1600 
 11 C       -0.0230    -4.2700     0.4760 C.ar  1 <1>   0.4100 
 12 C        2.1540    -4.5510     0.9380 C.ar  1 <1>   0.1600 
 13 C        5.1270     0.8370    -0.3350 C.3   1 <1>  -0.1600 
 14 N        0.9920    -5.1080     0.6470 N.ar  1 <1>  -0.6200 
 15 N       -1.2540    -4.8140     0.1880 N.pl3 1 <1>  -0.8690 
 16 C       -1.5770    -6.2310     0.5040 C.3   1 <1>   0.2090 
 17 C       -1.1450    -7.1310    -0.6510 C.3   1 <1>   0.0960 
 18 N       -1.4120    -8.5320    -0.3020 N.pl3 1 <1>   0.3140 
 19 N       -2.6470    -9.0410    -0.2370 N.2   1 <1>  -0.4180 
 20 C       -0.5260    -9.4760     0.0220 C.2   1 <1>  -0.3020 
 21 N       -2.5610   -10.2770     0.1140 N.2   1 <1>  -0.2270 
 22 C       -1.2660   -10.5640     0.2780 C.2   1 <1>   0.0770 
 23 H        2.3140     1.5160     1.5740 H     1 <1>   0.0800 
 24 H        2.5030     1.8670    -0.1230 H     1 <1>   0.0800 
 25 H        2.8950    -0.0910    -1.7350 H     1 <1>   0.0800 
 26 H        2.9080    -1.7110    -1.1070 H     1 <1>   0.0800 
 27 H       -0.7590    -2.2700     0.4200 H     1 <1>   0.1500 
 28 H        3.3420    -2.8150     1.3040 H     1 <1>   0.1500 
 29 H        4.6140     0.7830     1.7550 H     1 <1>   0.0800 
 30 H        4.5830     2.3770     1.0650 H     1 <1>   0.0800 
 31 H        5.2010    -0.9050    -1.5930 H     1 <1>   0.0800 
 32 H        4.9980    -1.2670     0.0950 H     1 <1>   0.0800 
 33 H        2.9850    -5.2190     1.0930 H     1 <1>   0.1500 
 34 H        6.1820     0.8630    -0.1220 H     1 <1>   0.0800 
 35 H        4.9410     1.4840    -1.1760 H     1 <1>   0.0800 
 36 H       -2.0440    -4.1770     0.3200 H     1 <1>   0.4000 
 37 H       -2.6390    -6.3270     0.6600 H     1 <1>   0.0800 
 38 H       -1.0680    -6.5240     1.4080 H     1 <1>   0.0800 
 39 H       -0.0950    -7.0150    -0.8410 H     1 <1>   0.0800 
 40 H       -1.7000    -6.8860    -1.5360 H     1 <1>   0.0800 
 41 H        0.5360    -9.3210     0.0500 H     1 <1>   0.1500 
 42 H       -0.9390   -11.5450     0.5740 H     1 <1>   0.1500 
@<TRIPOS>BOND
  1   1   2  2   
  2   2   3  am  
  3   2   4  1   
  4   3   5  1   
  5   3   6  1   
  6   4   7  ar  
  7   4   8  ar  
  8   5   9  1   
  9   5  23  1   
 10   5  24  1   
 11   6  10  1   
 12   6  25  1   
 13   6  26  1   
 14   7  11  ar  
 15   7  27  1   
 16   8  12  ar  
 17   8  28  1   
 18   9  13  1   
 19   9  29  1   
 20   9  30  1   
 21  10  13  1   
 22  10  31  1   
 23  10  32  1   
 24  11  14  ar  
 25  11  15  1   
 26  12  14  ar  
 27  12  33  1   
 28  13  34  1   
 29  13  35  1   
 30  15  16  1   
 31  15  36  1   
 32  16  17  1   
 33  16  37  1   
 34  16  38  1   
 35  17  18  1   
 36  17  39  1   
 37  17  40  1   
 38  18  19  1   
 39  18  20  1   
 40  19  21  2   
 41  20  22  2   
 42  20  41  1   
 43  21  22  1   
 44  22  42  1   
@<TRIPOS>SUBSTRUCTURE
  1 ****  11 GROUP 4 **** **** 0

# MOE 2024.06 (io_trps.svl 2023.06)
