@<TRIPOS>MOLECULE
NONAME
45 47 1 0 0 
SMALL
USER_CHARGES


@<TRIPOS>ATOM
  1 S        0.4580    -0.5410     1.0840 S.3   1 <1>  -0.0800 
  2 C        0.1740    -1.4950    -0.3330 C.2   1 <1>   0.1980 
  3 C        1.3900     0.5150     0.0850 C.2   1 <1>   0.1980 
  4 N        0.7490    -1.0200    -1.3660 N.2   1 <1>  -0.3380 
  5 C       -0.6560    -2.7680    -0.1930 C.3   1 <1>   0.2900 
  6 N        1.4420     0.1370    -1.1260 N.2   1 <1>  -0.3380 
  7 C        2.0220     1.7300     0.7260 C.3   1 <1>  -0.0600 
  8 N       -2.0740    -2.6260    -0.6090 N.3   1 <1>  -0.8100 
  9 C       -2.6880    -3.9660    -0.7290 C.3   1 <1>   0.1100 
 10 C       -2.8280    -1.7290     0.2840 C.3   1 <1>   0.1100 
 11 C       -4.1080    -3.9570    -1.3170 C.3   1 <1>   0.1400 
 12 C       -4.0820    -1.2030    -0.4180 C.3   1 <1>  -0.1600 
 13 N       -5.1160    -3.5220    -0.3030 N.am  1 <1>  -0.6600 
 14 C       -5.3370    -2.0520    -0.1800 C.3   1 <1>   0.1400 
 15 C       -5.9050    -4.4130     0.4140 C.2   1 <1>   0.5440 
 16 O       -6.8360    -3.9470     1.0540 O.2   1 <1>  -0.5700 
 17 C       -5.7150    -5.8710     0.4230 C.ar  1 <1>   0.3960 
 18 N       -4.4810    -6.4090     0.4910 N.ar  1 <1>  -0.6200 
 19 C       -6.8470    -6.6810     0.3720 C.ar  1 <1>  -0.1500 
 20 C       -4.3960    -7.7270     0.5080 C.ar  1 <1>   0.1600 
 21 C       -6.7460    -8.0540     0.3840 C.ar  1 <1>   0.0820 
 22 C       -5.4740    -8.5880     0.4570 C.ar  1 <1>  -0.1500 
 23 O       -7.8840    -8.7800     0.3280 O.3   1 <1>  -0.3630 
 24 C       -7.8660   -10.1890     0.3730 C.3   1 <1>   0.0400 
 25 H       -0.6090    -3.1160     0.8240 H     1 <1>   0.0800 
 26 H       -0.1870    -3.5100    -0.8150 H     1 <1>   0.0800 
 27 H        1.2590     2.3580     1.1480 H     1 <1>   0.0800 
 28 H        2.5650     2.2890    -0.0150 H     1 <1>   0.0800 
 29 H        2.7000     1.4240     1.5000 H     1 <1>   0.0800 
 30 H       -2.7030    -4.4550     0.2300 H     1 <1>   0.0800 
 31 H       -2.0790    -4.5580    -1.3890 H     1 <1>   0.0800 
 32 H       -2.2230    -0.8720     0.5210 H     1 <1>   0.0800 
 33 H       -3.0790    -2.2270     1.2060 H     1 <1>   0.0800 
 34 H       -4.3490    -4.9490    -1.6550 H     1 <1>   0.0800 
 35 H       -4.1410    -3.3150    -2.1800 H     1 <1>   0.0800 
 36 H       -3.8940    -1.0900    -1.4710 H     1 <1>   0.0800 
 37 H       -4.2920    -0.2200    -0.0380 H     1 <1>   0.0800 
 38 H       -6.1070    -1.7570    -0.8720 H     1 <1>   0.0800 
 39 H       -5.6970    -1.8390     0.8130 H     1 <1>   0.0800 
 40 H       -7.8200    -6.2280     0.3260 H     1 <1>   0.1500 
 41 H       -3.4070    -8.1490     0.5680 H     1 <1>   0.1500 
 42 H       -5.3040    -9.6470     0.4740 H     1 <1>   0.1500 
 43 H       -8.8830   -10.5370     0.3260 H     1 <1>   0.0800 
 44 H       -7.4160   -10.5040     1.2980 H     1 <1>   0.0800 
 45 H       -7.3140   -10.5600    -0.4720 H     1 <1>   0.0800 
@<TRIPOS>BOND
  1   1   2  1   
  2   1   3  1   
  3   2   4  2   
  4   2   5  1   
  5   3   6  2   
  6   3   7  1   
  7   4   6  1   
  8   5   8  1   
  9   5  25  1   
 10   5  26  1   
 11   7  27  1   
 12   7  28  1   
 13   7  29  1   
 14   8   9  1   
 15   8  10  1   
 16   9  11  1   
 17   9  30  1   
 18   9  31  1   
 19  10  12  1   
 20  10  32  1   
 21  10  33  1   
 22  11  13  1   
 23  11  34  1   
 24  11  35  1   
 25  12  14  1   
 26  12  36  1   
 27  12  37  1   
 28  13  14  1   
 29  13  15  am  
 30  14  38  1   
 31  14  39  1   
 32  15  16  2   
 33  15  17  1   
 34  17  18  ar  
 35  17  19  ar  
 36  18  20  ar  
 37  19  21  ar  
 38  19  40  1   
 39  20  22  ar  
 40  20  41  1   
 41  21  22  ar  
 42  21  23  1   
 43  22  42  1   
 44  23  24  1   
 45  24  43  1   
 46  24  44  1   
 47  24  45  1   
@<TRIPOS>SUBSTRUCTURE
  1 ****   9 GROUP 4 **** **** 0

# MOE 2024.06 (io_trps.svl 2023.06)
