@<TRIPOS>MOLECULE
NONAME
49 51 1 0 0 
SMALL
USER_CHARGES


@<TRIPOS>ATOM
  1 F       -1.2430     0.2980     1.9860 F     1 <1>  -0.3400 
  2 C       -2.2290     0.6580     1.1780 C.3   1 <1>   1.1640 
  3 F       -2.1400    -0.1110     0.1010 F     1 <1>  -0.3400 
  4 F       -3.3600     0.3070     1.7810 F     1 <1>  -0.3400 
  5 C       -2.2460     2.1530     0.8060 C.ar  1 <1>  -0.1440 
  6 C       -3.2070     2.6890    -0.0620 C.ar  1 <1>  -0.1440 
  7 C       -1.2840     3.0070     1.3440 C.ar  1 <1>  -0.1500 
  8 C       -3.1760     4.0420    -0.3740 C.ar  1 <1>  -0.1500 
  9 C       -4.3130     1.8460    -0.6950 C.3   1 <1>   0.4870 
 10 C       -1.2690     4.3530     1.0300 C.ar  1 <1>  -0.1500 
 11 C       -2.2150     4.8710     0.1700 C.ar  1 <1>  -0.1500 
 12 N       -5.6260     2.2880    -0.1640 N.4   1 <1>  -0.9590 
 13 C       -5.7710     2.1820     1.3100 C.3   1 <1>   0.3430 
 14 C       -6.7880     1.6940    -0.8800 C.3   1 <1>   0.3430 
 15 C       -6.9780     3.0110     1.7680 C.3   1 <1>  -0.1600 
 16 C       -8.1110     2.1970    -0.2890 C.3   1 <1>  -0.1600 
 17 C       -7.9390     3.4220     0.6340 C.3   1 <1>   0.2800 
 18 O       -7.2810     4.4500    -0.0700 O.3   1 <1>  -0.5600 
 19 C       -9.2510     3.9560     1.2500 C.3   1 <1>  -0.1600 
 20 C       -8.0080     5.1420    -1.0490 C.3   1 <1>   0.1200 
 21 C      -10.1050     4.8040     0.3040 C.3   1 <1>   0.2800 
 22 C       -9.2230     5.8220    -0.4160 C.3   1 <1>  -0.1600 
 23 O      -10.6660     3.9770    -0.6390 O.3   1 <1>  -0.6800 
 24 C      -11.2660     5.4730     1.0350 C.3   1 <1>  -0.2400 
 25 H       -0.5260     2.6370     2.0170 H     1 <1>   0.1500 
 26 H       -3.8980     4.4750    -1.0470 H     1 <1>   0.1500 
 27 H       -4.1730     0.7990    -0.4920 H     1 <1>   0.0800 
 28 H       -4.2880     1.9850    -1.7630 H     1 <1>   0.0800 
 29 H       -0.5180     4.9980     1.4550 H     1 <1>   0.1500 
 30 H       -2.1980     5.9200    -0.0770 H     1 <1>   0.1500 
 31 H       -5.7170     3.3090    -0.3320 H     1 <1>   0.4500 
 32 H       -4.8850     2.5510     1.8030 H     1 <1>   0.0800 
 33 H       -5.9080     1.1500     1.5880 H     1 <1>   0.0800 
 34 H       -6.7540     0.6170    -0.8230 H     1 <1>   0.0800 
 35 H       -6.7440     1.9770    -1.9200 H     1 <1>   0.0800 
 36 H       -6.6300     3.8940     2.2740 H     1 <1>   0.0800 
 37 H       -7.5100     2.4280     2.4970 H     1 <1>   0.0800 
 38 H       -8.5530     1.3990     0.2810 H     1 <1>   0.0800 
 39 H       -8.7940     2.3950    -1.0910 H     1 <1>   0.0800 
 40 H       -8.9910     4.5750     2.0900 H     1 <1>   0.0800 
 41 H       -9.8400     3.1430     1.6360 H     1 <1>   0.0800 
 42 H       -8.3090     4.4580    -1.8220 H     1 <1>   0.0800 
 43 H       -7.3560     5.8820    -1.4790 H     1 <1>   0.0800 
 44 H       -9.7880     6.3400    -1.1690 H     1 <1>   0.0800 
 45 H       -8.8710     6.5570     0.2870 H     1 <1>   0.0800 
 46 H      -11.3740     4.4560    -1.1080 H     1 <1>   0.4000 
 47 H      -10.8920     6.1280     1.8010 H     1 <1>   0.0800 
 48 H      -11.8900     4.7330     1.5050 H     1 <1>   0.0800 
 49 H      -11.8600     6.0600     0.3570 H     1 <1>   0.0800 
@<TRIPOS>BOND
  1   1   2  1   
  2   2   3  1   
  3   2   4  1   
  4   2   5  1   
  5   5   6  ar  
  6   5   7  ar  
  7   6   8  ar  
  8   6   9  1   
  9   7  10  ar  
 10   7  25  1   
 11   8  11  ar  
 12   8  26  1   
 13   9  12  1   
 14   9  27  1   
 15   9  28  1   
 16  10  11  ar  
 17  10  29  1   
 18  11  30  1   
 19  12  13  1   
 20  12  14  1   
 21  12  31  1   
 22  13  15  1   
 23  13  32  1   
 24  13  33  1   
 25  14  16  1   
 26  14  34  1   
 27  14  35  1   
 28  15  17  1   
 29  15  36  1   
 30  15  37  1   
 31  16  17  1   
 32  16  38  1   
 33  16  39  1   
 34  17  18  1   
 35  17  19  1   
 36  18  20  1   
 37  19  21  1   
 38  19  40  1   
 39  19  41  1   
 40  20  22  1   
 41  20  42  1   
 42  20  43  1   
 43  21  22  1   
 44  21  23  1   
 45  21  24  1   
 46  22  44  1   
 47  22  45  1   
 48  23  46  1   
 49  24  47  1   
 50  24  48  1   
 51  24  49  1   
@<TRIPOS>SUBSTRUCTURE
  1 ****  12 GROUP 4 **** **** 0

# MOE 2024.06 (io_trps.svl 2023.06)
