@<TRIPOS>MOLECULE
NONAME
40 42 1 0 0 
SMALL
USER_CHARGES


@<TRIPOS>ATOM
  1 CL      -2.4960    -0.0800    -2.3190 Cl    1 <1>  -0.1770 
  2 C       -2.6980     0.7900    -0.8170 C.ar  1 <1>   0.1770 
  3 C       -2.8370     0.1020     0.3880 C.ar  1 <1>   0.0860 
  4 C       -2.7090     2.1710    -0.8780 C.ar  1 <1>  -0.1500 
  5 C       -2.8450    -1.3410     0.4660 C.2   1 <1>   0.5440 
  6 C       -2.9680     0.8690     1.5460 C.ar  1 <1>  -0.1500 
  7 C       -2.8530     2.9070     0.2850 C.ar  1 <1>  -0.1500 
  8 O       -1.9860    -1.9120     1.1080 O.2   1 <1>  -0.5700 
  9 N       -3.8350    -2.0920    -0.1210 N.am  1 <1>  -0.6600 
 10 C       -2.9800     2.2520     1.4980 C.ar  1 <1>  -0.1500 
 11 C       -5.1170    -1.5740    -0.6620 C.3   1 <1>   0.1400 
 12 C       -3.8670    -3.5770    -0.0720 C.3   1 <1>   0.1400 
 13 C       -6.1090    -2.7060    -0.4020 C.3   1 <1>   0.2000 
 14 C       -5.2590    -3.9670    -0.5850 C.3   1 <1>  -0.0800 
 15 O       -6.5230    -2.6120     0.9190 O.3   1 <1>  -0.6800 
 16 C       -5.8210    -5.2470     0.0590 C.3   1 <1>   0.0210 
 17 C       -4.9010    -6.4240    -0.1930 C.2   1 <1>   0.1080 
 18 N       -4.6730    -6.8970    -1.3790 N.2   1 <1>  -0.7070 
 19 C       -4.1980    -7.1110     0.7910 C.2   1 <1>  -0.1500 
 20 N       -3.8100    -7.9110    -1.1810 N.pl3 1 <1>   0.3000 
 21 C       -3.5060    -8.0590     0.1260 C.2   1 <1>  -0.3320 
 22 C       -2.5570    -9.1130     0.6670 C.3   1 <1>  -0.0600 
 23 H       -2.6020     2.6650    -1.8280 H     1 <1>   0.1500 
 24 H       -3.0580     0.3640     2.4930 H     1 <1>   0.1500 
 25 H       -2.8620     3.9840     0.2480 H     1 <1>   0.1500 
 26 H       -3.0850     2.8220     2.4060 H     1 <1>   0.1500 
 27 H       -5.4240    -0.6590    -0.1870 H     1 <1>   0.0800 
 28 H       -5.0120    -1.4170    -1.7210 H     1 <1>   0.0800 
 29 H       -3.0910    -3.9940    -0.6920 H     1 <1>   0.0800 
 30 H       -3.7210    -3.9020     0.9440 H     1 <1>   0.0800 
 31 H       -6.9740    -2.6720    -1.0410 H     1 <1>   0.0800 
 32 H       -5.1650    -4.1450    -1.6420 H     1 <1>   0.0800 
 33 H       -5.7260    -2.5280     1.4820 H     1 <1>   0.4000 
 34 H       -6.7860    -5.4670    -0.3620 H     1 <1>   0.0800 
 35 H       -5.9430    -5.1170     1.1190 H     1 <1>   0.0800 
 36 H       -4.2200    -6.9070     1.8460 H     1 <1>   0.1500 
 37 H       -3.4470    -8.4780    -1.9560 H     1 <1>   0.2700 
 38 H       -2.4800    -9.0270     1.7360 H     1 <1>   0.0800 
 39 H       -1.5780    -8.9860     0.2420 H     1 <1>   0.0800 
 40 H       -2.9190   -10.0980     0.4280 H     1 <1>   0.0800 
@<TRIPOS>BOND
  1   1   2  1   
  2   2   3  ar  
  3   2   4  ar  
  4   3   5  1   
  5   3   6  ar  
  6   4   7  ar  
  7   4  23  1   
  8   5   8  2   
  9   5   9  am  
 10   6  10  ar  
 11   6  24  1   
 12   7  10  ar  
 13   7  25  1   
 14   9  11  1   
 15   9  12  1   
 16  10  26  1   
 17  11  13  1   
 18  11  27  1   
 19  11  28  1   
 20  12  14  1   
 21  12  29  1   
 22  12  30  1   
 23  13  14  1   
 24  13  15  1   
 25  13  31  1   
 26  14  16  1   
 27  14  32  1   
 28  15  33  1   
 29  16  17  1   
 30  16  34  1   
 31  16  35  1   
 32  17  18  2   
 33  17  19  1   
 34  18  20  1   
 35  19  21  2   
 36  19  36  1   
 37  20  21  1   
 38  20  37  1   
 39  21  22  1   
 40  22  38  1   
 41  22  39  1   
 42  22  40  1   
@<TRIPOS>SUBSTRUCTURE
  1 ****   9 GROUP 4 **** **** 0

# MOE 2024.06 (io_trps.svl 2023.06)
