@<TRIPOS>MOLECULE
NONAME
52 55 1 0 0 
SMALL
USER_CHARGES


@<TRIPOS>ATOM
  1 S       -0.3900    -1.1580     3.3740 S.3   1 <1>  -0.0800 
  2 C       -0.6990     0.0870     2.1850 C.2   1 <1>   0.2280 
  3 C       -1.0370    -2.3340     2.2700 C.2   1 <1>  -0.1100 
  4 N       -1.2360    -0.3310     1.1040 N.2   1 <1>  -0.5650 
  5 C       -1.4180    -1.7080     1.1460 C.2   1 <1>   0.0460 
  6 C       -2.0130    -2.3570    -0.0890 C.3   1 <1>   0.0210 
  7 C       -3.5650    -2.2430    -0.1810 C.3   1 <1>   0.0610 
  8 C       -4.1480    -3.5510     0.3500 C.2   1 <1>   0.5690 
  9 C       -4.1370    -1.0550     0.6340 C.3   1 <1>   0.4230 
 10 C       -3.9960    -1.8280    -1.6180 C.3   1 <1>  -0.1600 
 11 O       -4.3490    -3.6340     1.5360 O.2   1 <1>  -0.5700 
 12 N       -4.3910    -4.5920    -0.4900 N.am  1 <1>  -0.7300 
 13 N       -3.8100     0.0650    -0.2490 N.4   1 <1>  -0.9060 
 14 C       -5.6740    -0.9720     0.5910 C.3   1 <1>  -0.1600 
 15 C       -4.5400    -0.4020    -1.4270 C.3   1 <1>   0.4230 
 16 C       -4.8900    -5.9240    -0.0520 C.3   1 <1>   0.1400 
 17 C       -5.9500    -0.4970    -0.8440 C.3   1 <1>  -0.1600 
 18 C       -6.3330    -6.1250    -0.5090 C.3   1 <1>  -0.0170 
 19 C       -6.7960    -7.5130    -0.1280 C.ar  1 <1>   0.4770 
 20 N       -7.5330    -7.6100     0.9630 N.ar  1 <1>  -0.6200 
 21 N       -6.4040    -8.4920    -0.9220 N.ar  1 <1>  -0.6200 
 22 C       -7.9340    -8.8300     1.3080 C.ar  1 <1>   0.1670 
 23 C       -6.8000    -9.6950    -0.5860 C.ar  1 <1>   0.1670 
 24 C       -7.5720    -9.9150     0.5300 C.ar  1 <1>  -0.1500 
 25 C       -8.8040    -9.0280     2.5810 C.3   1 <1>   1.1630 
 26 C       -6.3670   -10.8340    -1.4850 C.3   1 <1>  -0.0970 
 27 F       -9.9850    -8.4220     2.4970 F     1 <1>  -0.3400 
 28 F       -9.0750   -10.3080     2.8300 F     1 <1>  -0.3400 
 29 F       -8.2240    -8.5650     3.6840 F     1 <1>  -0.3400 
 30 H       -0.4180     1.0910     2.4540 H     1 <1>   0.1500 
 31 H       -1.0580    -3.3640     2.5830 H     1 <1>   0.1500 
 32 H       -1.5290    -1.9040    -0.9350 H     1 <1>   0.0800 
 33 H       -1.7240    -3.3940    -0.1010 H     1 <1>   0.0800 
 34 H       -3.7290    -0.9730     1.6300 H     1 <1>   0.0800 
 35 H       -4.7620    -2.4650    -2.0240 H     1 <1>   0.0800 
 36 H       -3.1810    -1.8170    -2.3200 H     1 <1>   0.0800 
 37 H       -4.1620    -4.5360    -1.4840 H     1 <1>   0.3700 
 38 H       -4.1770     0.9440     0.1260 H     1 <1>   0.4500 
 39 H       -2.7820     0.1280    -0.3340 H     1 <1>   0.4500 
 40 H       -6.1540    -1.9100     0.8110 H     1 <1>   0.0800 
 41 H       -6.0220    -0.2480     1.3080 H     1 <1>   0.0800 
 42 H       -4.4570     0.2370    -2.2940 H     1 <1>   0.0800 
 43 H       -4.2650    -6.6940    -0.4720 H     1 <1>   0.0800 
 44 H       -4.8440    -6.0070     1.0220 H     1 <1>   0.0800 
 45 H       -6.4250     0.4690    -0.8480 H     1 <1>   0.0800 
 46 H       -6.5720    -1.1860    -1.3910 H     1 <1>   0.0800 
 47 H       -6.4040    -6.0190    -1.5760 H     1 <1>   0.0800 
 48 H       -6.9680    -5.3940    -0.0410 H     1 <1>   0.0800 
 49 H       -7.8800   -10.9140     0.7780 H     1 <1>   0.1500 
 50 H       -6.7450   -11.7750    -1.1300 H     1 <1>   0.0800 
 51 H       -5.2930   -10.8800    -1.5150 H     1 <1>   0.0800 
 52 H       -6.7330   -10.6650    -2.4810 H     1 <1>   0.0800 
@<TRIPOS>BOND
  1   1   2  1   
  2   1   3  1   
  3   2   4  2   
  4   2  30  1   
  5   3   5  2   
  6   3  31  1   
  7   4   5  1   
  8   5   6  1   
  9   6   7  1   
 10   6  32  1   
 11   6  33  1   
 12   7   8  1   
 13   7   9  1   
 14   7  10  1   
 15   8  11  2   
 16   8  12  am  
 17   9  13  1   
 18   9  14  1   
 19   9  34  1   
 20  10  15  1   
 21  10  35  1   
 22  10  36  1   
 23  12  16  1   
 24  12  37  1   
 25  13  15  1   
 26  13  38  1   
 27  13  39  1   
 28  14  17  1   
 29  14  40  1   
 30  14  41  1   
 31  15  17  1   
 32  15  42  1   
 33  16  18  1   
 34  16  43  1   
 35  16  44  1   
 36  17  45  1   
 37  17  46  1   
 38  18  19  1   
 39  18  47  1   
 40  18  48  1   
 41  19  20  ar  
 42  19  21  ar  
 43  20  22  ar  
 44  21  23  ar  
 45  22  24  ar  
 46  22  25  1   
 47  23  24  ar  
 48  23  26  1   
 49  24  49  1   
 50  25  27  1   
 51  25  28  1   
 52  25  29  1   
 53  26  50  1   
 54  26  51  1   
 55  26  52  1   
@<TRIPOS>SUBSTRUCTURE
  1 ****  12 GROUP 4 **** **** 0

# MOE 2024.06 (io_trps.svl 2023.06)
