@<TRIPOS>MOLECULE
NONAME
46 48 1 0 0 
SMALL
USER_CHARGES


@<TRIPOS>ATOM
  1 S       -0.6110     0.0850    -1.1470 S.o2  1 <1>   1.2040 
  2 O       -0.5010    -0.6410    -2.3910 O.2   1 <1>  -0.6500 
  3 O       -0.9500     1.4900    -1.1580 O.2   1 <1>  -0.6500 
  4 C       -1.7360    -0.7960    -0.0360 C.ar  1 <1>  -0.0090 
  5 C        0.9490    -0.0760    -0.3010 C.3   1 <1>  -0.1350 
  6 C       -1.8010    -2.1820    -0.0460 C.ar  1 <1>  -0.1500 
  7 C       -2.5400    -0.1130     0.8680 C.ar  1 <1>  -0.1500 
  8 C       -2.6380    -2.8980     0.8070 C.ar  1 <1>   0.0860 
  9 C       -3.3760    -0.7940     1.7340 C.ar  1 <1>  -0.1500 
 10 C       -2.6770    -4.3460     0.7510 C.2   1 <1>   0.5440 
 11 C       -3.4200    -2.1740     1.7040 C.ar  1 <1>  -0.1500 
 12 O       -1.6400    -4.9760     0.8120 O.2   1 <1>  -0.5700 
 13 N       -3.8630    -5.0250     0.6060 N.am  1 <1>  -0.6600 
 14 C       -5.1190    -4.4220     0.0900 C.3   1 <1>   0.1400 
 15 C       -3.9170    -6.5060     0.4990 C.3   1 <1>   0.1400 
 16 C       -5.8290    -5.5640    -0.6310 C.3   1 <1>   0.2000 
 17 C       -5.3470    -6.8330     0.0650 C.3   1 <1>  -0.0800 
 18 O       -7.2060    -5.4500    -0.5330 O.3   1 <1>  -0.6800 
 19 C       -5.4480    -8.0840    -0.8190 C.3   1 <1>   0.0210 
 20 C       -4.8790    -9.2960    -0.1080 C.2   1 <1>   0.1080 
 21 N       -5.3970    -9.7810     0.9780 N.2   1 <1>  -0.7070 
 22 C       -3.7550   -10.0060    -0.5170 C.2   1 <1>  -0.1500 
 23 N       -4.6090   -10.8260     1.2920 N.pl3 1 <1>   0.3000 
 24 C       -3.6060   -10.9820     0.4030 C.2   1 <1>  -0.3320 
 25 C       -2.5510   -12.0690     0.4880 C.3   1 <1>  -0.0600 
 26 H        1.2100    -1.1110    -0.1900 H     1 <1>   0.0800 
 27 H        0.8970     0.3750     0.6710 H     1 <1>   0.0800 
 28 H        1.7210     0.4120    -0.8630 H     1 <1>   0.0800 
 29 H       -1.1890    -2.7360    -0.7380 H     1 <1>   0.1500 
 30 H       -2.5130     0.9650     0.8940 H     1 <1>   0.1500 
 31 H       -3.9900    -0.2470     2.4300 H     1 <1>   0.1500 
 32 H       -4.0640    -2.7060     2.3830 H     1 <1>   0.1500 
 33 H       -5.7080    -4.0720     0.9200 H     1 <1>   0.0800 
 34 H       -4.9100    -3.6140    -0.5890 H     1 <1>   0.0800 
 35 H       -3.2040    -6.8310    -0.2400 H     1 <1>   0.0800 
 36 H       -3.6790    -6.9650     1.4440 H     1 <1>   0.0800 
 37 H       -5.5590    -5.5570    -1.6730 H     1 <1>   0.0800 
 38 H       -5.9180    -6.9930     0.9640 H     1 <1>   0.0800 
 39 H       -7.5000    -5.6660     0.3740 H     1 <1>   0.4000 
 40 H       -4.9180    -7.9300    -1.7420 H     1 <1>   0.0800 
 41 H       -6.4800    -8.2770    -1.0540 H     1 <1>   0.0800 
 42 H       -3.1520    -9.7980    -1.3830 H     1 <1>   0.1500 
 43 H       -4.7820   -11.4120     2.1180 H     1 <1>   0.2700 
 44 H       -1.8640   -11.9820    -0.3350 H     1 <1>   0.0800 
 45 H       -3.0120   -13.0400     0.4480 H     1 <1>   0.0800 
 46 H       -1.9980   -11.9790     1.4060 H     1 <1>   0.0800 
@<TRIPOS>BOND
  1   1   2  2   
  2   1   3  2   
  3   1   4  1   
  4   1   5  1   
  5   4   6  ar  
  6   4   7  ar  
  7   5  26  1   
  8   5  27  1   
  9   5  28  1   
 10   6   8  ar  
 11   6  29  1   
 12   7   9  ar  
 13   7  30  1   
 14   8  10  1   
 15   8  11  ar  
 16   9  11  ar  
 17   9  31  1   
 18  10  12  2   
 19  10  13  am  
 20  11  32  1   
 21  13  14  1   
 22  13  15  1   
 23  14  16  1   
 24  14  33  1   
 25  14  34  1   
 26  15  17  1   
 27  15  35  1   
 28  15  36  1   
 29  16  17  1   
 30  16  18  1   
 31  16  37  1   
 32  17  19  1   
 33  17  38  1   
 34  18  39  1   
 35  19  20  1   
 36  19  40  1   
 37  19  41  1   
 38  20  21  2   
 39  20  22  1   
 40  21  23  1   
 41  22  24  2   
 42  22  42  1   
 43  23  24  1   
 44  23  43  1   
 45  24  25  1   
 46  25  44  1   
 47  25  45  1   
 48  25  46  1   
@<TRIPOS>SUBSTRUCTURE
  1 ****  13 GROUP 4 **** **** 0

# MOE 2024.06 (io_trps.svl 2023.06)
