@<TRIPOS>MOLECULE
NONAME
53 55 1 0 0 
SMALL
USER_CHARGES


@<TRIPOS>ATOM
  1 O        0.2820     0.2010     0.5830 O.co2 1 <1>  -0.9000 
  2 C        1.4700    -0.0530     0.7820 C.2   1 <1>   0.9060 
  3 O        1.8380    -1.1510     1.2250 O.co2 1 <1>  -0.9000 
  4 C        2.5690     0.9340     0.3460 C.3   1 <1>  -0.1060 
  5 C        3.1970     0.3010    -0.9210 C.3   1 <1>   0.2000 
  6 C        3.6770     1.0610     1.4350 C.3   1 <1>  -0.1600 
  7 C        1.9930     2.3450    -0.0180 C.3   1 <1>  -0.1600 
  8 O        3.6630    -0.9810    -0.6220 O.3   1 <1>  -0.6800 
  9 C        4.4260     1.0960    -1.3800 C.3   1 <1>   0.3430 
 10 C        4.9390     1.7600     0.9240 C.3   1 <1>   0.3430 
 11 C        1.3670     3.1280     1.1510 C.3   1 <1>  -0.1600 
 12 N        5.4420     1.0450    -0.2850 N.4   1 <1>  -0.9590 
 13 C        0.7120     4.4190     0.6520 C.3   1 <1>  -0.2400 
 14 C        6.7970     1.4750    -0.7230 C.3   1 <1>   0.4860 
 15 C        6.8040     2.9490    -1.0820 C.ar  1 <1>  -0.1440 
 16 C        7.1420     3.8890    -0.0990 C.ar  1 <1>   0.0000 
 17 C        6.4950     3.3900    -2.3520 C.ar  1 <1>  -0.1500 
 18 C        7.1280     5.2470    -0.4050 C.ar  1 <1>  -0.1520 
 19 C        7.5410     3.7960     1.2540 C.2   1 <1>  -0.1500 
 20 C        6.4910     4.7560    -2.6540 C.ar  1 <1>  -0.1500 
 21 N        7.4850     5.9560     0.7190 N.pl3 1 <1>   0.0480 
 22 C        6.8000     5.6850    -1.6910 C.ar  1 <1>  -0.1500 
 23 C        7.7340     5.0530     1.7140 C.2   1 <1>  -0.3020 
 24 C        7.6200     7.4240     0.8320 C.3   1 <1>   0.0960 
 25 C        9.0020     7.8750     0.3510 C.3   1 <1>  -0.2400 
 26 H        2.4620     0.2170    -1.7050 H     1 <1>   0.0800 
 27 H        3.9590     0.0830     1.7850 H     1 <1>   0.0800 
 28 H        3.2990     1.5750     2.2980 H     1 <1>   0.0800 
 29 H        2.7470     2.9730    -0.4530 H     1 <1>   0.0800 
 30 H        1.2280     2.2060    -0.7650 H     1 <1>   0.0800 
 31 H        3.0060    -1.3770     0.0370 H     1 <1>   0.4000 
 32 H        4.1600     2.1140    -1.6040 H     1 <1>   0.0800 
 33 H        4.8140     0.6380    -2.2740 H     1 <1>   0.0800 
 34 H        5.6880     1.7490     1.6980 H     1 <1>   0.0800 
 35 H        4.7190     2.7870     0.6790 H     1 <1>   0.0800 
 36 H        0.6160     2.5250     1.6350 H     1 <1>   0.0800 
 37 H        2.1100     3.3860     1.8820 H     1 <1>   0.0800 
 38 H        5.4430     0.0380    -0.0440 H     1 <1>   0.4500 
 39 H       -0.0710     4.1900    -0.0500 H     1 <1>   0.0800 
 40 H        1.4360     5.0550     0.1740 H     1 <1>   0.0800 
 41 H        0.2780     4.9520     1.4790 H     1 <1>   0.0800 
 42 H        7.5090     1.2990     0.0660 H     1 <1>   0.0800 
 43 H        7.1000     0.8980    -1.5810 H     1 <1>   0.0800 
 44 H        6.2520     2.6980    -3.1400 H     1 <1>   0.1500 
 45 H        7.6740     2.8830     1.8040 H     1 <1>   0.1500 
 46 H        6.2450     5.0750    -3.6530 H     1 <1>   0.1500 
 47 H        6.8000     6.7360    -1.9190 H     1 <1>   0.1500 
 48 H        8.0460     5.3670     2.6950 H     1 <1>   0.1500 
 49 H        6.8500     7.8890     0.2440 H     1 <1>   0.0800 
 50 H        7.4780     7.7050     1.8600 H     1 <1>   0.0800 
 51 H        9.1470     7.6030    -0.6790 H     1 <1>   0.0800 
 52 H        9.7720     7.4220     0.9500 H     1 <1>   0.0800 
 53 H        9.0870     8.9430     0.4380 H     1 <1>   0.0800 
@<TRIPOS>BOND
  1   1   2  ar  
  2   2   3  ar  
  3   2   4  1   
  4   4   5  1   
  5   4   6  1   
  6   4   7  1   
  7   5   8  1   
  8   5   9  1   
  9   5  26  1   
 10   6  10  1   
 11   6  27  1   
 12   6  28  1   
 13   7  11  1   
 14   7  29  1   
 15   7  30  1   
 16   8  31  1   
 17   9  12  1   
 18   9  32  1   
 19   9  33  1   
 20  10  12  1   
 21  10  34  1   
 22  10  35  1   
 23  11  13  1   
 24  11  36  1   
 25  11  37  1   
 26  12  14  1   
 27  12  38  1   
 28  13  39  1   
 29  13  40  1   
 30  13  41  1   
 31  14  15  1   
 32  14  42  1   
 33  14  43  1   
 34  15  16  ar  
 35  15  17  ar  
 36  16  18  ar  
 37  16  19  1   
 38  17  20  ar  
 39  17  44  1   
 40  18  21  1   
 41  18  22  ar  
 42  19  23  2   
 43  19  45  1   
 44  20  22  ar  
 45  20  46  1   
 46  21  23  1   
 47  21  24  1   
 48  22  47  1   
 49  23  48  1   
 50  24  25  1   
 51  24  49  1   
 52  24  50  1   
 53  25  51  1   
 54  25  52  1   
 55  25  53  1   
@<TRIPOS>SUBSTRUCTURE
  1 ****  10 GROUP 4 **** **** 0

# MOE 2024.06 (io_trps.svl 2023.06)
