@<TRIPOS>MOLECULE
NONAME
42 42 1 0 0 
SMALL
USER_CHARGES


@<TRIPOS>ATOM
  1 S        0.7640    -1.4540     1.3530 S.3   1 <1>  -0.3320 
  2 C       -0.2090    -2.3160     0.1050 C.ar  1 <1>   0.1020 
  3 C        2.0710    -0.5130     0.4500 C.3   1 <1>  -0.0100 
  4 C       -1.2670    -3.0840     0.5580 C.ar  1 <1>  -0.1500 
  5 C        0.0760    -2.2260    -1.2480 C.ar  1 <1>  -0.1500 
  6 C       -2.0560    -3.7770    -0.3480 C.ar  1 <1>  -0.1430 
  7 C       -0.7120    -2.9170    -2.1520 C.ar  1 <1>  -0.1500 
  8 C       -1.7710    -3.6880    -1.7030 C.ar  1 <1>  -0.1500 
  9 C       -3.2220    -4.6310     0.1280 C.3   1 <1>   0.2840 
 10 N       -2.8770    -6.0740    -0.0060 N.am  1 <1>  -0.6600 
 11 C       -3.4690    -6.8470    -0.9840 C.2   1 <1>   0.5690 
 12 C       -1.8120    -6.5300     0.9350 C.3   1 <1>   0.0600 
 13 O       -4.3330    -6.3830    -1.6950 O.2   1 <1>  -0.5700 
 14 C       -3.0910    -8.3240    -1.2580 C.3   1 <1>   0.2610 
 15 O       -3.1670    -9.1440    -0.1180 O.3   1 <1>  -0.5600 
 16 C       -1.6870    -8.4940    -1.8470 C.3   1 <1>  -0.2400 
 17 C       -4.4470    -9.3710     0.3750 C.3   1 <1>   0.2000 
 18 C       -4.3110    -9.5380     1.8840 C.3   1 <1>  -0.2400 
 19 C       -4.9940   -10.6380    -0.2790 C.3   1 <1>  -0.2400 
 20 H        2.6580     0.0110     1.1830 H     1 <1>   0.0800 
 21 H        1.5840     0.1790    -0.2140 H     1 <1>   0.0800 
 22 H        2.6760    -1.2180    -0.0900 H     1 <1>   0.0800 
 23 H       -1.4620    -3.1340     1.6130 H     1 <1>   0.1500 
 24 H        0.8930    -1.6330    -1.6090 H     1 <1>   0.1500 
 25 H       -0.5030    -2.8570    -3.2060 H     1 <1>   0.1500 
 26 H       -2.3800    -4.2280    -2.4100 H     1 <1>   0.1500 
 27 H       -4.0960    -4.3880    -0.4500 H     1 <1>   0.0800 
 28 H       -3.4470    -4.4140     1.1570 H     1 <1>   0.0800 
 29 H       -2.0360    -6.1900     1.9310 H     1 <1>   0.0800 
 30 H       -0.8640    -6.1200     0.6320 H     1 <1>   0.0800 
 31 H       -1.7310    -7.6000     0.9610 H     1 <1>   0.0800 
 32 H       -3.7920    -8.7090    -1.9770 H     1 <1>   0.0800 
 33 H       -0.9360    -8.1590    -1.1570 H     1 <1>   0.0800 
 34 H       -1.6040    -7.9140    -2.7490 H     1 <1>   0.0800 
 35 H       -1.5150    -9.5270    -2.0860 H     1 <1>   0.0800 
 36 H       -5.0820    -8.5260     0.1630 H     1 <1>   0.0800 
 37 H       -3.6560   -10.3610     2.1110 H     1 <1>   0.0800 
 38 H       -5.2730    -9.7310     2.3210 H     1 <1>   0.0800 
 39 H       -3.9150    -8.6370     2.3160 H     1 <1>   0.0800 
 40 H       -4.3340   -11.4660    -0.0970 H     1 <1>   0.0800 
 41 H       -5.1070   -10.4980    -1.3380 H     1 <1>   0.0800 
 42 H       -5.9600   -10.8720     0.1310 H     1 <1>   0.0800 
@<TRIPOS>BOND
  1   1   2  1   
  2   1   3  1   
  3   2   4  ar  
  4   2   5  ar  
  5   3  20  1   
  6   3  21  1   
  7   3  22  1   
  8   4   6  ar  
  9   4  23  1   
 10   5   7  ar  
 11   5  24  1   
 12   6   8  ar  
 13   6   9  1   
 14   7   8  ar  
 15   7  25  1   
 16   8  26  1   
 17   9  10  1   
 18   9  27  1   
 19   9  28  1   
 20  10  11  am  
 21  10  12  1   
 22  11  13  2   
 23  11  14  1   
 24  12  29  1   
 25  12  30  1   
 26  12  31  1   
 27  14  15  1   
 28  14  16  1   
 29  14  32  1   
 30  15  17  1   
 31  16  33  1   
 32  16  34  1   
 33  16  35  1   
 34  17  18  1   
 35  17  19  1   
 36  17  36  1   
 37  18  37  1   
 38  18  38  1   
 39  18  39  1   
 40  19  40  1   
 41  19  41  1   
 42  19  42  1   
@<TRIPOS>SUBSTRUCTURE
  1 ****  10 GROUP 4 **** **** 0

# MOE 2024.06 (io_trps.svl 2023.06)
