@<TRIPOS>MOLECULE
NONAME
47 50 1 0 0 
SMALL
USER_CHARGES


@<TRIPOS>ATOM
  1 O        2.0310     1.8440     1.1290 O.3   1 <1>  -0.0190 
  2 N        2.8630     0.8530     1.0440 N.2   1 <1>  -0.4100 
  3 C        1.0120     1.6980     0.3250 C.2   1 <1>  -0.0400 
  4 C        2.3610     0.0380     0.1870 C.2   1 <1>   0.1080 
  5 C        1.1600     0.5300    -0.3180 C.2   1 <1>  -0.1500 
  6 C       -0.0550     2.7740     0.2610 C.3   1 <1>   0.0200 
  7 C        2.9970    -1.2760    -0.2140 C.3   1 <1>  -0.0590 
  8 C        0.5160     4.0710    -0.3500 C.3   1 <1>  -0.0800 
  9 C       -0.4450     5.2580    -0.4050 C.3   1 <1>   0.2000 
 10 C        1.7390     4.6270     0.3820 C.3   1 <1>   0.3430 
 11 O       -1.1470     5.3710     0.7910 O.3   1 <1>  -0.6800 
 12 C        0.4800     6.4690    -0.5610 C.3   1 <1>   0.3430 
 13 N        1.7940     6.0820     0.0560 N.4   1 <1>  -0.9590 
 14 C        2.1690     6.9310     1.2190 C.3   1 <1>   0.4860 
 15 C        2.4920     8.3160     0.6960 C.ar  1 <1>  -0.1440 
 16 C        3.7380     8.6120     0.1260 C.ar  1 <1>  -0.1440 
 17 C        1.5100     9.3000     0.7870 C.ar  1 <1>  -0.1500 
 18 C        3.9880     9.8880    -0.3710 C.ar  1 <1>  -0.1500 
 19 C        4.8590     7.5820     0.0380 C.3   1 <1>  -0.0970 
 20 C        1.7890    10.5530     0.2840 C.ar  1 <1>   0.0820 
 21 C        2.9930    10.8390    -0.2810 C.ar  1 <1>   0.0820 
 22 O        0.9970    11.6280     0.2580 O.3   1 <1>  -0.3620 
 23 O        3.0180    12.1110    -0.6910 O.3   1 <1>  -0.3620 
 24 C        1.7530    12.6760    -0.3510 C.3   1 <1>   0.4000 
 25 H        0.5340     0.0540    -1.0500 H     1 <1>   0.1500 
 26 H       -0.8750     2.4240    -0.3410 H     1 <1>   0.0800 
 27 H       -0.4270     2.9380     1.2570 H     1 <1>   0.0800 
 28 H        3.2000    -1.2790    -1.2690 H     1 <1>   0.0800 
 29 H        2.3350    -2.0880     0.0220 H     1 <1>   0.0800 
 30 H        3.9210    -1.4150     0.3180 H     1 <1>   0.0800 
 31 H        0.8250     3.8470    -1.3570 H     1 <1>   0.0800 
 32 H       -1.1630     5.1900    -1.2060 H     1 <1>   0.0800 
 33 H        2.6400     4.1150     0.0790 H     1 <1>   0.0800 
 34 H        1.6070     4.4910     1.4440 H     1 <1>   0.0800 
 35 H       -0.5890     5.2420     1.5810 H     1 <1>   0.4000 
 36 H        0.0460     7.3400    -0.0980 H     1 <1>   0.0800 
 37 H        0.6250     6.6700    -1.6090 H     1 <1>   0.0800 
 38 H        2.5230     6.2510    -0.6510 H     1 <1>   0.4500 
 39 H        1.3590     6.9800     1.9270 H     1 <1>   0.0800 
 40 H        3.0350     6.5240     1.7150 H     1 <1>   0.0800 
 41 H        0.5460     9.1250     1.2320 H     1 <1>   0.1500 
 42 H        4.9290    10.1580    -0.8170 H     1 <1>   0.1500 
 43 H        5.7760     8.0470    -0.2800 H     1 <1>   0.0800 
 44 H        4.6170     6.8140    -0.6730 H     1 <1>   0.0800 
 45 H        5.0420     7.1360     1.0000 H     1 <1>   0.0800 
 46 H        1.2550    13.0120    -1.2430 H     1 <1>   0.0800 
 47 H        1.8940    13.4770     0.3530 H     1 <1>   0.0800 
@<TRIPOS>BOND
  1   1   2  1   
  2   1   3  1   
  3   2   4  2   
  4   3   5  2   
  5   3   6  1   
  6   4   5  1   
  7   4   7  1   
  8   5  25  1   
  9   6   8  1   
 10   6  26  1   
 11   6  27  1   
 12   7  28  1   
 13   7  29  1   
 14   7  30  1   
 15   8   9  1   
 16   8  10  1   
 17   8  31  1   
 18   9  11  1   
 19   9  12  1   
 20   9  32  1   
 21  10  13  1   
 22  10  33  1   
 23  10  34  1   
 24  11  35  1   
 25  12  13  1   
 26  12  36  1   
 27  12  37  1   
 28  13  14  1   
 29  13  38  1   
 30  14  15  1   
 31  14  39  1   
 32  14  40  1   
 33  15  16  ar  
 34  15  17  ar  
 35  16  18  ar  
 36  16  19  1   
 37  17  20  ar  
 38  17  41  1   
 39  18  21  ar  
 40  18  42  1   
 41  19  43  1   
 42  19  44  1   
 43  19  45  1   
 44  20  21  ar  
 45  20  22  1   
 46  21  23  1   
 47  22  24  1   
 48  23  24  1   
 49  24  46  1   
 50  24  47  1   
@<TRIPOS>SUBSTRUCTURE
  1 ****  13 GROUP 4 **** **** 0

# MOE 2024.06 (io_trps.svl 2023.06)
