@<TRIPOS>MOLECULE
NONAME
45 47 1 0 0 
SMALL
USER_CHARGES


@<TRIPOS>ATOM
  1 O       -0.8870     0.3640    -1.5210 O.2   1 <1>  -0.5700 
  2 C       -1.6270     0.8660    -0.6940 C.2   1 <1>   0.7160 
  3 N       -2.7890     0.2060    -0.3570 N.am  1 <1>  -0.6600 
  4 C       -1.2670     2.1380    -0.1090 C.2   1 <1>  -0.0860 
  5 C       -3.3160    -0.8940    -1.2390 C.3   1 <1>   0.1400 
  6 C       -3.6010     0.5080     0.8650 C.3   1 <1>   0.1400 
  7 C       -0.0760     2.5450     0.4120 C.2   1 <1>  -0.0400 
  8 C       -2.1010     3.2700     0.0200 C.2   1 <1>  -0.1500 
  9 C       -4.4620    -1.6590    -0.5620 C.3   1 <1>   0.2000 
 10 C       -5.0660     0.6050     0.4480 C.3   1 <1>  -0.1600 
 11 O       -0.1420     3.7840     0.8370 O.3   1 <1>  -0.2800 
 12 C        1.2380     1.8050     0.5560 C.3   1 <1>  -0.0600 
 13 C       -1.3560     4.2300     0.6040 C.2   1 <1>  -0.0100 
 14 O       -4.9440    -2.6550    -1.3970 O.3   1 <1>  -0.6800 
 15 C       -5.6270    -0.7550    -0.0840 C.3   1 <1>  -0.1060 
 16 C       -6.2760    -1.6040     1.0130 C.2   1 <1>   0.9060 
 17 C       -6.6540    -0.4610    -1.2190 C.3   1 <1>  -0.0170 
 18 O       -6.1510    -1.2940     2.2030 O.co2 1 <1>  -0.9000 
 19 O       -6.8400    -2.6550     0.6720 O.co2 1 <1>  -0.9000 
 20 C       -7.6880     0.6130    -0.8850 C.ar  1 <1>  -0.1440 
 21 C       -7.6600     1.8420    -1.5290 C.ar  1 <1>  -0.1500 
 22 C       -8.6710     0.3710     0.0620 C.ar  1 <1>  -0.1500 
 23 C       -8.5970     2.8160    -1.2270 C.ar  1 <1>  -0.1500 
 24 C       -9.6080     1.3430     0.3670 C.ar  1 <1>  -0.1500 
 25 C       -9.5730     2.5670    -0.2780 C.ar  1 <1>  -0.1500 
 26 H       -3.6700    -0.4610    -2.1570 H     1 <1>   0.0800 
 27 H       -2.5210    -1.5830    -1.4640 H     1 <1>   0.0800 
 28 H       -3.4810    -0.2820     1.5900 H     1 <1>   0.0800 
 29 H       -3.2910     1.4240     1.3320 H     1 <1>   0.0800 
 30 H       -3.1260     3.3150    -0.3010 H     1 <1>   0.1500 
 31 H       -4.0390    -2.1680     0.2900 H     1 <1>   0.0800 
 32 H       -5.6590     0.9470     1.2780 H     1 <1>   0.0800 
 33 H       -5.1300     1.3630    -0.3110 H     1 <1>   0.0800 
 34 H        1.1490     0.8000     0.1870 H     1 <1>   0.0800 
 35 H        1.5250     1.7730     1.5910 H     1 <1>   0.0800 
 36 H        2.0010     2.3140    -0.0040 H     1 <1>   0.0800 
 37 H       -1.6010     5.2400     0.8820 H     1 <1>   0.1500 
 38 H       -5.7140    -3.0550    -0.9110 H     1 <1>   0.4000 
 39 H       -6.1160    -0.1620    -2.1000 H     1 <1>   0.0800 
 40 H       -7.1860    -1.3600    -1.4790 H     1 <1>   0.0800 
 41 H       -6.9060     2.0440    -2.2680 H     1 <1>   0.1500 
 42 H       -8.7080    -0.5800     0.5700 H     1 <1>   0.1500 
 43 H       -8.5660     3.7650    -1.7310 H     1 <1>   0.1500 
 44 H      -10.3600     1.1390     1.1080 H     1 <1>   0.1500 
 45 H      -10.3010     3.3210    -0.0400 H     1 <1>   0.1500 
@<TRIPOS>BOND
  1   1   2  2   
  2   2   3  am  
  3   2   4  1   
  4   3   5  1   
  5   3   6  1   
  6   4   7  2   
  7   4   8  1   
  8   5   9  1   
  9   5  26  1   
 10   5  27  1   
 11   6  10  1   
 12   6  28  1   
 13   6  29  1   
 14   7  11  1   
 15   7  12  1   
 16   8  13  2   
 17   8  30  1   
 18   9  14  1   
 19   9  15  1   
 20   9  31  1   
 21  10  15  1   
 22  10  32  1   
 23  10  33  1   
 24  11  13  1   
 25  12  34  1   
 26  12  35  1   
 27  12  36  1   
 28  13  37  1   
 29  14  38  1   
 30  15  16  1   
 31  15  17  1   
 32  16  18  ar  
 33  16  19  ar  
 34  17  20  1   
 35  17  39  1   
 36  17  40  1   
 37  20  21  ar  
 38  20  22  ar  
 39  21  23  ar  
 40  21  41  1   
 41  22  24  ar  
 42  22  42  1   
 43  23  25  ar  
 44  23  43  1   
 45  24  25  ar  
 46  24  44  1   
 47  25  45  1   
@<TRIPOS>SUBSTRUCTURE
  1 ****  10 GROUP 4 **** **** 0

# MOE 2024.06 (io_trps.svl 2023.06)
