@<TRIPOS>MOLECULE
NONAME
43 45 1 0 0 
SMALL
USER_CHARGES


@<TRIPOS>ATOM
  1 S       -1.5970    -0.8460    -0.8710 S.3   1 <1>  -0.0800 
  2 C       -1.7570    -1.3790     0.7690 C.2   1 <1>   0.4420 
  3 C       -0.8210     0.5760    -0.2560 C.2   1 <1>   0.1980 
  4 N       -1.2640    -0.5390     1.6040 N.2   1 <1>  -0.3380 
  5 N       -2.3740    -2.5930     0.9640 N.am  1 <1>  -0.4940 
  6 N       -0.7320     0.5730     1.0130 N.2   1 <1>  -0.3380 
  7 C       -0.3510     1.6470    -1.2380 C.3   1 <1>   0.3800 
  8 C       -2.7030    -3.2570     2.1070 C.2   1 <1>   0.5690 
  9 O       -1.4100     2.0970    -2.0330 O.3   1 <1>  -0.5600 
 10 C        0.7320     1.1330    -2.1860 C.3   1 <1>  -0.2400 
 11 O       -2.4900    -2.8520     3.2220 O.2   1 <1>  -0.5700 
 12 C       -3.3960    -4.6060     1.9160 C.3   1 <1>   0.1710 
 13 C       -2.3670     2.8590    -1.3610 C.3   1 <1>   0.0400 
 14 N       -4.0150    -4.7540     0.5650 N.3   1 <1>  -0.8100 
 15 C       -4.2160    -6.1770     0.2250 C.3   1 <1>   0.2530 
 16 C       -5.2970    -4.0340     0.4760 C.3   1 <1>   0.1100 
 17 C       -4.9410    -6.3520    -1.1060 C.ar  1 <1>  -0.1430 
 18 C       -5.7450    -3.9610    -0.9860 C.3   1 <1>  -0.0170 
 19 C       -5.6760    -5.3170    -1.6720 C.ar  1 <1>  -0.1430 
 20 C       -4.8760    -7.5760    -1.7560 C.ar  1 <1>  -0.1500 
 21 C       -6.3360    -5.5140    -2.8750 C.ar  1 <1>  -0.1500 
 22 C       -5.5370    -7.7690    -2.9570 C.ar  1 <1>  -0.1500 
 23 C       -6.2680    -6.7380    -3.5170 C.ar  1 <1>  -0.1500 
 24 H       -2.6940    -3.0920     0.1300 H     1 <1>   0.3700 
 25 H        0.0370     2.4870    -0.6860 H     1 <1>   0.0800 
 26 H        0.3500     0.3340    -2.7950 H     1 <1>   0.0800 
 27 H        1.5670     0.7670    -1.6180 H     1 <1>   0.0800 
 28 H        1.0700     1.9320    -2.8190 H     1 <1>   0.0800 
 29 H       -4.1390    -4.7340     2.6840 H     1 <1>   0.0800 
 30 H       -2.6450    -5.3640     2.0530 H     1 <1>   0.0800 
 31 H       -3.1080     3.1690    -2.0760 H     1 <1>   0.0800 
 32 H       -1.8970     3.7260    -0.9310 H     1 <1>   0.0800 
 33 H       -2.8340     2.2640    -0.5960 H     1 <1>   0.0800 
 34 H       -4.7940    -6.6570     0.9970 H     1 <1>   0.0800 
 35 H       -3.2570    -6.6630     0.1680 H     1 <1>   0.0800 
 36 H       -5.1970    -3.0340     0.8620 H     1 <1>   0.0800 
 37 H       -6.0460    -4.5470     1.0580 H     1 <1>   0.0800 
 38 H       -5.1100    -3.2720    -1.5130 H     1 <1>   0.0800 
 39 H       -6.7510    -3.5820    -1.0270 H     1 <1>   0.0800 
 40 H       -4.3120    -8.3860    -1.3300 H     1 <1>   0.1500 
 41 H       -6.9030    -4.7150    -3.3180 H     1 <1>   0.1500 
 42 H       -5.4820    -8.7220    -3.4550 H     1 <1>   0.1500 
 43 H       -6.7820    -6.8860    -4.4500 H     1 <1>   0.1500 
@<TRIPOS>BOND
  1   1   2  1   
  2   1   3  1   
  3   2   4  2   
  4   2   5  1   
  5   3   6  2   
  6   3   7  1   
  7   4   6  1   
  8   5   8  am  
  9   5  24  1   
 10   7   9  1   
 11   7  10  1   
 12   7  25  1   
 13   8  11  2   
 14   8  12  1   
 15   9  13  1   
 16  10  26  1   
 17  10  27  1   
 18  10  28  1   
 19  12  14  1   
 20  12  29  1   
 21  12  30  1   
 22  13  31  1   
 23  13  32  1   
 24  13  33  1   
 25  14  15  1   
 26  14  16  1   
 27  15  17  1   
 28  15  34  1   
 29  15  35  1   
 30  16  18  1   
 31  16  36  1   
 32  16  37  1   
 33  17  19  ar  
 34  17  20  ar  
 35  18  19  1   
 36  18  38  1   
 37  18  39  1   
 38  19  21  ar  
 39  20  22  ar  
 40  20  40  1   
 41  21  23  ar  
 42  21  41  1   
 43  22  23  ar  
 44  22  42  1   
 45  23  43  1   
@<TRIPOS>SUBSTRUCTURE
  1 ****   5 GROUP 4 **** **** 0

# MOE 2024.06 (io_trps.svl 2023.06)
