@<TRIPOS>MOLECULE
NONAME
51 53 1 0 0 
SMALL
USER_CHARGES


@<TRIPOS>ATOM
  1 O        0.7760     0.4740     1.3970 O.co2 1 <1>  -0.9020 
  2 C        1.2680    -0.6630     1.3230 C.2   1 <1>   0.9770 
  3 O        0.5740    -1.6580     1.5810 O.co2 1 <1>  -0.9020 
  4 C        2.6610    -0.8100     0.9310 C.ar  1 <1>  -0.1860 
  5 C        3.4250     0.3120     0.6250 C.ar  1 <1>  -0.1170 
  6 C        3.2800    -2.0720     0.8490 C.ar  1 <1>  -0.1570 
  7 C        4.7470     0.1600     0.2540 C.ar  1 <1>   0.3030 
  8 C        4.6010    -2.2200     0.4770 C.ar  1 <1>  -0.1170 
  9 N        5.7100     1.0840    -0.0880 N.pl3 1 <1>  -0.7040 
 10 C        5.3410    -1.0820     0.1720 C.ar  1 <1>   0.3030 
 11 C        6.8490     0.4520    -0.3600 C.cat 1 <1>   1.0690 
 12 N        6.6600    -0.8800    -0.2350 N.pl3 1 <1>  -0.7670 
 13 N        7.9930     1.1130    -0.6920 N.pl3 1 <1>  -0.5960 
 14 C        7.5320    -2.0350    -0.5870 C.3   1 <1>   0.2680 
 15 C        8.0290     2.5650    -1.0850 C.3   1 <1>   0.1600 
 16 C        9.3360     0.4560    -0.7790 C.3   1 <1>   0.0800 
 17 C        8.6650     3.4550     0.0090 C.3   1 <1>   0.3370 
 18 N        8.9920     4.8440    -0.4710 N.4   1 <1>  -0.9610 
 19 C        9.8740     5.5540     0.5060 C.3   1 <1>   0.4180 
 20 C        7.7550     5.6460    -0.7530 C.3   1 <1>   0.2560 
 21 C       10.2240     6.9660     0.0280 C.3   1 <1>  -0.1670 
 22 C       11.2240     4.8380     0.6750 C.3   1 <1>  -0.1670 
 23 C       11.6260     7.2300     0.5640 C.3   1 <1>  -0.1670 
 24 C       12.3220     5.8820     0.4520 C.3   1 <1>  -0.1670 
 25 H        2.9770     1.2900     0.6820 H     1 <1>   0.1430 
 26 H        2.6830    -2.9390     1.0900 H     1 <1>   0.1430 
 27 H        5.0410    -3.1980     0.4290 H     1 <1>   0.1430 
 28 H        5.5150     2.0770    -0.1010 H     1 <1>   0.4450 
 29 H        6.9330    -2.9030    -0.8060 H     1 <1>   0.0720 
 30 H        8.1850    -2.2690     0.2360 H     1 <1>   0.0720 
 31 H        8.1160    -1.8170    -1.4630 H     1 <1>   0.0720 
 32 H        7.0370     2.9160    -1.3050 H     1 <1>   0.0720 
 33 H        8.6110     2.6520    -1.9880 H     1 <1>   0.0720 
 34 H        9.4420    -0.2930    -0.0140 H     1 <1>   0.0720 
 35 H       10.1280     1.1720    -0.6410 H     1 <1>   0.0720 
 36 H        9.4610     0.0000    -1.7480 H     1 <1>   0.0720 
 37 H        9.5730     2.9800     0.3400 H     1 <1>   0.0720 
 38 H        8.0000     3.5190     0.8550 H     1 <1>   0.0720 
 39 H        9.5550     4.7950    -1.3330 H     1 <1>   0.4450 
 40 H        9.3920     5.6220     1.4680 H     1 <1>   0.0720 
 41 H        7.1810     5.7780     0.1490 H     1 <1>   0.0720 
 42 H        7.1430     5.1540    -1.4900 H     1 <1>   0.0720 
 43 H        8.0180     6.6200    -1.1340 H     1 <1>   0.0720 
 44 H        9.5300     7.6990     0.3990 H     1 <1>   0.0720 
 45 H       10.2640     7.0080    -1.0470 H     1 <1>   0.0720 
 46 H       11.3680     4.0260    -0.0140 H     1 <1>   0.0720 
 47 H       11.2950     4.4650     1.6820 H     1 <1>   0.0720 
 48 H       11.5730     7.5260     1.6000 H     1 <1>   0.0720 
 49 H       12.1380     7.9970     0.0070 H     1 <1>   0.0720 
 50 H       12.7290     5.7750    -0.5400 H     1 <1>   0.0720 
 51 H       13.1240     5.7880     1.1650 H     1 <1>   0.0720 
@<TRIPOS>BOND
  1   1   2  ar  
  2   2   3  ar  
  3   2   4  1   
  4   4   5  ar  
  5   4   6  ar  
  6   5   7  ar  
  7   5  25  1   
  8   6   8  ar  
  9   6  26  1   
 10   7   9  1   
 11   7  10  ar  
 12   8  10  ar  
 13   8  27  1   
 14   9  11  ar  
 15   9  28  1   
 16  10  12  1   
 17  11  12  ar  
 18  11  13  ar  
 19  12  14  1   
 20  13  15  1   
 21  13  16  1   
 22  14  29  1   
 23  14  30  1   
 24  14  31  1   
 25  15  17  1   
 26  15  32  1   
 27  15  33  1   
 28  16  34  1   
 29  16  35  1   
 30  16  36  1   
 31  17  18  1   
 32  17  37  1   
 33  17  38  1   
 34  18  19  1   
 35  18  20  1   
 36  18  39  1   
 37  19  21  1   
 38  19  22  1   
 39  19  40  1   
 40  20  41  1   
 41  20  42  1   
 42  20  43  1   
 43  21  23  1   
 44  21  44  1   
 45  21  45  1   
 46  22  24  1   
 47  22  46  1   
 48  22  47  1   
 49  23  24  1   
 50  23  48  1   
 51  23  49  1   
 52  24  50  1   
 53  24  51  1   
@<TRIPOS>SUBSTRUCTURE
  1 ****   9 GROUP 4 **** **** 0

# MOE 2024.06 (io_trps.svl 2023.06)
