@<TRIPOS>MOLECULE
NONAME
51 53 1 0 0 
SMALL
USER_CHARGES


@<TRIPOS>ATOM
  1 CL       2.0850     1.9190    -2.3800 Cl    1 <1>  -0.1770 
  2 C        1.2090     2.8370    -1.1750 C.ar  1 <1>   0.1770 
  3 C        1.4750     2.7010     0.1860 C.ar  1 <1>  -0.1440 
  4 C        0.2440     3.7130    -1.6380 C.ar  1 <1>  -0.1500 
  5 C        0.7460     3.4840     1.0720 C.ar  1 <1>  -0.1500 
  6 C        2.5290     1.7490     0.7510 C.3   1 <1>   0.3640 
  7 C       -0.4750     4.4800    -0.7400 C.ar  1 <1>  -0.1500 
  8 C       -0.2210     4.3640     0.6150 C.ar  1 <1>  -0.1500 
  9 N        2.2160     0.3630     0.3300 N.am  1 <1>  -0.7300 
 10 C        3.9710     2.1770     0.3630 C.3   1 <1>   0.2610 
 11 C        3.1520    -0.5100    -0.1000 C.2   1 <1>   0.5690 
 12 O        4.8900     1.1070     0.5330 O.3   1 <1>  -0.5600 
 13 C        4.4200     3.4240     1.1460 C.2   1 <1>   0.5690 
 14 O        2.8530    -1.6420    -0.3850 O.2   1 <1>  -0.5700 
 15 C        4.6020    -0.0380    -0.2420 C.3   1 <1>   0.1810 
 16 O        3.8120     3.7460     2.1440 O.2   1 <1>  -0.5700 
 17 N        5.4830     4.1720     0.7030 N.am  1 <1>  -0.6600 
 18 C        5.8510     5.4740     1.3440 C.3   1 <1>   0.1400 
 19 C        6.3630     3.7760    -0.4380 C.3   1 <1>   0.1400 
 20 C        6.1690     6.5830     0.2940 C.3   1 <1>   0.2800 
 21 C        7.4760     4.8080    -0.6850 C.3   1 <1>   0.1200 
 22 O        6.9300     6.0920    -0.7900 O.3   1 <1>  -0.5600 
 23 C        6.9690     7.7270     0.9760 C.3   1 <1>  -0.1600 
 24 C        4.8250     7.0700    -0.3060 C.3   1 <1>  -0.1600 
 25 C        7.9430     8.5260     0.0870 C.3   1 <1>  -0.2400 
 26 C        4.8980     8.1580    -1.3890 C.3   1 <1>  -0.2400 
 27 H        0.0610     3.7930    -2.6950 H     1 <1>   0.1500 
 28 H        0.9310     3.4210     2.1320 H     1 <1>   0.1500 
 29 H        2.4620     1.7620     1.8250 H     1 <1>   0.0800 
 30 H       -1.2280     5.1640    -1.0930 H     1 <1>   0.1500 
 31 H       -0.7750     4.9630     1.3180 H     1 <1>   0.1500 
 32 H        1.2480     0.0490     0.4050 H     1 <1>   0.3700 
 33 H        3.9850     2.4380    -0.6760 H     1 <1>   0.0800 
 34 H        4.8020     0.1890    -1.2730 H     1 <1>   0.0800 
 35 H        5.2630    -0.8230     0.0760 H     1 <1>   0.0800 
 36 H        5.0610     5.8140     1.9900 H     1 <1>   0.0800 
 37 H        6.7110     5.3040     1.9670 H     1 <1>   0.0800 
 38 H        6.8070     2.8170    -0.2320 H     1 <1>   0.0800 
 39 H        5.7730     3.6930    -1.3330 H     1 <1>   0.0800 
 40 H        7.9870     4.5930    -1.6060 H     1 <1>   0.0800 
 41 H        8.1950     4.8040     0.1160 H     1 <1>   0.0800 
 42 H        6.2730     8.4080     1.4340 H     1 <1>   0.0800 
 43 H        7.5540     7.3150     1.7780 H     1 <1>   0.0800 
 44 H        4.3210     6.2170    -0.7270 H     1 <1>   0.0800 
 45 H        4.1990     7.4330     0.4900 H     1 <1>   0.0800 
 46 H        7.4450     8.9570    -0.7600 H     1 <1>   0.0800 
 47 H        8.7270     7.8840    -0.2760 H     1 <1>   0.0800 
 48 H        8.3940     9.3190     0.6560 H     1 <1>   0.0800 
 49 H        5.5860     7.8710    -2.1660 H     1 <1>   0.0800 
 50 H        5.2110     9.0950    -0.9670 H     1 <1>   0.0800 
 51 H        3.9280     8.2990    -1.8300 H     1 <1>   0.0800 
@<TRIPOS>BOND
  1   1   2  1   
  2   2   3  ar  
  3   2   4  ar  
  4   3   5  ar  
  5   3   6  1   
  6   4   7  ar  
  7   4  27  1   
  8   5   8  ar  
  9   5  28  1   
 10   6   9  1   
 11   6  10  1   
 12   6  29  1   
 13   7   8  ar  
 14   7  30  1   
 15   8  31  1   
 16   9  11  am  
 17   9  32  1   
 18  10  12  1   
 19  10  13  1   
 20  10  33  1   
 21  11  14  2   
 22  11  15  1   
 23  12  15  1   
 24  13  16  2   
 25  13  17  am  
 26  15  34  1   
 27  15  35  1   
 28  17  18  1   
 29  17  19  1   
 30  18  20  1   
 31  18  36  1   
 32  18  37  1   
 33  19  21  1   
 34  19  38  1   
 35  19  39  1   
 36  20  22  1   
 37  20  23  1   
 38  20  24  1   
 39  21  22  1   
 40  21  40  1   
 41  21  41  1   
 42  23  25  1   
 43  23  42  1   
 44  23  43  1   
 45  24  26  1   
 46  24  44  1   
 47  24  45  1   
 48  25  46  1   
 49  25  47  1   
 50  25  48  1   
 51  26  49  1   
 52  26  50  1   
 53  26  51  1   
@<TRIPOS>SUBSTRUCTURE
  1 ****  13 GROUP 4 **** **** 0

# MOE 2024.06 (io_trps.svl 2023.06)
