@<TRIPOS>MOLECULE
NONAME
44 46 1 0 0 
SMALL
USER_CHARGES


@<TRIPOS>ATOM
  1 F       -2.3170     0.9380    -1.8100 F     1 <1>  -0.1900 
  2 C       -2.1380     1.6570    -0.7350 C.ar  1 <1>   0.1900 
  3 C       -2.7030     1.2410     0.4710 C.ar  1 <1>   0.0860 
  4 C       -1.3830     2.8060    -0.8590 C.ar  1 <1>  -0.1500 
  5 C       -3.5020     0.0420     0.5930 C.2   1 <1>   0.5440 
  6 C       -2.4500     2.0440     1.5860 C.ar  1 <1>  -0.1500 
  7 C       -1.1650     3.5810     0.2650 C.ar  1 <1>   0.0830 
  8 O       -3.1700    -0.7990     1.4090 O.2   1 <1>  -0.5700 
  9 N       -4.6510    -0.1750    -0.1430 N.am  1 <1>  -0.6600 
 10 C       -1.6950     3.2000     1.4900 C.ar  1 <1>  -0.1500 
 11 O       -0.4370     4.6970     0.1570 O.3   1 <1>  -0.5330 
 12 C       -5.2820    -1.5280    -0.1540 C.3   1 <1>   0.1400 
 13 C       -5.3390     0.8990    -0.9180 C.3   1 <1>   0.1400 
 14 C       -6.2630    -1.6860     1.0160 C.3   1 <1>   0.1400 
 15 C       -6.8600     0.9430    -0.7070 C.3   1 <1>  -0.1600 
 16 N       -7.5210    -0.9020     0.7970 N.am  1 <1>  -0.6600 
 17 C       -7.3270     0.5730     0.7060 C.3   1 <1>   0.1400 
 18 C       -8.7770    -1.4460     0.6470 C.2   1 <1>   0.5690 
 19 O       -9.7440    -0.7430     0.4600 O.2   1 <1>  -0.5700 
 20 C       -8.9770    -2.9610     0.7140 C.3   1 <1>  -0.0040 
 21 C      -10.4010    -3.4480     0.3930 C.3   1 <1>  -0.1950 
 22 C      -10.6530    -4.8540    -0.0500 C.3   1 <1>  -0.2000 
 23 C      -10.8210    -3.7160    -1.0170 C.3   1 <1>  -0.2000 
 24 H       -0.9670     3.0940    -1.8080 H     1 <1>   0.1500 
 25 H       -2.8540     1.7430     2.5390 H     1 <1>   0.1500 
 26 H       -1.5180     3.7980     2.3660 H     1 <1>   0.1500 
 27 H       -0.3040     5.1720     0.9970 H     1 <1>   0.4500 
 28 H       -4.5090    -2.2720    -0.0590 H     1 <1>   0.0800 
 29 H       -5.7850    -1.7000    -1.0890 H     1 <1>   0.0800 
 30 H       -5.1270     0.7670    -1.9660 H     1 <1>   0.0800 
 31 H       -4.9420     1.8550    -0.6260 H     1 <1>   0.0800 
 32 H       -5.7870    -1.3550     1.9230 H     1 <1>   0.0800 
 33 H       -6.4800    -2.7290     1.1380 H     1 <1>   0.0800 
 34 H       -7.3510     0.3090    -1.4240 H     1 <1>   0.0800 
 35 H       -7.1850     1.9460    -0.9180 H     1 <1>   0.0800 
 36 H       -8.2590     1.0730     0.9110 H     1 <1>   0.0800 
 37 H       -6.6150     0.9010     1.4440 H     1 <1>   0.0800 
 38 H       -8.7260    -3.2850     1.7060 H     1 <1>   0.0800 
 39 H       -8.2960    -3.4230     0.0240 H     1 <1>   0.0800 
 40 H      -11.1370    -2.9950     1.0370 H     1 <1>   0.1000 
 41 H      -11.5340    -5.3580     0.3100 H     1 <1>   0.1000 
 42 H       -9.8230    -5.5250    -0.1870 H     1 <1>   0.1000 
 43 H      -10.1010    -3.5900    -1.8070 H     1 <1>   0.1000 
 44 H      -11.8120    -3.4190    -1.3140 H     1 <1>   0.1000 
@<TRIPOS>BOND
  1   1   2  1   
  2   2   3  ar  
  3   2   4  ar  
  4   3   5  1   
  5   3   6  ar  
  6   4   7  ar  
  7   4  24  1   
  8   5   8  2   
  9   5   9  am  
 10   6  10  ar  
 11   6  25  1   
 12   7  10  ar  
 13   7  11  1   
 14   9  12  1   
 15   9  13  1   
 16  10  26  1   
 17  11  27  1   
 18  12  14  1   
 19  12  28  1   
 20  12  29  1   
 21  13  15  1   
 22  13  30  1   
 23  13  31  1   
 24  14  16  1   
 25  14  32  1   
 26  14  33  1   
 27  15  17  1   
 28  15  34  1   
 29  15  35  1   
 30  16  17  1   
 31  16  18  am  
 32  17  36  1   
 33  17  37  1   
 34  18  19  2   
 35  18  20  1   
 36  20  21  1   
 37  20  38  1   
 38  20  39  1   
 39  21  22  1   
 40  21  23  1   
 41  21  40  1   
 42  22  23  1   
 43  22  41  1   
 44  22  42  1   
 45  23  43  1   
 46  23  44  1   
@<TRIPOS>SUBSTRUCTURE
  1 ****   9 GROUP 4 **** **** 0

# MOE 2024.06 (io_trps.svl 2023.06)
