@<TRIPOS>MOLECULE
NONAME
53 56 1 0 0 
SMALL
USER_CHARGES


@<TRIPOS>ATOM
  1 O       -1.0160    -0.2710    -0.8680 O.3   1 <1>  -0.2800 
  2 C       -0.7530     1.0370    -0.8550 C.ar  1 <1>   0.1400 
  3 C       -1.6180    -0.5630     0.2840 C.2   1 <1>  -0.0400 
  4 C       -1.1920     1.6030     0.3290 C.ar  1 <1>   0.0000 
  5 C       -0.1380     1.7900    -1.8460 C.ar  1 <1>  -0.1500 
  6 C       -1.7520     0.5330     1.0560 C.2   1 <1>  -0.1500 
  7 C       -2.0510    -1.9990     0.5050 C.3   1 <1>   0.5230 
  8 C       -1.0160     2.9700     0.5430 C.ar  1 <1>  -0.1500 
  9 C        0.0300     3.1430    -1.6280 C.ar  1 <1>  -0.1500 
 10 N       -2.5850    -2.5320    -0.7860 N.4   1 <1>  -0.9590 
 11 C       -0.4080     3.7280    -0.4360 C.ar  1 <1>  -0.1500 
 12 C       -4.0340    -2.3280    -1.0860 C.3   1 <1>   0.4230 
 13 C       -2.1860    -3.9590    -0.9750 C.3   1 <1>   0.2630 
 14 C       -4.4690    -0.8690    -1.1920 C.3   1 <1>  -0.1600 
 15 C       -4.9980    -2.9200    -0.0580 C.3   1 <1>  -0.1600 
 16 C       -6.0010    -0.9350    -1.1210 C.3   1 <1>  -0.0800 
 17 C       -6.3360    -2.2160    -0.3490 C.3   1 <1>  -0.0800 
 18 C       -6.6780     0.2310    -0.3790 C.3   1 <1>  -0.1600 
 19 C       -7.1480    -1.7850     0.8840 C.3   1 <1>  -0.1600 
 20 C       -7.6880    -0.3810     0.5990 C.3   1 <1>   0.4230 
 21 N       -9.0870    -0.4300     0.0640 N.4   1 <1>  -0.9590 
 22 C       -9.2540    -1.0530    -1.2890 C.3   1 <1>   0.2630 
 23 C       -9.7080     0.9330     0.0760 C.3   1 <1>   0.2630 
 24 H        0.1940     1.3210    -2.7540 H     1 <1>   0.1500 
 25 H       -2.1850     0.6450     2.0350 H     1 <1>   0.1500 
 26 H       -2.7780    -2.0620     1.2950 H     1 <1>   0.0800 
 27 H       -1.1800    -2.5640     0.7960 H     1 <1>   0.0800 
 28 H       -1.3520     3.4170     1.4620 H     1 <1>   0.1500 
 29 H        0.5030     3.7580    -2.3750 H     1 <1>   0.1500 
 30 H       -2.0680    -1.9650    -1.4810 H     1 <1>   0.4500 
 31 H       -0.2630     4.7850    -0.2880 H     1 <1>   0.1500 
 32 H       -4.2520    -2.7880    -2.0370 H     1 <1>   0.0800 
 33 H       -2.6690    -4.5860    -0.2430 H     1 <1>   0.0800 
 34 H       -1.1180    -4.0660    -0.8720 H     1 <1>   0.0800 
 35 H       -2.4680    -4.2990    -1.9590 H     1 <1>   0.0800 
 36 H       -4.1000    -0.3030    -0.3590 H     1 <1>   0.0800 
 37 H       -4.1360    -0.4170    -2.1100 H     1 <1>   0.0800 
 38 H       -5.0940    -3.9850    -0.1750 H     1 <1>   0.0800 
 39 H       -4.6730    -2.6980     0.9410 H     1 <1>   0.0800 
 40 H       -6.3990    -1.0160    -2.1200 H     1 <1>   0.0800 
 41 H       -6.9390    -2.8510    -0.9780 H     1 <1>   0.0800 
 42 H       -7.1210     0.9360    -1.0590 H     1 <1>   0.0800 
 43 H       -5.9500     0.7630     0.2070 H     1 <1>   0.0800 
 44 H       -6.4970    -1.7050     1.7370 H     1 <1>   0.0800 
 45 H       -7.9240    -2.4890     1.1270 H     1 <1>   0.0800 
 46 H       -7.6930     0.1880     1.5160 H     1 <1>   0.0800 
 47 H       -9.6250    -1.0060     0.7290 H     1 <1>   0.4500 
 48 H       -8.7010    -0.4990    -2.0300 H     1 <1>   0.0800 
 49 H      -10.2940    -1.0580    -1.5720 H     1 <1>   0.0800 
 50 H       -8.9010    -2.0710    -1.2800 H     1 <1>   0.0800 
 51 H       -9.1950     1.5880    -0.6090 H     1 <1>   0.0800 
 52 H       -9.6570     1.3600     1.0650 H     1 <1>   0.0800 
 53 H      -10.7440     0.8750    -0.2160 H     1 <1>   0.0800 
@<TRIPOS>BOND
  1   1   2  1   
  2   1   3  1   
  3   2   4  ar  
  4   2   5  ar  
  5   3   6  2   
  6   3   7  1   
  7   4   6  1   
  8   4   8  ar  
  9   5   9  ar  
 10   5  24  1   
 11   6  25  1   
 12   7  10  1   
 13   7  26  1   
 14   7  27  1   
 15   8  11  ar  
 16   8  28  1   
 17   9  11  ar  
 18   9  29  1   
 19  10  12  1   
 20  10  13  1   
 21  10  30  1   
 22  11  31  1   
 23  12  14  1   
 24  12  15  1   
 25  12  32  1   
 26  13  33  1   
 27  13  34  1   
 28  13  35  1   
 29  14  16  1   
 30  14  36  1   
 31  14  37  1   
 32  15  17  1   
 33  15  38  1   
 34  15  39  1   
 35  16  17  1   
 36  16  18  1   
 37  16  40  1   
 38  17  19  1   
 39  17  41  1   
 40  18  20  1   
 41  18  42  1   
 42  18  43  1   
 43  19  20  1   
 44  19  44  1   
 45  19  45  1   
 46  20  21  1   
 47  20  46  1   
 48  21  22  1   
 49  21  23  1   
 50  21  47  1   
 51  22  48  1   
 52  22  49  1   
 53  22  50  1   
 54  23  51  1   
 55  23  52  1   
 56  23  53  1   
@<TRIPOS>SUBSTRUCTURE
  1 ****  14 GROUP 4 **** **** 0

# MOE 2024.06 (io_trps.svl 2023.06)
