@<TRIPOS>MOLECULE
NONAME
49 52 1 0 0 
SMALL
USER_CHARGES


@<TRIPOS>ATOM
  1 O       -1.4040     0.2180     0.2940 O.2   1 <1>  -0.5700 
  2 C       -2.2360     1.0910     0.4690 C.2   1 <1>   0.5440 
  3 N       -3.4950     0.7010     0.8650 N.am  1 <1>  -0.6600 
  4 C       -1.8920     2.4850     0.2430 C.ar  1 <1>   0.0860 
  5 C       -3.7050    -0.6550     1.4500 C.3   1 <1>   0.1400 
  6 C       -4.7260     1.2600     0.2360 C.3   1 <1>   0.1400 
  7 C       -0.9670     2.8500    -0.7350 C.ar  1 <1>  -0.1500 
  8 C       -2.4530     3.5170     0.9970 C.ar  1 <1>  -0.1500 
  9 C       -4.1020    -1.6270     0.3150 C.3   1 <1>   0.4230 
 10 C       -5.1920     0.3030    -0.8710 C.3   1 <1>  -0.1600 
 11 C       -0.6300     4.1720    -0.9590 C.ar  1 <1>  -0.1500 
 12 C       -2.1220     4.8410     0.7780 C.ar  1 <1>  -0.1500 
 13 N       -4.2250    -3.0630     0.7390 N.4   1 <1>  -0.9590 
 14 C       -5.4130    -1.1470    -0.3470 C.3   1 <1>  -0.1060 
 15 C       -1.2050     5.1940    -0.2100 C.ar  1 <1>  -0.0230 
 16 C       -4.4860    -3.9600    -0.4150 C.3   1 <1>   0.3430 
 17 C       -3.1210    -3.5580     1.6030 C.3   1 <1>   0.2630 
 18 C       -6.5370    -1.1810     0.7070 C.2   1 <1>   0.9060 
 19 C       -5.7550    -2.0630    -1.5470 C.3   1 <1>  -0.1600 
 20 N       -0.8590     6.5570    -0.4490 N.pl3 1 <1>   0.5930 
 21 C       -5.7700    -3.5440    -1.1370 C.3   1 <1>  -0.1600 
 22 O       -6.5060    -2.0550     1.5890 O.co2 1 <1>  -0.9000 
 23 O       -7.4320    -0.3390     0.6680 O.co2 1 <1>  -0.9000 
 24 N        0.3140     6.9800    -0.8970 N.2   1 <1>  -0.4180 
 25 C       -1.6030     7.6450    -0.2960 C.2   1 <1>   0.0360 
 26 N        0.2460     8.2580    -0.9910 N.2   1 <1>   0.0000 
 27 N       -0.9510     8.6940    -0.6180 N.2   1 <1>  -0.3380 
 28 H       -2.7930    -0.9740     1.9190 H     1 <1>   0.0800 
 29 H       -4.4730    -0.6030     2.2030 H     1 <1>   0.0800 
 30 H       -5.4960     1.3690     0.9840 H     1 <1>   0.0800 
 31 H       -4.5340     2.2300    -0.1880 H     1 <1>   0.0800 
 32 H       -0.5030     2.0760    -1.3240 H     1 <1>   0.1500 
 33 H       -3.1580     3.2680     1.7730 H     1 <1>   0.1500 
 34 H       -3.3180    -1.5690    -0.4200 H     1 <1>   0.0800 
 35 H       -6.1130     0.6790    -1.2840 H     1 <1>   0.0800 
 36 H       -4.4600     0.3090    -1.6600 H     1 <1>   0.0800 
 37 H        0.0930     4.4080    -1.7250 H     1 <1>   0.1500 
 38 H       -2.5790     5.5970     1.3940 H     1 <1>   0.1500 
 39 H       -5.1220    -3.0270     1.2960 H     1 <1>   0.4500 
 40 H       -3.6560    -3.9140    -1.1010 H     1 <1>   0.0800 
 41 H       -4.5900    -4.9760    -0.0700 H     1 <1>   0.0800 
 42 H       -2.1790    -3.4790     1.0860 H     1 <1>   0.0800 
 43 H       -3.2920    -4.5880     1.8680 H     1 <1>   0.0800 
 44 H       -3.0720    -2.9790     2.5110 H     1 <1>   0.0800 
 45 H       -6.7220    -1.7900    -1.9390 H     1 <1>   0.0800 
 46 H       -5.0300    -1.9230    -2.3300 H     1 <1>   0.0800 
 47 H       -5.8960    -4.1550    -2.0130 H     1 <1>   0.0800 
 48 H       -6.6110    -3.7350    -0.4930 H     1 <1>   0.0800 
 49 H       -2.6180     7.6210     0.0490 H     1 <1>   0.1500 
@<TRIPOS>BOND
  1   1   2  2   
  2   2   3  am  
  3   2   4  1   
  4   3   5  1   
  5   3   6  1   
  6   4   7  ar  
  7   4   8  ar  
  8   5   9  1   
  9   5  28  1   
 10   5  29  1   
 11   6  10  1   
 12   6  30  1   
 13   6  31  1   
 14   7  11  ar  
 15   7  32  1   
 16   8  12  ar  
 17   8  33  1   
 18   9  13  1   
 19   9  14  1   
 20   9  34  1   
 21  10  14  1   
 22  10  35  1   
 23  10  36  1   
 24  11  15  ar  
 25  11  37  1   
 26  12  15  ar  
 27  12  38  1   
 28  13  16  1   
 29  13  17  1   
 30  13  39  1   
 31  14  18  1   
 32  14  19  1   
 33  15  20  1   
 34  16  21  1   
 35  16  40  1   
 36  16  41  1   
 37  17  42  1   
 38  17  43  1   
 39  17  44  1   
 40  18  22  ar  
 41  18  23  ar  
 42  19  21  1   
 43  19  45  1   
 44  19  46  1   
 45  20  24  1   
 46  20  25  1   
 47  21  47  1   
 48  21  48  1   
 49  24  26  2   
 50  25  27  2   
 51  25  49  1   
 52  26  27  1   
@<TRIPOS>SUBSTRUCTURE
  1 ****   2 GROUP 4 **** **** 0

# MOE 2024.06 (io_trps.svl 2023.06)
