@<TRIPOS>MOLECULE
NONAME
43 45 1 0 0 
SMALL
USER_CHARGES


@<TRIPOS>ATOM
  1 CL       1.1750     1.5440     0.0710 Cl    1 <1>  -0.1770 
  2 C        2.2930     0.2410    -0.2720 C.ar  1 <1>   0.1770 
  3 C        3.6700     0.4660    -0.2810 C.ar  1 <1>   0.0830 
  4 C        1.7730    -1.0100    -0.5460 C.ar  1 <1>  -0.1500 
  5 O        4.2020     1.6820    -0.0200 O.3   1 <1>  -0.3630 
  6 C        4.5360    -0.5750    -0.5930 C.ar  1 <1>  -0.1500 
  7 C        2.6610    -2.0270    -0.8390 C.ar  1 <1>   0.1900 
  8 C        4.1680     2.1550     1.3220 C.3   1 <1>   0.2610 
  9 C        4.0310    -1.8350    -0.8710 C.ar  1 <1>  -0.1500 
 10 F        2.1880    -3.2170    -1.0990 F     1 <1>  -0.1900 
 11 C        4.1380     3.6920     1.3740 C.2   1 <1>   0.5690 
 12 C        5.3750     1.5700     2.0690 C.3   1 <1>  -0.2400 
 13 O        3.5760     4.2140     2.3110 O.2   1 <1>  -0.5700 
 14 N        4.7390     4.4540     0.4130 N.am  1 <1>  -0.5100 
 15 C        5.2080     5.8640     0.5680 C.3   1 <1>   0.2250 
 16 C        5.9070     4.1350    -0.4680 C.3   1 <1>   0.2250 
 17 C        6.0730     5.6560    -0.6910 C.3   1 <1>   0.0850 
 18 N        7.4490     6.1610    -0.5050 N.pl3 1 <1>   0.4850 
 19 N        8.5270     5.3510    -0.4160 N.2   1 <1>  -0.7070 
 20 C        7.8200     7.4640    -0.4330 C.2   1 <1>  -0.3320 
 21 C        9.5390     6.1460    -0.2830 C.2   1 <1>   0.1080 
 22 C        9.1610     7.4820    -0.2860 C.2   1 <1>  -0.1500 
 23 C        6.8750     8.6530    -0.5130 C.3   1 <1>  -0.0600 
 24 C       10.9540     5.6380    -0.1450 C.3   1 <1>  -0.0590 
 25 H        0.7140    -1.1860    -0.5360 H     1 <1>   0.1500 
 26 H        5.5970    -0.3920    -0.6160 H     1 <1>   0.1500 
 27 H        3.2630     1.8010     1.7820 H     1 <1>   0.0800 
 28 H        4.6840    -2.6560    -1.1110 H     1 <1>   0.1500 
 29 H        6.2920     1.8720     1.5980 H     1 <1>   0.0800 
 30 H        5.3170     0.4980     2.0940 H     1 <1>   0.0800 
 31 H        5.3770     1.9310     3.0820 H     1 <1>   0.0800 
 32 H        5.7670     5.9880     1.4790 H     1 <1>   0.0000 
 33 H        4.4040     6.5640     0.4330 H     1 <1>   0.0000 
 34 H        5.6000     3.6030    -1.3510 H     1 <1>   0.0000 
 35 H        6.6850     3.6560     0.0970 H     1 <1>   0.0000 
 36 H        5.6150     6.0160    -1.5950 H     1 <1>   0.0000 
 37 H        9.8200     8.3270    -0.1930 H     1 <1>   0.1500 
 38 H        6.3140     8.6240    -1.4310 H     1 <1>   0.0800 
 39 H        7.4340     9.5710    -0.4860 H     1 <1>   0.0800 
 40 H        6.1920     8.6480     0.3180 H     1 <1>   0.0800 
 41 H       11.2100     5.0530    -1.0090 H     1 <1>   0.0800 
 42 H       11.0290     5.0190     0.7300 H     1 <1>   0.0800 
 43 H       11.6420     6.4580    -0.0580 H     1 <1>   0.0800 
@<TRIPOS>BOND
  1   1   2  1   
  2   2   3  ar  
  3   2   4  ar  
  4   3   5  1   
  5   3   6  ar  
  6   4   7  ar  
  7   4  25  1   
  8   5   8  1   
  9   6   9  ar  
 10   6  26  1   
 11   7   9  ar  
 12   7  10  1   
 13   8  11  1   
 14   8  12  1   
 15   8  27  1   
 16   9  28  1   
 17  11  13  2   
 18  11  14  am  
 19  12  29  1   
 20  12  30  1   
 21  12  31  1   
 22  14  15  1   
 23  14  16  1   
 24  15  17  1   
 25  15  32  1   
 26  15  33  1   
 27  16  17  1   
 28  16  34  1   
 29  16  35  1   
 30  17  18  1   
 31  17  36  1   
 32  18  19  1   
 33  18  20  1   
 34  19  21  2   
 35  20  22  2   
 36  20  23  1   
 37  21  22  1   
 38  21  24  1   
 39  22  37  1   
 40  23  38  1   
 41  23  39  1   
 42  23  40  1   
 43  24  41  1   
 44  24  42  1   
 45  24  43  1   
@<TRIPOS>SUBSTRUCTURE
  1 ****  16 GROUP 4 **** **** 0

# MOE 2024.06 (io_trps.svl 2023.06)
