@<TRIPOS>MOLECULE
NONAME
47 48 1 0 0 
SMALL
USER_CHARGES


@<TRIPOS>ATOM
  1 O       -0.0390     1.1020    -0.4500 O.2   1 <1>  -0.5700 
  2 C       -0.3070     2.2710    -0.6000 C.2   1 <1>   0.5690 
  3 N       -1.2780     2.9300     0.1120 N.am  1 <1>  -0.6600 
  4 C        0.4810     3.0440    -1.6520 C.3   1 <1>   0.1810 
  5 C       -1.5590     4.3840    -0.1440 C.3   1 <1>   0.3640 
  6 C       -2.0650     2.3310     1.2270 C.3   1 <1>   0.2200 
  7 O        0.6530     4.3890    -1.2870 O.3   1 <1>  -0.5600 
  8 C       -2.9850     4.5310    -0.6830 C.ar  1 <1>  -0.1440 
  9 C       -0.5660     5.0980    -1.1070 C.3   1 <1>   0.2610 
 10 C       -1.1400     1.9680     2.3880 C.3   1 <1>  -0.2400 
 11 C       -2.8850     1.1310     0.7520 C.3   1 <1>  -0.2400 
 12 C       -3.4550     3.7190    -1.7090 C.ar  1 <1>  -0.1500 
 13 C       -3.8300     5.4940    -0.1510 C.ar  1 <1>  -0.1500 
 14 C       -0.2770     6.5210    -0.6090 C.2   1 <1>   0.5690 
 15 C       -4.7450     3.8650    -2.1890 C.ar  1 <1>  -0.1500 
 16 C       -5.1200     5.6420    -0.6310 C.ar  1 <1>  -0.1500 
 17 O       -1.1880     7.2340    -0.2580 O.2   1 <1>  -0.5700 
 18 N        1.0120     6.9540    -0.5680 N.am  1 <1>  -0.7300 
 19 C       -5.5790     4.8270    -1.6490 C.ar  1 <1>  -0.1500 
 20 C        1.4740     8.2940    -0.1540 C.3   1 <1>   0.1400 
 21 C        2.4100     8.1520     1.0430 C.3   1 <1>  -0.1600 
 22 C        2.8950     9.5240     1.5070 C.3   1 <1>   0.1200 
 23 O        3.7820     9.3430     2.5500 O.3   1 <1>  -0.6800 
 24 H       -0.0260     3.0000    -2.5980 H     1 <1>   0.0800 
 25 H        1.4570     2.6070    -1.7560 H     1 <1>   0.0800 
 26 H       -1.5050     4.8860     0.8070 H     1 <1>   0.0800 
 27 H       -2.7650     3.0680     1.5890 H     1 <1>   0.0800 
 28 H       -1.0220     5.1870    -2.0760 H     1 <1>   0.0800 
 29 H       -0.4650     1.1810     2.1060 H     1 <1>   0.0800 
 30 H       -1.7230     1.6270     3.2240 H     1 <1>   0.0800 
 31 H       -0.5750     2.8280     2.6950 H     1 <1>   0.0800 
 32 H       -2.2500     0.3170     0.4550 H     1 <1>   0.0800 
 33 H       -3.5140     1.4120    -0.0720 H     1 <1>   0.0800 
 34 H       -3.5150     0.7850     1.5510 H     1 <1>   0.0800 
 35 H       -2.8220     2.9610    -2.1360 H     1 <1>   0.1500 
 36 H       -3.4880     6.1450     0.6360 H     1 <1>   0.1500 
 37 H       -5.1000     3.2290    -2.9810 H     1 <1>   0.1500 
 38 H       -5.7650     6.3950    -0.2110 H     1 <1>   0.1500 
 39 H        1.7330     6.2790    -0.8470 H     1 <1>   0.3700 
 40 H       -6.5820     4.9430    -2.0220 H     1 <1>   0.1500 
 41 H        1.9880     8.7600    -0.9780 H     1 <1>   0.0800 
 42 H        0.6270     8.9060     0.1090 H     1 <1>   0.0800 
 43 H        3.2600     7.5560     0.7600 H     1 <1>   0.0800 
 44 H        1.8810     7.6690     1.8450 H     1 <1>   0.0800 
 45 H        2.0790    10.1360     1.8550 H     1 <1>   0.0800 
 46 H        3.4170    10.0380     0.7170 H     1 <1>   0.0800 
 47 H        3.3420     8.9080     3.3060 H     1 <1>   0.4000 
@<TRIPOS>BOND
  1   1   2  2   
  2   2   3  am  
  3   2   4  1   
  4   3   5  1   
  5   3   6  1   
  6   4   7  1   
  7   4  24  1   
  8   4  25  1   
  9   5   8  1   
 10   5   9  1   
 11   5  26  1   
 12   6  10  1   
 13   6  11  1   
 14   6  27  1   
 15   7   9  1   
 16   8  12  ar  
 17   8  13  ar  
 18   9  14  1   
 19   9  28  1   
 20  10  29  1   
 21  10  30  1   
 22  10  31  1   
 23  11  32  1   
 24  11  33  1   
 25  11  34  1   
 26  12  15  ar  
 27  12  35  1   
 28  13  16  ar  
 29  13  36  1   
 30  14  17  2   
 31  14  18  am  
 32  15  19  ar  
 33  15  37  1   
 34  16  19  ar  
 35  16  38  1   
 36  18  20  1   
 37  18  39  1   
 38  19  40  1   
 39  20  21  1   
 40  20  41  1   
 41  20  42  1   
 42  21  22  1   
 43  21  43  1   
 44  21  44  1   
 45  22  23  1   
 46  22  45  1   
 47  22  46  1   
 48  23  47  1   
@<TRIPOS>SUBSTRUCTURE
  1 ****   5 GROUP 4 **** **** 0

# MOE 2024.06 (io_trps.svl 2023.06)
