@<TRIPOS>MOLECULE
NONAME
44 46 1 0 0 
SMALL
USER_CHARGES


@<TRIPOS>ATOM
  1 CL      -0.8020    -1.0030    -2.8580 Cl    1 <1>  -0.1770 
  2 C       -1.8760    -1.2800    -1.5120 C.ar  1 <1>   0.1770 
  3 C       -2.2470    -2.5720    -1.1990 C.ar  1 <1>  -0.1500 
  4 C       -2.3370    -0.2010    -0.7840 C.ar  1 <1>  -0.1500 
  5 C       -3.1110    -2.8220    -0.1330 C.ar  1 <1>   0.0860 
  6 C       -3.1880    -0.4280     0.2830 C.ar  1 <1>  -0.1500 
  7 C       -3.5120    -4.1790     0.1980 C.2   1 <1>   0.5440 
  8 C       -3.5640    -1.7220     0.6010 C.ar  1 <1>  -0.1500 
  9 O       -2.7210    -5.0970     0.0740 O.2   1 <1>  -0.5700 
 10 N       -4.7830    -4.4800     0.6310 N.am  1 <1>  -0.6600 
 11 C       -5.0650    -5.7950     1.2750 C.3   1 <1>   0.1400 
 12 C       -5.9940    -3.8540     0.0250 C.3   1 <1>   0.1400 
 13 C       -5.5670    -6.7640     0.1830 C.3   1 <1>   0.4230 
 14 C       -6.5910    -4.8180    -1.0160 C.3   1 <1>  -0.1600 
 15 N       -5.7540    -8.1870     0.6260 N.4   1 <1>  -0.9590 
 16 C       -6.8830    -6.2330    -0.4340 C.3   1 <1>  -0.1060 
 17 C       -6.1450    -9.1170    -0.4750 C.3   1 <1>   0.3430 
 18 C       -4.6740    -8.7380     1.4870 C.3   1 <1>   0.2630 
 19 C       -7.9330    -6.1650     0.6910 C.2   1 <1>   0.9060 
 20 C       -7.3930    -7.1730    -1.5650 C.3   1 <1>  -0.1600 
 21 C       -6.4750    -8.3870    -1.7860 C.3   1 <1>  -0.1600 
 22 O       -7.9910    -7.1080     1.4970 O.co2 1 <1>  -0.9000 
 23 O       -8.6730    -5.1880     0.7890 O.co2 1 <1>  -0.9000 
 24 H       -1.8650    -3.3910    -1.7810 H     1 <1>   0.1500 
 25 H       -2.0320     0.7960    -1.0500 H     1 <1>   0.1500 
 26 H       -3.5550     0.4010     0.8660 H     1 <1>   0.1500 
 27 H       -4.2210    -1.8900     1.4370 H     1 <1>   0.1500 
 28 H       -4.1610    -6.1640     1.7230 H     1 <1>   0.0800 
 29 H       -5.8000    -5.6640     2.0510 H     1 <1>   0.0800 
 30 H       -6.7140    -3.6450     0.8000 H     1 <1>   0.0800 
 31 H       -5.7480    -2.9230    -0.4530 H     1 <1>   0.0800 
 32 H       -4.8130    -6.7590    -0.5850 H     1 <1>   0.0800 
 33 H       -7.5060    -4.3890    -1.3890 H     1 <1>   0.0800 
 34 H       -5.9080    -4.8920    -1.8450 H     1 <1>   0.0800 
 35 H       -6.6290    -8.0800     1.2080 H     1 <1>   0.4500 
 36 H       -5.3510    -9.8210    -0.6610 H     1 <1>   0.0800 
 37 H       -7.0150    -9.6710    -0.1590 H     1 <1>   0.0800 
 38 H       -3.7390    -8.7440     0.9520 H     1 <1>   0.0800 
 39 H       -4.9160    -9.7450     1.7850 H     1 <1>   0.0800 
 40 H       -4.5660    -8.1390     2.3750 H     1 <1>   0.0800 
 41 H       -8.3770    -7.5320    -1.3070 H     1 <1>   0.0800 
 42 H       -7.5000    -6.6360    -2.4920 H     1 <1>   0.0800 
 43 H       -5.5590    -8.0700    -2.2530 H     1 <1>   0.0800 
 44 H       -6.9510    -9.0770    -2.4600 H     1 <1>   0.0800 
@<TRIPOS>BOND
  1   1   2  1   
  2   2   3  ar  
  3   2   4  ar  
  4   3   5  ar  
  5   3  24  1   
  6   4   6  ar  
  7   4  25  1   
  8   5   7  1   
  9   5   8  ar  
 10   6   8  ar  
 11   6  26  1   
 12   7   9  2   
 13   7  10  am  
 14   8  27  1   
 15  10  11  1   
 16  10  12  1   
 17  11  13  1   
 18  11  28  1   
 19  11  29  1   
 20  12  14  1   
 21  12  30  1   
 22  12  31  1   
 23  13  15  1   
 24  13  16  1   
 25  13  32  1   
 26  14  16  1   
 27  14  33  1   
 28  14  34  1   
 29  15  17  1   
 30  15  18  1   
 31  15  35  1   
 32  16  19  1   
 33  16  20  1   
 34  17  21  1   
 35  17  36  1   
 36  17  37  1   
 37  18  38  1   
 38  18  39  1   
 39  18  40  1   
 40  19  22  ar  
 41  19  23  ar  
 42  20  21  1   
 43  20  41  1   
 44  20  42  1   
 45  21  43  1   
 46  21  44  1   
@<TRIPOS>SUBSTRUCTURE
  1 ****  10 GROUP 4 **** **** 0

# MOE 2024.06 (io_trps.svl 2023.06)
