@<TRIPOS>MOLECULE
NONAME
45 47 1 0 0 
SMALL
USER_CHARGES


@<TRIPOS>ATOM
  1 O       -0.8980    -0.3560    -0.5290 O.3   1 <1>  -0.6800 
  2 C        0.3910    -0.7460    -0.8640 C.3   1 <1>   0.2000 
  3 C        0.7470    -1.9640    -0.0010 C.3   1 <1>  -0.0800 
  4 C        1.3450     0.3770    -0.4250 C.3   1 <1>   0.3430 
  5 C        1.3720    -1.3230     1.2390 C.3   1 <1>   0.3430 
  6 C        1.6930    -2.9670    -0.7140 C.3   1 <1>   0.0210 
  7 N        2.1450    -0.1890     0.6960 N.4   1 <1>  -0.9590 
  8 C        3.1490    -2.5310    -0.8300 C.2   1 <1>   0.1080 
  9 C        2.7100     0.8020     1.6270 C.3   1 <1>   0.5240 
 10 N        3.5280    -1.4580    -1.4540 N.2   1 <1>  -0.7070 
 11 C        4.2230    -3.2100    -0.2660 C.2   1 <1>  -0.1500 
 12 C        3.9470     1.3270     0.9400 C.2   1 <1>  -0.1810 
 13 N        4.8750    -1.4360    -1.3250 N.pl3 1 <1>   0.3000 
 14 C        5.3100    -2.4810    -0.5930 C.2   1 <1>  -0.3320 
 15 C        5.1740     0.6760     0.9170 C.2   1 <1>   0.1390 
 16 C        4.1380     2.4410     0.1980 C.2   1 <1>  -0.3020 
 17 C        6.7720    -2.7160    -0.2570 C.3   1 <1>  -0.0600 
 18 N        6.0460     1.3020     0.1920 N.2   1 <1>  -0.7070 
 19 N        5.4150     2.4120    -0.2360 N.pl3 1 <1>   0.3140 
 20 C        6.0930     3.4280    -1.0700 C.3   1 <1>   0.0960 
 21 C        6.5170     4.6400    -0.2310 C.3   1 <1>  -0.2400 
 22 H       -1.5660    -0.9140    -0.9780 H     1 <1>   0.4000 
 23 H        0.4370    -0.9260    -1.9260 H     1 <1>   0.0800 
 24 H       -0.1430    -2.5030     0.2750 H     1 <1>   0.0800 
 25 H        0.7740     1.2330    -0.1060 H     1 <1>   0.0800 
 26 H        1.9990     0.6540    -1.2360 H     1 <1>   0.0800 
 27 H        2.0000    -2.0150     1.7760 H     1 <1>   0.0800 
 28 H        0.5910    -0.9550     1.8870 H     1 <1>   0.0800 
 29 H        1.3220    -3.1760    -1.7020 H     1 <1>   0.0800 
 30 H        1.6720    -3.8970    -0.1740 H     1 <1>   0.0800 
 31 H        2.9530    -0.6130     0.1920 H     1 <1>   0.4500 
 32 H        2.0060     1.5950     1.8160 H     1 <1>   0.0800 
 33 H        2.9840     0.3360     2.5590 H     1 <1>   0.0800 
 34 H        4.1800    -4.1240     0.3020 H     1 <1>   0.1500 
 35 H        5.4700    -0.6840    -1.7060 H     1 <1>   0.2700 
 36 H        5.3920    -0.2530     1.4200 H     1 <1>   0.1500 
 37 H        3.4620     3.2400    -0.0490 H     1 <1>   0.1500 
 38 H        6.8760    -3.5870     0.3660 H     1 <1>   0.0800 
 39 H        7.1790    -1.8680     0.2650 H     1 <1>   0.0800 
 40 H        7.3380    -2.8730    -1.1580 H     1 <1>   0.0800 
 41 H        6.9580     2.9740    -1.5180 H     1 <1>   0.0800 
 42 H        5.4230     3.7330    -1.8530 H     1 <1>   0.0800 
 43 H        7.1930     4.3310     0.5470 H     1 <1>   0.0800 
 44 H        5.6580     5.1140     0.2110 H     1 <1>   0.0800 
 45 H        7.0200     5.3560    -0.8540 H     1 <1>   0.0800 
@<TRIPOS>BOND
  1   1   2  1   
  2   1  22  1   
  3   2   3  1   
  4   2   4  1   
  5   2  23  1   
  6   3   5  1   
  7   3   6  1   
  8   3  24  1   
  9   4   7  1   
 10   4  25  1   
 11   4  26  1   
 12   5   7  1   
 13   5  27  1   
 14   5  28  1   
 15   6   8  1   
 16   6  29  1   
 17   6  30  1   
 18   7   9  1   
 19   7  31  1   
 20   8  10  2   
 21   8  11  1   
 22   9  12  1   
 23   9  32  1   
 24   9  33  1   
 25  10  13  1   
 26  11  14  2   
 27  11  34  1   
 28  12  15  1   
 29  12  16  2   
 30  13  14  1   
 31  13  35  1   
 32  14  17  1   
 33  15  18  2   
 34  15  36  1   
 35  16  19  1   
 36  16  37  1   
 37  17  38  1   
 38  17  39  1   
 39  17  40  1   
 40  18  19  1   
 41  19  20  1   
 42  20  21  1   
 43  20  41  1   
 44  20  42  1   
 45  21  43  1   
 46  21  44  1   
 47  21  45  1   
@<TRIPOS>SUBSTRUCTURE
  1 ****   7 GROUP 4 **** **** 0

# MOE 2024.06 (io_trps.svl 2023.06)
