@<TRIPOS>MOLECULE
NONAME
46 48 1 0 0 
SMALL
USER_CHARGES


@<TRIPOS>ATOM
  1 F       -0.5320     0.9320     0.6950 F     1 <1>  -0.1900 
  2 C       -1.7490     1.3990     0.5880 C.ar  1 <1>   0.1900 
  3 C       -2.8130     0.5280     0.7150 C.ar  1 <1>  -0.1500 
  4 C       -1.9260     2.7490     0.3520 C.ar  1 <1>  -0.1500 
  5 C       -4.0970     1.0310     0.6020 C.ar  1 <1>  -0.1500 
  6 C       -3.2170     3.2360     0.2410 C.ar  1 <1>  -0.1500 
  7 C       -4.3160     2.3880     0.3610 C.ar  1 <1>   0.1170 
  8 N       -5.6030     2.9340     0.2560 N.am  1 <1>  -0.5470 
  9 C       -6.7910     2.3740    -0.1190 C.2   1 <1>   0.6900 
 10 O       -6.8400     1.2450    -0.5690 O.2   1 <1>  -0.5700 
 11 N       -7.9360     3.1220    -0.0080 N.am  1 <1>  -0.6600 
 12 C       -9.1860     2.6500    -0.6730 C.3   1 <1>   0.1400 
 13 C       -8.0560     4.3080     0.8940 C.3   1 <1>   0.1400 
 14 C      -10.1240     3.8320    -0.9300 C.3   1 <1>  -0.1600 
 15 C       -9.4680     4.3730     1.4730 C.3   1 <1>  -0.1600 
 16 C      -10.5290     4.5690     0.3730 C.3   1 <1>   0.2800 
 17 O      -10.5310     5.9480     0.1070 O.3   1 <1>  -0.5600 
 18 C      -11.9210     4.1370     0.9120 C.3   1 <1>  -0.1600 
 19 C      -11.4500     6.4480    -0.8330 C.3   1 <1>   0.1200 
 20 C      -13.0130     5.1950     0.7350 C.3   1 <1>   0.2800 
 21 C      -12.8590     5.8690    -0.6260 C.3   1 <1>  -0.1600 
 22 O      -12.8110     6.1560     1.6900 O.3   1 <1>  -0.6800 
 23 C      -14.4140     4.6340     0.9590 C.3   1 <1>  -0.2400 
 24 H       -2.6390    -0.5170     0.8980 H     1 <1>   0.1500 
 25 H       -1.0720     3.3950     0.2590 H     1 <1>   0.1500 
 26 H       -4.9340     0.3640     0.7030 H     1 <1>   0.1500 
 27 H       -3.3710     4.2830     0.0540 H     1 <1>   0.1500 
 28 H       -5.6660     3.9400     0.3550 H     1 <1>   0.3700 
 29 H       -9.6670     1.9200    -0.0440 H     1 <1>   0.0800 
 30 H       -8.9380     2.1760    -1.6080 H     1 <1>   0.0800 
 31 H       -7.8530     5.2060     0.3340 H     1 <1>   0.0800 
 32 H       -7.3490     4.2320     1.7020 H     1 <1>   0.0800 
 33 H      -10.9920     3.4840    -1.4580 H     1 <1>   0.0800 
 34 H       -9.5960     4.5030    -1.5840 H     1 <1>   0.0800 
 35 H       -9.5390     5.1710     2.1900 H     1 <1>   0.0800 
 36 H       -9.6410     3.4520     2.0020 H     1 <1>   0.0800 
 37 H      -11.8710     3.8770     1.9540 H     1 <1>   0.0800 
 38 H      -12.2220     3.2370     0.4080 H     1 <1>   0.0800 
 39 H      -11.0880     6.2370    -1.8240 H     1 <1>   0.0800 
 40 H      -11.4740     7.5160    -0.7040 H     1 <1>   0.0800 
 41 H      -13.0460     5.1440    -1.3970 H     1 <1>   0.0800 
 42 H      -13.5940     6.6450    -0.7440 H     1 <1>   0.0800 
 43 H      -11.9040     6.5020     1.5480 H     1 <1>   0.4000 
 44 H      -14.6360     3.8800     0.2270 H     1 <1>   0.0800 
 45 H      -15.1450     5.4180     0.8740 H     1 <1>   0.0800 
 46 H      -14.4840     4.1940     1.9370 H     1 <1>   0.0800 
@<TRIPOS>BOND
  1   1   2  1   
  2   2   3  ar  
  3   2   4  ar  
  4   3   5  ar  
  5   3  24  1   
  6   4   6  ar  
  7   4  25  1   
  8   5   7  ar  
  9   5  26  1   
 10   6   7  ar  
 11   6  27  1   
 12   7   8  1   
 13   8   9  am  
 14   8  28  1   
 15   9  10  2   
 16   9  11  am  
 17  11  12  1   
 18  11  13  1   
 19  12  14  1   
 20  12  29  1   
 21  12  30  1   
 22  13  15  1   
 23  13  31  1   
 24  13  32  1   
 25  14  16  1   
 26  14  33  1   
 27  14  34  1   
 28  15  16  1   
 29  15  35  1   
 30  15  36  1   
 31  16  17  1   
 32  16  18  1   
 33  17  19  1   
 34  18  20  1   
 35  18  37  1   
 36  18  38  1   
 37  19  21  1   
 38  19  39  1   
 39  19  40  1   
 40  20  21  1   
 41  20  22  1   
 42  20  23  1   
 43  21  41  1   
 44  21  42  1   
 45  22  43  1   
 46  23  44  1   
 47  23  45  1   
 48  23  46  1   
@<TRIPOS>SUBSTRUCTURE
  1 ****  11 GROUP 4 **** **** 0

# MOE 2024.06 (io_trps.svl 2023.06)
