@<TRIPOS>MOLECULE
NONAME
48 49 1 0 0 
SMALL
USER_CHARGES


@<TRIPOS>ATOM
  1 O       -0.7330     0.5320    -1.2340 O.2   1 <1>  -0.5700 
  2 C       -1.7130     0.8490    -0.5860 C.2   1 <1>   0.5440 
  3 N       -1.6460     1.9790     0.2090 N.am  1 <1>  -0.6600 
  4 C       -2.8980     0.0260    -0.6610 C.ar  1 <1>   0.0860 
  5 C       -0.5290     2.9550     0.0710 C.3   1 <1>   0.0600 
  6 C       -2.5280     2.2130     1.3860 C.3   1 <1>   0.0600 
  7 C       -2.7950    -1.3620    -0.6210 C.ar  1 <1>   0.1600 
  8 C       -4.1800     0.5550    -0.7830 C.ar  1 <1>  -0.1500 
  9 N       -3.8000    -2.2210    -0.6580 N.ar  1 <1>  -0.6200 
 10 C       -5.2380    -0.3210    -0.8310 C.ar  1 <1>  -0.1500 
 11 C       -5.0140    -1.6930    -0.7610 C.ar  1 <1>   0.4100 
 12 N       -6.0760    -2.5530    -0.8000 N.pl3 1 <1>  -0.8690 
 13 C       -5.9650    -3.9910    -0.4600 C.3   1 <1>   0.2090 
 14 C       -7.3140    -4.7030    -0.6620 C.3   1 <1>   0.2000 
 15 O       -8.3290    -4.0100    -0.0020 O.3   1 <1>  -0.6800 
 16 C       -7.2820    -6.1460    -0.1470 C.3   1 <1>   0.1200 
 17 O       -8.5780    -6.7040    -0.2480 O.3   1 <1>  -0.3630 
 18 C       -8.8280    -7.9800     0.1390 C.ar  1 <1>   0.0820 
 19 C      -10.1190    -8.4440    -0.0440 C.ar  1 <1>  -0.1500 
 20 C       -7.8690    -8.8230     0.6980 C.ar  1 <1>  -0.1500 
 21 C      -10.4680    -9.7330     0.3200 C.ar  1 <1>   0.0820 
 22 C       -8.2130   -10.1130     1.0640 C.ar  1 <1>  -0.1500 
 23 O      -11.7550   -10.1010     0.1040 O.3   1 <1>  -0.3630 
 24 C       -9.5060   -10.5720     0.8780 C.ar  1 <1>  -0.1500 
 25 C      -12.2170   -11.3900     0.4440 C.3   1 <1>   0.0400 
 26 H       -0.0540     2.8530    -0.8900 H     1 <1>   0.0800 
 27 H        0.2030     2.7770     0.8390 H     1 <1>   0.0800 
 28 H       -0.9050     3.9590     0.1610 H     1 <1>   0.0800 
 29 H       -3.0780     1.3230     1.6360 H     1 <1>   0.0800 
 30 H       -3.2200     3.0070     1.1680 H     1 <1>   0.0800 
 31 H       -1.9320     2.4900     2.2380 H     1 <1>   0.0800 
 32 H       -1.8050    -1.7800    -0.5520 H     1 <1>   0.1500 
 33 H       -4.3270     1.6180    -0.8450 H     1 <1>   0.1500 
 34 H       -6.2450     0.0370    -0.9270 H     1 <1>   0.1500 
 35 H       -7.0060    -2.1910    -0.5640 H     1 <1>   0.4000 
 36 H       -5.6520    -4.0860     0.5650 H     1 <1>   0.0800 
 37 H       -5.2160    -4.4470    -1.0850 H     1 <1>   0.0800 
 38 H       -7.5500    -4.7090    -1.7120 H     1 <1>   0.0800 
 39 H       -9.1230    -4.5870     0.0260 H     1 <1>   0.4000 
 40 H       -6.9800    -6.1660     0.8860 H     1 <1>   0.0800 
 41 H       -6.6080    -6.7390    -0.7390 H     1 <1>   0.0800 
 42 H      -10.8610    -7.8000    -0.4740 H     1 <1>   0.1500 
 43 H       -6.8590    -8.4970     0.8560 H     1 <1>   0.1500 
 44 H       -7.4710   -10.7630     1.4950 H     1 <1>   0.1500 
 45 H       -9.7440   -11.5760     1.1710 H     1 <1>   0.1500 
 46 H      -13.2580   -11.4500     0.1850 H     1 <1>   0.0800 
 47 H      -12.0930   -11.5360     1.5020 H     1 <1>   0.0800 
 48 H      -11.6580   -12.1190    -0.1160 H     1 <1>   0.0800 
@<TRIPOS>BOND
  1   1   2  2   
  2   2   3  am  
  3   2   4  1   
  4   3   5  1   
  5   3   6  1   
  6   4   7  ar  
  7   4   8  ar  
  8   5  26  1   
  9   5  27  1   
 10   5  28  1   
 11   6  29  1   
 12   6  30  1   
 13   6  31  1   
 14   7   9  ar  
 15   7  32  1   
 16   8  10  ar  
 17   8  33  1   
 18   9  11  ar  
 19  10  11  ar  
 20  10  34  1   
 21  11  12  1   
 22  12  13  1   
 23  12  35  1   
 24  13  14  1   
 25  13  36  1   
 26  13  37  1   
 27  14  15  1   
 28  14  16  1   
 29  14  38  1   
 30  15  39  1   
 31  16  17  1   
 32  16  40  1   
 33  16  41  1   
 34  17  18  1   
 35  18  19  ar  
 36  18  20  ar  
 37  19  21  ar  
 38  19  42  1   
 39  20  22  ar  
 40  20  43  1   
 41  21  23  1   
 42  21  24  ar  
 43  22  24  ar  
 44  22  44  1   
 45  23  25  1   
 46  24  45  1   
 47  25  46  1   
 48  25  47  1   
 49  25  48  1   
@<TRIPOS>SUBSTRUCTURE
  1 ****  13 GROUP 4 **** **** 0

# MOE 2024.06 (io_trps.svl 2023.06)
