@<TRIPOS>MOLECULE
NONAME
43 44 1 0 0 
SMALL
USER_CHARGES


@<TRIPOS>ATOM
  1 O        1.1770    -0.2500     2.5860 O.2   1 <1>  -0.5700 
  2 C        1.7560    -1.0170     1.8410 C.2   1 <1>   0.5440 
  3 N        2.8330    -0.5650     1.1050 N.am  1 <1>  -0.6600 
  4 C        1.2860    -2.3830     1.7450 C.ar  1 <1>   0.0860 
  5 C        3.4160    -1.2980    -0.0540 C.3   1 <1>   0.1400 
  6 C        3.3940     0.8030     1.3000 C.3   1 <1>   0.1400 
  7 C        0.0040    -2.6930     1.3380 C.ar  1 <1>  -0.1500 
  8 C        2.0840    -3.4740     2.0590 C.ar  1 <1>  -0.1500 
  9 C        3.2020    -0.4870    -1.3360 C.3   1 <1>  -0.1600 
 10 C        3.1780     1.6330     0.0310 C.3   1 <1>  -0.1600 
 11 C       -0.4160    -4.0110     1.2310 C.ar  1 <1>   0.4100 
 12 C        1.5850    -4.7530     1.9320 C.ar  1 <1>   0.1600 
 13 C        3.7610     0.9370    -1.2070 C.3   1 <1>  -0.1600 
 14 N        0.3650    -5.0470     1.5170 N.ar  1 <1>  -0.6200 
 15 N       -1.7000    -4.2920     0.8020 N.pl3 1 <1>  -0.8380 
 16 C       -2.4390    -5.5060     1.3200 C.3   1 <1>   0.2700 
 17 C       -2.1990    -3.7470    -0.4910 C.3   1 <1>   0.1290 
 18 C       -2.3310    -6.7510     0.4300 C.2   1 <1>   0.5690 
 19 O       -3.3340    -7.3590     0.1340 O.2   1 <1>  -0.5700 
 20 N       -1.1010    -7.1300    -0.0070 N.am  1 <1>  -0.7300 
 21 C       -0.7820    -8.2910    -0.8690 C.3   1 <1>   0.0600 
 22 H        2.9620    -2.2660    -0.1720 H     1 <1>   0.0800 
 23 H        4.4690    -1.4400     0.1160 H     1 <1>   0.0800 
 24 H        4.4460     0.7220     1.5100 H     1 <1>   0.0800 
 25 H        2.9280     1.2940     2.1370 H     1 <1>   0.0800 
 26 H       -0.6840    -1.9020     1.1100 H     1 <1>   0.1500 
 27 H        3.0890    -3.3130     2.4050 H     1 <1>   0.1500 
 28 H        2.1470    -0.4430    -1.5470 H     1 <1>   0.0800 
 29 H        3.6800    -0.9880    -2.1590 H     1 <1>   0.0800 
 30 H        3.6380     2.5970     0.1550 H     1 <1>   0.0800 
 31 H        2.1220     1.7890    -0.1010 H     1 <1>   0.0800 
 32 H        2.2230    -5.5840     2.1840 H     1 <1>   0.1500 
 33 H        3.5210     1.5040    -2.0900 H     1 <1>   0.0800 
 34 H        4.8330     0.8930    -1.1200 H     1 <1>   0.0800 
 35 H       -3.4790    -5.2570     1.4310 H     1 <1>   0.0800 
 36 H       -2.0640    -5.7600     2.2950 H     1 <1>   0.0800 
 37 H       -1.5050    -3.0310    -0.8950 H     1 <1>   0.0800 
 38 H       -3.1490    -3.2650    -0.3380 H     1 <1>   0.0800 
 39 H       -2.3200    -4.5430    -1.2060 H     1 <1>   0.0800 
 40 H       -0.3240    -6.5170     0.2900 H     1 <1>   0.3700 
 41 H       -1.6830    -8.8270    -1.1180 H     1 <1>   0.0800 
 42 H       -0.1140    -8.9550    -0.3500 H     1 <1>   0.0800 
 43 H       -0.3150    -7.9520    -1.7760 H     1 <1>   0.0800 
@<TRIPOS>BOND
  1   1   2  2   
  2   2   3  am  
  3   2   4  1   
  4   3   5  1   
  5   3   6  1   
  6   4   7  ar  
  7   4   8  ar  
  8   5   9  1   
  9   5  22  1   
 10   5  23  1   
 11   6  10  1   
 12   6  24  1   
 13   6  25  1   
 14   7  11  ar  
 15   7  26  1   
 16   8  12  ar  
 17   8  27  1   
 18   9  13  1   
 19   9  28  1   
 20   9  29  1   
 21  10  13  1   
 22  10  30  1   
 23  10  31  1   
 24  11  14  ar  
 25  11  15  1   
 26  12  14  ar  
 27  12  32  1   
 28  13  33  1   
 29  13  34  1   
 30  15  16  1   
 31  15  17  1   
 32  16  18  1   
 33  16  35  1   
 34  16  36  1   
 35  17  37  1   
 36  17  38  1   
 37  17  39  1   
 38  18  19  2   
 39  18  20  am  
 40  20  21  1   
 41  20  40  1   
 42  21  41  1   
 43  21  42  1   
 44  21  43  1   
@<TRIPOS>SUBSTRUCTURE
  1 ****   7 GROUP 4 **** **** 0

# MOE 2024.06 (io_trps.svl 2023.06)
