@<TRIPOS>MOLECULE
NONAME
54 56 1 0 0 
SMALL
USER_CHARGES


@<TRIPOS>ATOM
  1 S        3.0640    -0.6880    -2.5700 S.3   1 <1>  -0.0800 
  2 C        2.5790    -1.2540    -0.9790 C.2   1 <1>  -0.1400 
  3 C        3.2000     0.9600    -1.9870 C.2   1 <1>  -0.1100 
  4 C        2.5460    -0.2270    -0.1080 C.2   1 <1>  -0.1500 
  5 C        2.3030    -2.7340    -0.8160 C.3   1 <1>   0.5230 
  6 C        2.8960     1.0430    -0.6760 C.2   1 <1>   0.0190 
  7 N        0.8680    -3.0040    -1.1000 N.4   1 <1>  -0.9590 
  8 C        2.9080     2.2320     0.1210 C.1   1 <1>  -0.0190 
  9 C        0.4420    -4.3720    -0.6440 C.3   1 <1>   0.5660 
 10 C        0.4850    -2.7480    -2.5280 C.3   1 <1>   0.3430 
 11 C        2.9230     3.2160     0.7910 C.1   1 <1>  -0.2000 
 12 C        1.4130    -5.4260    -1.1810 C.ar  1 <1>  -0.1430 
 13 C       -1.0490    -4.6680    -0.9910 C.3   1 <1>   0.2000 
 14 C       -0.9700    -3.1760    -2.8340 C.3   1 <1>   0.1200 
 15 C        2.9540     4.4410     1.6340 C.3   1 <1>   0.3200 
 16 C        2.3490    -5.9530    -0.3010 C.ar  1 <1>  -0.1500 
 17 C        1.4080    -5.8750    -2.4980 C.ar  1 <1>  -0.1500 
 18 O       -1.6420    -3.5860    -1.6750 O.3   1 <1>  -0.5600 
 19 C       -1.8890    -4.9160     0.2680 C.3   1 <1>   0.1200 
 20 O        1.6930     4.9950     1.6080 O.3   1 <1>  -0.6800 
 21 C        3.2780    -6.8890    -0.7190 C.ar  1 <1>   0.0830 
 22 C        2.3410    -6.8040    -2.9280 C.ar  1 <1>  -0.1500 
 23 O       -1.1760    -5.7100     1.1580 O.3   1 <1>  -0.6800 
 24 O        4.1390    -7.3590     0.2140 O.3   1 <1>  -0.3630 
 25 C        3.2920    -7.3010    -2.0550 C.ar  1 <1>   0.0830 
 26 C        4.0410    -8.7330     0.5280 C.3   1 <1>   0.0400 
 27 O        4.1960    -8.1780    -2.5550 O.3   1 <1>  -0.3630 
 28 C        5.5490    -7.7770    -2.5530 C.3   1 <1>   0.0400 
 29 H        3.5000     1.7160    -2.6900 H     1 <1>   0.1500 
 30 H        2.2930    -0.2850     0.9370 H     1 <1>   0.1500 
 31 H        2.5300    -3.0190     0.1990 H     1 <1>   0.0800 
 32 H        2.9370    -3.3060    -1.4760 H     1 <1>   0.0800 
 33 H        0.3090    -2.3460    -0.5450 H     1 <1>   0.4500 
 34 H        0.5270    -4.4030     0.4300 H     1 <1>   0.0800 
 35 H        0.5850    -1.6970    -2.7470 H     1 <1>   0.0800 
 36 H        1.1520    -3.2750    -3.1900 H     1 <1>   0.0800 
 37 H       -1.1240    -5.5390    -1.6180 H     1 <1>   0.0800 
 38 H       -0.9920    -3.9810    -3.5490 H     1 <1>   0.0800 
 39 H       -1.5140    -2.3480    -3.2540 H     1 <1>   0.0800 
 40 H        3.6520     5.1600     1.2420 H     1 <1>   0.0800 
 41 H        3.2020     4.2080     2.6560 H     1 <1>   0.0800 
 42 H        2.3700    -5.6580     0.7350 H     1 <1>   0.1500 
 43 H        0.6880    -5.5250    -3.2140 H     1 <1>   0.1500 
 44 H       -2.8020    -5.4270     0.0110 H     1 <1>   0.0800 
 45 H       -2.1190    -3.9880     0.7640 H     1 <1>   0.0800 
 46 H        1.3540     4.9680     0.6930 H     1 <1>   0.4000 
 47 H        2.3420    -7.1520    -3.9470 H     1 <1>   0.1500 
 48 H       -1.7560    -6.0250     1.8860 H     1 <1>   0.4000 
 49 H        4.7060    -8.9390     1.3470 H     1 <1>   0.0800 
 50 H        4.3250    -9.3180    -0.3280 H     1 <1>   0.0800 
 51 H        3.0280    -8.9550     0.8110 H     1 <1>   0.0800 
 52 H        6.1220    -8.5290    -3.0640 H     1 <1>   0.0800 
 53 H        5.8950    -7.6820    -1.5400 H     1 <1>   0.0800 
 54 H        5.6330    -6.8370    -3.0680 H     1 <1>   0.0800 
@<TRIPOS>BOND
  1   1   2  1   
  2   1   3  1   
  3   2   4  2   
  4   2   5  1   
  5   3   6  2   
  6   3  29  1   
  7   4   6  1   
  8   4  30  1   
  9   5   7  1   
 10   5  31  1   
 11   5  32  1   
 12   6   8  1   
 13   7   9  1   
 14   7  10  1   
 15   7  33  1   
 16   8  11  3   
 17   9  12  1   
 18   9  13  1   
 19   9  34  1   
 20  10  14  1   
 21  10  35  1   
 22  10  36  1   
 23  11  15  1   
 24  12  16  ar  
 25  12  17  ar  
 26  13  18  1   
 27  13  19  1   
 28  13  37  1   
 29  14  18  1   
 30  14  38  1   
 31  14  39  1   
 32  15  20  1   
 33  15  40  1   
 34  15  41  1   
 35  16  21  ar  
 36  16  42  1   
 37  17  22  ar  
 38  17  43  1   
 39  19  23  1   
 40  19  44  1   
 41  19  45  1   
 42  20  46  1   
 43  21  24  1   
 44  21  25  ar  
 45  22  25  ar  
 46  22  47  1   
 47  23  48  1   
 48  24  26  1   
 49  25  27  1   
 50  26  49  1   
 51  26  50  1   
 52  26  51  1   
 53  27  28  1   
 54  28  52  1   
 55  28  53  1   
 56  28  54  1   
@<TRIPOS>SUBSTRUCTURE
  1 ****   5 GROUP 4 **** **** 0

# MOE 2024.06 (io_trps.svl 2023.06)
