@<TRIPOS>MOLECULE
NONAME
44 46 1 0 0 
SMALL
USER_CHARGES


@<TRIPOS>ATOM
  1 F        2.6360     0.3070     2.0870 F     1 <1>  -0.1900 
  2 C        2.7750    -0.7120     1.2820 C.ar  1 <1>   0.1900 
  3 C        2.4250    -1.9670     1.7300 C.ar  1 <1>  -0.1500 
  4 C        3.2630    -0.4880     0.0090 C.ar  1 <1>  -0.1500 
  5 C        2.5560    -3.0690     0.8860 C.ar  1 <1>   0.0860 
  6 C        3.4140    -1.5750    -0.8330 C.ar  1 <1>  -0.1500 
  7 C        3.0830    -2.8530    -0.4010 C.ar  1 <1>   0.0830 
  8 C        2.1260    -4.3650     1.3560 C.2   1 <1>   0.5440 
  9 O        3.2940    -3.8520    -1.2890 O.3   1 <1>  -0.3630 
 10 O        2.7510    -4.9290     2.2330 O.2   1 <1>  -0.5700 
 11 N        1.0150    -4.9820     0.8350 N.am  1 <1>  -0.6600 
 12 C        4.0500    -4.9820    -0.9010 C.3   1 <1>   0.0400 
 13 C        0.1470    -4.4320    -0.2370 C.3   1 <1>   0.1400 
 14 C        0.6210    -6.3750     1.1630 C.3   1 <1>   0.1400 
 15 C       -0.9990    -5.4370    -0.3600 C.3   1 <1>   0.2000 
 16 C       -0.3820    -6.7710     0.0700 C.3   1 <1>  -0.0800 
 17 O       -1.9790    -5.0960     0.5590 O.3   1 <1>  -0.6800 
 18 C        0.3180    -7.4590    -1.1180 C.3   1 <1>   0.0210 
 19 C        0.9750    -8.7610    -0.7040 C.2   1 <1>   0.1080 
 20 N        0.3030    -9.7780    -0.2640 N.2   1 <1>  -0.7070 
 21 C        2.3430    -9.0100    -0.7390 C.2   1 <1>  -0.1500 
 22 N        1.2340   -10.7150    -0.0030 N.pl3 1 <1>   0.3000 
 23 C        2.4780   -10.2730    -0.2820 C.2   1 <1>  -0.3320 
 24 C        3.7380   -11.0960    -0.0900 C.3   1 <1>  -0.0600 
 25 H        2.0480    -2.0980     2.7280 H     1 <1>   0.1500 
 26 H        3.5180     0.5080    -0.3070 H     1 <1>   0.1500 
 27 H        3.7970    -1.4400    -1.8290 H     1 <1>   0.1500 
 28 H        4.5270    -5.3840    -1.7770 H     1 <1>   0.0800 
 29 H        3.3930    -5.7200    -0.4780 H     1 <1>   0.0800 
 30 H        4.7950    -4.6850    -0.1830 H     1 <1>   0.0800 
 31 H       -0.2110    -3.4460     0.0060 H     1 <1>   0.0800 
 32 H        0.7020    -4.3970    -1.1570 H     1 <1>   0.0800 
 33 H        1.4810    -7.0220     1.1960 H     1 <1>   0.0800 
 34 H        0.1450    -6.3860     2.1280 H     1 <1>   0.0800 
 35 H       -1.4460    -5.4570    -1.3390 H     1 <1>   0.0800 
 36 H       -1.1290    -7.4430     0.4570 H     1 <1>   0.0800 
 37 H       -1.5680    -5.0090     1.4410 H     1 <1>   0.4000 
 38 H        1.0630    -6.8110    -1.5440 H     1 <1>   0.0800 
 39 H       -0.4070    -7.6800    -1.8810 H     1 <1>   0.0800 
 40 H        3.1060    -8.3270    -1.0640 H     1 <1>   0.1500 
 41 H        0.9880   -11.6420     0.3640 H     1 <1>   0.2700 
 42 H        4.6020   -10.5240    -0.3800 H     1 <1>   0.0800 
 43 H        3.6980   -11.9850    -0.6930 H     1 <1>   0.0800 
 44 H        3.8460   -11.3760     0.9430 H     1 <1>   0.0800 
@<TRIPOS>BOND
  1   1   2  1   
  2   2   3  ar  
  3   2   4  ar  
  4   3   5  ar  
  5   3  25  1   
  6   4   6  ar  
  7   4  26  1   
  8   5   7  ar  
  9   5   8  1   
 10   6   7  ar  
 11   6  27  1   
 12   7   9  1   
 13   8  10  2   
 14   8  11  am  
 15   9  12  1   
 16  11  13  1   
 17  11  14  1   
 18  12  28  1   
 19  12  29  1   
 20  12  30  1   
 21  13  15  1   
 22  13  31  1   
 23  13  32  1   
 24  14  16  1   
 25  14  33  1   
 26  14  34  1   
 27  15  16  1   
 28  15  17  1   
 29  15  35  1   
 30  16  18  1   
 31  16  36  1   
 32  17  37  1   
 33  18  19  1   
 34  18  38  1   
 35  18  39  1   
 36  19  20  2   
 37  19  21  1   
 38  20  22  1   
 39  21  23  2   
 40  21  40  1   
 41  22  23  1   
 42  22  41  1   
 43  23  24  1   
 44  24  42  1   
 45  24  43  1   
 46  24  44  1   
@<TRIPOS>SUBSTRUCTURE
  1 ****  11 GROUP 4 **** **** 0

# MOE 2024.06 (io_trps.svl 2023.06)
