@<TRIPOS>MOLECULE
NONAME
52 53 1 0 0 
SMALL
USER_CHARGES


@<TRIPOS>ATOM
  1 S        0.4880     0.0280     0.5450 S.o2  1 <1>   1.3330 
  2 O        1.8540     0.3870     0.8530 O.2   1 <1>  -0.6500 
  3 O       -0.4110    -0.3600     1.6040 O.2   1 <1>  -0.6500 
  4 N        0.4760    -1.1440    -0.6780 N.am  1 <1>  -0.8490 
  5 C       -0.2150     1.4650    -0.2660 C.3   1 <1>  -0.0550 
  6 C        1.6000    -2.0810    -0.5680 C.3   1 <1>   0.1160 
  7 C       -0.7840    -1.8960    -0.7510 C.3   1 <1>   0.1160 
  8 C       -0.4150     2.6620     0.6910 C.3   1 <1>  -0.0800 
  9 C       -0.9890     3.8750    -0.0470 C.3   1 <1>   0.2000 
 10 C        0.9140     3.1610     1.2960 C.3   1 <1>   0.3430 
 11 O       -1.7430     4.6080     0.8610 O.3   1 <1>  -0.6800 
 12 C        0.2500     4.7010    -0.3870 C.3   1 <1>   0.3430 
 13 N        1.0890     4.5630     0.8310 N.4   1 <1>  -0.9590 
 14 C        2.5000     4.9930     0.6630 C.3   1 <1>   0.5230 
 15 C        2.5450     6.4770     0.3660 C.2   1 <1>  -0.1400 
 16 S        4.0320     7.0490    -0.3710 S.3   1 <1>  -0.0800 
 17 C        1.6850     7.5020     0.5410 C.2   1 <1>  -0.1500 
 18 C        3.4330     8.6990    -0.4230 C.2   1 <1>  -0.1400 
 19 C        2.1900     8.7610     0.0870 C.2   1 <1>  -0.1500 
 20 C        4.3350     9.7700    -1.0160 C.3   1 <1>   0.0200 
 21 C        5.1620    10.5150     0.0500 C.3   1 <1>  -0.0800 
 22 C        5.9490    11.6610    -0.5980 C.3   1 <1>  -0.2400 
 23 C        6.1310     9.5870     0.7960 C.3   1 <1>  -0.2400 
 24 H        0.4230     1.7460    -1.0820 H     1 <1>   0.0800 
 25 H       -1.1670     1.1910    -0.6780 H     1 <1>   0.0800 
 26 H        1.5710    -2.7960    -1.3720 H     1 <1>   0.0800 
 27 H        1.5600    -2.6070     0.3730 H     1 <1>   0.0800 
 28 H        2.5350    -1.5490    -0.6270 H     1 <1>   0.0800 
 29 H       -0.7660    -2.5660    -1.5950 H     1 <1>   0.0800 
 30 H       -1.6150    -1.2240    -0.8700 H     1 <1>   0.0800 
 31 H       -0.9320    -2.4720     0.1480 H     1 <1>   0.0800 
 32 H       -1.0770     2.3460     1.4810 H     1 <1>   0.0800 
 33 H       -1.5970     3.6430    -0.9060 H     1 <1>   0.0800 
 34 H        1.7390     2.5620     0.9490 H     1 <1>   0.0800 
 35 H        0.8840     3.1190     2.3730 H     1 <1>   0.0800 
 36 H       -2.6210     4.1980     1.0160 H     1 <1>   0.4000 
 37 H       -0.0060     5.7280    -0.5930 H     1 <1>   0.0800 
 38 H        0.7550     4.2750    -1.2380 H     1 <1>   0.0800 
 39 H        0.6460     5.1740     1.5330 H     1 <1>   0.4500 
 40 H        3.0640     4.7940     1.5600 H     1 <1>   0.0800 
 41 H        2.9530     4.4510    -0.1510 H     1 <1>   0.0800 
 42 H        0.7010     7.4540     0.9750 H     1 <1>   0.1500 
 43 H        1.5980     9.6570     0.1680 H     1 <1>   0.1500 
 44 H        4.9850     9.3280    -1.7500 H     1 <1>   0.0800 
 45 H        3.7100    10.4820    -1.5250 H     1 <1>   0.0800 
 46 H        4.4810    10.9400     0.7690 H     1 <1>   0.0800 
 47 H        6.6490    11.2800    -1.3220 H     1 <1>   0.0800 
 48 H        6.4950    12.2090     0.1500 H     1 <1>   0.0800 
 49 H        5.2810    12.3450    -1.0920 H     1 <1>   0.0800 
 50 H        6.7920     9.0930     0.1060 H     1 <1>   0.0800 
 51 H        5.5900     8.8430     1.3520 H     1 <1>   0.0800 
 52 H        6.7250    10.1510     1.4940 H     1 <1>   0.0800 
@<TRIPOS>BOND
  1   1   2  2   
  2   1   3  2   
  3   1   4  am  
  4   1   5  1   
  5   4   6  1   
  6   4   7  1   
  7   5   8  1   
  8   5  24  1   
  9   5  25  1   
 10   6  26  1   
 11   6  27  1   
 12   6  28  1   
 13   7  29  1   
 14   7  30  1   
 15   7  31  1   
 16   8   9  1   
 17   8  10  1   
 18   8  32  1   
 19   9  11  1   
 20   9  12  1   
 21   9  33  1   
 22  10  13  1   
 23  10  34  1   
 24  10  35  1   
 25  11  36  1   
 26  12  13  1   
 27  12  37  1   
 28  12  38  1   
 29  13  14  1   
 30  13  39  1   
 31  14  15  1   
 32  14  40  1   
 33  14  41  1   
 34  15  16  1   
 35  15  17  2   
 36  16  18  1   
 37  17  19  1   
 38  17  42  1   
 39  18  19  2   
 40  18  20  1   
 41  19  43  1   
 42  20  21  1   
 43  20  44  1   
 44  20  45  1   
 45  21  22  1   
 46  21  23  1   
 47  21  46  1   
 48  22  47  1   
 49  22  48  1   
 50  22  49  1   
 51  23  50  1   
 52  23  51  1   
 53  23  52  1   
@<TRIPOS>SUBSTRUCTURE
  1 ****  13 GROUP 4 **** **** 0

# MOE 2024.06 (io_trps.svl 2023.06)
