@<TRIPOS>MOLECULE
NONAME
41 42 1 0 0 
SMALL
USER_CHARGES


@<TRIPOS>ATOM
  1 S        0.5490    -0.0920     0.6410 S.o2  1 <1>   1.3330 
  2 O        0.7270    -1.5210     0.5120 O.2   1 <1>  -0.6500 
  3 O        0.4280     0.4950     1.9560 O.2   1 <1>  -0.6500 
  4 N       -0.8270     0.3360    -0.2580 N.am  1 <1>  -0.8490 
  5 C        1.8800     0.7440    -0.2180 C.3   1 <1>  -0.0550 
  6 C       -2.0500     0.2880     0.5480 C.3   1 <1>   0.1160 
  7 C       -1.0010    -0.4610    -1.4760 C.3   1 <1>   0.1160 
  8 C        3.2440     0.6040     0.4820 C.3   1 <1>  -0.0800 
  9 C        4.3610     1.2770    -0.2880 C.3   1 <1>   0.2200 
 10 C        3.7580    -0.8280     0.5900 C.3   1 <1>   0.1200 
 11 N        4.4420     2.7160     0.0390 N.am  1 <1>  -0.7300 
 12 C        5.5980     0.4960     0.1420 C.3   1 <1>   0.1200 
 13 O        5.1500    -0.7420     0.6120 O.3   1 <1>  -0.5600 
 14 C        3.9050     3.7190    -0.7010 C.2   1 <1>   0.5690 
 15 O        3.2240     3.4910    -1.6720 O.2   1 <1>  -0.5700 
 16 C        4.1390     5.1570    -0.2960 C.3   1 <1>   0.1570 
 17 N        5.5570     5.3640     0.0360 N.pl3 1 <1>   0.3140 
 18 N        6.0920     4.9290     1.1970 N.2   1 <1>  -0.7070 
 19 C        6.4850     5.9810    -0.7240 C.2   1 <1>  -0.3020 
 20 C        7.3390     5.2870     1.1450 C.2   1 <1>   0.1390 
 21 C        7.6460     5.9500    -0.0370 C.2   1 <1>  -0.1500 
 22 H        1.9530     0.3640    -1.2180 H     1 <1>   0.0800 
 23 H        1.6390     1.7880    -0.2870 H     1 <1>   0.0800 
 24 H       -2.9000     0.5820    -0.0440 H     1 <1>   0.0800 
 25 H       -1.9700     0.9670     1.3810 H     1 <1>   0.0800 
 26 H       -2.2090    -0.7080     0.9280 H     1 <1>   0.0800 
 27 H       -1.8370    -0.0900    -2.0440 H     1 <1>   0.0800 
 28 H       -1.1760    -1.4960    -1.2290 H     1 <1>   0.0800 
 29 H       -0.1200    -0.3970    -2.0920 H     1 <1>   0.0800 
 30 H        3.1880     1.0110     1.4780 H     1 <1>   0.0800 
 31 H        4.2210     1.1480    -1.3490 H     1 <1>   0.0800 
 32 H        3.4810    -1.4140    -0.2710 H     1 <1>   0.0800 
 33 H        3.4200    -1.3200     1.4870 H     1 <1>   0.0800 
 34 H        5.0610     2.9800     0.8210 H     1 <1>   0.3700 
 35 H        6.1100     0.9830     0.9530 H     1 <1>   0.0800 
 36 H        6.2700     0.3300    -0.6810 H     1 <1>   0.0800 
 37 H        3.5450     5.3880     0.5660 H     1 <1>   0.0800 
 38 H        3.8650     5.8110    -1.1020 H     1 <1>   0.0800 
 39 H        6.2750     6.4010    -1.6910 H     1 <1>   0.1500 
 40 H        8.0480     5.0900     1.9320 H     1 <1>   0.1500 
 41 H        8.6090     6.3410    -0.3140 H     1 <1>   0.1500 
@<TRIPOS>BOND
  1   1   2  2   
  2   1   3  2   
  3   1   4  am  
  4   1   5  1   
  5   4   6  1   
  6   4   7  1   
  7   5   8  1   
  8   5  22  1   
  9   5  23  1   
 10   6  24  1   
 11   6  25  1   
 12   6  26  1   
 13   7  27  1   
 14   7  28  1   
 15   7  29  1   
 16   8   9  1   
 17   8  10  1   
 18   8  30  1   
 19   9  11  1   
 20   9  12  1   
 21   9  31  1   
 22  10  13  1   
 23  10  32  1   
 24  10  33  1   
 25  11  14  am  
 26  11  34  1   
 27  12  13  1   
 28  12  35  1   
 29  12  36  1   
 30  14  15  2   
 31  14  16  1   
 32  16  17  1   
 33  16  37  1   
 34  16  38  1   
 35  17  18  1   
 36  17  19  1   
 37  18  20  2   
 38  19  21  2   
 39  19  39  1   
 40  20  21  1   
 41  20  40  1   
 42  21  41  1   
@<TRIPOS>SUBSTRUCTURE
  1 ****  11 GROUP 4 **** **** 0

# MOE 2024.06 (io_trps.svl 2023.06)
