@<TRIPOS>MOLECULE
NONAME
50 53 1 0 0 
SMALL
USER_CHARGES


@<TRIPOS>ATOM
  1 O       -1.9540     0.2620    -0.7700 O.2   1 <1>  -0.5700 
  2 C       -1.7740     0.2340     0.4340 C.2   1 <1>   0.7160 
  3 N       -1.8540    -0.9750     1.0590 N.am  1 <1>  -0.7300 
  4 C       -1.5070     1.4240     1.2290 C.2   1 <1>   0.1410 
  5 C       -2.2450    -2.2500     0.4210 C.3   1 <1>   0.2200 
  6 N       -1.4090     1.3540     2.5970 N.2   1 <1>  -0.5650 
  7 C       -1.3180     2.7240     0.8790 C.2   1 <1>  -0.0400 
  8 C       -3.7590    -2.3670     0.4370 C.3   1 <1>  -0.0800 
  9 C       -1.8160    -3.4340     1.2850 C.3   1 <1>   0.1200 
 10 C       -1.1800     2.5610     2.9520 C.2   1 <1>   0.3280 
 11 O       -1.1170     3.4140     1.9640 O.3   1 <1>  -0.2800 
 12 C       -1.2930     3.4910    -0.4410 C.3   1 <1>   0.1000 
 13 C       -4.0100    -2.9600     1.8230 C.3   1 <1>   0.1200 
 14 C       -4.2650    -3.2850    -0.6930 C.3   1 <1>  -0.0160 
 15 O       -2.8870    -3.7290     2.1360 O.3   1 <1>  -0.5600 
 16 C       -2.6610     3.4770    -1.1300 C.3   1 <1>  -0.2400 
 17 C       -0.1850     2.9880    -1.3720 C.3   1 <1>  -0.2400 
 18 C       -5.7880    -3.2970    -0.7580 C.ar  1 <1>  -0.1440 
 19 C       -6.5300    -2.2190    -1.2990 C.ar  1 <1>   0.0000 
 20 C       -6.4850    -4.3700    -0.2850 C.ar  1 <1>  -0.1500 
 21 C       -7.9420    -2.3280    -1.2950 C.ar  1 <1>   0.3100 
 22 C       -5.9580    -1.0450    -1.8420 C.ar  1 <1>  -0.1500 
 23 C       -7.8840    -4.3780    -0.3340 C.ar  1 <1>   0.1600 
 24 N       -8.6020    -3.4100    -0.8090 N.ar  1 <1>  -0.6200 
 25 C       -8.7060    -1.2730    -1.8180 C.ar  1 <1>  -0.1500 
 26 C       -6.7320    -0.0350    -2.3450 C.ar  1 <1>  -0.1500 
 27 C       -8.1240    -0.1470    -2.3330 C.ar  1 <1>  -0.1500 
 28 H       -1.8040    -0.9640     2.0820 H     1 <1>   0.3700 
 29 H       -1.8270    -2.3020    -0.5710 H     1 <1>   0.0800 
 30 H       -4.2270    -1.4040     0.3470 H     1 <1>   0.0800 
 31 H       -0.9390    -3.2230     1.8710 H     1 <1>   0.0800 
 32 H       -1.6440    -4.3030     0.6750 H     1 <1>   0.0800 
 33 H       -1.0390     2.9240     3.9560 H     1 <1>   0.1500 
 34 H       -1.0660     4.5180    -0.2080 H     1 <1>   0.0800 
 35 H       -4.8890    -3.5780     1.8690 H     1 <1>   0.0800 
 36 H       -4.0830    -2.1780     2.5590 H     1 <1>   0.0800 
 37 H       -3.9000    -4.2860    -0.5380 H     1 <1>   0.0800 
 38 H       -3.8760    -2.9540    -1.6400 H     1 <1>   0.0800 
 39 H       -2.9290     2.4850    -1.4420 H     1 <1>   0.0800 
 40 H       -2.6450     4.1130    -1.9960 H     1 <1>   0.0800 
 41 H       -3.4150     3.8390    -0.4540 H     1 <1>   0.0800 
 42 H       -0.3770     1.9840    -1.7000 H     1 <1>   0.0800 
 43 H        0.7610     3.0080    -0.8610 H     1 <1>   0.0800 
 44 H       -0.1170     3.6200    -2.2400 H     1 <1>   0.0800 
 45 H       -5.9880    -5.2250     0.1350 H     1 <1>   0.1500 
 46 H       -4.8890    -0.9350    -1.8660 H     1 <1>   0.1500 
 47 H       -8.3960    -5.2440     0.0510 H     1 <1>   0.1500 
 48 H       -9.7750    -1.3820    -1.8000 H     1 <1>   0.1500 
 49 H       -6.2810     0.8530    -2.7540 H     1 <1>   0.1500 
 50 H       -8.7230     0.6540    -2.7310 H     1 <1>   0.1500 
@<TRIPOS>BOND
  1   1   2  2   
  2   2   3  am  
  3   2   4  1   
  4   3   5  1   
  5   3  28  1   
  6   4   6  1   
  7   4   7  2   
  8   5   8  1   
  9   5   9  1   
 10   5  29  1   
 11   6  10  2   
 12   7  11  1   
 13   7  12  1   
 14   8  13  1   
 15   8  14  1   
 16   8  30  1   
 17   9  15  1   
 18   9  31  1   
 19   9  32  1   
 20  10  11  1   
 21  10  33  1   
 22  12  16  1   
 23  12  17  1   
 24  12  34  1   
 25  13  15  1   
 26  13  35  1   
 27  13  36  1   
 28  14  18  1   
 29  14  37  1   
 30  14  38  1   
 31  16  39  1   
 32  16  40  1   
 33  16  41  1   
 34  17  42  1   
 35  17  43  1   
 36  17  44  1   
 37  18  19  ar  
 38  18  20  ar  
 39  19  21  ar  
 40  19  22  ar  
 41  20  23  ar  
 42  20  45  1   
 43  21  24  ar  
 44  21  25  ar  
 45  22  26  ar  
 46  22  46  1   
 47  23  24  ar  
 48  23  47  1   
 49  25  27  ar  
 50  25  48  1   
 51  26  27  ar  
 52  26  49  1   
 53  27  50  1   
@<TRIPOS>SUBSTRUCTURE
  1 ****   8 GROUP 4 **** **** 0

# MOE 2024.06 (io_trps.svl 2023.06)
