@<TRIPOS>MOLECULE
NONAME
44 46 1 0 0 
SMALL
USER_CHARGES


@<TRIPOS>ATOM
  1 F       -4.4520    -0.4970    -2.3570 F     1 <1>  -0.1900 
  2 C       -4.0420     0.3260    -1.4230 C.ar  1 <1>   0.1900 
  3 C       -3.5440    -0.1870    -0.2260 C.ar  1 <1>   0.0830 
  4 C       -4.1370     1.6810    -1.6700 C.ar  1 <1>  -0.1500 
  5 O       -3.4870    -1.5360    -0.0650 O.3   1 <1>  -0.3630 
  6 C       -3.1220     0.7070     0.7590 C.ar  1 <1>  -0.1500 
  7 C       -3.7130     2.5330    -0.6700 C.ar  1 <1>   0.1900 
  8 C       -3.5450    -2.1110     1.2330 C.3   1 <1>   0.1810 
  9 C       -3.2090     2.0740     0.5360 C.ar  1 <1>  -0.1500 
 10 F       -3.7900     3.8220    -0.8680 F     1 <1>  -0.1900 
 11 C       -3.7590    -3.6230     1.1850 C.2   1 <1>   0.5690 
 12 O       -3.0740    -4.3030     1.9140 O.2   1 <1>  -0.5700 
 13 N       -4.7150    -4.1930     0.3850 N.am  1 <1>  -0.6600 
 14 C       -5.6320    -3.4910    -0.5510 C.3   1 <1>   0.1400 
 15 C       -4.9130    -5.6620     0.2850 C.3   1 <1>   0.1400 
 16 C       -6.7390    -4.5070    -0.8220 C.3   1 <1>   0.2000 
 17 C       -6.0040    -5.8510    -0.7770 C.3   1 <1>  -0.0800 
 18 O       -7.6460    -4.4380     0.2260 O.3   1 <1>  -0.6800 
 19 C       -6.8910    -7.0870    -0.5440 C.3   1 <1>   0.0210 
 20 C       -6.0560    -8.3520    -0.5060 C.2   1 <1>   0.1080 
 21 N       -5.3910    -8.7870    -1.5300 N.2   1 <1>  -0.7070 
 22 C       -5.8980    -9.1680     0.6090 C.2   1 <1>  -0.1500 
 23 N       -4.7850    -9.9060    -1.0910 N.pl3 1 <1>   0.3000 
 24 C       -5.0760   -10.1570     0.2030 C.2   1 <1>  -0.3320 
 25 C       -4.5410   -11.3440     0.9830 C.3   1 <1>  -0.0600 
 26 H       -4.5240     2.0570    -2.5990 H     1 <1>   0.1500 
 27 H       -2.7190     0.3590     1.6920 H     1 <1>   0.1500 
 28 H       -2.6150    -1.9060     1.7320 H     1 <1>   0.0800 
 29 H       -4.3560    -1.6580     1.7720 H     1 <1>   0.0800 
 30 H       -2.8880     2.7790     1.2820 H     1 <1>   0.1500 
 31 H       -6.0210    -2.5780    -0.1350 H     1 <1>   0.0800 
 32 H       -5.1010    -3.2750    -1.4620 H     1 <1>   0.0800 
 33 H       -3.9980    -6.1520    -0.0030 H     1 <1>   0.0800 
 34 H       -5.2310    -6.0410     1.2420 H     1 <1>   0.0800 
 35 H       -7.2620    -4.3330    -1.7470 H     1 <1>   0.0800 
 36 H       -5.5030    -5.9790    -1.7210 H     1 <1>   0.0800 
 37 H       -7.1460    -4.4760     1.0660 H     1 <1>   0.4000 
 38 H       -7.6070    -7.1700    -1.3420 H     1 <1>   0.0800 
 39 H       -7.4330    -6.9980     0.3800 H     1 <1>   0.0800 
 40 H       -6.3460    -9.0170     1.5750 H     1 <1>   0.1500 
 41 H       -4.1810   -10.4730    -1.6970 H     1 <1>   0.2700 
 42 H       -4.9150   -11.3220     1.9910 H     1 <1>   0.0800 
 43 H       -3.4660   -11.3130     1.0160 H     1 <1>   0.0800 
 44 H       -4.8530   -12.2640     0.5210 H     1 <1>   0.0800 
@<TRIPOS>BOND
  1   1   2  1   
  2   2   3  ar  
  3   2   4  ar  
  4   3   5  1   
  5   3   6  ar  
  6   4   7  ar  
  7   4  26  1   
  8   5   8  1   
  9   6   9  ar  
 10   6  27  1   
 11   7   9  ar  
 12   7  10  1   
 13   8  11  1   
 14   8  28  1   
 15   8  29  1   
 16   9  30  1   
 17  11  12  2   
 18  11  13  am  
 19  13  14  1   
 20  13  15  1   
 21  14  16  1   
 22  14  31  1   
 23  14  32  1   
 24  15  17  1   
 25  15  33  1   
 26  15  34  1   
 27  16  17  1   
 28  16  18  1   
 29  16  35  1   
 30  17  19  1   
 31  17  36  1   
 32  18  37  1   
 33  19  20  1   
 34  19  38  1   
 35  19  39  1   
 36  20  21  2   
 37  20  22  1   
 38  21  23  1   
 39  22  24  2   
 40  22  40  1   
 41  23  24  1   
 42  23  41  1   
 43  24  25  1   
 44  25  42  1   
 45  25  43  1   
 46  25  44  1   
@<TRIPOS>SUBSTRUCTURE
  1 ****  13 GROUP 4 **** **** 0

# MOE 2024.06 (io_trps.svl 2023.06)
