@<TRIPOS>MOLECULE
NONAME
37 38 1 0 0 
SMALL
USER_CHARGES


@<TRIPOS>ATOM
  1 S       -0.5410     0.4000    -0.6660 S.3   1 <1>  -0.0800 
  2 C        1.1620    -0.0130    -0.5670 C.2   1 <1>   0.1980 
  3 C       -0.9300    -1.2930    -0.5880 C.2   1 <1>  -0.1100 
  4 N        1.3870    -1.2670    -0.5020 N.2   1 <1>  -0.5650 
  5 C        2.1720     1.1310    -0.6120 C.3   1 <1>   0.2900 
  6 C        0.2100    -1.9950    -0.5050 C.2   1 <1>   0.0460 
  7 N        2.4800     1.7170     0.7210 N.3   1 <1>  -0.8100 
  8 C        0.3380    -3.4980    -0.4150 C.3   1 <1>  -0.0590 
  9 C        3.7910     2.4260     0.7240 C.3   1 <1>   0.1710 
 10 C        1.3930     2.5670     1.2270 C.3   1 <1>   0.0300 
 11 C        4.0270     3.6060    -0.2490 C.2   1 <1>   0.5690 
 12 O        3.1270     3.9910    -0.9630 O.2   1 <1>  -0.5700 
 13 N        5.2640     4.2070    -0.3010 N.am  1 <1>  -0.6600 
 14 C        6.4480     3.8450     0.5370 C.3   1 <1>   0.1400 
 15 C        5.5470     5.3310    -1.2470 C.3   1 <1>   0.1400 
 16 C        7.0710     5.1020     1.1680 C.3   1 <1>   0.1200 
 17 C        6.2270     6.5000    -0.5170 C.3   1 <1>   0.1200 
 18 O        7.3540     6.0560     0.1850 O.3   1 <1>  -0.5600 
 19 H       -1.9650    -1.5760    -0.6120 H     1 <1>   0.1500 
 20 H        1.8120     1.8930    -1.2810 H     1 <1>   0.0800 
 21 H        3.0770     0.7290    -1.0320 H     1 <1>   0.0800 
 22 H       -0.6310    -3.9610    -0.4240 H     1 <1>   0.0800 
 23 H        0.8450    -3.7610     0.4960 H     1 <1>   0.0800 
 24 H        0.9110    -3.8620    -1.2480 H     1 <1>   0.0800 
 25 H        4.5520     1.6940     0.5250 H     1 <1>   0.0800 
 26 H        3.9630     2.7910     1.7200 H     1 <1>   0.0800 
 27 H        0.5120     1.9750     1.3960 H     1 <1>   0.0800 
 28 H        1.1610     3.3500     0.5250 H     1 <1>   0.0800 
 29 H        1.6780     3.0100     2.1650 H     1 <1>   0.0800 
 30 H        7.1850     3.3650    -0.0840 H     1 <1>   0.0800 
 31 H        6.1810     3.1610     1.3210 H     1 <1>   0.0800 
 32 H        4.6390     5.6840    -1.7040 H     1 <1>   0.0800 
 33 H        6.1950     4.9790    -2.0300 H     1 <1>   0.0800 
 34 H        7.9960     4.8540     1.6580 H     1 <1>   0.0800 
 35 H        6.4030     5.5380     1.8900 H     1 <1>   0.0800 
 36 H        5.5450     6.9610     0.1770 H     1 <1>   0.0800 
 37 H        6.5520     7.2410    -1.2250 H     1 <1>   0.0800 
@<TRIPOS>BOND
  1   1   2  1   
  2   1   3  1   
  3   2   4  2   
  4   2   5  1   
  5   3   6  2   
  6   3  19  1   
  7   4   6  1   
  8   5   7  1   
  9   5  20  1   
 10   5  21  1   
 11   6   8  1   
 12   7   9  1   
 13   7  10  1   
 14   8  22  1   
 15   8  23  1   
 16   8  24  1   
 17   9  11  1   
 18   9  25  1   
 19   9  26  1   
 20  10  27  1   
 21  10  28  1   
 22  10  29  1   
 23  11  12  2   
 24  11  13  am  
 25  13  14  1   
 26  13  15  1   
 27  14  16  1   
 28  14  30  1   
 29  14  31  1   
 30  15  17  1   
 31  15  32  1   
 32  15  33  1   
 33  16  18  1   
 34  16  34  1   
 35  16  35  1   
 36  17  18  1   
 37  17  36  1   
 38  17  37  1   
@<TRIPOS>SUBSTRUCTURE
  1 ****   9 GROUP 4 **** **** 0

# MOE 2024.06 (io_trps.svl 2023.06)
