@<TRIPOS>MOLECULE
NONAME
53 55 1 0 0 
SMALL
USER_CHARGES


@<TRIPOS>ATOM
  1 O       -0.2710     1.0350     1.4010 O.2   1 <1>  -0.5700 
  2 C       -0.0710     2.1950     1.0910 C.2   1 <1>   0.5440 
  3 N       -1.1480     3.0330     0.8770 N.am  1 <1>  -0.6600 
  4 C        1.2950     2.6570     0.9420 C.ar  1 <1>   0.0860 
  5 C       -2.5510     2.5780     1.1180 C.3   1 <1>   0.1400 
  6 C       -1.0160     4.3590     0.2010 C.3   1 <1>   0.1400 
  7 C        1.7760     3.7670     1.6390 C.ar  1 <1>  -0.1500 
  8 C        2.1820     1.9970     0.0920 C.ar  1 <1>  -0.1500 
  9 C       -3.3500     2.4310    -0.2070 C.3   1 <1>   0.0000 
 10 C       -2.2920     4.7410    -0.5660 C.3   1 <1>  -0.1600 
 11 C        3.0760     4.2080     1.4770 C.ar  1 <1>  -0.1500 
 12 C        3.4840     2.4310    -0.0760 C.ar  1 <1>  -0.1500 
 13 C       -4.8560     2.4410     0.1430 C.3   1 <1>   0.2000 
 14 C       -2.9110     3.5100    -1.2420 C.3   1 <1>  -0.1600 
 15 C       -3.1560     1.0150    -0.7750 C.3   1 <1>  -0.1600 
 16 C        3.9400     3.5490     0.6180 C.ar  1 <1>   0.0830 
 17 O       -5.6270     2.6190    -1.0130 O.3   1 <1>  -0.5600 
 18 C       -5.1350     1.0330     0.6810 C.3   1 <1>  -0.1600 
 19 C       -4.1280     0.1050    -0.0130 C.3   1 <1>  -0.1600 
 20 O        5.1930     4.0440     0.5110 O.3   1 <1>  -0.3630 
 21 C       -6.8960     3.1500    -0.8040 C.3   1 <1>   0.0400 
 22 C        6.1640     3.4360    -0.3090 C.3   1 <1>   0.1200 
 23 C        7.4620     4.2350    -0.1880 C.3   1 <1>  -0.1600 
 24 C        8.5720     3.6340    -1.0570 C.3   1 <1>  -0.2400 
 25 H       -2.5570     1.6510     1.6660 H     1 <1>   0.0800 
 26 H       -3.0250     3.3120     1.7450 H     1 <1>   0.0800 
 27 H       -0.7930     5.1160     0.9320 H     1 <1>   0.0800 
 28 H       -0.1990     4.3120    -0.4980 H     1 <1>   0.0800 
 29 H        1.1190     4.2810     2.3180 H     1 <1>   0.1500 
 30 H        1.8310     1.1290    -0.4390 H     1 <1>   0.1500 
 31 H       -3.0040     5.1820     0.1100 H     1 <1>   0.0800 
 32 H       -2.0490     5.4820    -1.3060 H     1 <1>   0.0800 
 33 H        3.4350     5.0650     2.0170 H     1 <1>   0.1500 
 34 H        4.1270     1.8890    -0.7440 H     1 <1>   0.1500 
 35 H       -5.0980     3.2170     0.8500 H     1 <1>   0.0800 
 36 H       -2.1620     3.0860    -1.8890 H     1 <1>   0.0800 
 37 H       -3.7270     3.8130    -1.8720 H     1 <1>   0.0800 
 38 H       -3.4330     1.0100    -1.8160 H     1 <1>   0.0800 
 39 H       -2.1370     0.6790    -0.6880 H     1 <1>   0.0800 
 40 H       -4.9500     1.0190     1.7400 H     1 <1>   0.0800 
 41 H       -6.1480     0.7210     0.5070 H     1 <1>   0.0800 
 42 H       -3.5970    -0.4820     0.7180 H     1 <1>   0.0800 
 43 H       -4.6270    -0.5580    -0.6980 H     1 <1>   0.0800 
 44 H       -7.3940     3.2070    -1.7560 H     1 <1>   0.0800 
 45 H       -6.8020     4.1360    -0.3850 H     1 <1>   0.0800 
 46 H       -7.4520     2.5080    -0.1430 H     1 <1>   0.0800 
 47 H        6.3080     2.4240     0.0280 H     1 <1>   0.0800 
 48 H        5.8050     3.4450    -1.3240 H     1 <1>   0.0800 
 49 H        7.2810     5.2510    -0.4970 H     1 <1>   0.0800 
 50 H        7.7790     4.2400     0.8400 H     1 <1>   0.0800 
 51 H        8.2830     3.6350    -2.0930 H     1 <1>   0.0800 
 52 H        8.7810     2.6230    -0.7540 H     1 <1>   0.0800 
 53 H        9.4720     4.2140    -0.9530 H     1 <1>   0.0800 
@<TRIPOS>BOND
  1   1   2  2   
  2   2   3  am  
  3   2   4  1   
  4   3   5  1   
  5   3   6  1   
  6   4   7  ar  
  7   4   8  ar  
  8   5   9  1   
  9   5  25  1   
 10   5  26  1   
 11   6  10  1   
 12   6  27  1   
 13   6  28  1   
 14   7  11  ar  
 15   7  29  1   
 16   8  12  ar  
 17   8  30  1   
 18   9  13  1   
 19   9  14  1   
 20   9  15  1   
 21  10  14  1   
 22  10  31  1   
 23  10  32  1   
 24  11  16  ar  
 25  11  33  1   
 26  12  16  ar  
 27  12  34  1   
 28  13  17  1   
 29  13  18  1   
 30  13  35  1   
 31  14  36  1   
 32  14  37  1   
 33  15  19  1   
 34  15  38  1   
 35  15  39  1   
 36  16  20  1   
 37  17  21  1   
 38  18  19  1   
 39  18  40  1   
 40  18  41  1   
 41  19  42  1   
 42  19  43  1   
 43  20  22  1   
 44  21  44  1   
 45  21  45  1   
 46  21  46  1   
 47  22  23  1   
 48  22  47  1   
 49  22  48  1   
 50  23  24  1   
 51  23  49  1   
 52  23  50  1   
 53  24  51  1   
 54  24  52  1   
 55  24  53  1   
@<TRIPOS>SUBSTRUCTURE
  1 ****   2 GROUP 4 **** **** 0

# MOE 2024.06 (io_trps.svl 2023.06)
