@<TRIPOS>MOLECULE
NONAME
47 49 1 0 0 
SMALL
USER_CHARGES


@<TRIPOS>ATOM
  1 F        1.4540     0.5500    -1.2310 F     1 <1>  -0.1900 
  2 C        1.7270     1.7550    -0.7990 C.ar  1 <1>   0.1900 
  3 C        3.0360     2.1030    -0.5770 C.ar  1 <1>  -0.1500 
  4 C        0.6580     2.6300    -0.5850 C.ar  1 <1>  -0.1500 
  5 C        3.2990     3.3970    -0.1160 C.ar  1 <1>   0.0000 
  6 C        0.9150     3.9030    -0.1300 C.ar  1 <1>  -0.1500 
  7 C        2.2440     4.2790     0.1030 C.ar  1 <1>  -0.1520 
  8 C        4.4780     4.0950     0.2140 C.2   1 <1>  -0.1500 
  9 N        2.7610     5.4670     0.5500 N.pl3 1 <1>   0.0330 
 10 C        4.1270     5.3490     0.6080 C.2   1 <1>  -0.3320 
 11 C        4.9880     6.5070     1.0650 C.3   1 <1>   0.5230 
 12 N        6.2950     6.4100     0.3740 N.4   1 <1>  -0.9590 
 13 C        7.3160     7.2910     1.0100 C.3   1 <1>   0.5230 
 14 C        6.1220     6.6750    -1.0870 C.3   1 <1>   0.2630 
 15 C        6.8470     8.7290     0.9760 C.2   1 <1>  -0.3320 
 16 N        7.1950     9.6590     0.0550 N.pl3 1 <1>   0.0480 
 17 C        6.0310     9.3520     1.8580 C.2   1 <1>   0.0770 
 18 C        6.5250    10.7710     0.4310 C.2   1 <1>   0.0360 
 19 C        8.1530     9.5870    -1.0770 C.3   1 <1>   0.0960 
 20 N        5.8110    10.6220     1.4970 N.2   1 <1>  -0.5650 
 21 C        9.6180     9.5900    -0.6000 C.3   1 <1>  -0.0800 
 22 C        9.9760    10.8780     0.1560 C.3   1 <1>  -0.2400 
 23 C       10.5560     9.4280    -1.8020 C.3   1 <1>  -0.2400 
 24 H        3.8340     1.4050    -0.7500 H     1 <1>   0.1500 
 25 H       -0.3440     2.2910    -0.7790 H     1 <1>   0.1500 
 26 H        0.1130     4.5990     0.0450 H     1 <1>   0.1500 
 27 H        5.4480     3.6350     0.1430 H     1 <1>   0.1500 
 28 H        2.1810     6.2790     0.7960 H     1 <1>   0.2700 
 29 H        5.1190     6.4580     2.1340 H     1 <1>   0.0800 
 30 H        4.5150     7.4450     0.8180 H     1 <1>   0.0800 
 31 H        6.5850     5.4340     0.4920 H     1 <1>   0.4500 
 32 H        8.2610     7.1970     0.5020 H     1 <1>   0.0800 
 33 H        7.4590     6.9930     2.0360 H     1 <1>   0.0800 
 34 H        5.7670     7.6810    -1.2450 H     1 <1>   0.0800 
 35 H        5.4020     5.9910    -1.5090 H     1 <1>   0.0800 
 36 H        7.0570     6.5480    -1.6070 H     1 <1>   0.0800 
 37 H        5.5720     8.9610     2.7520 H     1 <1>   0.1500 
 38 H        6.5990    11.6970    -0.1140 H     1 <1>   0.1500 
 39 H        7.9860    10.4340    -1.7210 H     1 <1>   0.0800 
 40 H        7.9560     8.6990    -1.6460 H     1 <1>   0.0800 
 41 H        9.7800     8.7530     0.0570 H     1 <1>   0.0800 
 42 H        9.8100    11.7440    -0.4610 H     1 <1>   0.0800 
 43 H       11.0130    10.8650     0.4460 H     1 <1>   0.0800 
 44 H        9.3880    10.9780     1.0520 H     1 <1>   0.0800 
 45 H       10.4470    10.2520    -2.4860 H     1 <1>   0.0800 
 46 H       10.3500     8.5140    -2.3300 H     1 <1>   0.0800 
 47 H       11.5810     9.3990    -1.4740 H     1 <1>   0.0800 
@<TRIPOS>BOND
  1   1   2  1   
  2   2   3  ar  
  3   2   4  ar  
  4   3   5  ar  
  5   3  24  1   
  6   4   6  ar  
  7   4  25  1   
  8   5   7  ar  
  9   5   8  1   
 10   6   7  ar  
 11   6  26  1   
 12   7   9  1   
 13   8  10  2   
 14   8  27  1   
 15   9  10  1   
 16   9  28  1   
 17  10  11  1   
 18  11  12  1   
 19  11  29  1   
 20  11  30  1   
 21  12  13  1   
 22  12  14  1   
 23  12  31  1   
 24  13  15  1   
 25  13  32  1   
 26  13  33  1   
 27  14  34  1   
 28  14  35  1   
 29  14  36  1   
 30  15  16  1   
 31  15  17  2   
 32  16  18  1   
 33  16  19  1   
 34  17  20  1   
 35  17  37  1   
 36  18  20  2   
 37  18  38  1   
 38  19  21  1   
 39  19  39  1   
 40  19  40  1   
 41  21  22  1   
 42  21  23  1   
 43  21  41  1   
 44  22  42  1   
 45  22  43  1   
 46  22  44  1   
 47  23  45  1   
 48  23  46  1   
 49  23  47  1   
@<TRIPOS>SUBSTRUCTURE
  1 ****  11 GROUP 4 **** **** 0

# MOE 2024.06 (io_trps.svl 2023.06)
