@<TRIPOS>MOLECULE
NONAME
46 47 1 0 0 
SMALL
USER_CHARGES


@<TRIPOS>ATOM
  1 S       -0.0930     0.4130    -0.1390 S.o2  1 <1>   1.3330 
  2 O       -0.6430    -0.0360     1.1200 O.2   1 <1>  -0.6500 
  3 O       -0.4200     1.7330    -0.6280 O.2   1 <1>  -0.6500 
  4 N       -0.5360    -0.7170    -1.3260 N.am  1 <1>  -0.8490 
  5 C        1.6950     0.2690    -0.1170 C.3   1 <1>  -0.0550 
  6 C       -1.7800    -0.3470    -2.0090 C.3   1 <1>   0.1160 
  7 C       -0.6390    -2.0880    -0.8140 C.3   1 <1>   0.1160 
  8 C        2.3880     1.2500     0.8510 C.3   1 <1>  -0.0800 
  9 C        3.8940     1.2390     0.6490 C.3   1 <1>   0.2200 
 10 C        2.2760     0.7900     2.3040 C.3   1 <1>   0.1200 
 11 N        4.4620     2.5110     1.1470 N.am  1 <1>  -0.7300 
 12 C        4.3370     0.0830     1.5450 C.3   1 <1>   0.1200 
 13 O        3.3400    -0.0900     2.5110 O.3   1 <1>  -0.5600 
 14 C        5.0890     3.4680     0.4050 C.2   1 <1>   0.7160 
 15 O        5.1920     3.2820    -0.7930 O.2   1 <1>  -0.5700 
 16 C        5.6070     4.6530     1.0760 C.2   1 <1>   0.1410 
 17 N        5.5690     4.7670     2.4440 N.2   1 <1>  -0.5650 
 18 C        6.1790     5.7880     0.5930 C.2   1 <1>  -0.0400 
 19 C        6.1020     5.9070     2.6720 C.2   1 <1>   0.3280 
 20 O        6.4820     6.5530     1.6020 O.3   1 <1>  -0.2800 
 21 C        6.5140     6.3170    -0.7980 C.3   1 <1>   0.1000 
 22 C        5.2630     6.4590    -1.6720 C.3   1 <1>  -0.2400 
 23 C        7.5900     5.4690    -1.4830 C.3   1 <1>  -0.2400 
 24 H        1.9700    -0.7370     0.1340 H     1 <1>   0.0800 
 25 H        2.0490     0.4650    -1.1110 H     1 <1>   0.0800 
 26 H       -2.0230    -1.0750    -2.7630 H     1 <1>   0.0800 
 27 H       -1.6650     0.6100    -2.4910 H     1 <1>   0.0800 
 28 H       -2.5910    -0.2820    -1.3010 H     1 <1>   0.0800 
 29 H       -0.8290    -2.7720    -1.6240 H     1 <1>   0.0800 
 30 H       -1.4400    -2.1640    -0.0960 H     1 <1>   0.0800 
 31 H        0.2800    -2.3770    -0.3350 H     1 <1>   0.0800 
 32 H        1.9790     2.2360     0.7100 H     1 <1>   0.0800 
 33 H        4.1810     1.0800    -0.3770 H     1 <1>   0.0800 
 34 H        1.3550     0.2860     2.5370 H     1 <1>   0.0800 
 35 H        2.4060     1.6200     2.9770 H     1 <1>   0.0800 
 36 H        4.4230     2.6730     2.1570 H     1 <1>   0.3700 
 37 H        5.2780     0.2770     2.0310 H     1 <1>   0.0800 
 38 H        4.4010    -0.8310     0.9820 H     1 <1>   0.0800 
 39 H        6.2590     6.3650     3.6340 H     1 <1>   0.1500 
 40 H        6.9230     7.3060    -0.6730 H     1 <1>   0.0800 
 41 H        4.8320     5.5010    -1.8960 H     1 <1>   0.0800 
 42 H        5.5130     6.9420    -2.5990 H     1 <1>   0.0800 
 43 H        4.5270     7.0560    -1.1640 H     1 <1>   0.0800 
 44 H        7.2300     4.4780    -1.6880 H     1 <1>   0.0800 
 45 H        8.4560     5.3950    -0.8500 H     1 <1>   0.0800 
 46 H        7.8830     5.9220    -2.4130 H     1 <1>   0.0800 
@<TRIPOS>BOND
  1   1   2  2   
  2   1   3  2   
  3   1   4  am  
  4   1   5  1   
  5   4   6  1   
  6   4   7  1   
  7   5   8  1   
  8   5  24  1   
  9   5  25  1   
 10   6  26  1   
 11   6  27  1   
 12   6  28  1   
 13   7  29  1   
 14   7  30  1   
 15   7  31  1   
 16   8   9  1   
 17   8  10  1   
 18   8  32  1   
 19   9  11  1   
 20   9  12  1   
 21   9  33  1   
 22  10  13  1   
 23  10  34  1   
 24  10  35  1   
 25  11  14  am  
 26  11  36  1   
 27  12  13  1   
 28  12  37  1   
 29  12  38  1   
 30  14  15  2   
 31  14  16  1   
 32  16  17  1   
 33  16  18  2   
 34  17  19  2   
 35  18  20  1   
 36  18  21  1   
 37  19  20  1   
 38  19  39  1   
 39  21  22  1   
 40  21  23  1   
 41  21  40  1   
 42  22  41  1   
 43  22  42  1   
 44  22  43  1   
 45  23  44  1   
 46  23  45  1   
 47  23  46  1   
@<TRIPOS>SUBSTRUCTURE
  1 ****  11 GROUP 4 **** **** 0

# MOE 2024.06 (io_trps.svl 2023.06)
