@<TRIPOS>MOLECULE
NONAME
43 45 1 0 0 
SMALL
USER_CHARGES


@<TRIPOS>ATOM
  1 O       -0.9140    -0.1990     0.8620 O.2   1 <1>  -0.5700 
  2 C       -1.7120    -0.8480     0.2280 C.2   1 <1>   0.6900 
  3 N       -1.9360    -2.1610     0.5090 N.am  1 <1>  -0.5390 
  4 N       -2.4140    -0.2890    -0.7860 N.am  1 <1>  -0.4900 
  5 C       -2.8360    -2.9670    -0.1940 C.2   1 <1>   0.1230 
  6 C       -3.3010    -0.9960    -1.5360 C.2   1 <1>   0.6160 
  7 C       -2.9670    -4.3600     0.2130 C.2   1 <1>   0.6160 
  8 C       -3.4980    -2.3680    -1.2230 C.2   1 <1>  -0.1360 
  9 O       -3.8860    -0.4300    -2.4340 O.2   1 <1>  -0.5700 
 10 O       -2.0070    -4.9110     0.7230 O.2   1 <1>  -0.5700 
 11 N       -4.1330    -5.0780     0.0650 N.am  1 <1>  -0.6600 
 12 C       -5.4940    -4.4990    -0.0150 C.3   1 <1>   0.1400 
 13 C       -4.2100    -6.5220     0.3930 C.3   1 <1>   0.1400 
 14 C       -6.4050    -5.5050     0.7010 C.3   1 <1>  -0.0800 
 15 C       -5.7000    -6.8590     0.4990 C.3   1 <1>  -0.0800 
 16 C       -7.9120    -5.4790     0.2970 C.3   1 <1>   0.2800 
 17 C       -6.2330    -7.5770    -0.7500 C.3   1 <1>  -0.1600 
 18 O       -8.0530    -5.0050    -0.9940 O.3   1 <1>  -0.6800 
 19 C       -8.4880    -6.9070     0.3030 C.3   1 <1>  -0.1600 
 20 C       -8.7590    -4.5630     1.2070 C.3   1 <1>  -0.1600 
 21 C       -7.7380    -7.8810    -0.6310 C.3   1 <1>  -0.1600 
 22 C       -8.3450    -3.0810     1.2340 C.3   1 <1>  -0.2400 
 23 H       -1.3490    -2.5840     1.2340 H     1 <1>   0.3700 
 24 H       -2.2550     0.6880    -1.0060 H     1 <1>   0.3700 
 25 H       -4.1870    -2.8980    -1.8520 H     1 <1>   0.1500 
 26 H       -5.5380    -3.5310     0.4500 H     1 <1>   0.0800 
 27 H       -5.7550    -4.4110    -1.0550 H     1 <1>   0.0800 
 28 H       -3.7190    -7.1040    -0.3680 H     1 <1>   0.0800 
 29 H       -3.7240    -6.6970     1.3380 H     1 <1>   0.0800 
 30 H       -6.3410    -5.2930     1.7530 H     1 <1>   0.0800 
 31 H       -5.8570    -7.4980     1.3510 H     1 <1>   0.0800 
 32 H       -6.0720    -6.9450    -1.6080 H     1 <1>   0.0800 
 33 H       -5.6930    -8.4930    -0.9170 H     1 <1>   0.0800 
 34 H       -8.9850    -5.0880    -1.2660 H     1 <1>   0.4000 
 35 H       -8.4190    -7.2860     1.3080 H     1 <1>   0.0800 
 36 H       -9.5330    -6.8950     0.0490 H     1 <1>   0.0800 
 37 H       -9.7890    -4.6240     0.9000 H     1 <1>   0.0800 
 38 H       -8.7160    -4.9430     2.2130 H     1 <1>   0.0800 
 39 H       -7.8750    -8.8840    -0.2640 H     1 <1>   0.0800 
 40 H       -8.1700    -7.8380    -1.6160 H     1 <1>   0.0800 
 41 H       -8.3220    -2.6730     0.2390 H     1 <1>   0.0800 
 42 H       -7.3770    -2.9610     1.6850 H     1 <1>   0.0800 
 43 H       -9.0540    -2.5170     1.8140 H     1 <1>   0.0800 
@<TRIPOS>BOND
  1   1   2  2   
  2   2   3  am  
  3   2   4  am  
  4   3   5  1   
  5   3  23  1   
  6   4   6  am  
  7   4  24  1   
  8   5   7  1   
  9   5   8  2   
 10   6   8  1   
 11   6   9  2   
 12   7  10  2   
 13   7  11  am  
 14   8  25  1   
 15  11  12  1   
 16  11  13  1   
 17  12  14  1   
 18  12  26  1   
 19  12  27  1   
 20  13  15  1   
 21  13  28  1   
 22  13  29  1   
 23  14  15  1   
 24  14  16  1   
 25  14  30  1   
 26  15  17  1   
 27  15  31  1   
 28  16  18  1   
 29  16  19  1   
 30  16  20  1   
 31  17  21  1   
 32  17  32  1   
 33  17  33  1   
 34  18  34  1   
 35  19  21  1   
 36  19  35  1   
 37  19  36  1   
 38  20  22  1   
 39  20  37  1   
 40  20  38  1   
 41  21  39  1   
 42  21  40  1   
 43  22  41  1   
 44  22  42  1   
 45  22  43  1   
@<TRIPOS>SUBSTRUCTURE
  1 ****  12 GROUP 4 **** **** 0

# MOE 2024.06 (io_trps.svl 2023.06)
