@<TRIPOS>MOLECULE
NONAME
54 57 1 0 0 
SMALL
USER_CHARGES


@<TRIPOS>ATOM
  1 O        1.1960    -0.8270     2.1190 O.2   1 <1>  -0.5700 
  2 C        0.6200    -1.8130     1.7260 C.2   1 <1>   0.9370 
  3 N        1.2930    -2.7510     0.9370 N.pl3 1 <1>  -0.5760 
  4 C       -0.7450    -2.0290     2.0410 C.2   1 <1>  -0.1360 
  5 C        0.6370    -3.8500     0.4910 C.cat 1 <1>   0.7390 
  6 C        2.6210    -2.5800     0.6140 C.2   1 <1>   0.1910 
  7 C       -1.3980    -3.1180     1.5850 C.2   1 <1>   0.2030 
  8 N       -0.6760    -4.0150     0.8090 N.pl3 1 <1>  -0.6450 
  9 C        1.3140    -4.7980    -0.2900 C.2   1 <1>  -0.1800 
 10 C        3.2900    -3.4950    -0.1470 C.2   1 <1>  -0.1500 
 11 C       -2.8850    -3.3850     1.9070 C.3   1 <1>   0.4810 
 12 C        2.6340    -4.6370    -0.6170 C.2   1 <1>  -0.1380 
 13 N       -3.7850    -3.2410     0.7110 N.4   1 <1>  -0.9590 
 14 C        3.3970    -5.6450    -1.4610 C.3   1 <1>  -0.1020 
 15 C       -5.1760    -3.7260     1.0260 C.3   1 <1>   0.3430 
 16 C       -3.8390    -1.8410     0.1800 C.3   1 <1>   0.3430 
 17 C       -6.0600    -3.7700    -0.2360 C.3   1 <1>   0.0000 
 18 C       -4.6610    -1.8140    -1.1080 C.3   1 <1>  -0.1600 
 19 C       -7.4610    -4.2750     0.1640 C.3   1 <1>   0.2000 
 20 C       -6.0770    -2.3700    -0.8940 C.3   1 <1>  -0.1600 
 21 C       -5.5740    -4.8690    -1.2010 C.3   1 <1>  -0.1600 
 22 O       -8.3510    -3.9720    -0.8650 O.3   1 <1>  -0.5600 
 23 C       -7.3150    -5.8000     0.2560 C.3   1 <1>  -0.1600 
 24 C       -6.1310    -6.1830    -0.6450 C.3   1 <1>  -0.1600 
 25 C       -9.6990    -3.9410    -0.5100 C.3   1 <1>   0.0400 
 26 H       -1.1990    -1.2740     2.6560 H     1 <1>   0.1500 
 27 H        3.1390    -1.7000     0.9740 H     1 <1>   0.1500 
 28 H       -1.0860    -4.9010     0.4890 H     1 <1>   0.4500 
 29 H        0.7840    -5.6660    -0.6350 H     1 <1>   0.1500 
 30 H        4.3300    -3.3470    -0.3910 H     1 <1>   0.1500 
 31 H       -3.2070    -2.6980     2.6730 H     1 <1>   0.0800 
 32 H       -2.9770    -4.3810     2.3090 H     1 <1>   0.0800 
 33 H       -3.4600    -3.8330    -0.0630 H     1 <1>   0.4500 
 34 H        3.7700    -5.1740    -2.3530 H     1 <1>   0.0800 
 35 H        2.7680    -6.4690    -1.7510 H     1 <1>   0.0800 
 36 H        4.2310    -6.0360    -0.9060 H     1 <1>   0.0800 
 37 H       -5.1350    -4.7160     1.4520 H     1 <1>   0.0800 
 38 H       -5.6360    -3.0710     1.7490 H     1 <1>   0.0800 
 39 H       -4.2970    -1.1870     0.9060 H     1 <1>   0.0800 
 40 H       -2.8470    -1.4760    -0.0310 H     1 <1>   0.0800 
 41 H       -4.7350    -0.7980    -1.4560 H     1 <1>   0.0800 
 42 H       -4.1570    -2.3740    -1.8770 H     1 <1>   0.0800 
 43 H       -7.8190    -3.8280     1.0780 H     1 <1>   0.0800 
 44 H       -6.5890    -2.4090    -1.8420 H     1 <1>   0.0800 
 45 H       -6.6330    -1.6930    -0.2670 H     1 <1>   0.0800 
 46 H       -6.0260    -4.7050    -2.1670 H     1 <1>   0.0800 
 47 H       -4.5100    -4.9090    -1.3390 H     1 <1>   0.0800 
 48 H       -7.0990    -6.0830     1.2700 H     1 <1>   0.0800 
 49 H       -8.2140    -6.3080    -0.0480 H     1 <1>   0.0800 
 50 H       -5.3870    -6.7120    -0.0750 H     1 <1>   0.0800 
 51 H       -6.4600    -6.8180    -1.4520 H     1 <1>   0.0800 
 52 H      -10.2710    -3.7230    -1.3940 H     1 <1>   0.0800 
 53 H       -9.8580    -3.1670     0.2210 H     1 <1>   0.0800 
 54 H       -9.9960    -4.8980    -0.1180 H     1 <1>   0.0800 
@<TRIPOS>BOND
  1   1   2  2   
  2   2   3  1   
  3   2   4  1   
  4   3   5  ar  
  5   3   6  1   
  6   4   7  2   
  7   4  26  1   
  8   5   8  ar  
  9   5   9  1   
 10   6  10  2   
 11   6  27  1   
 12   7   8  1   
 13   7  11  1   
 14   8  28  1   
 15   9  12  2   
 16   9  29  1   
 17  10  12  1   
 18  10  30  1   
 19  11  13  1   
 20  11  31  1   
 21  11  32  1   
 22  12  14  1   
 23  13  15  1   
 24  13  16  1   
 25  13  33  1   
 26  14  34  1   
 27  14  35  1   
 28  14  36  1   
 29  15  17  1   
 30  15  37  1   
 31  15  38  1   
 32  16  18  1   
 33  16  39  1   
 34  16  40  1   
 35  17  19  1   
 36  17  20  1   
 37  17  21  1   
 38  18  20  1   
 39  18  41  1   
 40  18  42  1   
 41  19  22  1   
 42  19  23  1   
 43  19  43  1   
 44  20  44  1   
 45  20  45  1   
 46  21  24  1   
 47  21  46  1   
 48  21  47  1   
 49  22  25  1   
 50  23  24  1   
 51  23  48  1   
 52  23  49  1   
 53  24  50  1   
 54  24  51  1   
 55  25  52  1   
 56  25  53  1   
 57  25  54  1   
@<TRIPOS>SUBSTRUCTURE
  1 ****  13 GROUP 4 **** **** 0

# MOE 2024.06 (io_trps.svl 2023.06)
