@<TRIPOS>MOLECULE
NONAME
50 53 1 0 0 
SMALL
USER_CHARGES


@<TRIPOS>ATOM
  1 F        0.0920    -1.1990    -1.5650 F     1 <1>  -0.1900 
  2 C        1.3070    -1.6050    -1.3110 C.ar  1 <1>   0.1900 
  3 C        1.5090    -2.6660    -0.4270 C.ar  1 <1>   0.0530 
  4 C        2.3380    -0.9570    -1.9640 C.ar  1 <1>  -0.1500 
  5 C        0.4310    -3.3380     0.2590 C.2   1 <1>   0.4250 
  6 C        2.8340    -3.0650    -0.2370 C.ar  1 <1>  -0.1500 
  7 C        3.6390    -1.3740    -1.7460 C.ar  1 <1>  -0.1500 
  8 O       -0.6070    -2.6590     0.7130 O.3   1 <1>  -0.2800 
  9 N        0.3460    -4.6090     0.5190 N.2   1 <1>  -0.5650 
 10 C        3.8820    -2.4300    -0.8830 C.ar  1 <1>  -0.1500 
 11 C       -1.4020    -3.5160     1.2810 C.2   1 <1>  -0.0400 
 12 C       -0.8300    -4.7230     1.1710 C.2   1 <1>   0.0460 
 13 C       -2.6980    -3.0120     1.8860 C.3   1 <1>  -0.0600 
 14 C       -1.3260    -6.0840     1.6270 C.3   1 <1>   0.5240 
 15 N       -1.1400    -7.0360     0.4970 N.4   1 <1>  -0.9590 
 16 C       -2.1080    -6.7420    -0.6030 C.3   1 <1>   0.3430 
 17 C       -1.3510    -8.4510     0.9210 C.3   1 <1>   0.3430 
 18 C       -3.1760    -7.8350    -0.5050 C.3   1 <1>   0.2000 
 19 C       -2.3780    -9.0540    -0.0500 C.3   1 <1>  -0.0800 
 20 O       -4.0580    -7.4900     0.5150 O.3   1 <1>  -0.6800 
 21 C       -1.7240    -9.7790    -1.2460 C.3   1 <1>   0.0200 
 22 C       -0.8390   -10.9220    -0.7920 C.2   1 <1>  -0.0400 
 23 O        0.3390   -10.6700    -0.2880 O.3   1 <1>  -0.0190 
 24 C       -1.0080   -12.2530    -0.7960 C.2   1 <1>  -0.1500 
 25 N        0.9580   -11.7550     0.0640 N.2   1 <1>  -0.4100 
 26 C        0.1750   -12.7280    -0.2360 C.2   1 <1>   0.1080 
 27 C        0.5030   -14.1870    -0.0070 C.3   1 <1>  -0.0590 
 28 H        2.1230    -0.1420    -2.6330 H     1 <1>   0.1500 
 29 H        3.0440    -3.8830     0.4300 H     1 <1>   0.1500 
 30 H        4.4570    -0.8820    -2.2450 H     1 <1>   0.1500 
 31 H        4.8950    -2.7570    -0.7150 H     1 <1>   0.1500 
 32 H       -3.2660    -3.8190     2.3110 H     1 <1>   0.0800 
 33 H       -3.2890    -2.5300     1.1280 H     1 <1>   0.0800 
 34 H       -2.4820    -2.2940     2.6570 H     1 <1>   0.0800 
 35 H       -2.3640    -6.0340     1.9140 H     1 <1>   0.0800 
 36 H       -0.7400    -6.4000     2.4730 H     1 <1>   0.0800 
 37 H       -0.1780    -6.8570     0.1630 H     1 <1>   0.4500 
 38 H       -2.5440    -5.7600    -0.5200 H     1 <1>   0.0800 
 39 H       -1.6040    -6.8210    -1.5520 H     1 <1>   0.0800 
 40 H       -0.4240    -8.9970     0.9340 H     1 <1>   0.0800 
 41 H       -1.7700    -8.4710     1.9150 H     1 <1>   0.0800 
 42 H       -3.7290    -7.9700    -1.4200 H     1 <1>   0.0800 
 43 H       -3.0040    -9.7620     0.4670 H     1 <1>   0.0800 
 44 H       -4.8600    -8.0570     0.4980 H     1 <1>   0.4000 
 45 H       -1.1290    -9.1050    -1.8380 H     1 <1>   0.0800 
 46 H       -2.4950   -10.1790    -1.8820 H     1 <1>   0.0800 
 47 H       -1.8350   -12.8500    -1.1350 H     1 <1>   0.1500 
 48 H       -0.2310   -14.6320     0.6390 H     1 <1>   0.0800 
 49 H        1.4720   -14.2780     0.4520 H     1 <1>   0.0800 
 50 H        0.5140   -14.7100    -0.9450 H     1 <1>   0.0800 
@<TRIPOS>BOND
  1   1   2  1   
  2   2   3  ar  
  3   2   4  ar  
  4   3   5  1   
  5   3   6  ar  
  6   4   7  ar  
  7   4  28  1   
  8   5   8  1   
  9   5   9  2   
 10   6  10  ar  
 11   6  29  1   
 12   7  10  ar  
 13   7  30  1   
 14   8  11  1   
 15   9  12  1   
 16  10  31  1   
 17  11  12  2   
 18  11  13  1   
 19  12  14  1   
 20  13  32  1   
 21  13  33  1   
 22  13  34  1   
 23  14  15  1   
 24  14  35  1   
 25  14  36  1   
 26  15  16  1   
 27  15  17  1   
 28  15  37  1   
 29  16  18  1   
 30  16  38  1   
 31  16  39  1   
 32  17  19  1   
 33  17  40  1   
 34  17  41  1   
 35  18  19  1   
 36  18  20  1   
 37  18  42  1   
 38  19  21  1   
 39  19  43  1   
 40  20  44  1   
 41  21  22  1   
 42  21  45  1   
 43  21  46  1   
 44  22  23  1   
 45  22  24  2   
 46  23  25  1   
 47  24  26  1   
 48  24  47  1   
 49  25  26  2   
 50  26  27  1   
 51  27  48  1   
 52  27  49  1   
 53  27  50  1   
@<TRIPOS>SUBSTRUCTURE
  1 ****  15 GROUP 4 **** **** 0

# MOE 2024.06 (io_trps.svl 2023.06)
