@<TRIPOS>MOLECULE
NONAME
61 65 1 0 0 
SMALL
USER_CHARGES


@<TRIPOS>ATOM
  1 O       -1.2180    -0.1680     0.1470 O.2   1 <1>  -0.5700 
  2 C       -1.9760     0.7420    -0.1280 C.2   1 <1>   0.5440 
  3 N       -3.0820     0.4500    -0.9040 N.am  1 <1>  -0.6600 
  4 C       -1.7290     2.0750     0.3930 C.ar  1 <1>   0.0860 
  5 C       -3.1180    -0.7760    -1.7350 C.3   1 <1>   0.1400 
  6 C       -4.3990     1.0860    -0.6770 C.3   1 <1>   0.1400 
  7 C       -1.9140     3.2140    -0.3930 C.ar  1 <1>  -0.1500 
  8 C       -1.2950     2.2630     1.7050 C.ar  1 <1>  -0.1500 
  9 C       -3.9680    -1.8190    -1.0110 C.3   1 <1>  -0.1600 
 10 C       -5.2850     0.0780     0.0590 C.3   1 <1>  -0.1600 
 11 C       -1.6970     4.4830     0.1140 C.ar  1 <1>  -0.1500 
 12 C       -1.0760     3.5280     2.2180 C.ar  1 <1>  -0.1500 
 13 C       -5.3580    -1.2610    -0.6850 C.3   1 <1>   0.4230 
 14 C       -1.2800     4.6420     1.4240 C.ar  1 <1>  -0.1500 
 15 N       -6.1180    -2.2040     0.1660 N.4   1 <1>  -0.9060 
 16 C       -6.4700    -3.5230    -0.4310 C.3   1 <1>   0.4230 
 17 C       -7.7820    -3.9930     0.1910 C.3   1 <1>  -0.0800 
 18 C       -5.5130    -4.5780     0.1170 C.3   1 <1>   0.1200 
 19 C       -7.3220    -4.6920     1.4840 C.3   1 <1>   0.1200 
 20 C       -8.5490    -4.9560    -0.7410 C.3   1 <1>  -0.0170 
 21 O       -5.9260    -4.7160     1.4330 O.3   1 <1>  -0.5600 
 22 C       -9.8790    -5.3660    -0.1180 C.ar  1 <1>  -0.1440 
 23 C      -11.0020    -4.5030    -0.0860 C.ar  1 <1>   0.0000 
 24 C      -10.0170    -6.6000     0.4480 C.ar  1 <1>  -0.1500 
 25 C      -12.1660    -4.9640     0.5760 C.ar  1 <1>   0.3100 
 26 C      -11.0450    -3.2160    -0.6750 C.ar  1 <1>  -0.1500 
 27 C      -11.2220    -6.9650     1.0610 C.ar  1 <1>   0.1600 
 28 N      -12.2570    -6.1930     1.1410 N.ar  1 <1>  -0.6200 
 29 C      -13.2850    -4.1210     0.6540 C.ar  1 <1>  -0.1500 
 30 C      -12.1550    -2.4210    -0.5860 C.ar  1 <1>  -0.1500 
 31 C      -13.2890    -2.8740     0.0910 C.ar  1 <1>  -0.1500 
 32 H       -3.5350    -0.5410    -2.7000 H     1 <1>   0.0800 
 33 H       -2.1190    -1.1530    -1.8900 H     1 <1>   0.0800 
 34 H       -4.2980     1.9780    -0.0830 H     1 <1>   0.0800 
 35 H       -4.8320     1.3600    -1.6250 H     1 <1>   0.0800 
 36 H       -2.2250     3.1000    -1.4160 H     1 <1>   0.1500 
 37 H       -1.1250     1.3990     2.3240 H     1 <1>   0.1500 
 38 H       -3.4490    -2.0940    -0.1080 H     1 <1>   0.0800 
 39 H       -4.0420    -2.6820    -1.6470 H     1 <1>   0.0800 
 40 H       -6.2690     0.5000     0.1600 H     1 <1>   0.0800 
 41 H       -4.8720    -0.0660     1.0430 H     1 <1>   0.0800 
 42 H       -1.8470     5.3480    -0.5090 H     1 <1>   0.1500 
 43 H       -0.7430     3.6470     3.2350 H     1 <1>   0.1500 
 44 H       -5.8890    -1.1020    -1.6110 H     1 <1>   0.0800 
 45 H       -1.1100     5.6280     1.8220 H     1 <1>   0.1500 
 46 H       -6.9710    -1.7450     0.4950 H     1 <1>   0.4500 
 47 H       -5.5750    -2.4180     1.0170 H     1 <1>   0.4500 
 48 H       -6.5000    -3.4840    -1.5080 H     1 <1>   0.0800 
 49 H       -8.4280    -3.1670     0.4270 H     1 <1>   0.0800 
 50 H       -4.4770    -4.2930     0.0920 H     1 <1>   0.0800 
 51 H       -5.6390    -5.5270    -0.3790 H     1 <1>   0.0800 
 52 H       -7.6730    -5.7070     1.5590 H     1 <1>   0.0800 
 53 H       -7.6190    -4.1500     2.3670 H     1 <1>   0.0800 
 54 H       -7.9600    -5.8380    -0.9290 H     1 <1>   0.0800 
 55 H       -8.7340    -4.4970    -1.6970 H     1 <1>   0.0800 
 56 H       -9.2200    -7.3210     0.4500 H     1 <1>   0.1500 
 57 H      -10.1950    -2.8490    -1.2150 H     1 <1>   0.1500 
 58 H      -11.2900    -7.9480     1.4960 H     1 <1>   0.1500 
 59 H      -14.1480    -4.4930     1.1740 H     1 <1>   0.1500 
 60 H      -12.1790    -1.4430    -1.0370 H     1 <1>   0.1500 
 61 H      -14.1560    -2.2400     0.1580 H     1 <1>   0.1500 
@<TRIPOS>BOND
  1   1   2  2   
  2   2   3  am  
  3   2   4  1   
  4   3   5  1   
  5   3   6  1   
  6   4   7  ar  
  7   4   8  ar  
  8   5   9  1   
  9   5  32  1   
 10   5  33  1   
 11   6  10  1   
 12   6  34  1   
 13   6  35  1   
 14   7  11  ar  
 15   7  36  1   
 16   8  12  ar  
 17   8  37  1   
 18   9  13  1   
 19   9  38  1   
 20   9  39  1   
 21  10  13  1   
 22  10  40  1   
 23  10  41  1   
 24  11  14  ar  
 25  11  42  1   
 26  12  14  ar  
 27  12  43  1   
 28  13  15  1   
 29  13  44  1   
 30  14  45  1   
 31  15  16  1   
 32  15  46  1   
 33  15  47  1   
 34  16  17  1   
 35  16  18  1   
 36  16  48  1   
 37  17  19  1   
 38  17  20  1   
 39  17  49  1   
 40  18  21  1   
 41  18  50  1   
 42  18  51  1   
 43  19  21  1   
 44  19  52  1   
 45  19  53  1   
 46  20  22  1   
 47  20  54  1   
 48  20  55  1   
 49  22  23  ar  
 50  22  24  ar  
 51  23  25  ar  
 52  23  26  ar  
 53  24  27  ar  
 54  24  56  1   
 55  25  28  ar  
 56  25  29  ar  
 57  26  30  ar  
 58  26  57  1   
 59  27  28  ar  
 60  27  58  1   
 61  29  31  ar  
 62  29  59  1   
 63  30  31  ar  
 64  30  60  1   
 65  31  61  1   
@<TRIPOS>SUBSTRUCTURE
  1 ****  15 GROUP 4 **** **** 0

# MOE 2024.06 (io_trps.svl 2023.06)
