@<TRIPOS>MOLECULE
NONAME
55 58 1 0 0 
SMALL
USER_CHARGES


@<TRIPOS>ATOM
  1 O       -0.6350    -0.5270    -0.2410 O.3   1 <1>  -0.5600 
  2 C       -1.7590    -1.3590    -0.2680 C.3   1 <1>   0.1200 
  3 C        0.4870    -1.1060     0.3520 C.3   1 <1>   0.1200 
  4 C       -1.4650    -2.6390    -1.0690 C.3   1 <1>   0.2090 
  5 C        0.9150    -2.3680    -0.4230 C.3   1 <1>   0.2090 
  6 N       -0.2280    -3.3400    -0.5560 N.pl3 1 <1>  -0.8380 
  7 C       -0.2280    -4.6700    -0.2640 C.ar  1 <1>   0.7710 
  8 N       -1.3640    -5.3490    -0.3200 N.ar  1 <1>  -0.6200 
  9 N        0.9290    -5.2680     0.0680 N.ar  1 <1>  -0.1790 
 10 C       -1.3490    -6.6360    -0.0330 C.ar  1 <1>   0.4100 
 11 C        1.0000    -6.5850     0.3730 C.ar  1 <1>   0.2180 
 12 N       -2.5280    -7.3060    -0.1000 N.pl3 1 <1>  -0.8380 
 13 C       -0.1550    -7.2900     0.3270 C.ar  1 <1>  -0.1500 
 14 C        2.3480    -7.1910     0.7430 C.3   1 <1>  -0.0170 
 15 C       -3.8190    -6.6750    -0.5140 C.3   1 <1>   0.2090 
 16 C       -2.7430    -8.7660     0.1140 C.3   1 <1>   0.2090 
 17 C        3.3550    -7.1140    -0.4130 C.3   1 <1>  -0.2400 
 18 C       -4.8950    -7.6800    -0.1060 C.3   1 <1>   0.2000 
 19 C       -4.1980    -9.0310    -0.2890 C.3   1 <1>  -0.0800 
 20 O       -5.1820    -7.4840     1.2380 O.3   1 <1>  -0.6800 
 21 C       -4.8450   -10.2190     0.4480 C.3   1 <1>  -0.0170 
 22 C       -4.0310   -11.4900     0.2510 C.ar  1 <1>  -0.1430 
 23 C       -3.9940   -12.1530    -0.9590 C.ar  1 <1>  -0.1500 
 24 C       -3.2860   -12.0450     1.2720 C.ar  1 <1>  -0.1500 
 25 C       -3.2270   -13.2980    -1.0900 C.ar  1 <1>   0.1600 
 26 C       -2.5530   -13.1960     1.0370 C.ar  1 <1>   0.1600 
 27 N       -2.5010   -13.8330    -0.1210 N.ar  1 <1>  -0.6200 
 28 H       -2.0390    -1.5980     0.7440 H     1 <1>   0.0800 
 29 H       -2.5620    -0.8100    -0.7270 H     1 <1>   0.0800 
 30 H        1.2760    -0.3740     0.3370 H     1 <1>   0.0800 
 31 H        0.2530    -1.3410     1.3750 H     1 <1>   0.0800 
 32 H       -1.3170    -2.3710    -2.1020 H     1 <1>   0.0800 
 33 H       -2.3360    -3.2690    -1.0260 H     1 <1>   0.0800 
 34 H        1.7520    -2.8060     0.0870 H     1 <1>   0.0800 
 35 H        1.2420    -2.0680    -1.4050 H     1 <1>   0.0800 
 36 H        1.7530    -4.6850     0.0480 H     1 <1>   0.4570 
 37 H       -0.1820    -8.3380     0.5570 H     1 <1>   0.1500 
 38 H        2.7480    -6.6890     1.6070 H     1 <1>   0.0800 
 39 H        2.2120    -8.2260     1.0110 H     1 <1>   0.0800 
 40 H       -3.9720    -5.7180    -0.0430 H     1 <1>   0.0800 
 41 H       -3.8190    -6.5500    -1.5830 H     1 <1>   0.0800 
 42 H       -2.0700    -9.3540    -0.4880 H     1 <1>   0.0800 
 43 H       -2.5950    -8.9980     1.1550 H     1 <1>   0.0800 
 44 H        3.5890    -6.0970    -0.6700 H     1 <1>   0.0800 
 45 H        2.9670    -7.6140    -1.2840 H     1 <1>   0.0800 
 46 H        4.2720    -7.6050    -0.1290 H     1 <1>   0.0800 
 47 H       -5.8050    -7.5840    -0.6710 H     1 <1>   0.0800 
 48 H       -4.1970    -9.2520    -1.3410 H     1 <1>   0.0800 
 49 H       -4.3420    -7.3230     1.7130 H     1 <1>   0.4000 
 50 H       -5.8420   -10.3720     0.0750 H     1 <1>   0.0800 
 51 H       -4.9260   -10.0100     1.5010 H     1 <1>   0.0800 
 52 H       -4.5550   -11.7920    -1.8020 H     1 <1>   0.1500 
 53 H       -3.2690   -11.5980     2.2490 H     1 <1>   0.1500 
 54 H       -3.2090   -13.8020    -2.0410 H     1 <1>   0.1500 
 55 H       -1.9780   -13.6170     1.8450 H     1 <1>   0.1500 
@<TRIPOS>BOND
  1   1   2  1   
  2   1   3  1   
  3   2   4  1   
  4   2  28  1   
  5   2  29  1   
  6   3   5  1   
  7   3  30  1   
  8   3  31  1   
  9   4   6  1   
 10   4  32  1   
 11   4  33  1   
 12   5   6  1   
 13   5  34  1   
 14   5  35  1   
 15   6   7  1   
 16   7   8  ar  
 17   7   9  ar  
 18   8  10  ar  
 19   9  11  ar  
 20   9  36  1   
 21  10  12  1   
 22  10  13  ar  
 23  11  13  ar  
 24  11  14  1   
 25  12  15  1   
 26  12  16  1   
 27  13  37  1   
 28  14  17  1   
 29  14  38  1   
 30  14  39  1   
 31  15  18  1   
 32  15  40  1   
 33  15  41  1   
 34  16  19  1   
 35  16  42  1   
 36  16  43  1   
 37  17  44  1   
 38  17  45  1   
 39  17  46  1   
 40  18  19  1   
 41  18  20  1   
 42  18  47  1   
 43  19  21  1   
 44  19  48  1   
 45  20  49  1   
 46  21  22  1   
 47  21  50  1   
 48  21  51  1   
 49  22  23  ar  
 50  22  24  ar  
 51  23  25  ar  
 52  23  52  1   
 53  24  26  ar  
 54  24  53  1   
 55  25  27  ar  
 56  25  54  1   
 57  26  27  ar  
 58  26  55  1   
@<TRIPOS>SUBSTRUCTURE
  1 ****  10 GROUP 4 **** **** 0

# MOE 2024.06 (io_trps.svl 2023.06)
