@<TRIPOS>MOLECULE
NONAME
40 41 1 0 0 
SMALL
USER_CHARGES


@<TRIPOS>ATOM
  1 O        0.7420    -0.8410     1.8460 O.co2 1 <1>  -0.9000 
  2 C        1.7710    -0.9240     1.1640 C.2   1 <1>   0.9060 
  3 O        2.4420    -1.9660     1.1640 O.co2 1 <1>  -0.9000 
  4 C        2.2460     0.3150     0.3650 C.3   1 <1>  -0.1060 
  5 C        3.5100    -0.1310    -0.4410 C.3   1 <1>   0.2000 
  6 C        2.6170     1.4010     1.4270 C.3   1 <1>  -0.1600 
  7 C        1.0710     0.7780    -0.5630 C.3   1 <1>  -0.1600 
  8 O        3.7810     0.6980    -1.5250 O.3   1 <1>  -0.6800 
  9 C        4.7550    -0.0590     0.4590 C.3   1 <1>   0.2090 
 10 C        3.8430     2.2480     1.0690 C.3   1 <1>   0.2090 
 11 C        1.1140     2.2100    -1.1400 C.3   1 <1>  -0.1600 
 12 N        5.0440     1.3810     0.8260 N.pl3 1 <1>  -0.8380 
 13 C       -0.1150     2.4780    -2.0140 C.3   1 <1>  -0.2400 
 14 C        6.2500     1.9630     0.4560 C.ar  1 <1>   0.4100 
 15 N        6.2220     3.1710    -0.1250 N.ar  1 <1>  -0.3100 
 16 C        7.4430     1.3020     0.6860 C.ar  1 <1>  -0.1500 
 17 N        7.3340     3.7580    -0.5030 N.ar  1 <1>  -0.3100 
 18 C        8.6080     1.9130     0.2910 C.ar  1 <1>  -0.1500 
 19 C        8.4960     3.1500    -0.3050 C.ar  1 <1>   0.1670 
 20 C        9.7310     3.8940    -0.7720 C.3   1 <1>  -0.0970 
 21 H        3.3770    -1.1230    -0.8380 H     1 <1>   0.0800 
 22 H        2.8430     0.9180     2.3630 H     1 <1>   0.0800 
 23 H        1.7700     2.0310     1.6270 H     1 <1>   0.0800 
 24 H        0.9920     0.0740    -1.3730 H     1 <1>   0.0800 
 25 H        0.1550     0.7000    -0.0030 H     1 <1>   0.0800 
 26 H        4.2770     1.4620    -1.1530 H     1 <1>   0.4000 
 27 H        5.5850    -0.4940    -0.0670 H     1 <1>   0.0800 
 28 H        4.5930    -0.6350     1.3540 H     1 <1>   0.0800 
 29 H        4.0600     2.9280     1.8750 H     1 <1>   0.0800 
 30 H        3.6300     2.8300     0.1890 H     1 <1>   0.0800 
 31 H        1.1290     2.9320    -0.3450 H     1 <1>   0.0800 
 32 H        1.9920     2.3580    -1.7390 H     1 <1>   0.0800 
 33 H       -1.0160     2.3660    -1.4360 H     1 <1>   0.0800 
 34 H       -0.1430     1.7850    -2.8370 H     1 <1>   0.0800 
 35 H       -0.0780     3.4780    -2.4060 H     1 <1>   0.0800 
 36 H        7.4440     0.3430     1.1670 H     1 <1>   0.1500 
 37 H        9.5610     1.4420     0.4440 H     1 <1>   0.1500 
 38 H       10.6230     3.3290    -0.5730 H     1 <1>   0.0800 
 39 H        9.7960     4.8380    -0.2630 H     1 <1>   0.0800 
 40 H        9.6620     4.0750    -1.8300 H     1 <1>   0.0800 
@<TRIPOS>BOND
  1   1   2  ar  
  2   2   3  ar  
  3   2   4  1   
  4   4   5  1   
  5   4   6  1   
  6   4   7  1   
  7   5   8  1   
  8   5   9  1   
  9   5  21  1   
 10   6  10  1   
 11   6  22  1   
 12   6  23  1   
 13   7  11  1   
 14   7  24  1   
 15   7  25  1   
 16   8  26  1   
 17   9  12  1   
 18   9  27  1   
 19   9  28  1   
 20  10  12  1   
 21  10  29  1   
 22  10  30  1   
 23  11  13  1   
 24  11  31  1   
 25  11  32  1   
 26  12  14  1   
 27  13  33  1   
 28  13  34  1   
 29  13  35  1   
 30  14  15  ar  
 31  14  16  ar  
 32  15  17  ar  
 33  16  18  ar  
 34  16  36  1   
 35  17  19  ar  
 36  18  19  ar  
 37  18  37  1   
 38  19  20  1   
 39  20  38  1   
 40  20  39  1   
 41  20  40  1   
@<TRIPOS>SUBSTRUCTURE
  1 ****  12 GROUP 4 **** **** 0

# MOE 2024.06 (io_trps.svl 2023.06)
