@<TRIPOS>MOLECULE
NONAME
48 50 1 0 0 
SMALL
USER_CHARGES


@<TRIPOS>ATOM
  1 N       -1.0380    -3.9300     3.3740 N.2   1 <1>   0.0000 
  2 N       -1.2570    -4.7870     2.4420 N.2   1 <1>  -0.4180 
  3 N       -0.7870    -2.7310     2.8600 N.2   1 <1>  -0.3380 
  4 N       -1.1470    -4.1360     1.3070 N.pl3 1 <1>   0.3140 
  5 C       -0.8570    -2.8820     1.5950 C.2   1 <1>   0.0360 
  6 C       -1.3480    -4.7800    -0.0080 C.3   1 <1>   0.0960 
  7 C       -2.7450    -5.4250    -0.0900 C.3   1 <1>  -0.1600 
  8 C       -2.9480    -6.1750    -1.4070 C.3   1 <1>   0.3430 
  9 N       -4.2220    -6.9450    -1.3710 N.4   1 <1>  -0.9590 
 10 C       -4.2790    -7.9500    -2.4710 C.3   1 <1>   0.4860 
 11 C       -5.4470    -6.0780    -1.3780 C.3   1 <1>   0.2630 
 12 C       -5.4090    -8.9160    -2.1790 C.ar  1 <1>  -0.1430 
 13 C       -5.3030    -9.7990    -1.1160 C.ar  1 <1>  -0.1500 
 14 C       -6.5500    -8.9340    -2.9680 C.ar  1 <1>  -0.1500 
 15 C       -6.3230   -10.6980    -0.8180 C.ar  1 <1>  -0.0230 
 16 C       -7.5670    -9.8300    -2.6920 C.ar  1 <1>  -0.1500 
 17 N       -6.1750   -11.5880     0.2880 N.pl3 1 <1>   0.5930 
 18 C       -7.4530   -10.7080    -1.6300 C.ar  1 <1>  -0.1500 
 19 N       -4.9990   -12.2220     0.5260 N.2   1 <1>  -0.7070 
 20 C       -7.0530   -11.8530     1.2980 C.2   1 <1>  -0.3320 
 21 C       -5.1670   -12.8740     1.6280 C.2   1 <1>   0.1080 
 22 C       -6.4330   -12.6820     2.1630 C.2   1 <1>  -0.1500 
 23 C       -8.4620   -11.2910     1.4240 C.3   1 <1>  -0.0600 
 24 C       -4.0840   -13.7330     2.2380 C.3   1 <1>  -0.0590 
 25 H       -0.7050    -2.1090     0.8660 H     1 <1>   0.1500 
 26 H       -0.5830    -5.5270    -0.1240 H     1 <1>   0.0800 
 27 H       -1.2260    -4.0380    -0.7760 H     1 <1>   0.0800 
 28 H       -3.4850    -4.6520     0.0140 H     1 <1>   0.0800 
 29 H       -2.8490    -6.1230     0.7240 H     1 <1>   0.0800 
 30 H       -2.1240    -6.8580    -1.5470 H     1 <1>   0.0800 
 31 H       -2.9550    -5.4820    -2.2340 H     1 <1>   0.0800 
 32 H       -4.2470    -7.4990    -0.5020 H     1 <1>   0.4500 
 33 H       -3.3540    -8.5020    -2.5210 H     1 <1>   0.0800 
 34 H       -4.4400    -7.4630    -3.4200 H     1 <1>   0.0800 
 35 H       -5.4850    -5.4860    -2.2780 H     1 <1>   0.0800 
 36 H       -5.4480    -5.4170    -0.5270 H     1 <1>   0.0800 
 37 H       -6.3360    -6.6870    -1.3300 H     1 <1>   0.0800 
 38 H       -4.4190    -9.8210    -0.5000 H     1 <1>   0.1500 
 39 H       -6.6600    -8.2660    -3.8060 H     1 <1>   0.1500 
 40 H       -8.4490    -9.8520    -3.3100 H     1 <1>   0.1500 
 41 H       -8.2430   -11.4140    -1.4420 H     1 <1>   0.1500 
 42 H       -6.8050   -13.1110     3.0770 H     1 <1>   0.1500 
 43 H       -8.4530   -10.2230     1.2990 H     1 <1>   0.0800 
 44 H       -8.8620   -11.5150     2.3970 H     1 <1>   0.0800 
 45 H       -9.1100   -11.7290     0.6870 H     1 <1>   0.0800 
 46 H       -3.7970   -14.4970     1.5390 H     1 <1>   0.0800 
 47 H       -4.4350   -14.1960     3.1420 H     1 <1>   0.0800 
 48 H       -3.2270   -13.1260     2.4630 H     1 <1>   0.0800 
@<TRIPOS>BOND
  1   1   2  2   
  2   1   3  1   
  3   2   4  1   
  4   3   5  2   
  5   4   5  1   
  6   4   6  1   
  7   5  25  1   
  8   6   7  1   
  9   6  26  1   
 10   6  27  1   
 11   7   8  1   
 12   7  28  1   
 13   7  29  1   
 14   8   9  1   
 15   8  30  1   
 16   8  31  1   
 17   9  10  1   
 18   9  11  1   
 19   9  32  1   
 20  10  12  1   
 21  10  33  1   
 22  10  34  1   
 23  11  35  1   
 24  11  36  1   
 25  11  37  1   
 26  12  13  ar  
 27  12  14  ar  
 28  13  15  ar  
 29  13  38  1   
 30  14  16  ar  
 31  14  39  1   
 32  15  17  1   
 33  15  18  ar  
 34  16  18  ar  
 35  16  40  1   
 36  17  19  1   
 37  17  20  1   
 38  18  41  1   
 39  19  21  2   
 40  20  22  2   
 41  20  23  1   
 42  21  22  1   
 43  21  24  1   
 44  22  42  1   
 45  23  43  1   
 46  23  44  1   
 47  23  45  1   
 48  24  46  1   
 49  24  47  1   
 50  24  48  1   
@<TRIPOS>SUBSTRUCTURE
  1 ****  13 GROUP 4 **** **** 0

# MOE 2024.06 (io_trps.svl 2023.06)
