@<TRIPOS>MOLECULE
NONAME
46 48 1 0 0 
SMALL
USER_CHARGES


@<TRIPOS>ATOM
  1 O        1.1780     0.0340    -2.3350 O.2   1 <1>  -0.5700 
  2 C        1.6380    -0.5010    -1.3540 C.2   1 <1>   0.5690 
  3 N        2.2680     0.1700    -0.3440 N.am  1 <1>  -0.4940 
  4 C        1.4870    -2.0250    -1.1910 C.3   1 <1>   0.3950 
  5 C        2.5850     1.5240    -0.2090 C.2   1 <1>   0.2040 
  6 N        1.1500    -2.4370     0.2150 N.3   1 <1>  -0.8100 
  7 C        2.7790    -2.6940    -1.6640 C.ar  1 <1>  -0.1430 
  8 O        2.3160     2.4060    -1.1420 O.3   1 <1>  -0.0190 
  9 C        3.1870     2.1730     0.8060 C.2   1 <1>  -0.1810 
 10 C        1.0370    -3.9140     0.3340 C.3   1 <1>   0.1100 
 11 C       -0.1430    -1.8410     0.6420 C.3   1 <1>   0.1100 
 12 C        2.8390    -3.2260    -2.9440 C.ar  1 <1>   0.1600 
 13 C        3.9030    -2.7790    -0.8610 C.ar  1 <1>  -0.1500 
 14 N        2.7100     3.6080    -0.8020 N.2   1 <1>  -0.4100 
 15 C        3.2380     3.4930     0.3630 C.2   1 <1>   0.1080 
 16 C        3.7010     1.6200     2.1250 C.3   1 <1>   0.0210 
 17 C        0.5980    -4.3330     1.7480 C.3   1 <1>   0.1200 
 18 C       -0.5470    -2.3190     2.0480 C.3   1 <1>   0.1200 
 19 N        3.8930    -3.8330    -3.4670 N.ar  1 <1>  -0.6200 
 20 C        5.0120    -3.4000    -1.3930 C.ar  1 <1>  -0.1500 
 21 C        3.8250     4.6630     1.1230 C.3   1 <1>  -0.0590 
 22 C        5.1810     1.2510     2.0110 C.3   1 <1>  -0.2400 
 23 O       -0.6070    -3.7130     2.0880 O.3   1 <1>  -0.5600 
 24 C        4.9540    -3.9030    -2.6810 C.ar  1 <1>   0.1600 
 25 H        2.5110    -0.4300     0.4440 H     1 <1>   0.3700 
 26 H        0.6830    -2.3350    -1.8360 H     1 <1>   0.0800 
 27 H        1.9840    -4.3790     0.1260 H     1 <1>   0.0800 
 28 H        0.3200    -4.2900    -0.3760 H     1 <1>   0.0800 
 29 H       -0.9230    -2.1130    -0.0500 H     1 <1>   0.0800 
 30 H       -0.0740    -0.7670     0.6570 H     1 <1>   0.0800 
 31 H        1.9740    -3.1500    -3.5810 H     1 <1>   0.1500 
 32 H        3.9150    -2.3840     0.1400 H     1 <1>   0.1500 
 33 H        3.1340     0.7450     2.3930 H     1 <1>   0.0800 
 34 H        3.5620     2.3490     2.9040 H     1 <1>   0.0800 
 35 H        1.3450    -4.0610     2.4730 H     1 <1>   0.0800 
 36 H        0.4440    -5.3960     1.7900 H     1 <1>   0.0800 
 37 H       -1.5210    -1.9420     2.3050 H     1 <1>   0.0800 
 38 H        0.1620    -1.9820     2.7830 H     1 <1>   0.0800 
 39 H        5.9150    -3.4960    -0.8180 H     1 <1>   0.1500 
 40 H        4.8600     4.4760     1.3400 H     1 <1>   0.0800 
 41 H        3.2880     4.8090     2.0410 H     1 <1>   0.0800 
 42 H        3.7520     5.5580     0.5320 H     1 <1>   0.0800 
 43 H        5.3230     0.5140     1.2410 H     1 <1>   0.0800 
 44 H        5.5370     0.8510     2.9440 H     1 <1>   0.0800 
 45 H        5.7640     2.1200     1.7640 H     1 <1>   0.0800 
 46 H        5.8260    -4.3870    -3.0870 H     1 <1>   0.1500 
@<TRIPOS>BOND
  1   1   2  2   
  2   2   3  am  
  3   2   4  1   
  4   3   5  1   
  5   3  25  1   
  6   4   6  1   
  7   4   7  1   
  8   4  26  1   
  9   5   8  1   
 10   5   9  2   
 11   6  10  1   
 12   6  11  1   
 13   7  12  ar  
 14   7  13  ar  
 15   8  14  1   
 16   9  15  1   
 17   9  16  1   
 18  10  17  1   
 19  10  27  1   
 20  10  28  1   
 21  11  18  1   
 22  11  29  1   
 23  11  30  1   
 24  12  19  ar  
 25  12  31  1   
 26  13  20  ar  
 27  13  32  1   
 28  14  15  2   
 29  15  21  1   
 30  16  22  1   
 31  16  33  1   
 32  16  34  1   
 33  17  23  1   
 34  17  35  1   
 35  17  36  1   
 36  18  23  1   
 37  18  37  1   
 38  18  38  1   
 39  19  24  ar  
 40  20  24  ar  
 41  20  39  1   
 42  21  40  1   
 43  21  41  1   
 44  21  42  1   
 45  22  43  1   
 46  22  44  1   
 47  22  45  1   
 48  24  46  1   
@<TRIPOS>SUBSTRUCTURE
  1 ****   3 GROUP 4 **** **** 0

# MOE 2024.06 (io_trps.svl 2023.06)
