@<TRIPOS>MOLECULE
NONAME
47 48 1 0 0 
SMALL
USER_CHARGES


@<TRIPOS>ATOM
  1 S       -0.1980    -0.0110     0.2160 S.o2  1 <1>   1.3330 
  2 O       -0.1620    -0.5830     1.5430 O.2   1 <1>  -0.6500 
  3 O       -0.9610     1.1930    -0.0210 O.2   1 <1>  -0.6500 
  4 N       -0.7480    -1.2110    -0.8520 N.am  1 <1>  -0.8490 
  5 C        1.4750     0.2840    -0.3620 C.3   1 <1>  -0.0550 
  6 C       -0.3780    -2.5700    -0.4420 C.3   1 <1>   0.1160 
  7 C       -2.1950    -1.1350    -1.0770 C.3   1 <1>   0.1160 
  8 C        2.1980     1.4190     0.3930 C.3   1 <1>  -0.0800 
  9 C        3.5110     1.7750    -0.2830 C.3   1 <1>   0.2200 
 10 C        2.6570     0.9830     1.7910 C.3   1 <1>   0.1200 
 11 N        3.8790     3.1630     0.0720 N.am  1 <1>  -0.7300 
 12 C        4.4770     0.8060     0.3850 C.3   1 <1>   0.1200 
 13 O        4.0090     0.6390     1.6890 O.3   1 <1>  -0.5600 
 14 C        3.9870     4.1840    -0.8110 C.2   1 <1>   0.5690 
 15 O        3.7930     4.0320    -1.9910 O.2   1 <1>  -0.5700 
 16 C        4.3740     5.5530    -0.3000 C.3   1 <1>  -0.0990 
 17 C        5.8510     5.8510    -0.5830 C.3   1 <1>  -0.0170 
 18 C        6.2280     7.2240    -0.0500 C.ar  1 <1>  -0.1440 
 19 C        6.7920     7.3540     1.2130 C.ar  1 <1>  -0.1500 
 20 C        6.0030     8.3530    -0.8290 C.ar  1 <1>  -0.1500 
 21 C        7.1320     8.6060     1.7000 C.ar  1 <1>  -0.1500 
 22 C        6.3400     9.6090    -0.3540 C.ar  1 <1>  -0.1500 
 23 C        6.8990     9.7110     0.9050 C.ar  1 <1>   0.1900 
 24 F        7.2180    10.8930     1.3600 F     1 <1>  -0.1900 
 25 H        2.0450    -0.6210    -0.2860 H     1 <1>   0.0800 
 26 H        1.4190     0.5490    -1.4000 H     1 <1>   0.0800 
 27 H       -0.6690    -3.2770    -1.2000 H     1 <1>   0.0800 
 28 H       -0.8640    -2.8300     0.4850 H     1 <1>   0.0800 
 29 H        0.6870    -2.6400    -0.3040 H     1 <1>   0.0800 
 30 H       -2.5070    -1.8980    -1.7680 H     1 <1>   0.0800 
 31 H       -2.4530    -0.1760    -1.4970 H     1 <1>   0.0800 
 32 H       -2.7260    -1.2580    -0.1470 H     1 <1>   0.0800 
 33 H        1.5430     2.2730     0.4420 H     1 <1>   0.0800 
 34 H        3.4890     1.6530    -1.3530 H     1 <1>   0.0800 
 35 H        2.1170     0.1370     2.1770 H     1 <1>   0.0800 
 36 H        2.5810     1.7980     2.4890 H     1 <1>   0.0800 
 37 H        4.0790     3.3050     1.0640 H     1 <1>   0.3700 
 38 H        5.4880     1.1740     0.4060 H     1 <1>   0.0800 
 39 H        4.4490    -0.1550    -0.0980 H     1 <1>   0.0800 
 40 H        3.7590     6.2850    -0.7910 H     1 <1>   0.0800 
 41 H        4.1850     5.6150     0.7560 H     1 <1>   0.0800 
 42 H        6.0280     5.8140    -1.6440 H     1 <1>   0.0800 
 43 H        6.4690     5.0990    -0.1240 H     1 <1>   0.0800 
 44 H        6.9680     6.4840     1.8220 H     1 <1>   0.1500 
 45 H        5.5660     8.2550    -1.8090 H     1 <1>   0.1500 
 46 H        7.5700     8.7260     2.6750 H     1 <1>   0.1500 
 47 H        6.1730    10.4920    -0.9430 H     1 <1>   0.1500 
@<TRIPOS>BOND
  1   1   2  2   
  2   1   3  2   
  3   1   4  am  
  4   1   5  1   
  5   4   6  1   
  6   4   7  1   
  7   5   8  1   
  8   5  25  1   
  9   5  26  1   
 10   6  27  1   
 11   6  28  1   
 12   6  29  1   
 13   7  30  1   
 14   7  31  1   
 15   7  32  1   
 16   8   9  1   
 17   8  10  1   
 18   8  33  1   
 19   9  11  1   
 20   9  12  1   
 21   9  34  1   
 22  10  13  1   
 23  10  35  1   
 24  10  36  1   
 25  11  14  am  
 26  11  37  1   
 27  12  13  1   
 28  12  38  1   
 29  12  39  1   
 30  14  15  2   
 31  14  16  1   
 32  16  17  1   
 33  16  40  1   
 34  16  41  1   
 35  17  18  1   
 36  17  42  1   
 37  17  43  1   
 38  18  19  ar  
 39  18  20  ar  
 40  19  21  ar  
 41  19  44  1   
 42  20  22  ar  
 43  20  45  1   
 44  21  23  ar  
 45  21  46  1   
 46  22  23  ar  
 47  22  47  1   
 48  23  24  1   
@<TRIPOS>SUBSTRUCTURE
  1 ****  11 GROUP 4 **** **** 0

# MOE 2024.06 (io_trps.svl 2023.06)
