@<TRIPOS>MOLECULE
NONAME
55 57 1 0 0 
SMALL
USER_CHARGES


@<TRIPOS>ATOM
  1 O       -1.5820     0.2730     2.3220 O.2   1 <1>  -0.5700 
  2 C       -1.8970     0.7030     1.2400 C.2   1 <1>   0.5690 
  3 N       -2.2690    -0.1150     0.2080 N.am  1 <1>  -0.6600 
  4 C       -1.8300     2.2080     1.0640 C.3   1 <1>  -0.0990 
  5 C       -2.2460    -1.6090     0.3910 C.3   1 <1>   0.3640 
  6 C       -2.7450     0.3790    -1.1240 C.3   1 <1>   0.1400 
  7 C       -0.4340     2.6290     0.5960 C.3   1 <1>   0.0200 
  8 C       -0.9170    -2.2240    -0.0820 C.ar  1 <1>  -0.1440 
  9 C       -3.4620    -2.3090    -0.2970 C.3   1 <1>   0.2000 
 10 C       -3.1220    -0.7660    -2.0740 C.3   1 <1>   0.1200 
 11 C       -0.3560     4.1370     0.4280 C.2   1 <1>  -0.3320 
 12 C       -0.6510    -3.5410     0.2720 C.ar  1 <1>  -0.1500 
 13 C        0.0350    -1.5380    -0.8320 C.ar  1 <1>  -0.1500 
 14 O       -3.9900    -1.6340    -1.4200 O.3   1 <1>  -0.5600 
 15 C       -4.6250    -2.4970     0.6840 C.3   1 <1>   0.1200 
 16 N       -0.2710     5.0340     1.4390 N.pl3 1 <1>   0.3140 
 17 C       -0.3520     4.8480    -0.7210 C.2   1 <1>  -0.1500 
 18 C        0.5130    -4.1750    -0.1280 C.ar  1 <1>   0.0830 
 19 C        1.2120    -2.1550    -1.2200 C.ar  1 <1>  -0.1500 
 20 O       -4.3050    -3.4670     1.6300 O.3   1 <1>  -0.6800 
 21 N       -0.2230     6.2920     0.9720 N.2   1 <1>  -0.7070 
 22 C       -0.2230     4.7700     2.8840 C.3   1 <1>   0.0160 
 23 C       -0.2690     6.1740    -0.3180 C.2   1 <1>   0.1390 
 24 O        0.6620    -5.4780     0.2210 O.3   1 <1>  -0.3630 
 25 C        1.4680    -3.4660    -0.8620 C.ar  1 <1>   0.0830 
 26 C        0.7400    -6.4110    -0.8340 C.3   1 <1>   0.0400 
 27 O        2.6550    -3.9990    -1.2400 O.3   1 <1>  -0.3630 
 28 C        3.5610    -4.2910    -0.1990 C.3   1 <1>   0.0400 
 29 H       -2.5740     2.5530     0.3730 H     1 <1>   0.0800 
 30 H       -2.0440     2.6620     2.0130 H     1 <1>   0.0800 
 31 H       -2.3070    -1.8270     1.4440 H     1 <1>   0.0800 
 32 H       -3.6160     0.9940    -0.9790 H     1 <1>   0.0800 
 33 H       -1.9800     0.9810    -1.5820 H     1 <1>   0.0800 
 34 H       -0.2160     2.1580    -0.3460 H     1 <1>   0.0800 
 35 H        0.3080     2.2960     1.3020 H     1 <1>   0.0800 
 36 H       -3.1630    -3.2800    -0.6480 H     1 <1>   0.0800 
 37 H       -2.2560    -1.3160    -2.4020 H     1 <1>   0.0800 
 38 H       -3.6310    -0.3800    -2.9390 H     1 <1>   0.0800 
 39 H       -1.3540    -4.0990     0.8660 H     1 <1>   0.1500 
 40 H       -0.1170    -0.5150    -1.1170 H     1 <1>   0.1500 
 41 H       -5.5130    -2.8150     0.1670 H     1 <1>   0.0800 
 42 H       -4.8220    -1.5760     1.2060 H     1 <1>   0.0800 
 43 H       -0.4010     4.5020    -1.7370 H     1 <1>   0.1500 
 44 H        1.9450    -1.6180    -1.7950 H     1 <1>   0.1500 
 45 H       -4.4100    -4.3650     1.2570 H     1 <1>   0.4000 
 46 H        0.3830     3.9040     3.0730 H     1 <1>   0.0800 
 47 H       -1.2200     4.6080     3.2460 H     1 <1>   0.0800 
 48 H        0.2040     5.6210     3.3810 H     1 <1>   0.0800 
 49 H       -0.2460     7.0150    -0.9900 H     1 <1>   0.1500 
 50 H        0.7000    -7.3980    -0.4130 H     1 <1>   0.0800 
 51 H        1.6670    -6.2770    -1.3620 H     1 <1>   0.0800 
 52 H       -0.0920    -6.2570    -1.4970 H     1 <1>   0.0800 
 53 H        4.4820    -4.6270    -0.6380 H     1 <1>   0.0800 
 54 H        3.1490    -5.0620     0.4270 H     1 <1>   0.0800 
 55 H        3.7300    -3.3960     0.3750 H     1 <1>   0.0800 
@<TRIPOS>BOND
  1   1   2  2   
  2   2   3  am  
  3   2   4  1   
  4   3   5  1   
  5   3   6  1   
  6   4   7  1   
  7   4  29  1   
  8   4  30  1   
  9   5   8  1   
 10   5   9  1   
 11   5  31  1   
 12   6  10  1   
 13   6  32  1   
 14   6  33  1   
 15   7  11  1   
 16   7  34  1   
 17   7  35  1   
 18   8  12  ar  
 19   8  13  ar  
 20   9  14  1   
 21   9  15  1   
 22   9  36  1   
 23  10  14  1   
 24  10  37  1   
 25  10  38  1   
 26  11  16  1   
 27  11  17  2   
 28  12  18  ar  
 29  12  39  1   
 30  13  19  ar  
 31  13  40  1   
 32  15  20  1   
 33  15  41  1   
 34  15  42  1   
 35  16  21  1   
 36  16  22  1   
 37  17  23  1   
 38  17  43  1   
 39  18  24  1   
 40  18  25  ar  
 41  19  25  ar  
 42  19  44  1   
 43  20  45  1   
 44  21  23  2   
 45  22  46  1   
 46  22  47  1   
 47  22  48  1   
 48  23  49  1   
 49  24  26  1   
 50  25  27  1   
 51  26  50  1   
 52  26  51  1   
 53  26  52  1   
 54  27  28  1   
 55  28  53  1   
 56  28  54  1   
 57  28  55  1   
@<TRIPOS>SUBSTRUCTURE
  1 ****   3 GROUP 4 **** **** 0

# MOE 2024.06 (io_trps.svl 2023.06)
