@<TRIPOS>MOLECULE
NONAME
53 57 1 0 0 
SMALL
USER_CHARGES


@<TRIPOS>ATOM
  1 O        0.6090     0.1830    -0.8070 O.2   1 <1>  -0.5700 
  2 C        1.0030    -0.6830    -0.0630 C.2   1 <1>   0.5690 
  3 N        0.6700    -0.8020     1.2470 N.am  1 <1>  -0.6600 
  4 C        1.8750    -1.8190    -0.5440 C.3   1 <1>  -0.0190 
  5 C        1.2570    -2.0130     1.8630 C.3   1 <1>   0.1400 
  6 C       -0.1990     0.1130     2.0260 C.3   1 <1>   0.0600 
  7 C        2.2340    -2.4910     0.7840 C.3   1 <1>   0.4180 
  8 C        3.2890    -1.6570    -1.1960 C.3   1 <1>  -0.0190 
  9 O        3.5070    -1.9730     0.9890 O.3   1 <1>  -0.5600 
 10 C        2.5940    -3.9300     0.5190 C.2   1 <1>  -0.2880 
 11 C        3.9270    -0.2850    -1.4250 C.2   1 <1>   0.5690 
 12 C        4.1430    -2.4020    -0.1590 C.3   1 <1>   0.3380 
 13 C        3.7700    -3.8730    -0.0930 C.2   1 <1>  -0.2880 
 14 O        5.1150    -0.2760    -1.6550 O.2   1 <1>  -0.5700 
 15 N        3.2020     0.8750    -1.4110 N.am  1 <1>  -0.4940 
 16 C        3.5750     2.2230    -1.6390 C.2   1 <1>  -0.0880 
 17 N        4.7150     2.8720    -1.2620 N.pl3 1 <1>   0.3140 
 18 C        2.8150     3.1420    -2.2770 C.2   1 <1>  -0.1500 
 19 N        4.6980     4.1690    -1.6630 N.2   1 <1>  -0.7070 
 20 C        5.8550     2.3510    -0.4640 C.3   1 <1>   0.1760 
 21 C        3.5590     4.3130    -2.2660 C.2   1 <1>   0.1390 
 22 C        6.1720     3.2630     0.7320 C.3   1 <1>  -0.1600 
 23 C        7.0910     2.2020    -1.3620 C.3   1 <1>  -0.1600 
 24 C        7.3830     2.7410     1.4970 C.3   1 <1>   0.3430 
 25 C        8.2750     1.6840    -0.5590 C.3   1 <1>   0.3430 
 26 N        8.5500     2.6180     0.5740 N.4   1 <1>  -0.9590 
 27 C        9.7800     2.2060     1.3160 C.3   1 <1>   0.2630 
 28 H        1.2590    -2.4770    -1.1280 H     1 <1>   0.0800 
 29 H        1.7720    -1.7870     2.7800 H     1 <1>   0.0800 
 30 H        0.4850    -2.7430     2.0300 H     1 <1>   0.0800 
 31 H        0.3540     0.5260     2.8520 H     1 <1>   0.0800 
 32 H       -1.0530    -0.4240     2.4010 H     1 <1>   0.0800 
 33 H       -0.5420     0.9190     1.3990 H     1 <1>   0.0800 
 34 H        3.3300    -2.1900    -2.1280 H     1 <1>   0.0800 
 35 H        1.9430    -4.7440     0.7870 H     1 <1>   0.1500 
 36 H        5.1980    -2.1910    -0.1140 H     1 <1>   0.0800 
 37 H        4.4150    -4.6320    -0.5010 H     1 <1>   0.1500 
 38 H        2.1810     0.7510    -1.3370 H     1 <1>   0.3700 
 39 H        1.8400     3.0150    -2.7110 H     1 <1>   0.1500 
 40 H        5.5750     1.3950    -0.0680 H     1 <1>   0.0800 
 41 H        3.2340     5.2420    -2.7050 H     1 <1>   0.1500 
 42 H        6.3690     4.2680     0.4000 H     1 <1>   0.0800 
 43 H        5.3220     3.2920     1.3910 H     1 <1>   0.0800 
 44 H        6.8790     1.5080    -2.1570 H     1 <1>   0.0800 
 45 H        7.3420     3.1470    -1.8110 H     1 <1>   0.0800 
 46 H        7.1520     1.7770     1.9240 H     1 <1>   0.0800 
 47 H        7.6170     3.4200     2.3020 H     1 <1>   0.0800 
 48 H        9.1390     1.6140    -1.2010 H     1 <1>   0.0800 
 49 H        8.0500     0.6990    -0.1810 H     1 <1>   0.0800 
 50 H        8.7110     3.5510     0.1630 H     1 <1>   0.4500 
 51 H        9.6430     1.2310     1.7560 H     1 <1>   0.0800 
 52 H        9.9980     2.9120     2.1010 H     1 <1>   0.0800 
 53 H       10.6250     2.1670     0.6470 H     1 <1>   0.0800 
@<TRIPOS>BOND
  1   1   2  2   
  2   2   3  am  
  3   2   4  1   
  4   3   5  1   
  5   3   6  1   
  6   4   7  1   
  7   4   8  1   
  8   4  28  1   
  9   5   7  1   
 10   5  29  1   
 11   5  30  1   
 12   6  31  1   
 13   6  32  1   
 14   6  33  1   
 15   7   9  1   
 16   7  10  1   
 17   8  11  1   
 18   8  12  1   
 19   8  34  1   
 20   9  12  1   
 21  10  13  2   
 22  10  35  1   
 23  11  14  2   
 24  11  15  am  
 25  12  13  1   
 26  12  36  1   
 27  13  37  1   
 28  15  16  1   
 29  15  38  1   
 30  16  17  1   
 31  16  18  2   
 32  17  19  1   
 33  17  20  1   
 34  18  21  1   
 35  18  39  1   
 36  19  21  2   
 37  20  22  1   
 38  20  23  1   
 39  20  40  1   
 40  21  41  1   
 41  22  24  1   
 42  22  42  1   
 43  22  43  1   
 44  23  25  1   
 45  23  44  1   
 46  23  45  1   
 47  24  26  1   
 48  24  46  1   
 49  24  47  1   
 50  25  26  1   
 51  25  48  1   
 52  25  49  1   
 53  26  27  1   
 54  26  50  1   
 55  27  51  1   
 56  27  52  1   
 57  27  53  1   
@<TRIPOS>SUBSTRUCTURE
  1 ****  11 GROUP 4 **** **** 0

# MOE 2024.06 (io_trps.svl 2023.06)
