@<TRIPOS>MOLECULE
NONAME
59 62 1 0 0 
SMALL
USER_CHARGES


@<TRIPOS>ATOM
  1 O       -0.6900     0.8820     1.9950 O.2   1 <1>  -0.5700 
  2 C       -1.6200     1.2250     1.2990 C.2   1 <1>   0.5690 
  3 N       -2.6740     0.3620     1.0770 N.am  1 <1>  -0.6600 
  4 C       -1.5100     2.6450     0.7140 C.3   1 <1>  -0.0190 
  5 C       -3.8090     0.6000     0.1350 C.3   1 <1>   0.1400 
  6 C       -2.6810    -0.9560     1.7900 C.3   1 <1>   0.1400 
  7 C       -2.7320     3.5590     0.9580 C.3   1 <1>  -0.1600 
  8 C       -1.0570     2.6610    -0.7620 C.3   1 <1>  -0.1600 
  9 C       -4.3290    -0.7260    -0.4170 C.3   1 <1>  -0.1600 
 10 C       -4.1060    -1.4750     2.0090 C.3   1 <1>  -0.1600 
 11 C       -2.4640     4.9870     0.4570 C.3   1 <1>  -0.1600 
 12 C       -0.8190     4.0960    -1.2600 C.3   1 <1>  -0.1600 
 13 C       -4.9360    -1.5780     0.7110 C.3   1 <1>   0.4240 
 14 C       -2.0470     4.9770    -1.0170 C.3   1 <1>   0.2000 
 15 O       -6.1790    -1.0010     1.0390 O.3   1 <1>  -0.5600 
 16 C       -5.0830    -3.0540     0.2790 C.ar  1 <1>  -0.1440 
 17 O       -1.7360     6.2650    -1.3870 O.3   1 <1>  -0.6800 
 18 C       -7.2960    -1.3800     0.2940 C.3   1 <1>   0.1200 
 19 C       -6.3270    -3.6650     0.1960 C.ar  1 <1>  -0.1440 
 20 C       -3.9610    -3.8100    -0.0370 C.ar  1 <1>  -0.1500 
 21 C       -7.5690    -2.8620     0.5260 C.3   1 <1>  -0.0170 
 22 C       -6.4390    -4.9940    -0.1790 C.ar  1 <1>  -0.1500 
 23 C       -4.0520    -5.1350    -0.4260 C.ar  1 <1>   0.0820 
 24 C       -5.3120    -5.7510    -0.4870 C.ar  1 <1>   0.0820 
 25 O       -2.8540    -5.7210    -0.7150 O.3   1 <1>  -0.3630 
 26 O       -5.4190    -7.0700    -0.8260 O.3   1 <1>  -0.3620 
 27 C       -2.7500    -6.8080    -1.6070 C.3   1 <1>   0.0400 
 28 C       -6.6200    -7.7920    -0.6620 C.3   1 <1>   0.0400 
 29 H       -0.7050     3.1020     1.2640 H     1 <1>   0.0800 
 30 H       -3.4970     1.2150    -0.6850 H     1 <1>   0.0800 
 31 H       -4.6030     1.1040     0.6600 H     1 <1>   0.0800 
 32 H       -2.2010    -0.8550     2.7490 H     1 <1>   0.0800 
 33 H       -2.1120    -1.6640     1.2140 H     1 <1>   0.0800 
 34 H       -2.9550     3.5830     2.0110 H     1 <1>   0.0800 
 35 H       -3.5980     3.1860     0.4480 H     1 <1>   0.0800 
 36 H       -1.7900     2.1930    -1.3900 H     1 <1>   0.0800 
 37 H       -0.1440     2.0970    -0.8560 H     1 <1>   0.0800 
 38 H       -3.5090    -1.2410    -0.8820 H     1 <1>   0.0800 
 39 H       -5.0580    -0.5460    -1.1830 H     1 <1>   0.0800 
 40 H       -4.5870    -0.8070     2.7010 H     1 <1>   0.0800 
 41 H       -4.0560    -2.4370     2.4850 H     1 <1>   0.0800 
 42 H       -1.6830     5.4260     1.0530 H     1 <1>   0.0800 
 43 H       -3.3560     5.5780     0.5710 H     1 <1>   0.0800 
 44 H       -0.5970     4.0750    -2.3130 H     1 <1>   0.0800 
 45 H        0.0290     4.5060    -0.7400 H     1 <1>   0.0800 
 46 H       -2.8680     4.6490    -1.6330 H     1 <1>   0.0800 
 47 H       -0.9910     6.5930    -0.8510 H     1 <1>   0.4000 
 48 H       -7.1160    -1.1800    -0.7470 H     1 <1>   0.0800 
 49 H       -8.1300    -0.7870     0.6280 H     1 <1>   0.0800 
 50 H       -2.9810    -3.3750     0.0120 H     1 <1>   0.1500 
 51 H       -8.3910    -3.1710    -0.0940 H     1 <1>   0.0800 
 52 H       -7.8420    -3.0190     1.5550 H     1 <1>   0.0800 
 53 H       -7.4200    -5.4240    -0.2250 H     1 <1>   0.1500 
 54 H       -1.7240    -6.8930    -1.9140 H     1 <1>   0.0800 
 55 H       -3.3780    -6.6220    -2.4610 H     1 <1>   0.0800 
 56 H       -3.0520    -7.7050    -1.0970 H     1 <1>   0.0800 
 57 H       -6.4220    -8.8240    -0.8930 H     1 <1>   0.0800 
 58 H       -7.3580    -7.4030    -1.3410 H     1 <1>   0.0800 
 59 H       -6.9450    -7.7030     0.3590 H     1 <1>   0.0800 
@<TRIPOS>BOND
  1   1   2  2   
  2   2   3  am  
  3   2   4  1   
  4   3   5  1   
  5   3   6  1   
  6   4   7  1   
  7   4   8  1   
  8   4  29  1   
  9   5   9  1   
 10   5  30  1   
 11   5  31  1   
 12   6  10  1   
 13   6  32  1   
 14   6  33  1   
 15   7  11  1   
 16   7  34  1   
 17   7  35  1   
 18   8  12  1   
 19   8  36  1   
 20   8  37  1   
 21   9  13  1   
 22   9  38  1   
 23   9  39  1   
 24  10  13  1   
 25  10  40  1   
 26  10  41  1   
 27  11  14  1   
 28  11  42  1   
 29  11  43  1   
 30  12  14  1   
 31  12  44  1   
 32  12  45  1   
 33  13  15  1   
 34  13  16  1   
 35  14  17  1   
 36  14  46  1   
 37  15  18  1   
 38  16  19  ar  
 39  16  20  ar  
 40  17  47  1   
 41  18  21  1   
 42  18  48  1   
 43  18  49  1   
 44  19  21  1   
 45  19  22  ar  
 46  20  23  ar  
 47  20  50  1   
 48  21  51  1   
 49  21  52  1   
 50  22  24  ar  
 51  22  53  1   
 52  23  24  ar  
 53  23  25  1   
 54  24  26  1   
 55  25  27  1   
 56  26  28  1   
 57  27  54  1   
 58  27  55  1   
 59  27  56  1   
 60  28  57  1   
 61  28  58  1   
 62  28  59  1   
@<TRIPOS>SUBSTRUCTURE
  1 ****   9 GROUP 4 **** **** 0

# MOE 2024.06 (io_trps.svl 2023.06)
