@<TRIPOS>MOLECULE
NONAME
60 62 1 0 0 
SMALL
USER_CHARGES


@<TRIPOS>ATOM
  1 O       -2.1610     0.4750     1.9250 O.2   1 <1>  -0.5700 
  2 C       -2.6620     0.5230     0.8180 C.2   1 <1>   0.5440 
  3 N       -2.1730     1.4380    -0.0930 N.am  1 <1>  -0.6600 
  4 C       -3.7530    -0.3680     0.4990 C.ar  1 <1>   0.0860 
  5 C       -0.8820     2.1600     0.1290 C.3   1 <1>   0.1400 
  6 C       -2.9850     2.0240    -1.2030 C.3   1 <1>   0.1400 
  7 C       -3.7960    -1.0600    -0.7090 C.ar  1 <1>   0.1600 
  8 C       -4.8050    -0.5870     1.3810 C.ar  1 <1>  -0.1500 
  9 C       -1.1180     3.6760     0.2130 C.3   1 <1>   0.1200 
 10 C       -3.0870     3.5530    -1.0540 C.3   1 <1>   0.1200 
 11 N       -4.7530    -1.8780    -1.1050 N.ar  1 <1>  -0.6200 
 12 C       -5.8080    -1.4420     0.9910 C.ar  1 <1>  -0.1500 
 13 O       -1.8180     4.1270    -0.9130 O.3   1 <1>  -0.5600 
 14 C       -5.7540    -2.0650    -0.2520 C.ar  1 <1>   0.4100 
 15 N       -6.7650    -2.9090    -0.6250 N.pl3 1 <1>  -0.8690 
 16 C       -6.6610    -3.8930    -1.7220 C.3   1 <1>   0.2090 
 17 C       -7.3720    -5.2040    -1.3540 C.3   1 <1>  -0.1600 
 18 C       -6.8330    -6.0650    -0.1750 C.3   1 <1>   0.1430 
 19 C       -7.6300    -7.4110    -0.2400 C.ar  1 <1>  -0.1430 
 20 C       -5.2900    -6.2380    -0.3330 C.3   1 <1>  -0.1600 
 21 C       -7.0450    -5.3660     1.1900 C.3   1 <1>  -0.2400 
 22 C       -8.9840    -7.5110     0.1290 C.ar  1 <1>   0.0820 
 23 C       -7.0210    -8.5720    -0.7200 C.ar  1 <1>  -0.1500 
 24 C       -4.5800    -7.0410     0.7770 C.3   1 <1>  -0.2400 
 25 O       -9.6530    -6.3930     0.5240 O.3   1 <1>  -0.3620 
 26 C       -9.6460    -8.7370     0.0660 C.ar  1 <1>  -0.1500 
 27 C       -7.6870    -9.7820    -0.7890 C.ar  1 <1>  -0.1500 
 28 C      -11.0170    -6.3950     0.8810 C.3   1 <1>   0.0400 
 29 C       -9.0020    -9.8680    -0.3870 C.ar  1 <1>  -0.1500 
 30 H       -0.2160     1.9520    -0.6900 H     1 <1>   0.0800 
 31 H       -0.4050     1.8230     1.0330 H     1 <1>   0.0800 
 32 H       -3.9790     1.6130    -1.2110 H     1 <1>   0.0800 
 33 H       -2.5190     1.7920    -2.1450 H     1 <1>   0.0800 
 34 H       -2.9740    -0.9190    -1.3900 H     1 <1>   0.1500 
 35 H       -4.8180    -0.0960     2.3390 H     1 <1>   0.1500 
 36 H       -0.1780     4.1970     0.2460 H     1 <1>   0.0800 
 37 H       -1.6820     3.9210     1.0960 H     1 <1>   0.0800 
 38 H       -3.6780     3.8110    -0.1930 H     1 <1>   0.0800 
 39 H       -3.5450     3.9820    -1.9280 H     1 <1>   0.0800 
 40 H       -6.6420    -1.6380     1.6370 H     1 <1>   0.1500 
 41 H       -7.4390    -3.1810     0.0930 H     1 <1>   0.4000 
 42 H       -5.6310    -4.0780    -1.9730 H     1 <1>   0.0800 
 43 H       -7.1310    -3.4720    -2.5950 H     1 <1>   0.0800 
 44 H       -7.3390    -5.8210    -2.2340 H     1 <1>   0.0800 
 45 H       -8.4100    -4.9800    -1.1910 H     1 <1>   0.0800 
 46 H       -4.8260    -5.2680    -0.3360 H     1 <1>   0.0800 
 47 H       -5.0690    -6.6710    -1.2920 H     1 <1>   0.0800 
 48 H       -7.9810    -4.8450     1.2340 H     1 <1>   0.0800 
 49 H       -6.2710    -4.6460     1.3840 H     1 <1>   0.0800 
 50 H       -7.0280    -6.0950     1.9800 H     1 <1>   0.0800 
 51 H       -6.0060    -8.5770    -1.0620 H     1 <1>   0.1500 
 52 H       -4.5940    -6.4970     1.7050 H     1 <1>   0.0800 
 53 H       -3.5520    -7.2020     0.5060 H     1 <1>   0.0800 
 54 H       -5.0400    -7.9960     0.9440 H     1 <1>   0.0800 
 55 H      -10.6720    -8.8380     0.3610 H     1 <1>   0.1500 
 56 H       -7.1780   -10.6560    -1.1560 H     1 <1>   0.1500 
 57 H      -11.2960    -5.3900     1.1390 H     1 <1>   0.0800 
 58 H      -11.1550    -7.0420     1.7290 H     1 <1>   0.0800 
 59 H      -11.5980    -6.7290     0.0390 H     1 <1>   0.0800 
 60 H       -9.5210   -10.8100    -0.4330 H     1 <1>   0.1500 
@<TRIPOS>BOND
  1   1   2  2   
  2   2   3  am  
  3   2   4  1   
  4   3   5  1   
  5   3   6  1   
  6   4   7  ar  
  7   4   8  ar  
  8   5   9  1   
  9   5  30  1   
 10   5  31  1   
 11   6  10  1   
 12   6  32  1   
 13   6  33  1   
 14   7  11  ar  
 15   7  34  1   
 16   8  12  ar  
 17   8  35  1   
 18   9  13  1   
 19   9  36  1   
 20   9  37  1   
 21  10  13  1   
 22  10  38  1   
 23  10  39  1   
 24  11  14  ar  
 25  12  14  ar  
 26  12  40  1   
 27  14  15  1   
 28  15  16  1   
 29  15  41  1   
 30  16  17  1   
 31  16  42  1   
 32  16  43  1   
 33  17  18  1   
 34  17  44  1   
 35  17  45  1   
 36  18  19  1   
 37  18  20  1   
 38  18  21  1   
 39  19  22  ar  
 40  19  23  ar  
 41  20  24  1   
 42  20  46  1   
 43  20  47  1   
 44  21  48  1   
 45  21  49  1   
 46  21  50  1   
 47  22  25  1   
 48  22  26  ar  
 49  23  27  ar  
 50  23  51  1   
 51  24  52  1   
 52  24  53  1   
 53  24  54  1   
 54  25  28  1   
 55  26  29  ar  
 56  26  55  1   
 57  27  29  ar  
 58  27  56  1   
 59  28  57  1   
 60  28  58  1   
 61  28  59  1   
 62  29  60  1   
@<TRIPOS>SUBSTRUCTURE
  1 ****  14 GROUP 4 **** **** 0

# MOE 2024.06 (io_trps.svl 2023.06)
