@<TRIPOS>MOLECULE
NONAME
50 52 1 0 0 
SMALL
USER_CHARGES


@<TRIPOS>ATOM
  1 F       -1.7330     0.9180    -0.2320 F     1 <1>  -0.1900 
  2 C       -0.9820     1.9880    -0.3050 C.ar  1 <1>   0.1900 
  3 C       -1.2840     3.0560     0.5250 C.ar  1 <1>  -0.1440 
  4 C        0.0680     2.0110    -1.2100 C.ar  1 <1>  -0.1440 
  5 C       -0.4960     4.1950     0.4420 C.ar  1 <1>  -0.1500 
  6 C       -2.4440     2.9720     1.4950 C.3   1 <1>   0.4870 
  7 C        0.8380     3.1610    -1.2770 C.ar  1 <1>  -0.1500 
  8 C        0.3760     0.8200    -2.1070 C.3   1 <1>  -0.0970 
  9 C        0.5580     4.2430    -0.4570 C.ar  1 <1>  -0.1500 
 10 N       -3.7160     2.8950     0.7330 N.4   1 <1>  -0.9590 
 11 C       -3.9570     4.1380    -0.0590 C.3   1 <1>   0.3430 
 12 C       -4.8600     2.5950     1.6360 C.3   1 <1>   0.3430 
 13 C       -5.2350     3.9980    -0.8800 C.3   1 <1>  -0.1600 
 14 C       -6.1360     2.4320     0.8190 C.3   1 <1>  -0.1600 
 15 C       -6.4520     3.7080     0.0210 C.3   1 <1>   0.2800 
 16 O       -6.4990     4.7410     0.9770 O.3   1 <1>  -0.5600 
 17 C       -7.8050     3.5520    -0.7680 C.3   1 <1>   0.2000 
 18 C       -7.2960     5.8440     0.6670 C.3   1 <1>   0.1200 
 19 O       -7.7600     4.2550    -1.9840 O.3   1 <1>  -0.6800 
 20 C       -9.0250     4.0360     0.0670 C.3   1 <1>   0.2800 
 21 C       -8.7780     5.4410     0.6520 C.3   1 <1>  -0.1600 
 22 O       -9.1960     3.1640     1.1240 O.3   1 <1>  -0.6800 
 23 C      -10.3510     3.9750    -0.7020 C.3   1 <1>  -0.2400 
 24 H       -0.6850     5.0510     1.0690 H     1 <1>   0.1500 
 25 H       -2.4500     3.8340     2.1410 H     1 <1>   0.0800 
 26 H       -2.3270     2.0900     2.1030 H     1 <1>   0.0800 
 27 H        1.6650     3.2220    -1.9650 H     1 <1>   0.1500 
 28 H        1.2400     1.0090    -2.7180 H     1 <1>   0.0800 
 29 H       -0.4600     0.6170    -2.7530 H     1 <1>   0.0800 
 30 H        0.5690    -0.0520    -1.5070 H     1 <1>   0.0800 
 31 H        1.1700     5.1280    -0.5200 H     1 <1>   0.1500 
 32 H       -3.6040     2.1160     0.0700 H     1 <1>   0.4500 
 33 H       -4.0620     4.9790     0.6090 H     1 <1>   0.0800 
 34 H       -3.1260     4.3260    -0.7190 H     1 <1>   0.0800 
 35 H       -4.6710     1.6890     2.1900 H     1 <1>   0.0800 
 36 H       -4.9960     3.4040     2.3370 H     1 <1>   0.0800 
 37 H       -5.1180     3.2170    -1.6090 H     1 <1>   0.0800 
 38 H       -5.3880     4.9140    -1.4210 H     1 <1>   0.0800 
 39 H       -6.9380     2.2130     1.4980 H     1 <1>   0.0800 
 40 H       -6.0410     1.5900     0.1580 H     1 <1>   0.0800 
 41 H       -7.9470     2.5200    -1.0340 H     1 <1>   0.0800 
 42 H       -7.1220     6.6030     1.4110 H     1 <1>   0.0800 
 43 H       -6.9930     6.2270    -0.2930 H     1 <1>   0.0800 
 44 H       -8.5850     4.1100    -2.4880 H     1 <1>   0.4000 
 45 H       -9.2860     6.1750     0.0520 H     1 <1>   0.0800 
 46 H       -9.1820     5.5180     1.6450 H     1 <1>   0.0800 
 47 H       -9.9520     3.4540     1.6670 H     1 <1>   0.4000 
 48 H      -10.3410     4.6610    -1.5300 H     1 <1>   0.0800 
 49 H      -11.1720     4.2480    -0.0640 H     1 <1>   0.0800 
 50 H      -10.5170     2.9840    -1.0850 H     1 <1>   0.0800 
@<TRIPOS>BOND
  1   1   2  1   
  2   2   3  ar  
  3   2   4  ar  
  4   3   5  ar  
  5   3   6  1   
  6   4   7  ar  
  7   4   8  1   
  8   5   9  ar  
  9   5  24  1   
 10   6  10  1   
 11   6  25  1   
 12   6  26  1   
 13   7   9  ar  
 14   7  27  1   
 15   8  28  1   
 16   8  29  1   
 17   8  30  1   
 18   9  31  1   
 19  10  11  1   
 20  10  12  1   
 21  10  32  1   
 22  11  13  1   
 23  11  33  1   
 24  11  34  1   
 25  12  14  1   
 26  12  35  1   
 27  12  36  1   
 28  13  15  1   
 29  13  37  1   
 30  13  38  1   
 31  14  15  1   
 32  14  39  1   
 33  14  40  1   
 34  15  16  1   
 35  15  17  1   
 36  16  18  1   
 37  17  19  1   
 38  17  20  1   
 39  17  41  1   
 40  18  21  1   
 41  18  42  1   
 42  18  43  1   
 43  19  44  1   
 44  20  21  1   
 45  20  22  1   
 46  20  23  1   
 47  21  45  1   
 48  21  46  1   
 49  22  47  1   
 50  23  48  1   
 51  23  49  1   
 52  23  50  1   
@<TRIPOS>SUBSTRUCTURE
  1 ****  11 GROUP 4 **** **** 0

# MOE 2024.06 (io_trps.svl 2023.06)
