@<TRIPOS>MOLECULE
NONAME
55 57 1 0 0 
SMALL
USER_CHARGES


@<TRIPOS>ATOM
  1 S       -0.3460     0.4950     1.3050 S.3   1 <1>  -0.0800 
  2 C       -1.3040     0.5640    -0.1670 C.2   1 <1>  -0.1400 
  3 C        1.0090     1.2780     0.5130 C.2   1 <1>  -0.1100 
  4 C       -0.6040     1.1480    -1.1570 C.2   1 <1>  -0.1500 
  5 C       -2.7100    -0.0040    -0.1200 C.3   1 <1>   0.0200 
  6 C        0.7140     1.5550    -0.7700 C.2   1 <1>  -0.1500 
  7 C       -2.6890    -1.5350    -0.0220 C.3   1 <1>  -0.1600 
  8 C       -4.1110    -2.1300     0.0280 C.3   1 <1>  -0.0990 
  9 C       -4.1460    -3.6530     0.1410 C.2   1 <1>   0.5690 
 10 O       -3.1550    -4.2710    -0.1590 O.2   1 <1>  -0.5700 
 11 N       -5.2880    -4.3000     0.5580 N.am  1 <1>  -0.6600 
 12 C       -6.6370    -3.6810     0.6860 C.3   1 <1>   0.1400 
 13 C       -5.2460    -5.7550     0.8940 C.3   1 <1>   0.1400 
 14 C       -7.6760    -4.4520    -0.1710 C.3   1 <1>   0.4230 
 15 C       -6.2370    -6.5050     0.0020 C.3   1 <1>  -0.1600 
 16 N       -9.0630    -3.8140    -0.1870 N.4   1 <1>  -0.9590 
 17 C       -7.6940    -5.9810     0.1280 C.3   1 <1>   0.0000 
 18 C      -10.1380    -4.7250    -0.7140 C.3   1 <1>   0.3430 
 19 C       -9.4970    -3.1840     1.0980 C.3   1 <1>   0.3430 
 20 C       -8.5680    -6.7070    -0.9370 C.3   1 <1>  -0.1600 
 21 C       -8.2500    -6.2420     1.5570 C.3   1 <1>   0.1200 
 22 C       -9.5640    -5.7800    -1.6570 C.3   1 <1>  -0.1600 
 23 C      -10.6660    -2.2380     0.8470 C.3   1 <1>  -0.2400 
 24 O       -8.0670    -7.5570     1.9470 O.3   1 <1>  -0.6800 
 25 H        1.8930     1.4490     1.1000 H     1 <1>   0.1500 
 26 H       -0.9570     1.3160    -2.1590 H     1 <1>   0.1500 
 27 H       -3.2260     0.4170     0.7250 H     1 <1>   0.0800 
 28 H       -3.2320     0.2920    -1.0130 H     1 <1>   0.0800 
 29 H        1.3720     2.0330    -1.4740 H     1 <1>   0.1500 
 30 H       -2.1610    -1.9330    -0.8730 H     1 <1>   0.0800 
 31 H       -2.1510    -1.8320     0.8620 H     1 <1>   0.0800 
 32 H       -4.6400    -1.8490    -0.8630 H     1 <1>   0.0800 
 33 H       -4.6160    -1.7130     0.8790 H     1 <1>   0.0800 
 34 H       -6.9080    -3.6960     1.7260 H     1 <1>   0.0800 
 35 H       -6.6090    -2.6600     0.3530 H     1 <1>   0.0800 
 36 H       -4.2580    -6.1570     0.7420 H     1 <1>   0.0800 
 37 H       -5.4900    -5.8940     1.9340 H     1 <1>   0.0800 
 38 H       -7.3040    -4.3780    -1.1790 H     1 <1>   0.0800 
 39 H       -5.8900    -6.4060    -1.0130 H     1 <1>   0.0800 
 40 H       -6.1880    -7.5530     0.2410 H     1 <1>   0.0800 
 41 H       -8.9950    -3.0450    -0.8670 H     1 <1>   0.4500 
 42 H      -10.6210    -5.2300     0.1060 H     1 <1>   0.0800 
 43 H      -10.8870    -4.1450    -1.2310 H     1 <1>   0.0800 
 44 H       -9.7830    -3.9410     1.8110 H     1 <1>   0.0800 
 45 H       -8.6910    -2.6100     1.5240 H     1 <1>   0.0800 
 46 H       -7.9500    -7.1630    -1.6930 H     1 <1>   0.0800 
 47 H       -9.1140    -7.5140    -0.4780 H     1 <1>   0.0800 
 48 H       -9.3040    -6.0370     1.6130 H     1 <1>   0.0800 
 49 H       -7.7460    -5.6370     2.2900 H     1 <1>   0.0800 
 50 H      -10.3690    -6.3720    -2.0580 H     1 <1>   0.0800 
 51 H       -9.0870    -5.2920    -2.4900 H     1 <1>   0.0800 
 52 H      -11.5470    -2.7670     0.5310 H     1 <1>   0.0800 
 53 H      -10.4090    -1.4910     0.1180 H     1 <1>   0.0800 
 54 H      -10.9090    -1.7310     1.7650 H     1 <1>   0.0800 
 55 H       -8.5220    -8.1890     1.3550 H     1 <1>   0.4000 
@<TRIPOS>BOND
  1   1   2  1   
  2   1   3  1   
  3   2   4  2   
  4   2   5  1   
  5   3   6  2   
  6   3  25  1   
  7   4   6  1   
  8   4  26  1   
  9   5   7  1   
 10   5  27  1   
 11   5  28  1   
 12   6  29  1   
 13   7   8  1   
 14   7  30  1   
 15   7  31  1   
 16   8   9  1   
 17   8  32  1   
 18   8  33  1   
 19   9  10  2   
 20   9  11  am  
 21  11  12  1   
 22  11  13  1   
 23  12  14  1   
 24  12  34  1   
 25  12  35  1   
 26  13  15  1   
 27  13  36  1   
 28  13  37  1   
 29  14  16  1   
 30  14  17  1   
 31  14  38  1   
 32  15  17  1   
 33  15  39  1   
 34  15  40  1   
 35  16  18  1   
 36  16  19  1   
 37  16  41  1   
 38  17  20  1   
 39  17  21  1   
 40  18  22  1   
 41  18  42  1   
 42  18  43  1   
 43  19  23  1   
 44  19  44  1   
 45  19  45  1   
 46  20  22  1   
 47  20  46  1   
 48  20  47  1   
 49  21  24  1   
 50  21  48  1   
 51  21  49  1   
 52  22  50  1   
 53  22  51  1   
 54  23  52  1   
 55  23  53  1   
 56  23  54  1   
 57  24  55  1   
@<TRIPOS>SUBSTRUCTURE
  1 ****  11 GROUP 4 **** **** 0

# MOE 2024.06 (io_trps.svl 2023.06)
