@<TRIPOS>MOLECULE
NONAME
47 49 1 0 0 
SMALL
USER_CHARGES


@<TRIPOS>ATOM
  1 O       -0.0850     1.1460     1.2970 O.2   1 <1>  -0.5700 
  2 C       -0.0040     2.2300     0.7650 C.2   1 <1>   0.5690 
  3 N       -1.0930     3.0550     0.6430 N.am  1 <1>  -0.6600 
  4 C        1.3470     2.6630     0.2200 C.3   1 <1>  -0.0990 
  5 C       -2.4410     2.6330     1.1310 C.3   1 <1>   0.1400 
  6 C       -1.1010     4.3950    -0.0090 C.3   1 <1>   0.1400 
  7 C        2.4310     1.6060     0.4270 C.3   1 <1>   0.1200 
  8 C       -3.4570     2.5660    -0.0380 C.3   1 <1>   0.0000 
  9 C       -2.0790     4.3850    -1.1890 C.3   1 <1>  -0.1600 
 10 O        3.6370     2.0980    -0.1160 O.3   1 <1>  -0.3630 
 11 C       -4.8650     2.1500     0.4380 C.3   1 <1>   0.2000 
 12 C       -3.4860     3.9290    -0.7630 C.3   1 <1>  -0.1600 
 13 C       -3.1020     1.4100    -0.9910 C.3   1 <1>  -0.1600 
 14 C        4.7740     1.3590    -0.0760 C.ar  1 <1>   0.0820 
 15 O       -5.1940     2.6680     1.6790 O.3   1 <1>  -0.6800 
 16 C       -4.8860     0.6200     0.4840 C.3   1 <1>  -0.1600 
 17 C       -3.6770     0.1520    -0.3350 C.3   1 <1>  -0.1600 
 18 C        4.8550     0.0900     0.4920 C.ar  1 <1>  -0.1500 
 19 C        5.9060     1.9260    -0.6400 C.ar  1 <1>  -0.1500 
 20 C        6.0590    -0.5940     0.4890 C.ar  1 <1>  -0.1500 
 21 C        7.1090     1.2400    -0.6420 C.ar  1 <1>  -0.1500 
 22 C        7.1850    -0.0210    -0.0770 C.ar  1 <1>  -0.1500 
 23 H        1.2460     2.8500    -0.8330 H     1 <1>   0.0800 
 24 H        1.6440     3.5660     0.7200 H     1 <1>   0.0800 
 25 H       -2.3830     1.6790     1.6250 H     1 <1>   0.0800 
 26 H       -2.7710     3.3550     1.8570 H     1 <1>   0.0800 
 27 H       -1.4160     5.1290     0.7140 H     1 <1>   0.0800 
 28 H       -0.1230     4.6720    -0.3560 H     1 <1>   0.0800 
 29 H        2.1720     0.6940    -0.0820 H     1 <1>   0.0800 
 30 H        2.5790     1.4170     1.4760 H     1 <1>   0.0800 
 31 H       -2.1370     5.3750    -1.6070 H     1 <1>   0.0800 
 32 H       -1.6970     3.7320    -1.9540 H     1 <1>   0.0800 
 33 H       -5.6020     2.4960    -0.2680 H     1 <1>   0.0800 
 34 H       -4.1250     3.8780    -1.6280 H     1 <1>   0.0800 
 35 H       -3.9040     4.6650    -0.0970 H     1 <1>   0.0800 
 36 H       -3.5890     1.5590    -1.9390 H     1 <1>   0.0800 
 37 H       -2.0440     1.3150    -1.1640 H     1 <1>   0.0800 
 38 H       -4.6910     2.2070     2.3750 H     1 <1>   0.4000 
 39 H       -4.8100     0.2480     1.4900 H     1 <1>   0.0800 
 40 H       -5.7980     0.2610     0.0410 H     1 <1>   0.0800 
 41 H       -2.9380    -0.2760     0.3220 H     1 <1>   0.0800 
 42 H       -3.9510    -0.5830    -1.0720 H     1 <1>   0.0800 
 43 H        3.9990    -0.3790     0.9380 H     1 <1>   0.1500 
 44 H        5.8390     2.9050    -1.0770 H     1 <1>   0.1500 
 45 H        6.1190    -1.5750     0.9280 H     1 <1>   0.1500 
 46 H        7.9820     1.6880    -1.0830 H     1 <1>   0.1500 
 47 H        8.1190    -0.5560    -0.0780 H     1 <1>   0.1500 
@<TRIPOS>BOND
  1   1   2  2   
  2   2   3  am  
  3   2   4  1   
  4   3   5  1   
  5   3   6  1   
  6   4   7  1   
  7   4  23  1   
  8   4  24  1   
  9   5   8  1   
 10   5  25  1   
 11   5  26  1   
 12   6   9  1   
 13   6  27  1   
 14   6  28  1   
 15   7  10  1   
 16   7  29  1   
 17   7  30  1   
 18   8  11  1   
 19   8  12  1   
 20   8  13  1   
 21   9  12  1   
 22   9  31  1   
 23   9  32  1   
 24  10  14  1   
 25  11  15  1   
 26  11  16  1   
 27  11  33  1   
 28  12  34  1   
 29  12  35  1   
 30  13  17  1   
 31  13  36  1   
 32  13  37  1   
 33  14  18  ar  
 34  14  19  ar  
 35  15  38  1   
 36  16  17  1   
 37  16  39  1   
 38  16  40  1   
 39  17  41  1   
 40  17  42  1   
 41  18  20  ar  
 42  18  43  1   
 43  19  21  ar  
 44  19  44  1   
 45  20  22  ar  
 46  20  45  1   
 47  21  22  ar  
 48  21  46  1   
 49  22  47  1   
@<TRIPOS>SUBSTRUCTURE
  1 ****   2 GROUP 4 **** **** 0

# MOE 2024.06 (io_trps.svl 2023.06)
