@<TRIPOS>MOLECULE
NONAME
56 59 1 0 0 
SMALL
USER_CHARGES


@<TRIPOS>ATOM
  1 O       -3.4220     2.1850     1.5590 O.2   1 <1>  -0.5700 
  2 C       -2.3280     2.2090     1.0180 C.2   1 <1>   0.5440 
  3 N       -1.4870     1.1210     1.2230 N.am  1 <1>  -0.6600 
  4 C       -1.9930     3.3590     0.1750 C.ar  1 <1>   0.3960 
  5 C       -1.7790     0.0840     2.2540 C.3   1 <1>   0.0600 
  6 C       -0.2540     0.8650     0.4300 C.3   1 <1>   0.0600 
  7 N       -0.7320     3.8220     0.0980 N.ar  1 <1>  -0.6200 
  8 C       -3.0340     3.9650    -0.5360 C.ar  1 <1>   0.1600 
  9 C       -0.6000     4.8720    -0.6940 C.ar  1 <1>   0.4100 
 10 N       -2.9160     5.0100    -1.3460 N.ar  1 <1>  -0.6200 
 11 N        0.6770     5.3900    -0.8090 N.pl3 1 <1>  -0.8380 
 12 C       -1.6720     5.4390    -1.3960 C.ar  1 <1>   0.1600 
 13 C        1.2470     5.9840     0.4520 C.3   1 <1>   0.2890 
 14 C        1.5590     4.5570    -1.6700 C.3   1 <1>   0.2090 
 15 C        2.6960     6.5130     0.2830 C.3   1 <1>  -0.0800 
 16 C        0.2840     7.0930     0.9430 C.3   1 <1>  -0.1600 
 17 C        2.9270     5.1980    -1.8570 C.3   1 <1>  -0.1600 
 18 C        3.5820     5.5360    -0.5160 C.3   1 <1>   0.4240 
 19 C        2.6810     7.9620    -0.2590 C.3   1 <1>  -0.1600 
 20 C        0.9970     8.2420     1.6670 C.3   1 <1>  -0.1600 
 21 O        3.6300     4.3490     0.1990 O.3   1 <1>  -0.6800 
 22 C        5.0310     6.0560    -0.6440 C.ar  1 <1>  -0.1440 
 23 C        2.0160     8.9280     0.7410 C.3   1 <1>  -0.1600 
 24 C        5.5250     6.6230    -1.8170 C.ar  1 <1>  -0.1500 
 25 C        5.8870     5.9830     0.4510 C.ar  1 <1>  -0.1500 
 26 C        6.8250     7.0950    -1.8900 C.ar  1 <1>  -0.1500 
 27 C        7.1860     6.4540     0.3820 C.ar  1 <1>  -0.1500 
 28 C        7.6580     7.0120    -0.7910 C.ar  1 <1>  -0.1500 
 29 H       -0.8910    -0.1260     2.8230 H     1 <1>   0.0800 
 30 H       -2.1170    -0.8180     1.7750 H     1 <1>   0.0800 
 31 H       -2.5440     0.4210     2.9330 H     1 <1>   0.0800 
 32 H       -0.0930    -0.1940     0.3280 H     1 <1>   0.0800 
 33 H        0.5920     1.3050     0.9290 H     1 <1>   0.0800 
 34 H       -0.3440     1.2890    -0.5540 H     1 <1>   0.0800 
 35 H       -4.0230     3.5550    -0.4250 H     1 <1>   0.1500 
 36 H       -1.4570     6.2880    -2.0180 H     1 <1>   0.1500 
 37 H        1.2730     5.2140     1.2050 H     1 <1>   0.0800 
 38 H        1.6620     3.5770    -1.2360 H     1 <1>   0.0800 
 39 H        1.0940     4.4350    -2.6340 H     1 <1>   0.0800 
 40 H        3.1360     6.5720     1.2620 H     1 <1>   0.0800 
 41 H       -0.2330     7.5200     0.1010 H     1 <1>   0.0800 
 42 H       -0.4500     6.6560     1.5960 H     1 <1>   0.0800 
 43 H        2.7980     6.0880    -2.4430 H     1 <1>   0.0800 
 44 H        3.5650     4.5310    -2.4080 H     1 <1>   0.0800 
 45 H        3.6770     8.3140    -0.4600 H     1 <1>   0.0800 
 46 H        2.1320     7.9840    -1.1850 H     1 <1>   0.0800 
 47 H        0.2760     8.9650     2.0100 H     1 <1>   0.0800 
 48 H        1.5010     7.8510     2.5350 H     1 <1>   0.0800 
 49 H        2.7160     4.0370     0.3340 H     1 <1>   0.4000 
 50 H        2.7740     9.3910     1.3500 H     1 <1>   0.0800 
 51 H        1.5280     9.7110     0.1870 H     1 <1>   0.0800 
 52 H        4.9130     6.7150    -2.6940 H     1 <1>   0.1500 
 53 H        5.5420     5.5500     1.3730 H     1 <1>   0.1500 
 54 H        7.1890     7.5290    -2.8050 H     1 <1>   0.1500 
 55 H        7.8290     6.3840     1.2420 H     1 <1>   0.1500 
 56 H        8.6680     7.3780    -0.8470 H     1 <1>   0.1500 
@<TRIPOS>BOND
  1   1   2  2   
  2   2   3  am  
  3   2   4  1   
  4   3   5  1   
  5   3   6  1   
  6   4   7  ar  
  7   4   8  ar  
  8   5  29  1   
  9   5  30  1   
 10   5  31  1   
 11   6  32  1   
 12   6  33  1   
 13   6  34  1   
 14   7   9  ar  
 15   8  10  ar  
 16   8  35  1   
 17   9  11  1   
 18   9  12  ar  
 19  10  12  ar  
 20  11  13  1   
 21  11  14  1   
 22  12  36  1   
 23  13  15  1   
 24  13  16  1   
 25  13  37  1   
 26  14  17  1   
 27  14  38  1   
 28  14  39  1   
 29  15  18  1   
 30  15  19  1   
 31  15  40  1   
 32  16  20  1   
 33  16  41  1   
 34  16  42  1   
 35  17  18  1   
 36  17  43  1   
 37  17  44  1   
 38  18  21  1   
 39  18  22  1   
 40  19  23  1   
 41  19  45  1   
 42  19  46  1   
 43  20  23  1   
 44  20  47  1   
 45  20  48  1   
 46  21  49  1   
 47  22  24  ar  
 48  22  25  ar  
 49  23  50  1   
 50  23  51  1   
 51  24  26  ar  
 52  24  52  1   
 53  25  27  ar  
 54  25  53  1   
 55  26  28  ar  
 56  26  54  1   
 57  27  28  ar  
 58  27  55  1   
 59  28  56  1   
@<TRIPOS>SUBSTRUCTURE
  1 ****  13 GROUP 4 **** **** 0

# MOE 2024.06 (io_trps.svl 2023.06)
