@<TRIPOS>MOLECULE
NONAME
38 40 1 0 0 
SMALL
USER_CHARGES


@<TRIPOS>ATOM
  1 O       -2.6350     2.6940    -1.4170 O.2   1 <1>  -0.5700 
  2 C       -2.2620     2.3710    -0.3030 C.2   1 <1>   0.7160 
  3 N       -2.9970     1.4480     0.4240 N.am  1 <1>  -0.6600 
  4 C       -1.0420     2.9480     0.2260 C.2   1 <1>  -0.0860 
  5 C       -4.4580     1.2080     0.2550 C.3   1 <1>   0.2200 
  6 C       -2.3250     0.4720     1.3250 C.3   1 <1>   0.0600 
  7 C        0.0620     3.3820    -0.4650 C.2   1 <1>  -0.3020 
  8 C       -0.7430     3.2080     1.5810 C.2   1 <1>  -0.1500 
  9 C       -4.8020     0.4310    -1.0130 C.3   1 <1>  -0.1600 
 10 C       -5.3120     2.4730     0.1900 C.3   1 <1>  -0.1600 
 11 N        0.9950     3.8670     0.3830 N.pl3 1 <1>   0.0330 
 12 C        0.4960     3.7580     1.6410 C.2   1 <1>  -0.3020 
 13 C       -6.2840     0.7340    -1.2640 C.3   1 <1>  -0.0800 
 14 C       -6.6100     2.0280    -0.4950 C.3   1 <1>  -0.0800 
 15 C       -7.2340    -0.3440    -0.7210 C.3   1 <1>  -0.1600 
 16 C       -7.7370     1.6770     0.4870 C.3   1 <1>  -0.1600 
 17 C       -8.3850     0.4370    -0.1070 C.3   1 <1>   0.2000 
 18 O       -8.9890    -0.3050     0.8840 O.3   1 <1>  -0.6800 
 19 H       -4.8130     0.6340     1.0950 H     1 <1>   0.0800 
 20 H       -2.6500    -0.5260     1.0890 H     1 <1>   0.0800 
 21 H       -2.5720     0.6910     2.3490 H     1 <1>   0.0800 
 22 H       -1.2560     0.5130     1.2050 H     1 <1>   0.0800 
 23 H        0.1990     3.3590    -1.5320 H     1 <1>   0.1500 
 24 H       -1.4090     3.0020     2.4010 H     1 <1>   0.1500 
 25 H       -4.2320     0.8100    -1.8420 H     1 <1>   0.0800 
 26 H       -4.6050    -0.6200    -0.9050 H     1 <1>   0.0800 
 27 H       -5.4810     2.8910     1.1660 H     1 <1>   0.0800 
 28 H       -4.8470     3.2160    -0.4310 H     1 <1>   0.0800 
 29 H        1.9090     4.2570     0.1250 H     1 <1>   0.2700 
 30 H        1.0450     4.0820     2.5080 H     1 <1>   0.1500 
 31 H       -6.4630     0.8780    -2.3170 H     1 <1>   0.0800 
 32 H       -6.9510     2.7860    -1.1810 H     1 <1>   0.0800 
 33 H       -6.7410    -0.9230     0.0400 H     1 <1>   0.0800 
 34 H       -7.5780    -0.9940    -1.5050 H     1 <1>   0.0800 
 35 H       -8.4430     2.4820     0.5770 H     1 <1>   0.0800 
 36 H       -7.3260     1.4460     1.4540 H     1 <1>   0.0800 
 37 H       -9.1190     0.6990    -0.8510 H     1 <1>   0.0800 
 38 H       -8.3350    -0.5450     1.5650 H     1 <1>   0.4000 
@<TRIPOS>BOND
  1   1   2  2   
  2   2   3  am  
  3   2   4  1   
  4   3   5  1   
  5   3   6  1   
  6   4   7  2   
  7   4   8  1   
  8   5   9  1   
  9   5  10  1   
 10   5  19  1   
 11   6  20  1   
 12   6  21  1   
 13   6  22  1   
 14   7  11  1   
 15   7  23  1   
 16   8  12  2   
 17   8  24  1   
 18   9  13  1   
 19   9  25  1   
 20   9  26  1   
 21  10  14  1   
 22  10  27  1   
 23  10  28  1   
 24  11  12  1   
 25  11  29  1   
 26  12  30  1   
 27  13  14  1   
 28  13  15  1   
 29  13  31  1   
 30  14  16  1   
 31  14  32  1   
 32  15  17  1   
 33  15  33  1   
 34  15  34  1   
 35  16  17  1   
 36  16  35  1   
 37  16  36  1   
 38  17  18  1   
 39  17  37  1   
 40  18  38  1   
@<TRIPOS>SUBSTRUCTURE
  1 ****   5 GROUP 4 **** **** 0

# MOE 2024.06 (io_trps.svl 2023.06)
