@<TRIPOS>MOLECULE
NONAME
47 49 1 0 0 
SMALL
USER_CHARGES


@<TRIPOS>ATOM
  1 S       -0.8120     1.3070    -1.6220 S.3   1 <1>  -0.2860 
  2 C       -1.2090     0.0150    -0.4540 C.2   1 <1>   0.5340 
  3 C       -0.0060     2.5870    -0.5670 C.3   1 <1>   0.0700 
  4 O       -1.7810    -1.0550    -0.9040 O.3   1 <1>  -0.2800 
  5 N       -0.9750     0.0660     0.7960 N.2   1 <1>  -0.3380 
  6 C        0.2650     3.8200    -1.4260 C.3   1 <1>  -0.0990 
  7 C       -1.8960    -1.7170     0.2260 C.2   1 <1>   0.4250 
  8 N       -1.4300    -1.0790     1.2510 N.2   1 <1>  -0.3380 
  9 C        0.8630     4.9140    -0.5760 C.2   1 <1>   0.5690 
 10 C       -2.5020    -3.0290     0.2310 C.ar  1 <1>   0.0530 
 11 O        2.0410     4.8770    -0.3200 O.2   1 <1>  -0.5700 
 12 N        0.0530     5.9030    -0.1120 N.am  1 <1>  -0.7300 
 13 C       -2.6540    -3.7750     1.3930 C.ar  1 <1>  -0.1500 
 14 C       -2.9800    -3.6490    -0.9180 C.ar  1 <1>  -0.1500 
 15 C        0.3970     7.0600     0.7660 C.3   1 <1>   0.2200 
 16 C       -3.2380    -5.0260     1.3550 C.ar  1 <1>   0.1600 
 17 C       -3.5510    -4.9060    -0.8520 C.ar  1 <1>   0.1600 
 18 C        1.4830     6.7410     1.8160 C.3   1 <1>   0.3430 
 19 C        1.0150     8.1640    -0.0770 C.3   1 <1>  -0.1600 
 20 N       -3.6910    -5.6100     0.2580 N.ar  1 <1>  -0.6200 
 21 N        2.7450     7.4370     1.3870 N.4   1 <1>  -0.9590 
 22 C        2.5120     7.8790    -0.0190 C.3   1 <1>   0.4230 
 23 C        3.9330     6.5370     1.5070 C.3   1 <1>   0.2630 
 24 C        3.3920     9.0840    -0.4150 C.3   1 <1>   0.1200 
 25 O        3.0040     9.5910    -1.6500 O.3   1 <1>  -0.6800 
 26 H       -0.6830     2.8040     0.2420 H     1 <1>   0.0800 
 27 H        0.9040     2.1600    -0.1810 H     1 <1>   0.0800 
 28 H        0.9580     3.5670    -2.2080 H     1 <1>   0.0800 
 29 H       -0.6480     4.1610    -1.8770 H     1 <1>   0.0800 
 30 H       -0.9250     5.8930    -0.4210 H     1 <1>   0.3700 
 31 H       -2.3140    -3.3790     2.3330 H     1 <1>   0.1500 
 32 H       -2.9100    -3.1540    -1.8700 H     1 <1>   0.1500 
 33 H       -0.5010     7.4000     1.2550 H     1 <1>   0.0800 
 34 H       -3.3400    -5.5780     2.2740 H     1 <1>   0.1500 
 35 H       -3.9120    -5.3590    -1.7600 H     1 <1>   0.1500 
 36 H        1.6300     5.6740     1.8690 H     1 <1>   0.0800 
 37 H        1.1790     7.1010     2.7840 H     1 <1>   0.0800 
 38 H        0.8160     9.1240     0.3660 H     1 <1>   0.0800 
 39 H        0.6490     8.1730    -1.0880 H     1 <1>   0.0800 
 40 H        2.8730     8.2730     1.9720 H     1 <1>   0.4500 
 41 H        2.7280     7.0560    -0.6820 H     1 <1>   0.0800 
 42 H        3.8050     5.6620     0.8890 H     1 <1>   0.0800 
 43 H        4.0600     6.2170     2.5280 H     1 <1>   0.0800 
 44 H        4.8280     7.0490     1.1930 H     1 <1>   0.0800 
 45 H        4.4300     8.8070    -0.4780 H     1 <1>   0.0800 
 46 H        3.2740     9.8810     0.2990 H     1 <1>   0.0800 
 47 H        3.4860     9.1730    -2.3940 H     1 <1>   0.4000 
@<TRIPOS>BOND
  1   1   2  1   
  2   1   3  1   
  3   2   4  1   
  4   2   5  2   
  5   3   6  1   
  6   3  26  1   
  7   3  27  1   
  8   4   7  1   
  9   5   8  1   
 10   6   9  1   
 11   6  28  1   
 12   6  29  1   
 13   7   8  2   
 14   7  10  1   
 15   9  11  2   
 16   9  12  am  
 17  10  13  ar  
 18  10  14  ar  
 19  12  15  1   
 20  12  30  1   
 21  13  16  ar  
 22  13  31  1   
 23  14  17  ar  
 24  14  32  1   
 25  15  18  1   
 26  15  19  1   
 27  15  33  1   
 28  16  20  ar  
 29  16  34  1   
 30  17  20  ar  
 31  17  35  1   
 32  18  21  1   
 33  18  36  1   
 34  18  37  1   
 35  19  22  1   
 36  19  38  1   
 37  19  39  1   
 38  21  22  1   
 39  21  23  1   
 40  21  40  1   
 41  22  24  1   
 42  22  41  1   
 43  23  42  1   
 44  23  43  1   
 45  23  44  1   
 46  24  25  1   
 47  24  45  1   
 48  24  46  1   
 49  25  47  1   
@<TRIPOS>SUBSTRUCTURE
  1 ****   3 GROUP 4 **** **** 0

# MOE 2024.06 (io_trps.svl 2023.06)
