@<TRIPOS>MOLECULE
NONAME
40 41 1 0 0 
SMALL
USER_CHARGES


@<TRIPOS>ATOM
  1 O        0.6940    -0.4570    -1.1440 O.2   1 <1>  -0.5700 
  2 C        1.5430    -0.7250    -0.3260 C.2   1 <1>   0.5690 
  3 N        2.4730     0.1760     0.1280 N.am  1 <1>  -0.4940 
  4 C        1.5360    -2.1740     0.2120 C.3   1 <1>   0.4840 
  5 C        2.5980     1.5320    -0.2040 C.2   1 <1>   0.2040 
  6 N        0.2790    -2.9250    -0.1170 N.4   1 <1>  -0.9590 
  7 C        2.6250    -3.0410    -0.4100 C.3   1 <1>  -0.1600 
  8 O        1.7470     2.1390    -0.9960 O.3   1 <1>  -0.0190 
  9 C        3.5230     2.4370     0.1720 C.2   1 <1>  -0.1810 
 10 C        0.5920    -4.3780    -0.1910 C.3   1 <1>   0.3430 
 11 C       -0.8690    -2.5570     0.7500 C.3   1 <1>   0.3430 
 12 C        2.1130    -4.4740    -0.2710 C.3   1 <1>  -0.1600 
 13 N        2.0550     3.3970    -1.1700 N.2   1 <1>  -0.4100 
 14 C        3.1190     3.6020    -0.4810 C.2   1 <1>   0.1080 
 15 C        4.7300     2.2740     1.0810 C.3   1 <1>   0.0210 
 16 C       -2.1560    -3.0990     0.1420 C.3   1 <1>  -0.2400 
 17 C        3.8110     4.9470    -0.4120 C.3   1 <1>  -0.0590 
 18 C        5.9760     1.9350     0.2630 C.3   1 <1>  -0.2400 
 19 H        3.1940    -0.1480     0.7690 H     1 <1>   0.3700 
 20 H        1.6660    -2.1580     1.2810 H     1 <1>   0.0800 
 21 H        0.0420    -2.5800    -1.0640 H     1 <1>   0.4500 
 22 H        2.7290    -2.7910    -1.4540 H     1 <1>   0.0800 
 23 H        3.5760    -2.9010     0.0740 H     1 <1>   0.0800 
 24 H        0.2380    -4.8900     0.6900 H     1 <1>   0.0800 
 25 H        0.1310    -4.8160    -1.0620 H     1 <1>   0.0800 
 26 H       -0.7310    -2.9530     1.7440 H     1 <1>   0.0800 
 27 H       -0.9430    -1.4820     0.8160 H     1 <1>   0.0800 
 28 H        2.4830    -4.9190     0.6370 H     1 <1>   0.0800 
 29 H        2.4200    -5.0900    -1.0990 H     1 <1>   0.0800 
 30 H        4.8930     3.1830     1.6340 H     1 <1>   0.0800 
 31 H        4.5450     1.4900     1.7940 H     1 <1>   0.0800 
 32 H       -2.1600    -4.1740     0.1190 H     1 <1>   0.0800 
 33 H       -2.2990    -2.7120    -0.8510 H     1 <1>   0.0800 
 34 H       -2.9890    -2.7810     0.7430 H     1 <1>   0.0800 
 35 H        4.8280     4.8550    -0.7450 H     1 <1>   0.0800 
 36 H        3.7970     5.3140     0.5970 H     1 <1>   0.0800 
 37 H        3.3040     5.6530    -1.0440 H     1 <1>   0.0800 
 38 H        6.1880     2.7230    -0.4380 H     1 <1>   0.0800 
 39 H        5.8300     1.0220    -0.2860 H     1 <1>   0.0800 
 40 H        6.8260     1.8170     0.9120 H     1 <1>   0.0800 
@<TRIPOS>BOND
  1   1   2  2   
  2   2   3  am  
  3   2   4  1   
  4   3   5  1   
  5   3  19  1   
  6   4   6  1   
  7   4   7  1   
  8   4  20  1   
  9   5   8  1   
 10   5   9  2   
 11   6  10  1   
 12   6  11  1   
 13   6  21  1   
 14   7  12  1   
 15   7  22  1   
 16   7  23  1   
 17   8  13  1   
 18   9  14  1   
 19   9  15  1   
 20  10  12  1   
 21  10  24  1   
 22  10  25  1   
 23  11  16  1   
 24  11  26  1   
 25  11  27  1   
 26  12  28  1   
 27  12  29  1   
 28  13  14  2   
 29  14  17  1   
 30  15  18  1   
 31  15  30  1   
 32  15  31  1   
 33  16  32  1   
 34  16  33  1   
 35  16  34  1   
 36  17  35  1   
 37  17  36  1   
 38  17  37  1   
 39  18  38  1   
 40  18  39  1   
 41  18  40  1   
@<TRIPOS>SUBSTRUCTURE
  1 ****   3 GROUP 4 **** **** 0

# MOE 2024.06 (io_trps.svl 2023.06)
