@<TRIPOS>MOLECULE
NONAME
49 51 1 0 0 
SMALL
USER_CHARGES


@<TRIPOS>ATOM
  1 F       -1.6490     3.2180     2.1460 F     1 <1>  -0.1900 
  2 C       -1.1730     2.9600     0.9560 C.ar  1 <1>   0.1900 
  3 C       -1.9250     2.2050     0.0650 C.ar  1 <1>  -0.1440 
  4 C        0.0740     3.4650     0.6370 C.ar  1 <1>  -0.1500 
  5 C       -1.3860     1.9610    -1.1890 C.ar  1 <1>  -0.1500 
  6 C       -3.3000     1.6580     0.4300 C.3   1 <1>  -0.0160 
  7 C        0.5940     3.2090    -0.6200 C.ar  1 <1>  -0.1500 
  8 C       -0.1360     2.4590    -1.5290 C.ar  1 <1>  -0.1500 
  9 C       -4.3760     2.7370     0.2400 C.3   1 <1>  -0.0990 
 10 C       -5.7920     2.2610     0.5370 C.2   1 <1>   0.5690 
 11 O       -5.9620     1.0890     0.7850 O.2   1 <1>  -0.5700 
 12 N       -6.8360     3.1510     0.5020 N.am  1 <1>  -0.6600 
 13 C       -8.2370     2.7130     0.7920 C.3   1 <1>   0.1400 
 14 C       -6.7430     4.5890     0.1270 C.3   1 <1>   0.1400 
 15 C       -9.1470     2.9240    -0.4450 C.3   1 <1>   0.0000 
 16 C       -7.6060     4.8500    -1.1130 C.3   1 <1>  -0.1600 
 17 C      -10.5980     2.5090    -0.1480 C.3   1 <1>   0.2000 
 18 C       -9.0620     4.3980    -0.9010 C.3   1 <1>  -0.1600 
 19 C       -8.7660     1.9400    -1.5650 C.3   1 <1>  -0.1600 
 20 O      -10.9940     2.9100     1.1300 O.3   1 <1>  -0.5600 
 21 C      -10.6320     0.9840    -0.2940 C.3   1 <1>  -0.1600 
 22 C       -9.4460     0.6180    -1.1980 C.3   1 <1>  -0.1600 
 23 C      -12.3640     2.8420     1.3690 C.3   1 <1>   0.0400 
 24 H        0.6210     4.0430     1.3580 H     1 <1>   0.1500 
 25 H       -1.9360     1.3800    -1.9100 H     1 <1>   0.1500 
 26 H       -3.5280     0.8080    -0.1910 H     1 <1>   0.0800 
 27 H       -3.3020     1.3190     1.4520 H     1 <1>   0.0800 
 28 H        1.5630     3.5910    -0.8910 H     1 <1>   0.1500 
 29 H        0.2700     2.2600    -2.5060 H     1 <1>   0.1500 
 30 H       -4.3440     3.0860    -0.7750 H     1 <1>   0.0800 
 31 H       -4.1510     3.5600     0.8930 H     1 <1>   0.0800 
 32 H       -8.2580     1.6810     1.0950 H     1 <1>   0.0800 
 33 H       -8.6080     3.2940     1.6180 H     1 <1>   0.0800 
 34 H       -7.1020     5.1840     0.9490 H     1 <1>   0.0800 
 35 H       -5.7300     4.8810    -0.0760 H     1 <1>   0.0800 
 36 H       -7.5890     5.9010    -1.3400 H     1 <1>   0.0800 
 37 H       -7.1790     4.3290    -1.9520 H     1 <1>   0.0800 
 38 H      -11.2510     2.9610    -0.8770 H     1 <1>   0.0800 
 39 H       -9.6210     4.5410    -1.8080 H     1 <1>   0.0800 
 40 H       -9.5090     5.0170    -0.1420 H     1 <1>   0.0800 
 41 H       -9.1660     2.2860    -2.5030 H     1 <1>   0.0800 
 42 H       -7.7030     1.8190    -1.6720 H     1 <1>   0.0800 
 43 H      -10.5070     0.5150     0.6670 H     1 <1>   0.0800 
 44 H      -11.5600     0.6670    -0.7340 H     1 <1>   0.0800 
 45 H       -8.7550    -0.0020    -0.6510 H     1 <1>   0.0800 
 46 H       -9.7650     0.0880    -2.0790 H     1 <1>   0.0800 
 47 H      -12.5450     3.1940     2.3690 H     1 <1>   0.0800 
 48 H      -12.6950     1.8220     1.2810 H     1 <1>   0.0800 
 49 H      -12.8800     3.4710     0.6650 H     1 <1>   0.0800 
@<TRIPOS>BOND
  1   1   2  1   
  2   2   3  ar  
  3   2   4  ar  
  4   3   5  ar  
  5   3   6  1   
  6   4   7  ar  
  7   4  24  1   
  8   5   8  ar  
  9   5  25  1   
 10   6   9  1   
 11   6  26  1   
 12   6  27  1   
 13   7   8  ar  
 14   7  28  1   
 15   8  29  1   
 16   9  10  1   
 17   9  30  1   
 18   9  31  1   
 19  10  11  2   
 20  10  12  am  
 21  12  13  1   
 22  12  14  1   
 23  13  15  1   
 24  13  32  1   
 25  13  33  1   
 26  14  16  1   
 27  14  34  1   
 28  14  35  1   
 29  15  17  1   
 30  15  18  1   
 31  15  19  1   
 32  16  18  1   
 33  16  36  1   
 34  16  37  1   
 35  17  20  1   
 36  17  21  1   
 37  17  38  1   
 38  18  39  1   
 39  18  40  1   
 40  19  22  1   
 41  19  41  1   
 42  19  42  1   
 43  20  23  1   
 44  21  22  1   
 45  21  43  1   
 46  21  44  1   
 47  22  45  1   
 48  22  46  1   
 49  23  47  1   
 50  23  48  1   
 51  23  49  1   
@<TRIPOS>SUBSTRUCTURE
  1 ****  10 GROUP 4 **** **** 0

# MOE 2024.06 (io_trps.svl 2023.06)
