@<TRIPOS>MOLECULE
NONAME
52 53 1 0 0 
SMALL
USER_CHARGES


@<TRIPOS>ATOM
  1 S        0.5600     0.2370     0.4990 S.o2  1 <1>   1.3330 
  2 O        0.2160     0.4520     1.8860 O.2   1 <1>  -0.6500 
  3 O        1.9480     0.1210     0.1110 O.2   1 <1>  -0.6500 
  4 N       -0.2550    -1.1470    -0.0500 N.am  1 <1>  -0.8490 
  5 C       -0.1990     1.5510    -0.4530 C.3   1 <1>  -0.0550 
  6 C        0.3130    -1.7080    -1.2800 C.3   1 <1>   0.1160 
  7 C       -0.3370    -2.1880     0.9800 C.3   1 <1>   0.1160 
  8 C        0.2980     2.9510    -0.0530 C.3   1 <1>  -0.0800 
  9 C       -0.4330     4.0620    -0.8010 C.3   1 <1>   0.2000 
 10 C        1.7750     3.2100    -0.3620 C.3   1 <1>   0.1400 
 11 O       -1.6290     4.3550    -0.1690 O.3   1 <1>  -0.6800 
 12 C        0.5170     5.2580    -0.7910 C.3   1 <1>   0.1400 
 13 N        1.8650     4.6710    -0.5960 N.am  1 <1>  -0.6600 
 14 C        3.0610     5.3350    -0.5930 C.2   1 <1>   0.5690 
 15 O        4.1060     4.7580    -0.4160 O.2   1 <1>  -0.5700 
 16 C        3.1220     6.8370    -0.7860 C.3   1 <1>  -0.0990 
 17 C        3.1060     7.5580     0.5680 C.3   1 <1>  -0.0220 
 18 C        3.2640     9.0710     0.3850 C.2   1 <1>  -0.1240 
 19 C        2.1900     9.8900     0.2010 C.2   1 <1>  -0.0290 
 20 C        4.5660     9.6680     0.4010 C.2   1 <1>   0.3750 
 21 N        2.4420    11.2220     0.0610 N.am  1 <1>  -0.5390 
 22 C        0.7200     9.5040     0.1260 C.3   1 <1>  -0.1020 
 23 N        4.7750    10.9280     0.2600 N.2   1 <1>  -0.6610 
 24 C        5.8120     8.8190     0.5950 C.3   1 <1>  -0.1790 
 25 C        3.6970    11.7430     0.0870 C.2   1 <1>   0.8410 
 26 O        3.8320    12.9430    -0.0480 O.2   1 <1>  -0.5700 
 27 H       -0.0150     1.3900    -1.4970 H     1 <1>   0.0800 
 28 H       -1.2610     1.5110    -0.2980 H     1 <1>   0.0800 
 29 H       -0.2940    -2.5260    -1.6290 H     1 <1>   0.0800 
 30 H        1.3150    -2.0660    -1.1050 H     1 <1>   0.0800 
 31 H        0.3460    -0.9580    -2.0510 H     1 <1>   0.0800 
 32 H       -0.8720    -3.0430     0.6060 H     1 <1>   0.0800 
 33 H       -0.8650    -1.8130     1.8420 H     1 <1>   0.0800 
 34 H        0.6510    -2.4920     1.2850 H     1 <1>   0.0800 
 35 H        0.1670     3.0870     1.0070 H     1 <1>   0.0800 
 36 H       -0.6470     3.7800    -1.8180 H     1 <1>   0.0800 
 37 H        2.0850     2.6940    -1.2550 H     1 <1>   0.0800 
 38 H        2.4110     2.9100     0.4560 H     1 <1>   0.0800 
 39 H       -1.4990     4.4470     0.7950 H     1 <1>   0.4000 
 40 H        0.2920     5.9170     0.0290 H     1 <1>   0.0800 
 41 H        0.4640     5.7870    -1.7270 H     1 <1>   0.0800 
 42 H        4.0320     7.0670    -1.3080 H     1 <1>   0.0800 
 43 H        2.3100     7.1750    -1.4010 H     1 <1>   0.0800 
 44 H        3.8870     7.1630     1.1930 H     1 <1>   0.0800 
 45 H        2.1890     7.3380     1.0820 H     1 <1>   0.0800 
 46 H        1.7150    11.9210    -0.0730 H     1 <1>   0.3700 
 47 H        0.2770     9.9340    -0.7550 H     1 <1>   0.0800 
 48 H        0.2020     9.8820     0.9890 H     1 <1>   0.0800 
 49 H        0.5750     8.4440     0.0790 H     1 <1>   0.0800 
 50 H        5.8450     8.0200    -0.1210 H     1 <1>   0.0800 
 51 H        5.8280     8.4130     1.5900 H     1 <1>   0.0800 
 52 H        6.6950     9.4190     0.4650 H     1 <1>   0.0800 
@<TRIPOS>BOND
  1   1   2  2   
  2   1   3  2   
  3   1   4  am  
  4   1   5  1   
  5   4   6  1   
  6   4   7  1   
  7   5   8  1   
  8   5  27  1   
  9   5  28  1   
 10   6  29  1   
 11   6  30  1   
 12   6  31  1   
 13   7  32  1   
 14   7  33  1   
 15   7  34  1   
 16   8   9  1   
 17   8  10  1   
 18   8  35  1   
 19   9  11  1   
 20   9  12  1   
 21   9  36  1   
 22  10  13  1   
 23  10  37  1   
 24  10  38  1   
 25  11  39  1   
 26  12  13  1   
 27  12  40  1   
 28  12  41  1   
 29  13  14  am  
 30  14  15  2   
 31  14  16  1   
 32  16  17  1   
 33  16  42  1   
 34  16  43  1   
 35  17  18  1   
 36  17  44  1   
 37  17  45  1   
 38  18  19  2   
 39  18  20  1   
 40  19  21  1   
 41  19  22  1   
 42  20  23  2   
 43  20  24  1   
 44  21  25  am  
 45  21  46  1   
 46  22  47  1   
 47  22  48  1   
 48  22  49  1   
 49  23  25  1   
 50  24  50  1   
 51  24  51  1   
 52  24  52  1   
 53  25  26  2   
@<TRIPOS>SUBSTRUCTURE
  1 ****  13 GROUP 4 **** **** 0

# MOE 2024.06 (io_trps.svl 2023.06)
