@<TRIPOS>MOLECULE
NONAME
63 66 1 0 0 
SMALL
USER_CHARGES


@<TRIPOS>ATOM
  1 O       -1.4800    -0.6370    -1.7250 O.3   1 <1>  -0.5600 
  2 C       -2.3370     0.3950    -1.3390 C.3   1 <1>   0.1200 
  3 C       -1.4150    -1.7150    -0.8380 C.3   1 <1>   0.1200 
  4 C       -3.7760    -0.1370    -1.1950 C.3   1 <1>   0.3430 
  5 C       -2.8100    -2.3470    -0.6710 C.3   1 <1>   0.3430 
  6 N       -3.8430    -1.3250    -0.2640 N.4   1 <1>  -0.9590 
  7 C       -5.2080    -1.9490    -0.2060 C.3   1 <1>   0.3430 
  8 C       -6.2570    -1.0250     0.4310 C.3   1 <1>   0.1200 
  9 O       -7.4900    -1.7170     0.5510 O.3   1 <1>  -0.3630 
 10 C       -8.4830    -1.1870     1.3230 C.ar  1 <1>   0.0820 
 11 C       -9.5250    -2.0210     1.7200 C.ar  1 <1>  -0.1440 
 12 C       -8.4840     0.1460     1.7300 C.ar  1 <1>  -0.1500 
 13 C      -10.5260    -1.5300     2.5480 C.ar  1 <1>  -0.1500 
 14 C       -9.5960    -3.4610     1.2540 C.3   1 <1>   0.4860 
 15 C       -9.4930     0.6280     2.5430 C.ar  1 <1>  -0.1500 
 16 C      -10.5100    -0.2100     2.9570 C.ar  1 <1>  -0.1500 
 17 N      -10.0340    -3.4910    -0.1710 N.4   1 <1>  -0.9590 
 18 C      -11.3750    -2.8510    -0.3440 C.3   1 <1>   0.4230 
 19 C       -9.9070    -4.8710    -0.7400 C.3   1 <1>   0.2630 
 20 C      -12.5480    -3.6550     0.2120 C.3   1 <1>  -0.1600 
 21 C      -11.7430    -2.6090    -1.8030 C.3   1 <1>  -0.1600 
 22 C      -13.7730    -3.0430    -0.4780 C.3   1 <1>  -0.0800 
 23 C      -13.2600    -2.3840    -1.7720 C.3   1 <1>  -0.0800 
 24 C      -14.4420    -1.9280     0.3400 C.3   1 <1>  -0.1600 
 25 C      -13.6600    -0.9020    -1.6910 C.3   1 <1>  -0.1600 
 26 C      -14.8010    -0.8670    -0.6880 C.3   1 <1>   0.2000 
 27 O      -14.8770     0.3710    -0.0900 O.3   1 <1>  -0.6800 
 28 H       -1.9790     0.8190    -0.4160 H     1 <1>   0.0800 
 29 H       -2.2970     1.1540    -2.1020 H     1 <1>   0.0800 
 30 H       -0.7280    -2.4340    -1.2500 H     1 <1>   0.0800 
 31 H       -1.0230    -1.3690     0.1030 H     1 <1>   0.0800 
 32 H       -4.1270    -0.4200    -2.1740 H     1 <1>   0.0800 
 33 H       -4.4080     0.6570    -0.8330 H     1 <1>   0.0800 
 34 H       -2.7540    -3.1320     0.0660 H     1 <1>   0.0800 
 35 H       -3.0890    -2.7950    -1.6100 H     1 <1>   0.0800 
 36 H       -3.5770    -0.9990     0.6760 H     1 <1>   0.4500 
 37 H       -5.5250    -2.2090    -1.2030 H     1 <1>   0.0800 
 38 H       -5.1560    -2.8510     0.3810 H     1 <1>   0.0800 
 39 H       -6.4250    -0.1560    -0.1800 H     1 <1>   0.0800 
 40 H       -5.9400    -0.7380     1.4200 H     1 <1>   0.0800 
 41 H       -7.7180     0.8370     1.4340 H     1 <1>   0.1500 
 42 H      -11.3290    -2.1630     2.8870 H     1 <1>   0.1500 
 43 H      -10.2890    -4.0140     1.8680 H     1 <1>   0.0800 
 44 H       -8.6210    -3.9110     1.3510 H     1 <1>   0.0800 
 45 H       -9.4890     1.6580     2.8600 H     1 <1>   0.1500 
 46 H      -11.2880     0.1690     3.6010 H     1 <1>   0.1500 
 47 H       -9.3720    -2.8680    -0.6530 H     1 <1>   0.4500 
 48 H      -11.3790    -1.8870     0.1410 H     1 <1>   0.0800 
 49 H      -10.5670    -5.5520    -0.2280 H     1 <1>   0.0800 
 50 H       -8.8960    -5.2290    -0.6310 H     1 <1>   0.0800 
 51 H      -10.1560    -4.8740    -1.7880 H     1 <1>   0.0800 
 52 H      -12.4870    -4.6860    -0.0810 H     1 <1>   0.0800 
 53 H      -12.6210    -3.5910     1.2830 H     1 <1>   0.0800 
 54 H      -11.2200    -1.7660    -2.2180 H     1 <1>   0.0800 
 55 H      -11.5500    -3.4800    -2.4020 H     1 <1>   0.0800 
 56 H      -14.5020    -3.8020    -0.7120 H     1 <1>   0.0800 
 57 H      -13.7320    -2.8350    -2.6300 H     1 <1>   0.0800 
 58 H      -13.7540    -1.5170     1.0580 H     1 <1>   0.0800 
 59 H      -15.3210    -2.2850     0.8470 H     1 <1>   0.0800 
 60 H      -13.9780    -0.5290    -2.6490 H     1 <1>   0.0800 
 61 H      -12.8400    -0.3070    -1.3290 H     1 <1>   0.0800 
 62 H      -15.7450    -1.0870    -1.1610 H     1 <1>   0.0800 
 63 H      -14.0210     0.6190     0.3040 H     1 <1>   0.4000 
@<TRIPOS>BOND
  1   1   2  1   
  2   1   3  1   
  3   2   4  1   
  4   2  28  1   
  5   2  29  1   
  6   3   5  1   
  7   3  30  1   
  8   3  31  1   
  9   4   6  1   
 10   4  32  1   
 11   4  33  1   
 12   5   6  1   
 13   5  34  1   
 14   5  35  1   
 15   6   7  1   
 16   6  36  1   
 17   7   8  1   
 18   7  37  1   
 19   7  38  1   
 20   8   9  1   
 21   8  39  1   
 22   8  40  1   
 23   9  10  1   
 24  10  11  ar  
 25  10  12  ar  
 26  11  13  ar  
 27  11  14  1   
 28  12  15  ar  
 29  12  41  1   
 30  13  16  ar  
 31  13  42  1   
 32  14  17  1   
 33  14  43  1   
 34  14  44  1   
 35  15  16  ar  
 36  15  45  1   
 37  16  46  1   
 38  17  18  1   
 39  17  19  1   
 40  17  47  1   
 41  18  20  1   
 42  18  21  1   
 43  18  48  1   
 44  19  49  1   
 45  19  50  1   
 46  19  51  1   
 47  20  22  1   
 48  20  52  1   
 49  20  53  1   
 50  21  23  1   
 51  21  54  1   
 52  21  55  1   
 53  22  23  1   
 54  22  24  1   
 55  22  56  1   
 56  23  25  1   
 57  23  57  1   
 58  24  26  1   
 59  24  58  1   
 60  24  59  1   
 61  25  26  1   
 62  25  60  1   
 63  25  61  1   
 64  26  27  1   
 65  26  62  1   
 66  27  63  1   
@<TRIPOS>SUBSTRUCTURE
  1 ****  10 GROUP 4 **** **** 0

# MOE 2024.06 (io_trps.svl 2023.06)
