@<TRIPOS>MOLECULE
NONAME
52 54 1 0 0 
SMALL
USER_CHARGES


@<TRIPOS>ATOM
  1 CL      -0.1250     1.3730    -1.9470 Cl    1 <1>  -0.1770 
  2 C        0.1550     2.8620    -1.0790 C.ar  1 <1>   0.1770 
  3 C        1.2670     3.6420    -1.3610 C.ar  1 <1>  -0.1440 
  4 C       -0.7570     3.2420    -0.1120 C.ar  1 <1>  -0.1500 
  5 C        1.4450     4.8180    -0.6510 C.ar  1 <1>  -0.1500 
  6 C        2.2800     3.2310    -2.4200 C.3   1 <1>  -0.0960 
  7 C       -0.5550     4.4150     0.5920 C.ar  1 <1>  -0.1500 
  8 C        0.5550     5.2230     0.3450 C.ar  1 <1>   0.0860 
  9 C        0.7630     6.4480     1.0940 C.2   1 <1>   0.5440 
 10 O       -0.0830     7.3200     1.0250 O.2   1 <1>  -0.5700 
 11 N        1.8770     6.6580     1.8880 N.am  1 <1>  -0.6600 
 12 C        2.9060     5.6000     2.1720 C.3   1 <1>   0.1400 
 13 C        2.1170     7.9890     2.5130 C.3   1 <1>   0.1400 
 14 C        4.3620     6.0910     2.0590 C.3   1 <1>   0.1400 
 15 C        2.9070     8.8860     1.5520 C.3   1 <1>  -0.1600 
 16 N        4.5420     7.0870     0.9630 N.am  1 <1>  -0.6600 
 17 C        4.3840     8.5040     1.3940 C.3   1 <1>   0.1400 
 18 C        4.7580     6.6710    -0.3280 C.2   1 <1>   0.5690 
 19 O        4.8730     5.4940    -0.5920 O.2   1 <1>  -0.5700 
 20 C        4.8140     7.6520    -1.4950 C.3   1 <1>   0.0820 
 21 C        6.0300     8.5750    -1.4800 C.2   1 <1>  -0.1810 
 22 C        7.3610     8.1890    -1.3220 C.2   1 <1>   0.1080 
 23 C        6.0770     9.9210    -1.6160 C.2   1 <1>  -0.3320 
 24 N        8.1700     9.2000    -1.3450 N.2   1 <1>  -0.7070 
 25 C        7.8680     6.7750    -1.1410 C.3   1 <1>  -0.0590 
 26 N        7.3780    10.2680    -1.5310 N.pl3 1 <1>   0.3000 
 27 C        4.9710    10.9420    -1.8290 C.3   1 <1>  -0.0600 
 28 H       -1.6140     2.6220     0.0830 H     1 <1>   0.1500 
 29 H        2.2930     5.4440    -0.8600 H     1 <1>   0.1500 
 30 H        2.6500     2.2430    -2.2120 H     1 <1>   0.0800 
 31 H        3.1170     3.9070    -2.4360 H     1 <1>   0.0800 
 32 H        1.8180     3.2310    -3.3910 H     1 <1>   0.0800 
 33 H       -1.2620     4.7230     1.3430 H     1 <1>   0.1500 
 34 H        2.7910     4.7710     1.5010 H     1 <1>   0.0800 
 35 H        2.7460     5.2190     3.1650 H     1 <1>   0.0800 
 36 H        2.6420     7.8720     3.4440 H     1 <1>   0.0800 
 37 H        1.1710     8.4550     2.7340 H     1 <1>   0.0800 
 38 H        5.0040     5.2440     1.8880 H     1 <1>   0.0800 
 39 H        4.6630     6.5270     2.9950 H     1 <1>   0.0800 
 40 H        2.8680     9.8920     1.9290 H     1 <1>   0.0800 
 41 H        2.4240     8.8920     0.5910 H     1 <1>   0.0800 
 42 H        4.8950     8.6430     2.3310 H     1 <1>   0.0800 
 43 H        4.8480     9.1680     0.6890 H     1 <1>   0.0800 
 44 H        3.9090     8.2250    -1.4910 H     1 <1>   0.0800 
 45 H        4.8310     7.0910    -2.4110 H     1 <1>   0.0800 
 46 H        7.3540     6.1070    -1.8060 H     1 <1>   0.0800 
 47 H        7.7080     6.4600    -0.1270 H     1 <1>   0.0800 
 48 H        8.9200     6.7350    -1.3550 H     1 <1>   0.0800 
 49 H        7.7590    11.2190    -1.5990 H     1 <1>   0.2700 
 50 H        4.0100    10.4660    -1.8890 H     1 <1>   0.0800 
 51 H        5.1380    11.4790    -2.7460 H     1 <1>   0.0800 
 52 H        4.9520    11.6430    -1.0140 H     1 <1>   0.0800 
@<TRIPOS>BOND
  1   1   2  1   
  2   2   3  ar  
  3   2   4  ar  
  4   3   5  ar  
  5   3   6  1   
  6   4   7  ar  
  7   4  28  1   
  8   5   8  ar  
  9   5  29  1   
 10   6  30  1   
 11   6  31  1   
 12   6  32  1   
 13   7   8  ar  
 14   7  33  1   
 15   8   9  1   
 16   9  10  2   
 17   9  11  am  
 18  11  12  1   
 19  11  13  1   
 20  12  14  1   
 21  12  34  1   
 22  12  35  1   
 23  13  15  1   
 24  13  36  1   
 25  13  37  1   
 26  14  16  1   
 27  14  38  1   
 28  14  39  1   
 29  15  17  1   
 30  15  40  1   
 31  15  41  1   
 32  16  17  1   
 33  16  18  am  
 34  17  42  1   
 35  17  43  1   
 36  18  19  2   
 37  18  20  1   
 38  20  21  1   
 39  20  44  1   
 40  20  45  1   
 41  21  22  1   
 42  21  23  2   
 43  22  24  2   
 44  22  25  1   
 45  23  26  1   
 46  23  27  1   
 47  24  26  1   
 48  25  46  1   
 49  25  47  1   
 50  25  48  1   
 51  26  49  1   
 52  27  50  1   
 53  27  51  1   
 54  27  52  1   
@<TRIPOS>SUBSTRUCTURE
  1 ****  18 GROUP 4 **** **** 0

# MOE 2024.06 (io_trps.svl 2023.06)
