@<TRIPOS>MOLECULE
NONAME
47 50 1 0 0 
SMALL
USER_CHARGES


@<TRIPOS>ATOM
  1 F        1.3470    -1.8520     2.3860 F     1 <1>  -0.1900 
  2 C        1.8940    -1.7930     1.1990 C.ar  1 <1>   0.1900 
  3 C        1.1620    -2.1680     0.0800 C.ar  1 <1>  -0.0320 
  4 C        3.2010    -1.3470     1.1190 C.ar  1 <1>  -0.1500 
  5 C        1.7920    -2.0920    -1.1550 C.ar  1 <1>  -0.1500 
  6 C       -0.2820    -2.6640     0.1720 C.3   1 <1>   0.0320 
  7 C        3.8070    -1.2730    -0.1230 C.ar  1 <1>  -0.1500 
  8 C        3.1020    -1.6460    -1.2560 C.ar  1 <1>  -0.1500 
  9 C       -0.3520    -4.1980     0.4020 C.2   1 <1>   0.6300 
 10 C       -1.2910    -1.7780     0.8550 C.3   1 <1>  -0.2000 
 11 C       -1.2650    -1.8530    -0.6370 C.3   1 <1>  -0.2000 
 12 O        0.6270    -4.7260     0.8820 O.2   1 <1>  -0.5700 
 13 N       -1.4360    -4.9920     0.0910 N.am  1 <1>  -0.6600 
 14 C       -2.8360    -4.6230    -0.2480 C.3   1 <1>   0.1400 
 15 C       -1.3450    -6.4750     0.2180 C.3   1 <1>   0.1400 
 16 C       -3.6700    -5.8180     0.2060 C.3   1 <1>   0.2000 
 17 C       -2.7530    -7.0080    -0.0680 C.3   1 <1>  -0.0800 
 18 O       -3.8810    -5.6960     1.5720 O.3   1 <1>  -0.6800 
 19 C       -3.0940    -8.3010     0.6940 C.3   1 <1>   0.0210 
 20 C       -2.1280    -9.4100     0.3270 C.2   1 <1>   0.1080 
 21 N       -2.0570    -9.9150    -0.8650 N.2   1 <1>  -0.7070 
 22 C       -1.2180    -9.9950     1.2010 C.2   1 <1>  -0.1500 
 23 N       -1.0910   -10.8490    -0.7820 N.pl3 1 <1>   0.3000 
 24 C       -0.5660   -10.9150     0.4600 C.2   1 <1>  -0.3320 
 25 C        0.5440   -11.8660     0.8670 C.3   1 <1>  -0.0600 
 26 H        3.7280    -1.0680     2.0130 H     1 <1>   0.1500 
 27 H        1.2620    -2.3860    -2.0440 H     1 <1>   0.1500 
 28 H        4.8230    -0.9290    -0.2080 H     1 <1>   0.1500 
 29 H        3.5750    -1.5920    -2.2210 H     1 <1>   0.1500 
 30 H       -2.0850    -2.2420     1.4110 H     1 <1>   0.1000 
 31 H       -0.9430    -0.8780     1.3320 H     1 <1>   0.1000 
 32 H       -0.9060    -0.9890    -1.1690 H     1 <1>   0.1000 
 33 H       -2.0610    -2.3330    -1.1710 H     1 <1>   0.1000 
 34 H       -3.1650    -3.7260     0.2420 H     1 <1>   0.0800 
 35 H       -2.9200    -4.5110    -1.3150 H     1 <1>   0.0800 
 36 H       -0.6290    -6.8750    -0.4810 H     1 <1>   0.0800 
 37 H       -1.0350    -6.7260     1.2180 H     1 <1>   0.0800 
 38 H       -4.6250    -5.8870    -0.2870 H     1 <1>   0.0800 
 39 H       -2.8020    -7.2230    -1.1210 H     1 <1>   0.0800 
 40 H       -3.0210    -5.5060     2.0020 H     1 <1>   0.4000 
 41 H       -4.0900    -8.6160     0.4400 H     1 <1>   0.0800 
 42 H       -3.0570    -8.1390     1.7560 H     1 <1>   0.0800 
 43 H       -1.0840    -9.7470     2.2390 H     1 <1>   0.1500 
 44 H       -0.8150   -11.4230    -1.5870 H     1 <1>   0.2700 
 45 H        0.7880   -11.7260     1.9060 H     1 <1>   0.0800 
 46 H        1.4270   -11.6820     0.2810 H     1 <1>   0.0800 
 47 H        0.2320   -12.8850     0.7240 H     1 <1>   0.0800 
@<TRIPOS>BOND
  1   1   2  1   
  2   2   3  ar  
  3   2   4  ar  
  4   3   5  ar  
  5   3   6  1   
  6   4   7  ar  
  7   4  26  1   
  8   5   8  ar  
  9   5  27  1   
 10   6   9  1   
 11   6  10  1   
 12   6  11  1   
 13   7   8  ar  
 14   7  28  1   
 15   8  29  1   
 16   9  12  2   
 17   9  13  am  
 18  10  11  1   
 19  10  30  1   
 20  10  31  1   
 21  11  32  1   
 22  11  33  1   
 23  13  14  1   
 24  13  15  1   
 25  14  16  1   
 26  14  34  1   
 27  14  35  1   
 28  15  17  1   
 29  15  36  1   
 30  15  37  1   
 31  16  17  1   
 32  16  18  1   
 33  16  38  1   
 34  17  19  1   
 35  17  39  1   
 36  18  40  1   
 37  19  20  1   
 38  19  41  1   
 39  19  42  1   
 40  20  21  2   
 41  20  22  1   
 42  21  23  1   
 43  22  24  2   
 44  22  43  1   
 45  23  24  1   
 46  23  44  1   
 47  24  25  1   
 48  25  45  1   
 49  25  46  1   
 50  25  47  1   
@<TRIPOS>SUBSTRUCTURE
  1 ****  13 GROUP 4 **** **** 0

# MOE 2024.06 (io_trps.svl 2023.06)
