@<TRIPOS>MOLECULE
NONAME
42 43 1 0 0 
SMALL
USER_CHARGES


@<TRIPOS>ATOM
  1 S       -0.9920     0.8690     1.4850 S.o2  1 <1>   1.4470 
  2 O       -1.6040     2.1770     1.6120 O.2   1 <1>  -0.6500 
  3 O       -1.1090    -0.0550     2.5920 O.2   1 <1>  -0.6500 
  4 N       -1.6480     0.1640     0.0850 N.am  1 <1>  -0.8490 
  5 C        0.7590     1.1030     1.0660 C.ar  1 <1>  -0.0090 
  6 C       -1.0930    -1.1460    -0.3130 C.3   1 <1>   0.1960 
  7 C       -3.1110     0.2150    -0.0020 C.3   1 <1>   0.1960 
  8 C        1.1790     2.1960     0.3170 C.ar  1 <1>  -0.1500 
  9 C        1.7240     0.1820     1.4570 C.ar  1 <1>  -0.1500 
 10 C       -1.7230    -2.3280     0.4340 C.3   1 <1>  -0.1860 
 11 C       -3.7750    -0.9120     0.7930 C.3   1 <1>  -0.1600 
 12 C        2.5100     2.3680    -0.0230 C.ar  1 <1>  -0.1500 
 13 C        3.0560     0.3470     1.1190 C.ar  1 <1>  -0.1500 
 14 C       -1.2100    -3.6370    -0.1260 C.2   1 <1>   0.9060 
 15 C       -3.2440    -2.2590     0.3180 C.3   1 <1>   0.2000 
 16 C        3.4630     1.4430     0.3750 C.ar  1 <1>  -0.1440 
 17 O       -0.2960    -3.6270    -0.9550 O.co2 1 <1>  -0.9000 
 18 O       -1.7390    -4.6880     0.2600 O.co2 1 <1>  -0.9000 
 19 O       -3.7970    -3.2500     1.0970 O.3   1 <1>  -0.6800 
 20 C        4.9350     1.6080     0.0040 C.3   1 <1>   0.0630 
 21 C        5.5060     2.9090     0.5770 C.3   1 <1>  -0.2400 
 22 C        5.1190     1.5540    -1.5160 C.3   1 <1>  -0.2400 
 23 H       -1.2710    -1.2800    -1.3680 H     1 <1>   0.0800 
 24 H       -0.0250    -1.1630    -0.1780 H     1 <1>   0.0800 
 25 H       -3.4720     1.1690     0.3430 H     1 <1>   0.0800 
 26 H       -3.3920     0.1200    -1.0370 H     1 <1>   0.0800 
 27 H        0.4500     2.9200    -0.0040 H     1 <1>   0.1500 
 28 H        1.4260    -0.6800     2.0310 H     1 <1>   0.1500 
 29 H       -1.4350    -2.2930     1.4660 H     1 <1>   0.0800 
 30 H       -4.8380    -0.8760     0.6410 H     1 <1>   0.0800 
 31 H       -3.5750    -0.7850     1.8420 H     1 <1>   0.0800 
 32 H        2.7970     3.2270    -0.6030 H     1 <1>   0.1500 
 33 H        3.7710    -0.3910     1.4380 H     1 <1>   0.1500 
 34 H       -3.5390    -2.4450    -0.7020 H     1 <1>   0.0800 
 35 H       -3.2200    -4.0560     0.9500 H     1 <1>   0.4000 
 36 H        5.4920     0.7900     0.4300 H     1 <1>   0.0800 
 37 H        5.0210     3.7650     0.1440 H     1 <1>   0.0800 
 38 H        6.5600     2.9730     0.3770 H     1 <1>   0.0800 
 39 H        5.3570     2.9330     1.6420 H     1 <1>   0.0800 
 40 H        4.6230     2.3810    -1.9910 H     1 <1>   0.0800 
 41 H        4.7030     0.6390    -1.9000 H     1 <1>   0.0800 
 42 H        6.1630     1.5880    -1.7670 H     1 <1>   0.0800 
@<TRIPOS>BOND
  1   1   2  2   
  2   1   3  2   
  3   1   4  am  
  4   1   5  1   
  5   4   6  1   
  6   4   7  1   
  7   5   8  ar  
  8   5   9  ar  
  9   6  10  1   
 10   6  23  1   
 11   6  24  1   
 12   7  11  1   
 13   7  25  1   
 14   7  26  1   
 15   8  12  ar  
 16   8  27  1   
 17   9  13  ar  
 18   9  28  1   
 19  10  14  1   
 20  10  15  1   
 21  10  29  1   
 22  11  15  1   
 23  11  30  1   
 24  11  31  1   
 25  12  16  ar  
 26  12  32  1   
 27  13  16  ar  
 28  13  33  1   
 29  14  17  ar  
 30  14  18  ar  
 31  15  19  1   
 32  15  34  1   
 33  16  20  1   
 34  19  35  1   
 35  20  21  1   
 36  20  22  1   
 37  20  36  1   
 38  21  37  1   
 39  21  38  1   
 40  21  39  1   
 41  22  40  1   
 42  22  41  1   
 43  22  42  1   
@<TRIPOS>SUBSTRUCTURE
  1 ****   5 GROUP 4 **** **** 0

# MOE 2024.06 (io_trps.svl 2023.06)
