@<TRIPOS>MOLECULE
NONAME
42 45 1 0 0 
SMALL
USER_CHARGES


@<TRIPOS>ATOM
  1 S        0.3350     0.3340    -1.7530 S.3   1 <1>  -0.2420 
  2 C        1.7250    -0.0900    -0.7540 C.2   1 <1>   0.6410 
  3 C       -0.2430    -1.3450    -1.7420 C.2   1 <1>  -0.0490 
  4 N        2.6090     0.7590    -0.3750 N.2   1 <1>  -0.6610 
  5 N        1.6950    -1.4450    -0.4610 N.pl3 1 <1>  -0.1080 
  6 C        0.5890    -2.1240    -1.0240 C.2   1 <1>   0.2090 
  7 C        3.5910     0.1920     0.3930 C.2   1 <1>   0.7810 
  8 N        2.6640    -2.0460     0.3060 N.2   1 <1>  -0.4920 
  9 N        0.4980    -3.4980    -0.7680 N.am  1 <1>  -0.5390 
 10 O        4.4770     0.9340     0.7990 O.2   1 <1>  -0.5700 
 11 C        3.5810    -1.2240     0.7130 C.2   1 <1>   0.3890 
 12 C       -0.4500    -4.3890    -1.1760 C.2   1 <1>   0.5690 
 13 C        4.7020    -1.7930     1.5720 C.3   1 <1>  -0.1790 
 14 O       -1.3930    -4.0670    -1.8560 O.2   1 <1>  -0.5700 
 15 C       -0.3090    -5.8390    -0.7460 C.3   1 <1>  -0.0190 
 16 C       -0.4360    -6.7780    -1.9470 C.3   1 <1>   0.1200 
 17 C       -1.3740    -6.2180     0.2880 C.3   1 <1>  -0.0160 
 18 O       -0.1880    -8.1060    -1.5330 O.3   1 <1>  -0.3630 
 19 C       -1.3680    -7.7210     0.5220 C.ar  1 <1>  -0.1440 
 20 C       -0.7780    -8.5860    -0.4000 C.ar  1 <1>   0.0820 
 21 C       -1.9580    -8.2370     1.6640 C.ar  1 <1>  -0.1500 
 22 C       -0.7730    -9.9640    -0.1690 C.ar  1 <1>   0.0820 
 23 C       -1.9580    -9.6010     1.8950 C.ar  1 <1>  -0.1500 
 24 O       -0.1780   -10.7680    -1.0970 O.3   1 <1>  -0.3630 
 25 C       -1.3690   -10.4620     0.9860 C.ar  1 <1>  -0.1500 
 26 C       -0.1560   -12.1700    -0.9560 C.3   1 <1>   0.0400 
 27 H       -1.1490    -1.5610    -2.2800 H     1 <1>   0.1500 
 28 H        1.2680    -3.8470    -0.1940 H     1 <1>   0.3700 
 29 H        4.7140    -1.3000     2.5270 H     1 <1>   0.0800 
 30 H        5.6480    -1.6320     1.0880 H     1 <1>   0.0800 
 31 H        4.5680    -2.8480     1.7280 H     1 <1>   0.0800 
 32 H        0.6660    -5.9830    -0.3190 H     1 <1>   0.0800 
 33 H        0.2810    -6.5340    -2.7100 H     1 <1>   0.0800 
 34 H       -1.4270    -6.7400    -2.3670 H     1 <1>   0.0800 
 35 H       -2.3490    -5.9340    -0.0710 H     1 <1>   0.0800 
 36 H       -1.1880    -5.6970     1.2110 H     1 <1>   0.0800 
 37 H       -2.4200    -7.5790     2.3790 H     1 <1>   0.1500 
 38 H       -2.4190    -9.9930     2.7850 H     1 <1>   0.1500 
 39 H       -1.3860   -11.5140     1.1970 H     1 <1>   0.1500 
 40 H        0.3520   -12.5820    -1.8090 H     1 <1>   0.0800 
 41 H       -1.1680   -12.5330    -0.9230 H     1 <1>   0.0800 
 42 H        0.3770   -12.4220    -0.0560 H     1 <1>   0.0800 
@<TRIPOS>BOND
  1   1   2  1   
  2   1   3  1   
  3   2   4  2   
  4   2   5  1   
  5   3   6  2   
  6   3  27  1   
  7   4   7  1   
  8   5   6  1   
  9   5   8  1   
 10   6   9  1   
 11   7  10  2   
 12   7  11  1   
 13   8  11  2   
 14   9  12  am  
 15   9  28  1   
 16  11  13  1   
 17  12  14  2   
 18  12  15  1   
 19  13  29  1   
 20  13  30  1   
 21  13  31  1   
 22  15  16  1   
 23  15  17  1   
 24  15  32  1   
 25  16  18  1   
 26  16  33  1   
 27  16  34  1   
 28  17  19  1   
 29  17  35  1   
 30  17  36  1   
 31  18  20  1   
 32  19  20  ar  
 33  19  21  ar  
 34  20  22  ar  
 35  21  23  ar  
 36  21  37  1   
 37  22  24  1   
 38  22  25  ar  
 39  23  25  ar  
 40  23  38  1   
 41  24  26  1   
 42  25  39  1   
 43  26  40  1   
 44  26  41  1   
 45  26  42  1   
@<TRIPOS>SUBSTRUCTURE
  1 ****   9 GROUP 4 **** **** 0

# MOE 2024.06 (io_trps.svl 2023.06)
