@<TRIPOS>MOLECULE
NONAME
50 53 1 0 0 
SMALL
USER_CHARGES


@<TRIPOS>ATOM
  1 O       -1.1530     0.6960    -1.5080 O.2   1 <1>  -0.5700 
  2 C       -1.3920     1.5160    -0.6260 C.2   1 <1>   0.5440 
  3 N       -2.4750     1.2240     0.2030 N.am  1 <1>  -0.6600 
  4 C       -0.5840     2.7150    -0.5230 C.ar  1 <1>   0.3960 
  5 C       -3.0030    -0.1700     0.2850 C.3   1 <1>   0.1400 
  6 C       -3.1750     2.2780     0.9960 C.3   1 <1>   0.1400 
  7 N       -0.3770     3.3190     0.6790 N.ar  1 <1>  -0.6200 
  8 C       -0.0240     3.2460    -1.6950 C.ar  1 <1>   0.1600 
  9 C       -4.0780    -0.4180    -0.7830 C.3   1 <1>   0.1400 
 10 C       -4.7050     2.1570     0.9890 C.3   1 <1>  -0.1600 
 11 C        0.3410     4.4070     0.5940 C.ar  1 <1>   0.1600 
 12 N        0.6900     4.3400    -1.7920 N.ar  1 <1>  -0.6200 
 13 N       -5.3710     0.2610    -0.4450 N.am  1 <1>  -0.6600 
 14 C       -5.2950     1.7470    -0.3640 C.3   1 <1>   0.1400 
 15 C        0.8690     4.9430    -0.6040 C.ar  1 <1>   0.1390 
 16 C       -6.5500    -0.3910    -0.1770 C.2   1 <1>   0.5690 
 17 O        1.5170     6.0020    -0.5800 O.3   1 <1>  -0.8290 
 18 O       -7.5580     0.2150     0.1080 O.2   1 <1>  -0.5700 
 19 C       -6.6140    -1.9100    -0.2160 C.3   1 <1>  -0.0990 
 20 C       -7.9920    -2.4840     0.1510 C.3   1 <1>   0.0200 
 21 C       -8.0130    -4.0060     0.1240 C.2   1 <1>   0.0060 
 22 N       -6.9930    -4.7600    -0.1080 N.2   1 <1>  -0.5650 
 23 N       -9.1580    -4.6970     0.3560 N.pl3 1 <1>   0.0330 
 24 C       -7.4810    -6.0290    -0.0280 C.ar  1 <1>   0.2270 
 25 C       -8.8320    -6.0100     0.2610 C.ar  1 <1>  -0.1520 
 26 C       -6.8230    -7.2460    -0.1910 C.ar  1 <1>  -0.1500 
 27 C       -9.5630    -7.1920     0.3950 C.ar  1 <1>  -0.1500 
 28 C       -7.5350    -8.4200    -0.0620 C.ar  1 <1>  -0.1500 
 29 C       -8.9040    -8.3910     0.2310 C.ar  1 <1>  -0.1500 
 30 H       -3.3980    -0.3660     1.2660 H     1 <1>   0.0800 
 31 H       -2.1900    -0.8570     0.1200 H     1 <1>   0.0800 
 32 H       -2.9280     3.2430     0.5870 H     1 <1>   0.0800 
 33 H       -2.8110     2.2550     2.0100 H     1 <1>   0.0800 
 34 H       -0.1990     2.7140    -2.6100 H     1 <1>   0.1500 
 35 H       -4.2170    -1.4780    -0.8780 H     1 <1>   0.0800 
 36 H       -3.7210    -0.0600    -1.7340 H     1 <1>   0.0800 
 37 H       -5.1010     3.1200     1.2520 H     1 <1>   0.0800 
 38 H       -5.0290     1.4730     1.7530 H     1 <1>   0.0800 
 39 H        0.5660     4.9650     1.4820 H     1 <1>   0.1500 
 40 H       -4.7000     2.1330    -1.1750 H     1 <1>   0.0800 
 41 H       -6.2830     2.1640    -0.4600 H     1 <1>   0.0800 
 42 H       -5.8880    -2.2990     0.4730 H     1 <1>   0.0800 
 43 H       -6.3590    -2.2390    -1.2060 H     1 <1>   0.0800 
 44 H       -8.7250    -2.1110    -0.5420 H     1 <1>   0.0800 
 45 H       -8.2620    -2.1500     1.1380 H     1 <1>   0.0800 
 46 H      -10.0830    -4.3130     0.5610 H     1 <1>   0.2700 
 47 H       -5.7730    -7.2370    -0.4160 H     1 <1>   0.1500 
 48 H      -10.6140    -7.1600     0.6200 H     1 <1>   0.1500 
 49 H       -7.0430    -9.3690    -0.1850 H     1 <1>   0.1500 
 50 H       -9.4380    -9.3210     0.3280 H     1 <1>   0.1500 
@<TRIPOS>BOND
  1   1   2  2   
  2   2   3  am  
  3   2   4  1   
  4   3   5  1   
  5   3   6  1   
  6   4   7  ar  
  7   4   8  ar  
  8   5   9  1   
  9   5  30  1   
 10   5  31  1   
 11   6  10  1   
 12   6  32  1   
 13   6  33  1   
 14   7  11  ar  
 15   8  12  ar  
 16   8  34  1   
 17   9  13  1   
 18   9  35  1   
 19   9  36  1   
 20  10  14  1   
 21  10  37  1   
 22  10  38  1   
 23  11  15  ar  
 24  11  39  1   
 25  12  15  ar  
 26  13  14  1   
 27  13  16  am  
 28  14  40  1   
 29  14  41  1   
 30  15  17  1   
 31  16  18  2   
 32  16  19  1   
 33  19  20  1   
 34  19  42  1   
 35  19  43  1   
 36  20  21  1   
 37  20  44  1   
 38  20  45  1   
 39  21  22  2   
 40  21  23  1   
 41  22  24  1   
 42  23  25  1   
 43  23  46  1   
 44  24  25  ar  
 45  24  26  ar  
 46  25  27  ar  
 47  26  28  ar  
 48  26  47  1   
 49  27  29  ar  
 50  27  48  1   
 51  28  29  ar  
 52  28  49  1   
 53  29  50  1   
@<TRIPOS>SUBSTRUCTURE
  1 ****   9 GROUP 4 **** **** 0

# MOE 2024.06 (io_trps.svl 2023.06)
