@<TRIPOS>MOLECULE
NONAME
40 42 1 0 0 
SMALL
USER_CHARGES


@<TRIPOS>ATOM
  1 O       -0.4680     0.2450     0.5560 O.2   1 <1>  -0.5700 
  2 C       -1.5370     0.7430     0.2810 C.2   1 <1>   0.5440 
  3 N       -1.5070     2.0470    -0.0820 N.am  1 <1>  -0.8000 
  4 C       -2.7650    -0.0130     0.3620 C.ar  1 <1>   0.0860 
  5 C       -3.8880     0.3240    -0.3920 C.ar  1 <1>   0.1600 
  6 C       -2.8910    -1.1180     1.1970 C.ar  1 <1>  -0.1500 
  7 N       -5.0550    -0.2920    -0.3740 N.ar  1 <1>  -0.6200 
  8 C       -4.0970    -1.7750     1.2290 C.ar  1 <1>  -0.1500 
  9 C       -5.1580    -1.3420     0.4350 C.ar  1 <1>   0.4100 
 10 N       -6.3740    -1.9930     0.4660 N.pl3 1 <1>  -0.8380 
 11 C       -7.5450    -1.4860    -0.3040 C.3   1 <1>   0.2090 
 12 C       -6.4830    -3.4690     0.6100 C.3   1 <1>   0.2090 
 13 C       -8.5990    -2.5770    -0.1400 C.3   1 <1>   0.2000 
 14 C       -7.7650    -3.8610    -0.1340 C.3   1 <1>  -0.0800 
 15 O       -9.1920    -2.4110     1.1030 O.3   1 <1>  -0.6800 
 16 C       -8.4740    -5.0930     0.4590 C.3   1 <1>   0.0200 
 17 C       -7.6540    -6.3660     0.3270 C.2   1 <1>  -0.0400 
 18 O       -8.0330    -7.4290     0.9850 O.3   1 <1>  -0.0190 
 19 C       -6.5470    -6.6890    -0.3640 C.2   1 <1>  -0.1500 
 20 N       -7.2410    -8.4400     0.7780 N.2   1 <1>  -0.4100 
 21 C       -6.3360    -8.0240    -0.0320 C.2   1 <1>   0.1080 
 22 C       -5.2010    -8.8790    -0.5500 C.3   1 <1>  -0.0590 
 23 H       -0.6030     2.5230    -0.0760 H     1 <1>   0.3700 
 24 H       -2.3290     2.6460    -0.1470 H     1 <1>   0.3700 
 25 H       -3.8100     1.1620    -1.0620 H     1 <1>   0.1500 
 26 H       -2.0580    -1.4380     1.8000 H     1 <1>   0.1500 
 27 H       -4.2320    -2.6220     1.8730 H     1 <1>   0.1500 
 28 H       -7.8840    -0.5350     0.0710 H     1 <1>   0.0800 
 29 H       -7.2750    -1.3860    -1.3410 H     1 <1>   0.0800 
 30 H       -5.6220    -3.9610     0.1920 H     1 <1>   0.0800 
 31 H       -6.5620    -3.7120     1.6570 H     1 <1>   0.0800 
 32 H       -9.3630    -2.5560    -0.8980 H     1 <1>   0.0800 
 33 H       -7.5000    -4.0760    -1.1540 H     1 <1>   0.0800 
 34 H       -8.4880    -2.1350     1.7280 H     1 <1>   0.4000 
 35 H       -9.4170    -5.2400    -0.0370 H     1 <1>   0.0800 
 36 H       -8.6800    -4.9290     1.5030 H     1 <1>   0.0800 
 37 H       -5.9410    -6.1000    -1.0260 H     1 <1>   0.1500 
 38 H       -5.1830    -8.8530    -1.6240 H     1 <1>   0.0800 
 39 H       -5.3330    -9.8970    -0.2290 H     1 <1>   0.0800 
 40 H       -4.2660    -8.5130    -0.1690 H     1 <1>   0.0800 
@<TRIPOS>BOND
  1   1   2  2   
  2   2   3  am  
  3   2   4  1   
  4   3  23  1   
  5   3  24  1   
  6   4   5  ar  
  7   4   6  ar  
  8   5   7  ar  
  9   5  25  1   
 10   6   8  ar  
 11   6  26  1   
 12   7   9  ar  
 13   8   9  ar  
 14   8  27  1   
 15   9  10  1   
 16  10  11  1   
 17  10  12  1   
 18  11  13  1   
 19  11  28  1   
 20  11  29  1   
 21  12  14  1   
 22  12  30  1   
 23  12  31  1   
 24  13  14  1   
 25  13  15  1   
 26  13  32  1   
 27  14  16  1   
 28  14  33  1   
 29  15  34  1   
 30  16  17  1   
 31  16  35  1   
 32  16  36  1   
 33  17  18  1   
 34  17  19  2   
 35  18  20  1   
 36  19  21  1   
 37  19  37  1   
 38  20  21  2   
 39  21  22  1   
 40  22  38  1   
 41  22  39  1   
 42  22  40  1   
@<TRIPOS>SUBSTRUCTURE
  1 ****  12 GROUP 4 **** **** 0

# MOE 2024.06 (io_trps.svl 2023.06)
