@<TRIPOS>MOLECULE
NONAME
39 41 1 0 0 
SMALL
USER_CHARGES


@<TRIPOS>ATOM
  1 O        1.0840    -0.1450     0.9810 O.3   1 <1>  -0.6800 
  2 C        1.5530    -0.1650    -0.3320 C.3   1 <1>   0.2000 
  3 C        2.3870    -1.4270    -0.5830 C.3   1 <1>  -0.0800 
  4 C        2.5400     0.9910    -0.5460 C.3   1 <1>   0.2090 
  5 C        3.8050    -1.0470    -0.1590 C.3   1 <1>   0.2090 
  6 C        1.8840    -2.7190     0.0860 C.3   1 <1>   0.0210 
  7 N        3.9030     0.4100    -0.4000 N.pl3 1 <1>  -0.8380 
  8 C        2.7720    -3.8960    -0.2650 C.2   1 <1>   0.1080 
  9 C        5.0120     1.1910    -0.1420 C.ar  1 <1>   0.4100 
 10 N        2.8680    -4.3660    -1.4690 N.2   1 <1>  -0.7070 
 11 C        3.5710    -4.5920     0.6360 C.2   1 <1>  -0.1500 
 12 N        4.8810     2.4970    -0.2770 N.ar  1 <1>  -0.6200 
 13 C        6.2270     0.6480     0.2350 C.ar  1 <1>  -0.1500 
 14 N        3.7380    -5.3880    -1.3680 N.pl3 1 <1>   0.3000 
 15 C        4.1790    -5.5440    -0.1020 C.2   1 <1>  -0.3320 
 16 C        5.9520     3.2230    -0.0290 C.ar  1 <1>   0.4770 
 17 C        7.2710     1.5010     0.4680 C.ar  1 <1>   0.1600 
 18 C        5.1670    -6.6120     0.3300 C.3   1 <1>  -0.0600 
 19 N        7.1510     2.8070     0.3410 N.ar  1 <1>  -0.6200 
 20 C        5.7850     4.7150    -0.1800 C.3   1 <1>  -0.0970 
 21 H        0.3740    -0.8020     1.1010 H     1 <1>   0.4000 
 22 H        0.7070    -0.0870    -0.9920 H     1 <1>   0.0800 
 23 H        2.4160    -1.5890    -1.6470 H     1 <1>   0.0800 
 24 H        2.3740     1.7820     0.1660 H     1 <1>   0.0800 
 25 H        2.4420     1.3810    -1.5430 H     1 <1>   0.0800 
 26 H        4.5370    -1.5860    -0.7360 H     1 <1>   0.0800 
 27 H        3.9490    -1.2380     0.8900 H     1 <1>   0.0800 
 28 H        0.8860    -2.9360    -0.2510 H     1 <1>   0.0800 
 29 H        1.8650    -2.6070     1.1550 H     1 <1>   0.0800 
 30 H        3.6630    -4.3930     1.6890 H     1 <1>   0.1500 
 31 H        6.3480    -0.4090     0.3410 H     1 <1>   0.1500 
 32 H        4.0060    -5.9590    -2.1790 H     1 <1>   0.2700 
 33 H        8.2300     1.1140     0.7640 H     1 <1>   0.1500 
 34 H        5.3590    -6.5340     1.3860 H     1 <1>   0.0800 
 35 H        6.0980    -6.4940    -0.1960 H     1 <1>   0.0800 
 36 H        4.7700    -7.5900     0.1270 H     1 <1>   0.0800 
 37 H        6.7360     5.1800    -0.3590 H     1 <1>   0.0800 
 38 H        5.3590     5.1150     0.7200 H     1 <1>   0.0800 
 39 H        5.1320     4.9270    -1.0060 H     1 <1>   0.0800 
@<TRIPOS>BOND
  1   1   2  1   
  2   1  21  1   
  3   2   3  1   
  4   2   4  1   
  5   2  22  1   
  6   3   5  1   
  7   3   6  1   
  8   3  23  1   
  9   4   7  1   
 10   4  24  1   
 11   4  25  1   
 12   5   7  1   
 13   5  26  1   
 14   5  27  1   
 15   6   8  1   
 16   6  28  1   
 17   6  29  1   
 18   7   9  1   
 19   8  10  2   
 20   8  11  1   
 21   9  12  ar  
 22   9  13  ar  
 23  10  14  1   
 24  11  15  2   
 25  11  30  1   
 26  12  16  ar  
 27  13  17  ar  
 28  13  31  1   
 29  14  15  1   
 30  14  32  1   
 31  15  18  1   
 32  16  19  ar  
 33  16  20  1   
 34  17  19  ar  
 35  17  33  1   
 36  18  34  1   
 37  18  35  1   
 38  18  36  1   
 39  20  37  1   
 40  20  38  1   
 41  20  39  1   
@<TRIPOS>SUBSTRUCTURE
  1 ****   5 GROUP 4 **** **** 0

# MOE 2024.06 (io_trps.svl 2023.06)
