@<TRIPOS>MOLECULE
NONAME
45 47 1 0 0 
SMALL
USER_CHARGES


@<TRIPOS>ATOM
  1 O       -1.9270    -0.0960    -1.0380 O.2   1 <1>  -0.5700 
  2 C       -2.2880     0.6570    -0.1390 C.2   1 <1>   0.6160 
  3 N       -2.1020     2.0340    -0.2890 N.am  1 <1>  -0.4690 
  4 C       -2.8980     0.1610     1.0580 C.2   1 <1>   0.0290 
  5 C       -2.4560     2.9030     0.7270 C.2   1 <1>  -0.0290 
  6 C       -1.4750     2.5570    -1.5450 C.3   1 <1>   0.0600 
  7 C       -3.1290    -1.2490     1.2130 C.2   1 <1>   0.6160 
  8 C       -3.2330     1.0480     2.0470 C.2   1 <1>  -0.1500 
  9 C       -3.0090     2.4250     1.8760 C.2   1 <1>  -0.1500 
 10 C       -2.2170     4.3980     0.5610 C.3   1 <1>  -0.1020 
 11 O       -2.7090    -1.8130     2.2080 O.2   1 <1>  -0.5700 
 12 N       -3.8870    -1.9890     0.3320 N.am  1 <1>  -0.6600 
 13 C       -4.6720    -1.4670    -0.8140 C.3   1 <1>   0.1400 
 14 C       -4.0780    -3.4550     0.4590 C.3   1 <1>   0.1400 
 15 C       -5.7430    -2.5300    -1.0420 C.3   1 <1>   0.2000 
 16 C       -5.0290    -3.8380    -0.6820 C.3   1 <1>  -0.0800 
 17 O       -6.7730    -2.3010    -0.1410 O.3   1 <1>  -0.6800 
 18 C       -5.9550    -5.0240    -0.3520 C.3   1 <1>  -0.0170 
 19 C       -5.1520    -6.2910    -0.0990 C.ar  1 <1>  -0.1440 
 20 C       -4.7050    -7.0860    -1.1340 C.ar  1 <1>  -0.1500 
 21 C       -4.8270    -6.7110     1.1750 C.ar  1 <1>  -0.1500 
 22 C       -3.9740    -8.2290    -0.8540 C.ar  1 <1>   0.1600 
 23 C       -4.0900    -7.8720     1.3470 C.ar  1 <1>   0.1600 
 24 N       -3.6560    -8.6410     0.3620 N.ar  1 <1>  -0.6200 
 25 H       -2.0760     3.3490    -1.9520 H     1 <1>   0.0800 
 26 H       -1.3890     1.7910    -2.2950 H     1 <1>   0.0800 
 27 H       -0.4910     2.9290    -1.3250 H     1 <1>   0.0800 
 28 H       -3.6680     0.7030     2.9690 H     1 <1>   0.1500 
 29 H       -3.2880     3.0840     2.6810 H     1 <1>   0.1500 
 30 H       -2.7920     4.7780    -0.2630 H     1 <1>   0.0800 
 31 H       -1.1740     4.5920     0.3890 H     1 <1>   0.0800 
 32 H       -2.5130     4.9310     1.4470 H     1 <1>   0.0800 
 33 H       -5.1000    -0.5010    -0.6100 H     1 <1>   0.0800 
 34 H       -4.0320    -1.4060    -1.6780 H     1 <1>   0.0800 
 35 H       -3.1350    -3.9690     0.3760 H     1 <1>   0.0800 
 36 H       -4.5150    -3.6690     1.4190 H     1 <1>   0.0800 
 37 H       -6.1480    -2.5190    -2.0390 H     1 <1>   0.0800 
 38 H       -4.4180    -4.1140    -1.5230 H     1 <1>   0.0800 
 39 H       -6.3820    -2.1690     0.7460 H     1 <1>   0.4000 
 40 H       -6.6290    -5.1890    -1.1740 H     1 <1>   0.0800 
 41 H       -6.5540    -4.8020     0.5140 H     1 <1>   0.0800 
 42 H       -4.9170    -6.8280    -2.1560 H     1 <1>   0.1500 
 43 H       -5.1380    -6.1500     2.0370 H     1 <1>   0.1500 
 44 H       -3.6340    -8.8360    -1.6750 H     1 <1>   0.1500 
 45 H       -3.8450    -8.1830     2.3480 H     1 <1>   0.1500 
@<TRIPOS>BOND
  1   1   2  2   
  2   2   3  am  
  3   2   4  1   
  4   3   5  1   
  5   3   6  1   
  6   4   7  1   
  7   4   8  2   
  8   5   9  2   
  9   5  10  1   
 10   6  25  1   
 11   6  26  1   
 12   6  27  1   
 13   7  11  2   
 14   7  12  am  
 15   8   9  1   
 16   8  28  1   
 17   9  29  1   
 18  10  30  1   
 19  10  31  1   
 20  10  32  1   
 21  12  13  1   
 22  12  14  1   
 23  13  15  1   
 24  13  33  1   
 25  13  34  1   
 26  14  16  1   
 27  14  35  1   
 28  14  36  1   
 29  15  16  1   
 30  15  17  1   
 31  15  37  1   
 32  16  18  1   
 33  16  38  1   
 34  17  39  1   
 35  18  19  1   
 36  18  40  1   
 37  18  41  1   
 38  19  20  ar  
 39  19  21  ar  
 40  20  22  ar  
 41  20  42  1   
 42  21  23  ar  
 43  21  43  1   
 44  22  24  ar  
 45  22  44  1   
 46  23  24  ar  
 47  23  45  1   
@<TRIPOS>SUBSTRUCTURE
  1 ****  12 GROUP 4 **** **** 0

# MOE 2024.06 (io_trps.svl 2023.06)
