@<TRIPOS>MOLECULE
NONAME
45 46 1 0 0 
SMALL
USER_CHARGES


@<TRIPOS>ATOM
  1 S        0.7930     0.1530     0.4010 S.o2  1 <1>   1.3330 
  2 O        1.8570    -0.3290    -0.4500 O.2   1 <1>  -0.6500 
  3 O        1.1120     0.7840     1.6620 O.2   1 <1>  -0.6500 
  4 N       -0.2640    -1.1370     0.7180 N.am  1 <1>  -0.8490 
  5 C       -0.2170     1.2700    -0.5660 C.3   1 <1>  -0.0550 
  6 C       -1.1530    -0.8980     1.8600 C.3   1 <1>   0.1160 
  7 C        0.4470    -2.4060     0.8970 C.3   1 <1>   0.1160 
  8 C        0.5470     2.5190    -1.0500 C.3   1 <1>  -0.0800 
  9 C       -0.2780     3.4640    -1.9210 C.3   1 <1>   0.2000 
 10 C        1.0740     3.4160     0.0760 C.3   1 <1>   0.2090 
 11 O       -1.5250     3.6500    -1.3370 O.3   1 <1>  -0.6800 
 12 C        0.4960     4.7780    -1.8450 C.3   1 <1>   0.2090 
 13 N        1.1040     4.8020    -0.4770 N.pl3 1 <1>  -0.8380 
 14 C        2.3080     5.4760    -0.3230 C.ar  1 <1>   0.4100 
 15 N        3.2710     5.0290    -1.1300 N.ar  1 <1>  -0.6200 
 16 C        2.4960     6.5140     0.6210 C.ar  1 <1>   0.0860 
 17 C        4.4570     5.5850    -1.0260 C.ar  1 <1>   0.1670 
 18 C        1.4530     7.0120     1.4970 C.2   1 <1>   0.5440 
 19 C        3.7670     7.0730     0.6960 C.ar  1 <1>  -0.1500 
 20 C        4.7540     6.6010    -0.1370 C.ar  1 <1>  -0.1500 
 21 C        5.5260     5.0460    -1.9530 C.3   1 <1>  -0.0970 
 22 O        1.7040     7.7130     2.4560 O.2   1 <1>  -0.5700 
 23 N        0.1440     6.7470     1.3060 N.am  1 <1>  -0.8000 
 24 H       -0.5880     0.7430    -1.4240 H     1 <1>   0.0800 
 25 H       -1.0630     1.5690     0.0190 H     1 <1>   0.0800 
 26 H       -1.8570    -1.7070     1.9560 H     1 <1>   0.0800 
 27 H       -1.7040     0.0160     1.7180 H     1 <1>   0.0800 
 28 H       -0.5830    -0.8190     2.7720 H     1 <1>   0.0800 
 29 H       -0.2520    -3.2040     1.0780 H     1 <1>   0.0800 
 30 H        1.1320    -2.3380     1.7250 H     1 <1>   0.0800 
 31 H        1.0040    -2.6450     0.0060 H     1 <1>   0.0800 
 32 H        1.3990     2.1990    -1.6260 H     1 <1>   0.0800 
 33 H       -0.4160     3.1110    -2.9280 H     1 <1>   0.0800 
 34 H        2.0550     3.0980     0.3930 H     1 <1>   0.0800 
 35 H        0.4130     3.3930     0.9260 H     1 <1>   0.0800 
 36 H       -1.4070     4.1600    -0.5110 H     1 <1>   0.4000 
 37 H       -0.1470     5.6270    -2.0040 H     1 <1>   0.0800 
 38 H        1.2670     4.7790    -2.5960 H     1 <1>   0.0800 
 39 H        3.9730     7.8630     1.3970 H     1 <1>   0.1500 
 40 H        5.7430     7.0210    -0.0930 H     1 <1>   0.1500 
 41 H        6.4630     5.5490    -1.8010 H     1 <1>   0.0800 
 42 H        5.2190     5.1810    -2.9730 H     1 <1>   0.0800 
 43 H        5.6620     3.9960    -1.7690 H     1 <1>   0.0800 
 44 H       -0.5460     7.0360     1.9970 H     1 <1>   0.3700 
 45 H       -0.1080     6.0340     0.6140 H     1 <1>   0.3700 
@<TRIPOS>BOND
  1   1   2  2   
  2   1   3  2   
  3   1   4  am  
  4   1   5  1   
  5   4   6  1   
  6   4   7  1   
  7   5   8  1   
  8   5  24  1   
  9   5  25  1   
 10   6  26  1   
 11   6  27  1   
 12   6  28  1   
 13   7  29  1   
 14   7  30  1   
 15   7  31  1   
 16   8   9  1   
 17   8  10  1   
 18   8  32  1   
 19   9  11  1   
 20   9  12  1   
 21   9  33  1   
 22  10  13  1   
 23  10  34  1   
 24  10  35  1   
 25  11  36  1   
 26  12  13  1   
 27  12  37  1   
 28  12  38  1   
 29  13  14  1   
 30  14  15  ar  
 31  14  16  ar  
 32  15  17  ar  
 33  16  18  1   
 34  16  19  ar  
 35  17  20  ar  
 36  17  21  1   
 37  18  22  2   
 38  18  23  am  
 39  19  20  ar  
 40  19  39  1   
 41  20  40  1   
 42  21  41  1   
 43  21  42  1   
 44  21  43  1   
 45  23  44  1   
 46  23  45  1   
@<TRIPOS>SUBSTRUCTURE
  1 ****  10 GROUP 4 **** **** 0

# MOE 2024.06 (io_trps.svl 2023.06)
