@<TRIPOS>MOLECULE
NONAME
57 60 1 0 0 
SMALL
USER_CHARGES


@<TRIPOS>ATOM
  1 O        1.5980     3.0290    -3.1550 O.2   1 <1>  -0.5700 
  2 C        2.4030     2.5230    -2.4100 C.2   1 <1>   0.5690 
  3 N        2.8370     3.0360    -1.2410 N.am  1 <1>  -0.6600 
  4 C        3.0380     1.1870    -2.6730 C.3   1 <1>  -0.0990 
  5 C        3.7600     2.1450    -0.5270 C.3   1 <1>   0.1400 
  6 C        2.3330     4.2830    -0.6230 C.3   1 <1>   0.2840 
  7 C        4.0850     1.0510    -1.5530 C.3   1 <1>  -0.1600 
  8 C        1.3860     3.9350     0.5250 C.ar  1 <1>  -0.1440 
  9 C        1.7220     4.0720     1.8720 C.ar  1 <1>  -0.1430 
 10 C        0.1280     3.4610     0.1840 C.ar  1 <1>  -0.1500 
 11 C        0.7870     3.7430     2.8440 C.ar  1 <1>  -0.1500 
 12 C        3.0830     4.5780     2.3300 C.3   1 <1>   0.3530 
 13 C       -0.7950     3.1300     1.1590 C.ar  1 <1>  -0.1500 
 14 C       -0.4650     3.2730     2.4930 C.ar  1 <1>  -0.1500 
 15 N        3.0840     6.0440     2.2310 N.pl3 1 <1>  -0.8690 
 16 C        4.1010     6.6570     1.5710 C.ar  1 <1>   0.4100 
 17 N        3.7640     7.2700     0.4890 N.ar  1 <1>  -0.6200 
 18 C        5.4130     6.5960     2.0480 C.ar  1 <1>  -0.1500 
 19 C        4.7430     7.8680    -0.2450 C.ar  1 <1>   0.3100 
 20 C        6.4320     7.1710     1.3560 C.ar  1 <1>  -0.1430 
 21 C        6.1190     7.8320     0.1290 C.ar  1 <1>   0.0000 
 22 C        4.3740     8.5350    -1.4480 C.ar  1 <1>   0.0820 
 23 C        7.8320     7.0700     1.9530 C.3   1 <1>  -0.0970 
 24 C        7.0640     8.4460    -0.7480 C.ar  1 <1>   0.0820 
 25 O        3.0880     8.6370    -1.8850 O.3   1 <1>  -0.3620 
 26 C        5.3150     9.1050    -2.2590 C.ar  1 <1>  -0.1500 
 27 O        8.3830     8.4070    -0.4190 O.3   1 <1>  -0.3630 
 28 C        6.6580     9.0620    -1.9120 C.ar  1 <1>  -0.1500 
 29 C        2.1220     9.2180    -1.0330 C.3   1 <1>   0.0400 
 30 C        9.3960     9.0100    -1.1960 C.3   1 <1>   0.0400 
 31 H        3.4870     1.1700    -3.6490 H     1 <1>   0.0800 
 32 H        2.2850     0.4240    -2.5980 H     1 <1>   0.0800 
 33 H        3.2620     1.7310     0.3340 H     1 <1>   0.0800 
 34 H        4.6460     2.6780    -0.2240 H     1 <1>   0.0800 
 35 H        1.8020     4.8600    -1.3620 H     1 <1>   0.0800 
 36 H        3.1660     4.8750    -0.2990 H     1 <1>   0.0800 
 37 H        5.0680     1.2300    -1.9530 H     1 <1>   0.0800 
 38 H        4.0670     0.0740    -1.1030 H     1 <1>   0.0800 
 39 H       -0.1350     3.3470    -0.8550 H     1 <1>   0.1500 
 40 H        1.0270     3.8540     3.8870 H     1 <1>   0.1500 
 41 H        3.8640     4.1570     1.7210 H     1 <1>   0.0800 
 42 H        3.2640     4.2940     3.3520 H     1 <1>   0.0800 
 43 H       -1.7670     2.7630     0.8770 H     1 <1>   0.1500 
 44 H       -1.1810     3.0200     3.2550 H     1 <1>   0.1500 
 45 H        2.1850     6.3480     1.8460 H     1 <1>   0.4000 
 46 H        5.5720     6.0860     2.9780 H     1 <1>   0.1500 
 47 H        7.8180     6.5660     2.9020 H     1 <1>   0.0800 
 48 H        8.2380     8.0540     2.1080 H     1 <1>   0.0800 
 49 H        8.4770     6.5200     1.2930 H     1 <1>   0.0800 
 50 H        5.0140     9.5880    -3.1710 H     1 <1>   0.1500 
 51 H        7.3490     9.5260    -2.5890 H     1 <1>   0.1500 
 52 H        1.3490     9.6440    -1.6460 H     1 <1>   0.0800 
 53 H        2.5870     9.9820    -0.4360 H     1 <1>   0.0800 
 54 H        1.7050     8.4510    -0.4060 H     1 <1>   0.0800 
 55 H       10.3370     8.8460    -0.7020 H     1 <1>   0.0800 
 56 H        9.2020    10.0660    -1.2660 H     1 <1>   0.0800 
 57 H        9.4110     8.5520    -2.1690 H     1 <1>   0.0800 
@<TRIPOS>BOND
  1   1   2  2   
  2   2   3  am  
  3   2   4  1   
  4   3   5  1   
  5   3   6  1   
  6   4   7  1   
  7   4  31  1   
  8   4  32  1   
  9   5   7  1   
 10   5  33  1   
 11   5  34  1   
 12   6   8  1   
 13   6  35  1   
 14   6  36  1   
 15   7  37  1   
 16   7  38  1   
 17   8   9  ar  
 18   8  10  ar  
 19   9  11  ar  
 20   9  12  1   
 21  10  13  ar  
 22  10  39  1   
 23  11  14  ar  
 24  11  40  1   
 25  12  15  1   
 26  12  41  1   
 27  12  42  1   
 28  13  14  ar  
 29  13  43  1   
 30  14  44  1   
 31  15  16  1   
 32  15  45  1   
 33  16  17  ar  
 34  16  18  ar  
 35  17  19  ar  
 36  18  20  ar  
 37  18  46  1   
 38  19  21  ar  
 39  19  22  ar  
 40  20  21  ar  
 41  20  23  1   
 42  21  24  ar  
 43  22  25  1   
 44  22  26  ar  
 45  23  47  1   
 46  23  48  1   
 47  23  49  1   
 48  24  27  1   
 49  24  28  ar  
 50  25  29  1   
 51  26  28  ar  
 52  26  50  1   
 53  27  30  1   
 54  28  51  1   
 55  29  52  1   
 56  29  53  1   
 57  29  54  1   
 58  30  55  1   
 59  30  56  1   
 60  30  57  1   
@<TRIPOS>SUBSTRUCTURE
  1 ****  17 GROUP 4 **** **** 0

# MOE 2024.06 (io_trps.svl 2023.06)
