@<TRIPOS>MOLECULE
NONAME
46 48 1 0 0 
SMALL
USER_CHARGES


@<TRIPOS>ATOM
  1 CL       1.8220     1.0430    -2.6790 Cl    1 <1>  -0.1770 
  2 C        2.2370    -0.3630    -1.7220 C.ar  1 <1>   0.1770 
  3 C        2.8250    -0.2180    -0.4700 C.ar  1 <1>   0.0830 
  4 C        1.9580    -1.6090    -2.2490 C.ar  1 <1>  -0.1500 
  5 O        3.0660     1.0420    -0.0200 O.3   1 <1>  -0.3630 
  6 C        3.1340    -1.3630     0.2590 C.ar  1 <1>  -0.1500 
  7 C        2.2640    -2.7470    -1.5200 C.ar  1 <1>  -0.1430 
  8 C        3.7140     1.2910     1.2080 C.3   1 <1>   0.0400 
  9 C        2.8540    -2.6250    -0.2630 C.ar  1 <1>   0.0830 
 10 C        1.9580    -4.1200    -2.0900 C.3   1 <1>   0.4870 
 11 O        3.1230    -3.7780     0.4070 O.3   1 <1>  -0.3630 
 12 N        0.9910    -4.8000    -1.1980 N.4   1 <1>  -0.9590 
 13 C        3.8600    -3.7810     1.6140 C.3   1 <1>   0.0400 
 14 C        0.8330    -6.2730    -1.4740 C.3   1 <1>   0.3430 
 15 C       -0.3250    -4.1000    -1.0280 C.3   1 <1>   0.3430 
 16 C       -0.2640    -6.9280    -0.6030 C.3   1 <1>   0.2510 
 17 C       -1.1770    -4.7570     0.0910 C.3   1 <1>   0.1100 
 18 N       -0.6150    -6.0450     0.5620 N.3   1 <1>  -0.8100 
 19 C        0.1930    -8.3370    -0.2020 C.2   1 <1>   0.5690 
 20 C       -1.5030    -6.7590     1.5050 C.3   1 <1>   0.1100 
 21 O        0.8550    -8.9850    -0.9740 O.2   1 <1>  -0.5700 
 22 N       -0.1540    -8.8310     1.0110 N.am  1 <1>  -0.7300 
 23 C       -0.8300    -8.0310     2.0710 C.3   1 <1>   0.1400 
 24 H        1.5070    -1.6640    -3.2240 H     1 <1>   0.1500 
 25 H        3.5850    -1.2680     1.2250 H     1 <1>   0.1500 
 26 H        3.8120     2.3560     1.3220 H     1 <1>   0.0800 
 27 H        4.6890     0.8370     1.1900 H     1 <1>   0.0800 
 28 H        3.1150     0.8950     2.0090 H     1 <1>   0.0800 
 29 H        2.8730    -4.6890    -2.1400 H     1 <1>   0.0800 
 30 H        1.5520    -4.0320    -3.0840 H     1 <1>   0.0800 
 31 H        1.4230    -4.7530    -0.2560 H     1 <1>   0.4500 
 32 H        4.0060    -4.8020     1.9190 H     1 <1>   0.0800 
 33 H        3.3020    -3.2540     2.3690 H     1 <1>   0.0800 
 34 H        4.8150    -3.3130     1.4450 H     1 <1>   0.0800 
 35 H        1.7680    -6.7730    -1.2770 H     1 <1>   0.0800 
 36 H        0.5940    -6.4410    -2.5110 H     1 <1>   0.0800 
 37 H       -0.8750    -4.1320    -1.9540 H     1 <1>   0.0800 
 38 H       -0.1650    -3.0630    -0.7800 H     1 <1>   0.0800 
 39 H       -1.1410    -7.0590    -1.2110 H     1 <1>   0.0800 
 40 H       -2.1800    -4.9020    -0.2740 H     1 <1>   0.0800 
 41 H       -1.2350    -4.0780     0.9250 H     1 <1>   0.0800 
 42 H       -2.4170    -7.0370     1.0080 H     1 <1>   0.0800 
 43 H       -1.7580    -6.1090     2.3250 H     1 <1>   0.0800 
 44 H        0.1920    -9.7610     1.2600 H     1 <1>   0.3700 
 45 H       -1.5720    -8.6380     2.5610 H     1 <1>   0.0800 
 46 H       -0.0990    -7.7430     2.8070 H     1 <1>   0.0800 
@<TRIPOS>BOND
  1   1   2  1   
  2   2   3  ar  
  3   2   4  ar  
  4   3   5  1   
  5   3   6  ar  
  6   4   7  ar  
  7   4  24  1   
  8   5   8  1   
  9   6   9  ar  
 10   6  25  1   
 11   7   9  ar  
 12   7  10  1   
 13   8  26  1   
 14   8  27  1   
 15   8  28  1   
 16   9  11  1   
 17  10  12  1   
 18  10  29  1   
 19  10  30  1   
 20  11  13  1   
 21  12  14  1   
 22  12  15  1   
 23  12  31  1   
 24  13  32  1   
 25  13  33  1   
 26  13  34  1   
 27  14  16  1   
 28  14  35  1   
 29  14  36  1   
 30  15  17  1   
 31  15  37  1   
 32  15  38  1   
 33  16  18  1   
 34  16  19  1   
 35  16  39  1   
 36  17  18  1   
 37  17  40  1   
 38  17  41  1   
 39  18  20  1   
 40  19  21  2   
 41  19  22  am  
 42  20  23  1   
 43  20  42  1   
 44  20  43  1   
 45  22  23  1   
 46  22  44  1   
 47  23  45  1   
 48  23  46  1   
@<TRIPOS>SUBSTRUCTURE
  1 ****  12 GROUP 4 **** **** 0

# MOE 2024.06 (io_trps.svl 2023.06)
