@<TRIPOS>MOLECULE
NONAME
53 57 1 0 0 
SMALL
USER_CHARGES


@<TRIPOS>ATOM
  1 O        0.0800     0.6580    -0.6220 O.2   1 <1>  -0.5700 
  2 C       -0.4390     1.7210    -0.3060 C.2   1 <1>   0.7160 
  3 N       -1.8170     1.7240    -0.1580 N.am  1 <1>  -0.6600 
  4 C        0.4500     2.8710    -0.0940 C.2   1 <1>   0.2030 
  5 C       -2.6110     2.8180     0.4840 C.3   1 <1>   0.1400 
  6 C       -2.6310     0.5480    -0.6010 C.3   1 <1>   0.1400 
  7 N        0.1440     4.1600    -0.0490 N.2   1 <1>  -0.7070 
  8 C        1.8360     2.7320     0.0810 C.2   1 <1>  -0.1810 
  9 C       -3.6620     3.3870    -0.4950 C.3   1 <1>   0.1430 
 10 C       -4.1330     0.8740    -0.6970 C.3   1 <1>  -0.1600 
 11 N        1.2940     4.8210     0.1520 N.pl3 1 <1>   0.3000 
 12 C        2.3340     3.9700     0.2280 C.2   1 <1>  -0.3320 
 13 C        2.6660     1.4640     0.0940 C.3   1 <1>   0.5240 
 14 C       -4.6240     4.2210     0.3340 C.ar  1 <1>   0.1660 
 15 C       -4.3650     2.2660    -1.3080 C.3   1 <1>  -0.1600 
 16 C       -3.0490     4.4550    -1.4370 C.3   1 <1>  -0.1600 
 17 C        3.8070     4.2710     0.4330 C.3   1 <1>   0.0200 
 18 N        3.9810     1.7690     0.7530 N.4   1 <1>  -0.9590 
 19 N       -5.5690     3.7490     1.1130 N.ar  1 <1>  -0.6200 
 20 C       -4.3720     5.5550     0.1980 C.ar  1 <1>  -0.1440 
 21 C       -3.2180     5.8140    -0.7380 C.3   1 <1>  -0.0170 
 22 C        4.6350     2.9950     0.1670 C.3   1 <1>   0.3430 
 23 C        4.8800     0.5790     0.7160 C.3   1 <1>   0.2630 
 24 C       -6.2560     4.6840     1.7510 C.ar  1 <1>   0.7200 
 25 C       -5.1600     6.4320     0.9040 C.ar  1 <1>   0.1600 
 26 N       -6.1220     6.0020     1.6890 N.ar  1 <1>  -0.6200 
 27 N       -7.2310     4.2420     2.5450 N.pl3 1 <1>  -0.9000 
 28 H       -1.9940     3.6050     0.8680 H     1 <1>   0.0800 
 29 H       -3.1230     2.3980     1.3330 H     1 <1>   0.0800 
 30 H       -2.4790    -0.2700     0.0830 H     1 <1>   0.0800 
 31 H       -2.2800     0.2370    -1.5710 H     1 <1>   0.0800 
 32 H       -4.5740     0.8320     0.2840 H     1 <1>   0.0800 
 33 H       -4.6190     0.1240    -1.2970 H     1 <1>   0.0800 
 34 H        1.3320     5.8470     0.2270 H     1 <1>   0.2700 
 35 H        2.8150     1.1260    -0.9190 H     1 <1>   0.0800 
 36 H        2.1440     0.6930     0.6380 H     1 <1>   0.0800 
 37 H       -3.9720     2.2450    -2.3090 H     1 <1>   0.0800 
 38 H       -5.4200     2.4660    -1.3780 H     1 <1>   0.0800 
 39 H       -3.6120     4.4910    -2.3530 H     1 <1>   0.0800 
 40 H       -2.0220     4.2480    -1.6800 H     1 <1>   0.0800 
 41 H        3.9740     4.6100     1.4410 H     1 <1>   0.0800 
 42 H        4.1290     5.0480    -0.2380 H     1 <1>   0.0800 
 43 H        3.7430     1.9920     1.7290 H     1 <1>   0.4500 
 44 H       -3.4360     6.5980    -1.4410 H     1 <1>   0.0800 
 45 H       -2.3360     6.0590    -0.1710 H     1 <1>   0.0800 
 46 H        5.6220     3.1230     0.5810 H     1 <1>   0.0800 
 47 H        4.7340     2.8640    -0.8980 H     1 <1>   0.0800 
 48 H        5.1230     0.3230    -0.3030 H     1 <1>   0.0800 
 49 H        4.4000    -0.2690     1.1780 H     1 <1>   0.0800 
 50 H        5.7960     0.7840     1.2470 H     1 <1>   0.0800 
 51 H       -4.9990     7.4930     0.8240 H     1 <1>   0.1500 
 52 H       -7.9390     4.9310     2.7780 H     1 <1>   0.4000 
 53 H       -7.5490     3.2980     2.3490 H     1 <1>   0.4000 
@<TRIPOS>BOND
  1   1   2  2   
  2   2   3  am  
  3   2   4  1   
  4   3   5  1   
  5   3   6  1   
  6   4   7  2   
  7   4   8  1   
  8   5   9  1   
  9   5  28  1   
 10   5  29  1   
 11   6  10  1   
 12   6  30  1   
 13   6  31  1   
 14   7  11  1   
 15   8  12  2   
 16   8  13  1   
 17   9  14  1   
 18   9  15  1   
 19   9  16  1   
 20  10  15  1   
 21  10  32  1   
 22  10  33  1   
 23  11  12  1   
 24  11  34  1   
 25  12  17  1   
 26  13  18  1   
 27  13  35  1   
 28  13  36  1   
 29  14  19  ar  
 30  14  20  ar  
 31  15  37  1   
 32  15  38  1   
 33  16  21  1   
 34  16  39  1   
 35  16  40  1   
 36  17  22  1   
 37  17  41  1   
 38  17  42  1   
 39  18  22  1   
 40  18  23  1   
 41  18  43  1   
 42  19  24  ar  
 43  20  21  1   
 44  20  25  ar  
 45  21  44  1   
 46  21  45  1   
 47  22  46  1   
 48  22  47  1   
 49  23  48  1   
 50  23  49  1   
 51  23  50  1   
 52  24  26  ar  
 53  24  27  1   
 54  25  26  ar  
 55  25  51  1   
 56  27  52  1   
 57  27  53  1   
@<TRIPOS>SUBSTRUCTURE
  1 ****   5 GROUP 4 **** **** 0

# MOE 2024.06 (io_trps.svl 2023.06)
