@<TRIPOS>MOLECULE
NONAME
37 38 1 0 0 
SMALL
USER_CHARGES


@<TRIPOS>ATOM
  1 F       -0.0220     1.6880    -1.2860 F     1 <1>  -0.3400 
  2 C       -0.3920     1.9190    -0.0250 C.3   1 <1>   0.9600 
  3 F       -0.9520     3.1260    -0.0520 F     1 <1>  -0.3400 
  4 O        0.7690     2.0340     0.7980 O.3   1 <1>  -0.3630 
  5 C       -1.4500     0.8730     0.4330 C.3   1 <1>   0.6000 
  6 C        1.9090     1.3810     0.4810 C.ar  1 <1>   0.0830 
  7 F       -1.7320     0.9740     1.7340 F     1 <1>  -0.3400 
  8 F       -1.0360    -0.3870     0.2830 F     1 <1>  -0.3400 
  9 C        2.9650     2.0720    -0.1270 C.ar  1 <1>   0.0860 
 10 C        2.0330     0.0390     0.8110 C.ar  1 <1>  -0.1500 
 11 C        2.8910     3.4830    -0.4350 C.2   1 <1>   0.5440 
 12 C        4.1250     1.3530    -0.4180 C.ar  1 <1>  -0.1500 
 13 C        3.1930    -0.6480     0.5110 C.ar  1 <1>  -0.1500 
 14 O        2.0300     3.9300    -1.1670 O.2   1 <1>  -0.5700 
 15 N        3.8190     4.3380     0.0780 N.am  1 <1>  -0.7300 
 16 C        4.2410     0.0110    -0.1080 C.ar  1 <1>  -0.1500 
 17 C        3.9920     5.7540    -0.3450 C.3   1 <1>   0.2810 
 18 C        5.4300     6.2590    -0.1010 C.2   1 <1>   0.5690 
 19 C        2.9590     6.6230     0.3890 C.3   1 <1>  -0.1600 
 20 O        6.3640     5.5000    -0.2070 O.2   1 <1>  -0.5700 
 21 N        5.6530     7.5500     0.2560 N.am  1 <1>  -0.7300 
 22 C        3.2370     8.1130     0.1340 C.3   1 <1>  -0.1600 
 23 C        4.6200     8.5380     0.6430 C.3   1 <1>   0.1400 
 24 H       -2.3690     0.9780    -0.1110 H     1 <1>   0.0800 
 25 H        1.2310    -0.4740     1.3110 H     1 <1>   0.1500 
 26 H        4.9460     1.8590    -0.8990 H     1 <1>   0.1500 
 27 H        3.2840    -1.6920     0.7610 H     1 <1>   0.1500 
 28 H        4.6420     3.9600     0.5540 H     1 <1>   0.3700 
 29 H        5.1450    -0.5230    -0.3460 H     1 <1>   0.1500 
 30 H        3.8080     5.8180    -1.4030 H     1 <1>   0.0800 
 31 H        3.0100     6.4270     1.4460 H     1 <1>   0.0800 
 32 H        1.9720     6.3730     0.0410 H     1 <1>   0.0800 
 33 H        6.6290     7.8060     0.4230 H     1 <1>   0.3700 
 34 H        2.4850     8.7100     0.6200 H     1 <1>   0.0800 
 35 H        3.1730     8.3150    -0.9220 H     1 <1>   0.0800 
 36 H        4.8760     9.5040     0.2410 H     1 <1>   0.0800 
 37 H        4.6020     8.6120     1.7180 H     1 <1>   0.0800 
@<TRIPOS>BOND
  1   1   2  1   
  2   2   3  1   
  3   2   4  1   
  4   2   5  1   
  5   4   6  1   
  6   5   7  1   
  7   5   8  1   
  8   5  24  1   
  9   6   9  ar  
 10   6  10  ar  
 11   9  11  1   
 12   9  12  ar  
 13  10  13  ar  
 14  10  25  1   
 15  11  14  2   
 16  11  15  am  
 17  12  16  ar  
 18  12  26  1   
 19  13  16  ar  
 20  13  27  1   
 21  15  17  1   
 22  15  28  1   
 23  16  29  1   
 24  17  18  1   
 25  17  19  1   
 26  17  30  1   
 27  18  20  2   
 28  18  21  am  
 29  19  22  1   
 30  19  31  1   
 31  19  32  1   
 32  21  23  1   
 33  21  33  1   
 34  22  23  1   
 35  22  34  1   
 36  22  35  1   
 37  23  36  1   
 38  23  37  1   
@<TRIPOS>SUBSTRUCTURE
  1 ****  11 GROUP 4 **** **** 0

# MOE 2024.06 (io_trps.svl 2023.06)
