@<TRIPOS>MOLECULE
NONAME
41 42 1 0 0 
SMALL
USER_CHARGES


@<TRIPOS>ATOM
  1 O       -1.2620     5.1540     2.1110 O.co2 1 <1>  -0.9000 
  2 C       -1.0860     3.9590     1.7930 C.2   1 <1>   0.9790 
  3 O       -0.6760     3.1690     2.6540 O.co2 1 <1>  -0.9000 
  4 C       -1.3260     3.5580     0.4380 C.ar  1 <1>  -0.1790 
  5 C       -0.4000     3.8890    -0.5580 C.ar  1 <1>   0.4100 
  6 C       -2.4850     2.8960     0.0690 C.ar  1 <1>  -0.1500 
  7 N       -0.6180     3.7130    -1.8580 N.ar  1 <1>  -0.6200 
  8 N        0.8250     4.4440    -0.2410 N.pl3 1 <1>  -0.8380 
  9 C       -2.6850     2.6550    -1.2710 C.ar  1 <1>  -0.1500 
 10 C       -1.7370     3.0890    -2.1790 C.ar  1 <1>   0.1600 
 11 C        1.3290     5.6250    -0.9970 C.3   1 <1>   0.2090 
 12 C        1.7960     3.6120     0.5200 C.3   1 <1>   0.2090 
 13 C        0.3290     6.7940    -0.8970 C.3   1 <1>   0.3430 
 14 C        2.8290     3.0150    -0.4310 C.3   1 <1>  -0.2400 
 15 N       -0.1730     6.9870     0.4980 N.4   1 <1>  -0.9590 
 16 C       -1.3770     7.8600     0.5800 C.3   1 <1>   0.3430 
 17 C        0.8550     7.3920     1.4930 C.3   1 <1>   0.3430 
 18 C       -1.0210     9.3420     0.8440 C.3   1 <1>   0.1200 
 19 C        1.2330     8.8880     1.3610 C.3   1 <1>   0.1200 
 20 O        0.3280     9.6100     0.5610 O.3   1 <1>  -0.5600 
 21 H       -3.2000     2.5940     0.8170 H     1 <1>   0.1500 
 22 H       -3.5680     2.1430    -1.6080 H     1 <1>   0.1500 
 23 H       -1.9100     2.9110    -3.2250 H     1 <1>   0.1500 
 24 H        1.4720     5.3570    -2.0290 H     1 <1>   0.0800 
 25 H        2.2780     5.9340    -0.5980 H     1 <1>   0.0800 
 26 H        1.2750     2.8070     1.0160 H     1 <1>   0.0800 
 27 H        2.2710     4.2090     1.2790 H     1 <1>   0.0800 
 28 H       -0.5040     6.5590    -1.5380 H     1 <1>   0.0800 
 29 H        0.7830     7.7020    -1.2550 H     1 <1>   0.0800 
 30 H        2.3300     2.4570    -1.2020 H     1 <1>   0.0800 
 31 H        3.4690     2.3460     0.1140 H     1 <1>   0.0800 
 32 H        3.4360     3.7820    -0.8740 H     1 <1>   0.0800 
 33 H       -0.4910     6.0430     0.8460 H     1 <1>   0.4500 
 34 H       -2.0080     7.5070     1.3800 H     1 <1>   0.0800 
 35 H       -1.9460     7.7780    -0.3300 H     1 <1>   0.0800 
 36 H        1.7300     6.7720     1.4030 H     1 <1>   0.0800 
 37 H        0.4550     7.2210     2.4800 H     1 <1>   0.0800 
 38 H       -1.2080     9.5900     1.8750 H     1 <1>   0.0800 
 39 H       -1.6270     9.9830     0.2280 H     1 <1>   0.0800 
 40 H        2.2050     8.9810     0.9110 H     1 <1>   0.0800 
 41 H        1.2690     9.3450     2.3340 H     1 <1>   0.0800 
@<TRIPOS>BOND
  1   1   2  ar  
  2   2   3  ar  
  3   2   4  1   
  4   4   5  ar  
  5   4   6  ar  
  6   5   7  ar  
  7   5   8  1   
  8   6   9  ar  
  9   6  21  1   
 10   7  10  ar  
 11   8  11  1   
 12   8  12  1   
 13   9  10  ar  
 14   9  22  1   
 15  10  23  1   
 16  11  13  1   
 17  11  24  1   
 18  11  25  1   
 19  12  14  1   
 20  12  26  1   
 21  12  27  1   
 22  13  15  1   
 23  13  28  1   
 24  13  29  1   
 25  14  30  1   
 26  14  31  1   
 27  14  32  1   
 28  15  16  1   
 29  15  17  1   
 30  15  33  1   
 31  16  18  1   
 32  16  34  1   
 33  16  35  1   
 34  17  19  1   
 35  17  36  1   
 36  17  37  1   
 37  18  20  1   
 38  18  38  1   
 39  18  39  1   
 40  19  20  1   
 41  19  40  1   
 42  19  41  1   
@<TRIPOS>SUBSTRUCTURE
  1 ****   8 GROUP 4 **** **** 0

# MOE 2024.06 (io_trps.svl 2023.06)
