@<TRIPOS>MOLECULE
NONAME
50 52 1 0 0 
SMALL
USER_CHARGES


@<TRIPOS>ATOM
  1 O       -0.0070    -0.3490    -1.0300 O.2   1 <1>  -0.5700 
  2 C        0.9710     0.3150    -0.7710 C.2   1 <1>   0.5690 
  3 N        2.1570    -0.2590    -0.3890 N.am  1 <1>  -0.6600 
  4 C        0.8460     1.8250    -0.8870 C.3   1 <1>  -0.0990 
  5 C        3.3370     0.5120     0.0920 C.3   1 <1>   0.1400 
  6 C        2.2860    -1.7380    -0.3190 C.3   1 <1>   0.1400 
  7 C        1.9080     2.5890    -0.0850 C.3   1 <1>  -0.1600 
  8 C        3.2860     1.9770    -0.3520 C.3   1 <1>  -0.1600 
  9 C        1.8070    -2.2380     1.0420 C.3   1 <1>  -0.0990 
 10 C        1.5670    -3.7290     0.9820 C.2   1 <1>   0.5690 
 11 O        2.4170    -4.4560     1.4360 O.2   1 <1>  -0.5700 
 12 N        0.4260    -4.2230     0.4160 N.am  1 <1>  -0.6600 
 13 C       -0.7090    -3.4470    -0.1600 C.3   1 <1>   0.1400 
 14 C        0.1670    -5.6790     0.2770 C.3   1 <1>   0.1400 
 15 C       -1.8690    -4.4390    -0.1740 C.3   1 <1>   0.2000 
 16 C       -1.1830    -5.7820    -0.4430 C.3   1 <1>  -0.0800 
 17 O       -2.4310    -4.4560     1.0950 O.3   1 <1>  -0.6800 
 18 C       -1.9970    -7.0310    -0.0590 C.3   1 <1>   0.0210 
 19 C       -1.2210    -8.2970    -0.3660 C.2   1 <1>   0.1080 
 20 N       -0.9690    -8.6940    -1.5740 N.2   1 <1>  -0.7070 
 21 C       -0.6910    -9.1560     0.5910 C.2   1 <1>  -0.1500 
 22 N       -0.2650    -9.8310    -1.4190 N.pl3 1 <1>   0.3000 
 23 C       -0.0810   -10.1300    -0.1150 C.2   1 <1>  -0.3320 
 24 C        0.6770   -11.3470     0.3820 C.3   1 <1>  -0.0600 
 25 H        0.9330     2.0760    -1.9280 H     1 <1>   0.0800 
 26 H       -0.1340     2.1190    -0.5590 H     1 <1>   0.0800 
 27 H        3.3600     0.4640     1.1670 H     1 <1>   0.0800 
 28 H        4.2410     0.0620    -0.2830 H     1 <1>   0.0800 
 29 H        1.6880    -2.1760    -1.1010 H     1 <1>   0.0800 
 30 H        3.3070    -2.0370    -0.4870 H     1 <1>   0.0800 
 31 H        1.9000     3.6280    -0.3660 H     1 <1>   0.0800 
 32 H        1.6830     2.5220     0.9660 H     1 <1>   0.0800 
 33 H        4.0400     2.5320     0.1770 H     1 <1>   0.0800 
 34 H        3.5150     2.0360    -1.4020 H     1 <1>   0.0800 
 35 H        0.9000    -1.7430     1.3290 H     1 <1>   0.0800 
 36 H        2.5540    -2.0320     1.7850 H     1 <1>   0.0800 
 37 H       -0.9480    -2.5690     0.4140 H     1 <1>   0.0800 
 38 H       -0.4640    -3.1570    -1.1680 H     1 <1>   0.0800 
 39 H        0.9500    -6.1550    -0.2900 H     1 <1>   0.0800 
 40 H        0.1200    -6.1220     1.2570 H     1 <1>   0.0800 
 41 H       -2.6340    -4.1930    -0.8900 H     1 <1>   0.0800 
 42 H       -0.9750    -5.8370    -1.4980 H     1 <1>   0.0800 
 43 H       -1.7050    -4.4980     1.7500 H     1 <1>   0.4000 
 44 H       -2.9160    -7.0460    -0.6160 H     1 <1>   0.0800 
 45 H       -2.2440    -7.0180     0.9870 H     1 <1>   0.0800 
 46 H       -0.7650    -9.0420     1.6580 H     1 <1>   0.1500 
 47 H        0.0750   -10.3770    -2.2190 H     1 <1>   0.2700 
 48 H        0.6860   -11.3620     1.4580 H     1 <1>   0.0800 
 49 H        1.6940   -11.3200     0.0330 H     1 <1>   0.0800 
 50 H        0.2080   -12.2480     0.0300 H     1 <1>   0.0800 
@<TRIPOS>BOND
  1   1   2  2   
  2   2   3  am  
  3   2   4  1   
  4   3   5  1   
  5   3   6  1   
  6   4   7  1   
  7   4  25  1   
  8   4  26  1   
  9   5   8  1   
 10   5  27  1   
 11   5  28  1   
 12   6   9  1   
 13   6  29  1   
 14   6  30  1   
 15   7   8  1   
 16   7  31  1   
 17   7  32  1   
 18   8  33  1   
 19   8  34  1   
 20   9  10  1   
 21   9  35  1   
 22   9  36  1   
 23  10  11  2   
 24  10  12  am  
 25  12  13  1   
 26  12  14  1   
 27  13  15  1   
 28  13  37  1   
 29  13  38  1   
 30  14  16  1   
 31  14  39  1   
 32  14  40  1   
 33  15  16  1   
 34  15  17  1   
 35  15  41  1   
 36  16  18  1   
 37  16  42  1   
 38  17  43  1   
 39  18  19  1   
 40  18  44  1   
 41  18  45  1   
 42  19  20  2   
 43  19  21  1   
 44  20  22  1   
 45  21  23  2   
 46  21  46  1   
 47  22  23  1   
 48  22  47  1   
 49  23  24  1   
 50  24  48  1   
 51  24  49  1   
 52  24  50  1   
@<TRIPOS>SUBSTRUCTURE
  1 ****  12 GROUP 4 **** **** 0

# MOE 2024.06 (io_trps.svl 2023.06)
