@<TRIPOS>MOLECULE
NONAME
45 48 1 0 0 
SMALL
USER_CHARGES


@<TRIPOS>ATOM
  1 O       -3.8250     2.2680    -1.7640 O.2   1 <1>  -0.5700 
  2 C       -3.2420     1.9820    -0.7460 C.2   1 <1>   0.5690 
  3 N       -2.7520     0.7330    -0.5340 N.am  1 <1>  -0.7300 
  4 C       -3.0750     3.0450     0.3150 C.3   1 <1>   0.1570 
  5 C       -2.7500    -0.3780    -1.5110 C.3   1 <1>   0.2200 
  6 N       -1.7420     2.9300     0.9170 N.pl3 1 <1>   0.3140 
  7 C       -3.5700    -1.5570    -1.0070 C.3   1 <1>  -0.0800 
  8 C       -1.3590    -0.9970    -1.5550 C.3   1 <1>   0.1200 
  9 N       -1.5080     2.0990     1.9610 N.2   1 <1>  -0.7070 
 10 C       -0.5890     3.5010     0.4560 C.ar  1 <1>  -0.1520 
 11 C       -2.5790    -2.3040    -0.1090 C.3   1 <1>   0.1200 
 12 C       -4.9020    -1.2030    -0.3200 C.3   1 <1>  -0.0170 
 13 O       -1.2990    -1.8680    -0.4660 O.3   1 <1>  -0.5600 
 14 C       -0.2340     2.1660     2.1640 C.2   1 <1>   0.1390 
 15 C        0.4200     3.0220     1.2630 C.ar  1 <1>   0.0000 
 16 C       -0.3140     4.3830    -0.5970 C.ar  1 <1>  -0.1500 
 17 C       -5.6680    -2.4610     0.0580 C.ar  1 <1>  -0.1440 
 18 C        1.7430     3.4290     1.0430 C.ar  1 <1>  -0.1500 
 19 C        0.9860     4.7760    -0.8080 C.ar  1 <1>  -0.1500 
 20 C       -5.6330    -2.9840     1.3350 C.ar  1 <1>  -0.1500 
 21 C       -6.4380    -3.1460    -0.8600 C.ar  1 <1>  -0.1500 
 22 C        2.0170     4.2990     0.0150 C.ar  1 <1>  -0.1500 
 23 C       -6.3460    -4.1370     1.6220 C.ar  1 <1>   0.1600 
 24 C       -7.1130    -4.2900    -0.4700 C.ar  1 <1>   0.1600 
 25 N       -7.0840    -4.8040     0.7500 N.ar  1 <1>  -0.6200 
 26 H       -2.2080     0.5510     0.3230 H     1 <1>   0.3700 
 27 H       -3.8150     2.9080     1.0790 H     1 <1>   0.0800 
 28 H       -3.1870     4.0190    -0.1190 H     1 <1>   0.0800 
 29 H       -3.0710    -0.0330    -2.4800 H     1 <1>   0.0800 
 30 H       -3.7830    -2.1920    -1.8480 H     1 <1>   0.0800 
 31 H       -0.5740    -0.2650    -1.4780 H     1 <1>   0.0800 
 32 H       -1.2310    -1.5810    -2.4500 H     1 <1>   0.0800 
 33 H       -2.6390    -3.3700    -0.2450 H     1 <1>   0.0800 
 34 H       -2.7240    -2.0590     0.9290 H     1 <1>   0.0800 
 35 H       -5.5000    -0.6070    -0.9880 H     1 <1>   0.0800 
 36 H       -4.7250    -0.6160     0.5640 H     1 <1>   0.0800 
 37 H        0.2810     1.6230     2.9380 H     1 <1>   0.1500 
 38 H       -1.1080     4.7420    -1.2290 H     1 <1>   0.1500 
 39 H        2.5220     3.0530     1.6810 H     1 <1>   0.1500 
 40 H        1.2280     5.4530    -1.6080 H     1 <1>   0.1500 
 41 H       -5.0610    -2.5080     2.1100 H     1 <1>   0.1500 
 42 H       -6.5200    -2.8000    -1.8740 H     1 <1>   0.1500 
 43 H        3.0260     4.6240    -0.1710 H     1 <1>   0.1500 
 44 H       -6.3060    -4.5300     2.6230 H     1 <1>   0.1500 
 45 H       -7.7080    -4.8110    -1.1990 H     1 <1>   0.1500 
@<TRIPOS>BOND
  1   1   2  2   
  2   2   3  am  
  3   2   4  1   
  4   3   5  1   
  5   3  26  1   
  6   4   6  1   
  7   4  27  1   
  8   4  28  1   
  9   5   7  1   
 10   5   8  1   
 11   5  29  1   
 12   6   9  1   
 13   6  10  1   
 14   7  11  1   
 15   7  12  1   
 16   7  30  1   
 17   8  13  1   
 18   8  31  1   
 19   8  32  1   
 20   9  14  2   
 21  10  15  ar  
 22  10  16  ar  
 23  11  13  1   
 24  11  33  1   
 25  11  34  1   
 26  12  17  1   
 27  12  35  1   
 28  12  36  1   
 29  14  15  1   
 30  14  37  1   
 31  15  18  ar  
 32  16  19  ar  
 33  16  38  1   
 34  17  20  ar  
 35  17  21  ar  
 36  18  22  ar  
 37  18  39  1   
 38  19  22  ar  
 39  19  40  1   
 40  20  23  ar  
 41  20  41  1   
 42  21  24  ar  
 43  21  42  1   
 44  22  43  1   
 45  23  25  ar  
 46  23  44  1   
 47  24  25  ar  
 48  24  45  1   
@<TRIPOS>SUBSTRUCTURE
  1 ****   3 GROUP 4 **** **** 0

# MOE 2024.06 (io_trps.svl 2023.06)
