@<TRIPOS>MOLECULE
NONAME
50 51 1 0 0 
SMALL
USER_CHARGES


@<TRIPOS>ATOM
  1 S        1.8500     0.6490    -0.9900 S.o2  1 <1>   1.3330 
  2 O        2.9190     0.0500    -1.7570 O.2   1 <1>  -0.6500 
  3 O        1.6720     2.0820    -1.0920 O.2   1 <1>  -0.6500 
  4 N        0.3910    -0.1110    -1.3980 N.am  1 <1>  -0.8490 
  5 C        2.0910     0.2010     0.7320 C.3   1 <1>  -0.0550 
  6 C       -0.7990     0.6800    -1.0630 C.3   1 <1>   0.1160 
  7 C        0.3380    -0.5290    -2.8020 C.3   1 <1>   0.1160 
  8 C        3.1980     1.0220     1.4230 C.3   1 <1>  -0.0800 
  9 C        4.5990     0.6980     0.9140 C.3   1 <1>   0.2890 
 10 C        3.3170     0.6590     2.8980 C.3   1 <1>   0.1200 
 11 N        5.4370     1.9160     1.0510 N.pl3 1 <1>  -0.8690 
 12 C        5.0660    -0.4090     1.8650 C.3   1 <1>   0.1200 
 13 O        4.1790    -0.4300     2.9460 O.3   1 <1>  -0.5600 
 14 C        5.5450     2.9380     0.2020 C.ar  1 <1>   0.4100 
 15 N        6.2780     3.9610     0.6400 N.ar  1 <1>  -0.6200 
 16 C        4.9240     2.9810    -1.0510 C.ar  1 <1>  -0.1500 
 17 C        6.3760     5.0110    -0.1220 C.ar  1 <1>   0.5280 
 18 C        5.0380     4.0980    -1.8190 C.ar  1 <1>   0.2180 
 19 N        5.7770     5.1140    -1.3300 N.ar  1 <1>  -0.1790 
 20 C        7.2080     6.1880     0.3710 C.3   1 <1>  -0.0170 
 21 C        4.3700     4.2330    -3.1770 C.3   1 <1>  -0.0970 
 22 C        6.3460     7.4120     0.7240 C.3   1 <1>  -0.1600 
 23 C        7.2100     8.5720     1.2280 C.3   1 <1>  -0.2400 
 24 H        1.1730     0.3710     1.2580 H     1 <1>   0.0800 
 25 H        2.3130    -0.8470     0.8030 H     1 <1>   0.0800 
 26 H       -1.6900     0.1070    -1.2550 H     1 <1>   0.0800 
 27 H       -0.8290     1.5830    -1.6520 H     1 <1>   0.0800 
 28 H       -0.7870     0.9480    -0.0210 H     1 <1>   0.0800 
 29 H       -0.5930    -1.0300    -3.0080 H     1 <1>   0.0800 
 30 H        1.1400    -1.2160    -3.0140 H     1 <1>   0.0800 
 31 H        0.4310     0.3250    -3.4520 H     1 <1>   0.0800 
 32 H        2.9650     2.0680     1.3190 H     1 <1>   0.0800 
 33 H        4.6360     0.3490    -0.1010 H     1 <1>   0.0800 
 34 H        2.3790     0.3890     3.3520 H     1 <1>   0.0800 
 35 H        3.7730     1.4600     3.4550 H     1 <1>   0.0800 
 36 H        5.9160     2.0050     1.9540 H     1 <1>   0.4000 
 37 H        6.0640    -0.2410     2.2280 H     1 <1>   0.0800 
 38 H        5.0100    -1.3700     1.3850 H     1 <1>   0.0800 
 39 H        4.3600     2.1390    -1.3940 H     1 <1>   0.1500 
 40 H        5.8910     5.9740    -1.8640 H     1 <1>   0.4570 
 41 H        7.7530     5.8810     1.2480 H     1 <1>   0.0800 
 42 H        7.9340     6.4500    -0.3770 H     1 <1>   0.0800 
 43 H        3.8030     3.3460    -3.4030 H     1 <1>   0.0800 
 44 H        5.1070     4.3670    -3.9500 H     1 <1>   0.0800 
 45 H        3.6930     5.0690    -3.1830 H     1 <1>   0.0800 
 46 H        5.7860     7.7450    -0.1320 H     1 <1>   0.0800 
 47 H        5.6430     7.1420     1.4960 H     1 <1>   0.0800 
 48 H        7.9130     8.8850     0.4750 H     1 <1>   0.0800 
 49 H        7.7560     8.2840     2.1110 H     1 <1>   0.0800 
 50 H        6.5880     9.4130     1.4800 H     1 <1>   0.0800 
@<TRIPOS>BOND
  1   1   2  2   
  2   1   3  2   
  3   1   4  am  
  4   1   5  1   
  5   4   6  1   
  6   4   7  1   
  7   5   8  1   
  8   5  24  1   
  9   5  25  1   
 10   6  26  1   
 11   6  27  1   
 12   6  28  1   
 13   7  29  1   
 14   7  30  1   
 15   7  31  1   
 16   8   9  1   
 17   8  10  1   
 18   8  32  1   
 19   9  11  1   
 20   9  12  1   
 21   9  33  1   
 22  10  13  1   
 23  10  34  1   
 24  10  35  1   
 25  11  14  1   
 26  11  36  1   
 27  12  13  1   
 28  12  37  1   
 29  12  38  1   
 30  14  15  ar  
 31  14  16  ar  
 32  15  17  ar  
 33  16  18  ar  
 34  16  39  1   
 35  17  19  ar  
 36  17  20  1   
 37  18  19  ar  
 38  18  21  1   
 39  19  40  1   
 40  20  22  1   
 41  20  41  1   
 42  20  42  1   
 43  21  43  1   
 44  21  44  1   
 45  21  45  1   
 46  22  23  1   
 47  22  46  1   
 48  22  47  1   
 49  23  48  1   
 50  23  49  1   
 51  23  50  1   
@<TRIPOS>SUBSTRUCTURE
  1 ****  16 GROUP 4 **** **** 0

# MOE 2024.06 (io_trps.svl 2023.06)
