@<TRIPOS>MOLECULE
NONAME
55 57 1 0 0 
SMALL
USER_CHARGES


@<TRIPOS>ATOM
  1 O       -0.6910    -0.8910     0.1610 O.2   1 <1>  -0.5700 
  2 C       -1.0850     0.0540    -0.4940 C.2   1 <1>   0.5440 
  3 N       -2.3130     0.5700    -0.1960 N.am  1 <1>  -0.7300 
  4 C       -0.2940     0.5940    -1.5870 C.ar  1 <1>   0.0860 
  5 C       -3.1920     0.1320     0.9190 C.3   1 <1>   0.2200 
  6 C       -0.4080     1.9250    -1.9950 C.ar  1 <1>  -0.1500 
  7 C        0.6170    -0.2090    -2.2750 C.ar  1 <1>  -0.1500 
  8 C       -3.9350    -1.1770     0.5760 C.3   1 <1>   0.2000 
  9 C       -4.1710     1.2660     1.2380 C.3   1 <1>  -0.1600 
 10 C        0.3400     2.4260    -3.0460 C.ar  1 <1>  -0.1500 
 11 C        1.3690     0.2850    -3.3260 C.ar  1 <1>  -0.1500 
 12 O       -3.0330    -2.2340     0.5590 O.3   1 <1>  -0.6800 
 13 C       -5.0230    -1.4900     1.6090 C.3   1 <1>   0.1100 
 14 C       -5.1830     0.8360     2.3030 C.3   1 <1>   0.1100 
 15 C        1.2290     1.6050    -3.7150 C.ar  1 <1>  -0.1500 
 16 N       -5.9250    -0.3300     1.8150 N.3   1 <1>  -0.8100 
 17 C       -7.0490    -0.6890     2.7360 C.3   1 <1>   0.1710 
 18 C       -8.0600    -1.6640     2.1210 C.2   1 <1>   0.5690 
 19 O       -8.6680    -2.4330     2.8260 O.2   1 <1>  -0.5700 
 20 N       -8.2040    -1.6410     0.7760 N.am  1 <1>  -0.7300 
 21 C       -8.8090    -2.6970    -0.0460 C.3   1 <1>   0.2840 
 22 C       -7.7860    -3.0630    -1.1110 C.ar  1 <1>  -0.1430 
 23 C       -6.8290    -4.0560    -0.9130 C.ar  1 <1>  -0.1430 
 24 C       -7.8010    -2.3570    -2.3060 C.ar  1 <1>  -0.1500 
 25 C       -5.9040    -4.3180    -1.9110 C.ar  1 <1>  -0.1500 
 26 C       -6.7610    -4.8730     0.3720 C.3   1 <1>  -0.0970 
 27 C       -6.8760    -2.6280    -3.2970 C.ar  1 <1>  -0.1500 
 28 C       -5.9240    -3.6090    -3.0990 C.ar  1 <1>  -0.1500 
 29 H       -2.7490     1.2070    -0.8620 H     1 <1>   0.3700 
 30 H       -2.5890    -0.0470     1.7940 H     1 <1>   0.0800 
 31 H       -1.0840     2.5830    -1.4790 H     1 <1>   0.1500 
 32 H        0.7340    -1.2370    -1.9770 H     1 <1>   0.1500 
 33 H       -4.3840    -1.1070    -0.4000 H     1 <1>   0.0800 
 34 H       -3.6250     2.1180     1.5990 H     1 <1>   0.0800 
 35 H       -4.7110     1.5510     0.3530 H     1 <1>   0.0800 
 36 H        0.2350     3.4550    -3.3430 H     1 <1>   0.1500 
 37 H        2.0630    -0.3570    -3.8410 H     1 <1>   0.1500 
 38 H       -2.1310    -1.8780     0.3430 H     1 <1>   0.4000 
 39 H       -4.5590    -1.7570     2.5440 H     1 <1>   0.0800 
 40 H       -5.5850    -2.3330     1.2510 H     1 <1>   0.0800 
 41 H       -5.8660     1.6480     2.4870 H     1 <1>   0.0800 
 42 H       -4.6800     0.5960     3.2260 H     1 <1>   0.0800 
 43 H        1.8130     1.9910    -4.5330 H     1 <1>   0.1500 
 44 H       -6.6590    -1.1200     3.6400 H     1 <1>   0.0800 
 45 H       -7.5920     0.2000     2.9990 H     1 <1>   0.0800 
 46 H       -7.5210    -1.0620     0.2780 H     1 <1>   0.3700 
 47 H       -9.0680    -3.5470     0.5610 H     1 <1>   0.0800 
 48 H       -9.7080    -2.3220    -0.5010 H     1 <1>   0.0800 
 49 H       -8.5340    -1.5870    -2.4680 H     1 <1>   0.1500 
 50 H       -5.1550    -5.0780    -1.7690 H     1 <1>   0.1500 
 51 H       -5.8090    -5.3660     0.4600 H     1 <1>   0.0800 
 52 H       -7.5340    -5.6190     0.3700 H     1 <1>   0.0800 
 53 H       -6.8870    -4.2470     1.2360 H     1 <1>   0.0800 
 54 H       -6.8950    -2.0750    -4.2200 H     1 <1>   0.1500 
 55 H       -5.1990    -3.8220    -3.8640 H     1 <1>   0.1500 
@<TRIPOS>BOND
  1   1   2  2   
  2   2   3  am  
  3   2   4  1   
  4   3   5  1   
  5   3  29  1   
  6   4   6  ar  
  7   4   7  ar  
  8   5   8  1   
  9   5   9  1   
 10   5  30  1   
 11   6  10  ar  
 12   6  31  1   
 13   7  11  ar  
 14   7  32  1   
 15   8  12  1   
 16   8  13  1   
 17   8  33  1   
 18   9  14  1   
 19   9  34  1   
 20   9  35  1   
 21  10  15  ar  
 22  10  36  1   
 23  11  15  ar  
 24  11  37  1   
 25  12  38  1   
 26  13  16  1   
 27  13  39  1   
 28  13  40  1   
 29  14  16  1   
 30  14  41  1   
 31  14  42  1   
 32  15  43  1   
 33  16  17  1   
 34  17  18  1   
 35  17  44  1   
 36  17  45  1   
 37  18  19  2   
 38  18  20  am  
 39  20  21  1   
 40  20  46  1   
 41  21  22  1   
 42  21  47  1   
 43  21  48  1   
 44  22  23  ar  
 45  22  24  ar  
 46  23  25  ar  
 47  23  26  1   
 48  24  27  ar  
 49  24  49  1   
 50  25  28  ar  
 51  25  50  1   
 52  26  51  1   
 53  26  52  1   
 54  26  53  1   
 55  27  28  ar  
 56  27  54  1   
 57  28  55  1   
@<TRIPOS>SUBSTRUCTURE
  1 ****   8 GROUP 4 **** **** 0

# MOE 2024.06 (io_trps.svl 2023.06)
