@<TRIPOS>MOLECULE
NONAME
41 43 1 0 0 
SMALL
USER_CHARGES


@<TRIPOS>ATOM
  1 S       -0.9550     3.5930     1.3020 S.3   1 <1>  -0.0800 
  2 C       -2.2940     2.6000     0.7580 C.2   1 <1>  -0.1100 
  3 C       -0.3960     3.8100    -0.3450 C.2   1 <1>  -0.1100 
  4 C       -2.2870     2.4720    -0.5840 C.2   1 <1>  -0.1810 
  5 C       -1.1980     3.1620    -1.2100 C.2   1 <1>  -0.1500 
  6 C       -3.2930     1.6920    -1.4270 C.3   1 <1>   0.0820 
  7 C       -4.5140     1.2000    -0.6560 C.2   1 <1>   0.5690 
  8 O       -4.6200     0.0040    -0.5020 O.2   1 <1>  -0.5700 
  9 N       -5.4630     2.0740    -0.1750 N.am  1 <1>  -0.6600 
 10 C       -6.6500     1.5890     0.5870 C.3   1 <1>   0.1400 
 11 C       -5.4080     3.5590    -0.2910 C.3   1 <1>   0.1400 
 12 C       -7.9280     2.0730    -0.1020 C.3   1 <1>  -0.1600 
 13 C       -6.6700     4.0540    -1.0000 C.3   1 <1>  -0.1600 
 14 C       -7.9410     3.5950    -0.2720 C.3   1 <1>   0.4180 
 15 O       -7.9550     4.1350     1.0270 O.3   1 <1>  -0.5600 
 16 C       -9.1930     4.0160    -1.0380 C.2   1 <1>  -0.2880 
 17 C       -8.3940     5.4570     1.1740 C.3   1 <1>   0.1200 
 18 C      -10.0820     4.9050    -0.5900 C.2   1 <1>  -0.2760 
 19 C       -9.8620     5.5900     0.7460 C.3   1 <1>  -0.0220 
 20 C      -11.3500     5.3000    -1.3260 C.3   1 <1>  -0.1020 
 21 H       -2.9570     2.2110     1.5120 H     1 <1>   0.1500 
 22 H        0.4870     4.4070    -0.4930 H     1 <1>   0.1500 
 23 H       -1.0640     3.1400    -2.2770 H     1 <1>   0.1500 
 24 H       -2.7940     0.8410    -1.8520 H     1 <1>   0.0800 
 25 H       -3.6330     2.3030    -2.2410 H     1 <1>   0.0800 
 26 H       -6.6050     1.9750     1.5910 H     1 <1>   0.0800 
 27 H       -6.6570     0.5140     0.6440 H     1 <1>   0.0800 
 28 H       -4.5410     3.8820    -0.8360 H     1 <1>   0.0800 
 29 H       -5.3540     3.9850     0.6980 H     1 <1>   0.0800 
 30 H       -8.7860     1.7750     0.4730 H     1 <1>   0.0800 
 31 H       -7.9990     1.5990    -1.0630 H     1 <1>   0.0800 
 32 H       -6.6770     3.6630    -2.0000 H     1 <1>   0.0800 
 33 H       -6.6540     5.1240    -1.0790 H     1 <1>   0.0800 
 34 H       -9.2920     3.5100    -1.9810 H     1 <1>   0.1500 
 35 H       -7.7690     6.0960     0.5770 H     1 <1>   0.0800 
 36 H       -8.2810     5.7290     2.2080 H     1 <1>   0.0800 
 37 H      -10.1040     6.6350     0.6750 H     1 <1>   0.0800 
 38 H      -10.4990     5.1470     1.4910 H     1 <1>   0.0800 
 39 H      -12.2120     5.0780    -0.7220 H     1 <1>   0.0800 
 40 H      -11.4330     4.7580    -2.2510 H     1 <1>   0.0800 
 41 H      -11.3400     6.3530    -1.5470 H     1 <1>   0.0800 
@<TRIPOS>BOND
  1   1   2  1   
  2   1   3  1   
  3   2   4  2   
  4   2  21  1   
  5   3   5  2   
  6   3  22  1   
  7   4   5  1   
  8   4   6  1   
  9   5  23  1   
 10   6   7  1   
 11   6  24  1   
 12   6  25  1   
 13   7   8  2   
 14   7   9  am  
 15   9  10  1   
 16   9  11  1   
 17  10  12  1   
 18  10  26  1   
 19  10  27  1   
 20  11  13  1   
 21  11  28  1   
 22  11  29  1   
 23  12  14  1   
 24  12  30  1   
 25  12  31  1   
 26  13  14  1   
 27  13  32  1   
 28  13  33  1   
 29  14  15  1   
 30  14  16  1   
 31  15  17  1   
 32  16  18  2   
 33  16  34  1   
 34  17  19  1   
 35  17  35  1   
 36  17  36  1   
 37  18  19  1   
 38  18  20  1   
 39  19  37  1   
 40  19  38  1   
 41  20  39  1   
 42  20  40  1   
 43  20  41  1   
@<TRIPOS>SUBSTRUCTURE
  1 ****  11 GROUP 4 **** **** 0

# MOE 2024.06 (io_trps.svl 2023.06)
