@<TRIPOS>MOLECULE
NONAME
48 51 1 0 0 
SMALL
USER_CHARGES


@<TRIPOS>ATOM
  1 O       -2.1270    -0.0590    -0.9790 O.2   1 <1>  -0.5700 
  2 C       -2.2720     0.5760     0.0410 C.2   1 <1>   0.9370 
  3 N       -1.8320     1.9300     0.0860 N.pl3 1 <1>  -0.5760 
  4 C       -2.9350     0.0010     1.1600 C.2   1 <1>   0.0290 
  5 C       -2.3250     2.7190     1.0840 C.cat 1 <1>   0.7390 
  6 C       -0.9610     2.5110    -0.8310 C.2   1 <1>   0.2030 
  7 C       -3.1520    -1.4060     1.2430 C.2   1 <1>   0.6160 
  8 C       -3.3120     0.8220     2.1650 C.2   1 <1>   0.1910 
  9 N       -3.0540     2.1600     2.0810 N.pl3 1 <1>  -0.6450 
 10 C       -2.0720     4.0940     1.1120 C.2   1 <1>  -0.1800 
 11 C       -0.7010     3.8560    -0.7960 C.2   1 <1>  -0.1500 
 12 C       -0.2280     1.7040    -1.9020 C.3   1 <1>  -0.1020 
 13 O       -2.7590    -1.9630     2.2470 O.2   1 <1>  -0.5700 
 14 N       -3.8380    -2.1450     0.3110 N.am  1 <1>  -0.6600 
 15 C       -1.2700     4.6780     0.1740 C.2   1 <1>  -0.1500 
 16 C       -4.7170    -1.6300    -0.7750 C.3   1 <1>   0.1400 
 17 C       -3.9980    -3.6230     0.4210 C.3   1 <1>   0.1400 
 18 C       -5.7940    -2.7000    -0.9240 C.3   1 <1>   0.2000 
 19 C       -5.0410    -4.0040    -0.6390 C.3   1 <1>  -0.0800 
 20 O       -6.7490    -2.4860     0.0590 O.3   1 <1>  -0.6800 
 21 C       -5.9230    -5.2050    -0.2480 C.3   1 <1>  -0.0170 
 22 C       -5.0840    -6.4600    -0.0670 C.ar  1 <1>  -0.1430 
 23 C       -4.6780    -6.9000     1.1770 C.ar  1 <1>  -0.1500 
 24 C       -4.6840    -7.2260    -1.1440 C.ar  1 <1>  -0.1500 
 25 C       -3.9120    -8.0490     1.2810 C.ar  1 <1>   0.1600 
 26 C       -3.9170    -8.3590    -0.9310 C.ar  1 <1>   0.1600 
 27 N       -3.5210    -8.7900     0.2560 N.ar  1 <1>  -0.6200 
 28 H       -3.8140     0.4450     3.0480 H     1 <1>   0.1500 
 29 H       -3.3670     2.7820     2.8370 H     1 <1>   0.4500 
 30 H       -2.5100     4.6960     1.8860 H     1 <1>   0.1500 
 31 H       -0.0430     4.3140    -1.5160 H     1 <1>   0.1500 
 32 H        0.2600     0.8510    -1.4660 H     1 <1>   0.0800 
 33 H        0.5270     2.2950    -2.3880 H     1 <1>   0.0800 
 34 H       -0.9160     1.3710    -2.6590 H     1 <1>   0.0800 
 35 H       -1.0610     5.7370     0.1760 H     1 <1>   0.1500 
 36 H       -5.1460    -0.6710    -0.5430 H     1 <1>   0.0800 
 37 H       -4.1480    -1.5650    -1.6870 H     1 <1>   0.0800 
 38 H       -3.0600    -4.1220     0.2420 H     1 <1>   0.0800 
 39 H       -4.3460    -3.8710     1.4090 H     1 <1>   0.0800 
 40 H       -6.2790    -2.6820    -1.8850 H     1 <1>   0.0800 
 41 H       -4.5020    -4.2650    -1.5330 H     1 <1>   0.0800 
 42 H       -6.3230    -2.5360     0.9370 H     1 <1>   0.4000 
 43 H       -6.6550    -5.3750    -1.0180 H     1 <1>   0.0800 
 44 H       -6.4590    -5.0000     0.6630 H     1 <1>   0.0800 
 45 H       -4.9500    -6.3640     2.0680 H     1 <1>   0.1500 
 46 H       -4.9600    -6.9540    -2.1460 H     1 <1>   0.1500 
 47 H       -3.6040    -8.3770     2.2590 H     1 <1>   0.1500 
 48 H       -3.6140    -8.9440    -1.7820 H     1 <1>   0.1500 
@<TRIPOS>BOND
  1   1   2  2   
  2   2   3  1   
  3   2   4  1   
  4   3   5  ar  
  5   3   6  1   
  6   4   7  1   
  7   4   8  2   
  8   5   9  ar  
  9   5  10  1   
 10   6  11  2   
 11   6  12  1   
 12   7  13  2   
 13   7  14  am  
 14   8   9  1   
 15   8  28  1   
 16   9  29  1   
 17  10  15  2   
 18  10  30  1   
 19  11  15  1   
 20  11  31  1   
 21  12  32  1   
 22  12  33  1   
 23  12  34  1   
 24  14  16  1   
 25  14  17  1   
 26  15  35  1   
 27  16  18  1   
 28  16  36  1   
 29  16  37  1   
 30  17  19  1   
 31  17  38  1   
 32  17  39  1   
 33  18  19  1   
 34  18  20  1   
 35  18  40  1   
 36  19  21  1   
 37  19  41  1   
 38  20  42  1   
 39  21  22  1   
 40  21  43  1   
 41  21  44  1   
 42  22  23  ar  
 43  22  24  ar  
 44  23  25  ar  
 45  23  45  1   
 46  24  26  ar  
 47  24  46  1   
 48  25  27  ar  
 49  25  47  1   
 50  26  27  ar  
 51  26  48  1   
@<TRIPOS>SUBSTRUCTURE
  1 ****  14 GROUP 4 **** **** 0

# MOE 2024.06 (io_trps.svl 2023.06)
