@<TRIPOS>MOLECULE
NONAME
46 48 1 0 0 
SMALL
USER_CHARGES


@<TRIPOS>ATOM
  1 O       -2.8240     0.7320    -3.3770 O.2   1 <1>  -0.5700 
  2 C       -2.2290     0.9800    -2.3560 C.2   1 <1>   0.5690 
  3 N       -1.8210    -0.0060    -1.5180 N.am  1 <1>  -0.7300 
  4 C       -1.9480     2.4360    -2.0040 C.3   1 <1>   0.1810 
  5 C       -2.0310    -1.4570    -1.7160 C.3   1 <1>   0.2200 
  6 O       -1.4630     2.5610    -0.6730 O.3   1 <1>  -0.3630 
  7 C       -3.1220    -1.9880    -0.7950 C.3   1 <1>  -0.0800 
  8 C       -0.8220    -2.2130    -1.1830 C.3   1 <1>   0.1200 
  9 C       -1.1580     3.7740    -0.1490 C.ar  1 <1>   0.0820 
 10 C       -2.3700    -2.2510     0.5130 C.3   1 <1>   0.1200 
 11 C       -4.3670    -1.0950    -0.6400 C.3   1 <1>  -0.0160 
 12 O       -1.0070    -2.2850     0.1990 O.3   1 <1>  -0.5600 
 13 C       -0.6700     3.7860     1.1490 C.ar  1 <1>  -0.1500 
 14 C       -1.3080     4.9760    -0.8350 C.ar  1 <1>  -0.1500 
 15 C       -5.4110    -1.7670     0.2380 C.ar  1 <1>  -0.1440 
 16 C       -0.3310     4.9770     1.7680 C.ar  1 <1>  -0.1440 
 17 C       -0.9720     6.1680    -0.2180 C.ar  1 <1>  -0.1500 
 18 C       -5.5620    -1.4470     1.5720 C.ar  1 <1>  -0.1500 
 19 C       -6.2620    -2.7350    -0.2570 C.ar  1 <1>  -0.1500 
 20 C       -0.4860     6.1690     1.0780 C.ar  1 <1>  -0.1500 
 21 C        0.2020     4.9830     3.1890 C.3   1 <1>  -0.0970 
 22 C       -6.5250    -2.0970     2.3270 C.ar  1 <1>   0.1600 
 23 C       -7.1920    -3.3230     0.5840 C.ar  1 <1>   0.1600 
 24 N       -7.3420    -3.0290     1.8660 N.ar  1 <1>  -0.6200 
 25 H       -1.3480     0.2510    -0.6450 H     1 <1>   0.3700 
 26 H       -2.8590     3.0010    -2.0880 H     1 <1>   0.0800 
 27 H       -1.2070     2.8270    -2.6750 H     1 <1>   0.0800 
 28 H       -2.2230    -1.6730    -2.7540 H     1 <1>   0.0800 
 29 H       -3.4390    -2.9420    -1.1790 H     1 <1>   0.0800 
 30 H        0.1090    -1.7190    -1.4000 H     1 <1>   0.0800 
 31 H       -0.8030    -3.2190    -1.5640 H     1 <1>   0.0800 
 32 H       -2.6530    -3.1910     0.9560 H     1 <1>   0.0800 
 33 H       -2.5180    -1.4550     1.2220 H     1 <1>   0.0800 
 34 H       -4.7890    -0.8990    -1.6110 H     1 <1>   0.0800 
 35 H       -4.0990    -0.1470    -0.2090 H     1 <1>   0.0800 
 36 H       -0.5590     2.8520     1.6680 H     1 <1>   0.1500 
 37 H       -1.6820     5.0090    -1.8410 H     1 <1>   0.1500 
 38 H       -1.0870     7.0990    -0.7460 H     1 <1>   0.1500 
 39 H       -4.9420    -0.7000     2.0320 H     1 <1>   0.1500 
 40 H       -6.2110    -3.0360    -1.2870 H     1 <1>   0.1500 
 41 H       -0.2280     7.1020     1.5480 H     1 <1>   0.1500 
 42 H        0.9810     5.7170     3.2920 H     1 <1>   0.0800 
 43 H        0.6070     4.0210     3.4470 H     1 <1>   0.0800 
 44 H       -0.5920     5.2200     3.8740 H     1 <1>   0.0800 
 45 H       -6.6280    -1.8350     3.3660 H     1 <1>   0.1500 
 46 H       -7.8470    -4.0760     0.1810 H     1 <1>   0.1500 
@<TRIPOS>BOND
  1   1   2  2   
  2   2   3  am  
  3   2   4  1   
  4   3   5  1   
  5   3  25  1   
  6   4   6  1   
  7   4  26  1   
  8   4  27  1   
  9   5   7  1   
 10   5   8  1   
 11   5  28  1   
 12   6   9  1   
 13   7  10  1   
 14   7  11  1   
 15   7  29  1   
 16   8  12  1   
 17   8  30  1   
 18   8  31  1   
 19   9  13  ar  
 20   9  14  ar  
 21  10  12  1   
 22  10  32  1   
 23  10  33  1   
 24  11  15  1   
 25  11  34  1   
 26  11  35  1   
 27  13  16  ar  
 28  13  36  1   
 29  14  17  ar  
 30  14  37  1   
 31  15  18  ar  
 32  15  19  ar  
 33  16  20  ar  
 34  16  21  1   
 35  17  20  ar  
 36  17  38  1   
 37  18  22  ar  
 38  18  39  1   
 39  19  23  ar  
 40  19  40  1   
 41  20  41  1   
 42  21  42  1   
 43  21  43  1   
 44  21  44  1   
 45  22  24  ar  
 46  22  45  1   
 47  23  24  ar  
 48  23  46  1   
@<TRIPOS>SUBSTRUCTURE
  1 ****   3 GROUP 4 **** **** 0

# MOE 2024.06 (io_trps.svl 2023.06)
