@<TRIPOS>MOLECULE
NONAME
47 49 1 0 0 
SMALL
USER_CHARGES


@<TRIPOS>ATOM
  1 O       -0.7360     0.3200     1.8790 O.2   1 <1>  -0.5700 
  2 C       -1.5830     0.9590     1.2850 C.2   1 <1>   0.5440 
  3 N       -2.6730     0.2910     0.7740 N.am  1 <1>  -0.6600 
  4 C       -1.4260     2.3890     1.1110 C.ar  1 <1>   0.0860 
  5 C       -3.5860     0.8450    -0.2610 C.3   1 <1>   0.1400 
  6 C       -2.7970    -1.1870     0.8280 C.3   1 <1>   0.1400 
  7 C       -0.3160     2.9070     0.4520 C.ar  1 <1>  -0.1500 
  8 C       -2.3760     3.2910     1.5900 C.ar  1 <1>  -0.1500 
  9 C       -4.5500    -0.2990    -0.5740 C.3   1 <1>   0.2000 
 10 C       -3.7030    -1.5560    -0.3520 C.3   1 <1>  -0.0800 
 11 C       -0.1450     4.2680     0.2500 C.ar  1 <1>   0.1000 
 12 C       -2.2250     4.6530     1.4020 C.ar  1 <1>  -0.1500 
 13 O       -5.5780    -0.2630     0.3560 O.3   1 <1>  -0.6800 
 14 C       -4.5060    -2.8540    -0.1410 C.3   1 <1>   0.0200 
 15 N        0.9890     4.7240    -0.4200 N.pl3 1 <1>  -0.8380 
 16 C       -1.1160     5.1370     0.7350 C.ar  1 <1>  -0.1500 
 17 C       -3.6270    -4.0910    -0.0680 C.2   1 <1>  -0.0400 
 18 C        0.8860     5.8800    -1.3490 C.3   1 <1>   0.1290 
 19 C        2.2940     4.5940     0.2790 C.3   1 <1>   0.1290 
 20 O       -4.1800    -5.2360     0.2320 O.3   1 <1>  -0.0190 
 21 C       -2.3140    -4.3110    -0.2540 C.2   1 <1>  -0.1500 
 22 N       -3.3130    -6.2060     0.2610 N.2   1 <1>  -0.4100 
 23 C       -2.1790    -5.6770    -0.0280 C.2   1 <1>   0.1080 
 24 C       -0.8780    -6.4450    -0.1090 C.3   1 <1>  -0.0590 
 25 H       -4.1090     1.7190     0.0860 H     1 <1>   0.0800 
 26 H       -3.0110     1.0930    -1.1370 H     1 <1>   0.0800 
 27 H       -1.8310    -1.6560     0.7490 H     1 <1>   0.0800 
 28 H       -3.2470    -1.4650     1.7660 H     1 <1>   0.0800 
 29 H        0.4340     2.2330     0.0810 H     1 <1>   0.1500 
 30 H       -3.2350     2.9150     2.1170 H     1 <1>   0.1500 
 31 H       -4.9770    -0.2350    -1.5610 H     1 <1>   0.0800 
 32 H       -3.0780    -1.6800    -1.2180 H     1 <1>   0.0800 
 33 H       -2.9670     5.3360     1.7790 H     1 <1>   0.1500 
 34 H       -5.1900    -0.1630     1.2490 H     1 <1>   0.4000 
 35 H       -5.2010    -2.9790    -0.9530 H     1 <1>   0.0800 
 36 H       -5.0780    -2.7900     0.7670 H     1 <1>   0.0800 
 37 H       -0.9950     6.1950     0.5980 H     1 <1>   0.1500 
 38 H        1.6220     5.7840    -2.1280 H     1 <1>   0.0800 
 39 H        1.0520     6.7990    -0.8140 H     1 <1>   0.0800 
 40 H       -0.0910     5.9030    -1.7990 H     1 <1>   0.0800 
 41 H        3.0540     4.3010    -0.4240 H     1 <1>   0.0800 
 42 H        2.2310     3.8470     1.0510 H     1 <1>   0.0800 
 43 H        2.5670     5.5330     0.7280 H     1 <1>   0.0800 
 44 H       -1.5220    -3.6340    -0.5160 H     1 <1>   0.1500 
 45 H       -0.4770    -6.3800    -1.1030 H     1 <1>   0.0800 
 46 H       -1.0470    -7.4790     0.1330 H     1 <1>   0.0800 
 47 H       -0.1700    -6.0370     0.5880 H     1 <1>   0.0800 
@<TRIPOS>BOND
  1   1   2  2   
  2   2   3  am  
  3   2   4  1   
  4   3   5  1   
  5   3   6  1   
  6   4   7  ar  
  7   4   8  ar  
  8   5   9  1   
  9   5  25  1   
 10   5  26  1   
 11   6  10  1   
 12   6  27  1   
 13   6  28  1   
 14   7  11  ar  
 15   7  29  1   
 16   8  12  ar  
 17   8  30  1   
 18   9  10  1   
 19   9  13  1   
 20   9  31  1   
 21  10  14  1   
 22  10  32  1   
 23  11  15  1   
 24  11  16  ar  
 25  12  16  ar  
 26  12  33  1   
 27  13  34  1   
 28  14  17  1   
 29  14  35  1   
 30  14  36  1   
 31  15  18  1   
 32  15  19  1   
 33  16  37  1   
 34  17  20  1   
 35  17  21  2   
 36  18  38  1   
 37  18  39  1   
 38  18  40  1   
 39  19  41  1   
 40  19  42  1   
 41  19  43  1   
 42  20  22  1   
 43  21  23  1   
 44  21  44  1   
 45  22  23  2   
 46  23  24  1   
 47  24  45  1   
 48  24  46  1   
 49  24  47  1   
@<TRIPOS>SUBSTRUCTURE
  1 ****   3 GROUP 4 **** **** 0

# MOE 2024.06 (io_trps.svl 2023.06)
