@<TRIPOS>MOLECULE
NONAME
45 47 1 0 0 
SMALL
USER_CHARGES


@<TRIPOS>ATOM
  1 S        1.2310     0.6120     0.9390 S.o2  1 <1>   1.4470 
  2 O        1.3960     0.3820     2.3520 O.2   1 <1>  -0.6500 
  3 O        1.8550     1.7180     0.2570 O.2   1 <1>  -0.6500 
  4 N       -0.4060     0.8190     0.7150 N.am  1 <1>  -0.9780 
  5 C        1.5570    -0.9250     0.0240 C.ar  1 <1>  -0.0090 
  6 C        1.4190    -2.1670     0.6340 C.ar  1 <1>  -0.1500 
  7 C        1.9300    -0.8900    -1.3170 C.ar  1 <1>  -0.1500 
  8 C        1.6330    -3.3700    -0.0420 C.ar  1 <1>   0.0860 
  9 C        2.1640    -2.0580    -2.0210 C.ar  1 <1>  -0.1500 
 10 C        2.0170    -3.2690    -1.3760 C.ar  1 <1>   0.1900 
 11 C        1.4710    -4.6340     0.6430 C.2   1 <1>   0.5440 
 12 F        2.2600    -4.3500    -2.0650 F     1 <1>  -0.1900 
 13 O        2.0750    -4.8230     1.6800 O.2   1 <1>  -0.5700 
 14 N        0.6140    -5.6130     0.1980 N.am  1 <1>  -0.6600 
 15 C       -0.4130    -5.4650    -0.8650 C.3   1 <1>   0.1400 
 16 C        0.4340    -6.9050     0.9100 C.3   1 <1>   0.1400 
 17 C       -1.4740    -6.5090    -0.5180 C.3   1 <1>   0.2000 
 18 C       -0.6890    -7.6350     0.1580 C.3   1 <1>  -0.0800 
 19 O       -2.3350    -5.9550     0.4160 O.3   1 <1>  -0.6800 
 20 C       -0.1230    -8.6170    -0.8860 C.3   1 <1>   0.0210 
 21 C        0.6560    -9.7390    -0.2280 C.2   1 <1>   0.1080 
 22 N        0.0920   -10.6510     0.5020 N.2   1 <1>  -0.7070 
 23 C        2.0320    -9.9150    -0.3200 C.2   1 <1>  -0.1500 
 24 N        1.1060   -11.4420     0.8990 N.pl3 1 <1>   0.3000 
 25 C        2.2920   -11.0160     0.4140 C.2   1 <1>  -0.3320 
 26 C        3.6200   -11.6970     0.6890 C.3   1 <1>  -0.0600 
 27 H       -0.8820     0.0250     1.1280 H     1 <1>   0.4200 
 28 H       -0.5840     0.8750    -0.2810 H     1 <1>   0.4200 
 29 H        1.1460    -2.2170     1.6770 H     1 <1>   0.1500 
 30 H        2.0500     0.0610    -1.8130 H     1 <1>   0.1500 
 31 H        2.4640    -2.0310    -3.0550 H     1 <1>   0.1500 
 32 H       -0.8290    -4.4730    -0.8940 H     1 <1>   0.0800 
 33 H        0.0300    -5.7010    -1.8160 H     1 <1>   0.0800 
 34 H        1.3560    -7.4600     0.9260 H     1 <1>   0.0800 
 35 H        0.1360    -6.7090     1.9260 H     1 <1>   0.0800 
 36 H       -2.0550    -6.8270    -1.3670 H     1 <1>   0.0800 
 37 H       -1.3110    -8.1920     0.8390 H     1 <1>   0.0800 
 38 H       -1.8160    -5.6800     1.1980 H     1 <1>   0.4000 
 39 H        0.5190    -8.1040    -1.5790 H     1 <1>   0.0800 
 40 H       -0.9320    -9.0560    -1.4410 H     1 <1>   0.0800 
 41 H        2.7170    -9.2890    -0.8640 H     1 <1>   0.1500 
 42 H        0.9560   -12.2620     1.4990 H     1 <1>   0.2700 
 43 H        4.4150   -11.1680     0.1930 H     1 <1>   0.0800 
 44 H        3.6030   -12.7090     0.3250 H     1 <1>   0.0800 
 45 H        3.8230   -11.7050     1.7450 H     1 <1>   0.0800 
@<TRIPOS>BOND
  1   1   2  2   
  2   1   3  2   
  3   1   4  am  
  4   1   5  1   
  5   4  27  1   
  6   4  28  1   
  7   5   6  ar  
  8   5   7  ar  
  9   6   8  ar  
 10   6  29  1   
 11   7   9  ar  
 12   7  30  1   
 13   8  10  ar  
 14   8  11  1   
 15   9  10  ar  
 16   9  31  1   
 17  10  12  1   
 18  11  13  2   
 19  11  14  am  
 20  14  15  1   
 21  14  16  1   
 22  15  17  1   
 23  15  32  1   
 24  15  33  1   
 25  16  18  1   
 26  16  34  1   
 27  16  35  1   
 28  17  18  1   
 29  17  19  1   
 30  17  36  1   
 31  18  20  1   
 32  18  37  1   
 33  19  38  1   
 34  20  21  1   
 35  20  39  1   
 36  20  40  1   
 37  21  22  2   
 38  21  23  1   
 39  22  24  1   
 40  23  25  2   
 41  23  41  1   
 42  24  25  1   
 43  24  42  1   
 44  25  26  1   
 45  26  43  1   
 46  26  44  1   
 47  26  45  1   
@<TRIPOS>SUBSTRUCTURE
  1 ****  14 GROUP 4 **** **** 0

# MOE 2024.06 (io_trps.svl 2023.06)
