@<TRIPOS>MOLECULE
NONAME
36 35 1 0 0 
SMALL
USER_CHARGES


@<TRIPOS>ATOM
  1 O       -2.6770     0.0570    -0.6650 O.3   1 <1>  -0.6800 
  2 C       -1.8050    -0.2260     0.3520 C.3   1 <1>   0.2800 
  3 C       -2.0800    -1.6520     0.8780 C.3   1 <1>  -0.1600 
  4 C       -2.0630     0.8110     1.4430 C.3   1 <1>  -0.2400 
  5 C       -0.4000    -0.0530    -0.2210 C.3   1 <1>  -0.2400 
  6 C       -2.1120    -2.7930    -0.1800 C.3   1 <1>  -0.0800 
  7 C       -3.5130    -3.4390    -0.2870 C.3   1 <1>  -0.1600 
  8 C       -1.0940    -3.9080     0.1470 C.3   1 <1>  -0.1600 
  9 C       -4.6080    -2.4850    -0.7890 C.3   1 <1>  -0.1600 
 10 C        0.3730    -3.4690     0.0140 C.3   1 <1>  -0.1600 
 11 C       -5.9290    -3.2300    -1.0000 C.3   1 <1>  -0.2400 
 12 C        1.3220    -4.6430     0.2700 C.3   1 <1>  -0.2400 
 13 H       -3.5770    -0.1880    -0.3900 H     1 <1>   0.4000 
 14 H       -3.0050    -1.6450     1.4250 H     1 <1>   0.0800 
 15 H       -1.3310    -1.8690     1.6170 H     1 <1>   0.0800 
 16 H       -3.0680     0.7330     1.8160 H     1 <1>   0.0800 
 17 H       -1.9070     1.8040     1.0600 H     1 <1>   0.0800 
 18 H       -1.3860     0.6560     2.2630 H     1 <1>   0.0800 
 19 H       -0.2390    -0.7240    -1.0430 H     1 <1>   0.0800 
 20 H        0.3360    -0.2510     0.5350 H     1 <1>   0.0800 
 21 H       -0.2630     0.9550    -0.5700 H     1 <1>   0.0800 
 22 H       -1.8640    -2.3990    -1.1520 H     1 <1>   0.0800 
 23 H       -3.7990    -3.8390     0.6700 H     1 <1>   0.0800 
 24 H       -3.4570    -4.2640    -0.9760 H     1 <1>   0.0800 
 25 H       -1.2500    -4.7290    -0.5320 H     1 <1>   0.0800 
 26 H       -1.2710    -4.2760     1.1430 H     1 <1>   0.0800 
 27 H       -4.3000    -2.0430    -1.7220 H     1 <1>   0.0800 
 28 H       -4.7720    -1.6970    -0.0770 H     1 <1>   0.0800 
 29 H        0.5960    -2.6870     0.7160 H     1 <1>   0.0800 
 30 H        0.5460    -3.0890    -0.9780 H     1 <1>   0.0800 
 31 H       -5.8100    -4.0080    -1.7340 H     1 <1>   0.0800 
 32 H       -6.6850    -2.5480    -1.3480 H     1 <1>   0.0800 
 33 H       -6.2640    -3.6720    -0.0780 H     1 <1>   0.0800 
 34 H        1.1790    -5.0320     1.2630 H     1 <1>   0.0800 
 35 H        2.3430    -4.3180     0.1730 H     1 <1>   0.0800 
 36 H        1.1460    -5.4320    -0.4400 H     1 <1>   0.0800 
@<TRIPOS>BOND
  1   1   2  1   
  2   1  13  1   
  3   2   3  1   
  4   2   4  1   
  5   2   5  1   
  6   3   6  1   
  7   3  14  1   
  8   3  15  1   
  9   4  16  1   
 10   4  17  1   
 11   4  18  1   
 12   5  19  1   
 13   5  20  1   
 14   5  21  1   
 15   6   7  1   
 16   6   8  1   
 17   6  22  1   
 18   7   9  1   
 19   7  23  1   
 20   7  24  1   
 21   8  10  1   
 22   8  25  1   
 23   8  26  1   
 24   9  11  1   
 25   9  27  1   
 26   9  28  1   
 27  10  12  1   
 28  10  29  1   
 29  10  30  1   
 30  11  31  1   
 31  11  32  1   
 32  11  33  1   
 33  12  34  1   
 34  12  35  1   
 35  12  36  1   
@<TRIPOS>SUBSTRUCTURE
  1 ****   6 GROUP 4 **** **** 0

# MOE 2024.06 (io_trps.svl 2023.06)
