@<TRIPOS>MOLECULE
NONAME
38 39 1 0 0 
SMALL
USER_CHARGES


@<TRIPOS>ATOM
  1 CL       2.5010     2.0370     3.1090 Cl    1 <1>  -0.1770 
  2 C        2.7980     0.5620     2.2150 C.ar  1 <1>   0.1770 
  3 C        3.3980     0.6160     0.9590 C.ar  1 <1>   0.0830 
  4 C        2.4250    -0.6380     2.7880 C.ar  1 <1>  -0.1500 
  5 O        3.7360     1.8390     0.4700 O.3   1 <1>  -0.3630 
  6 C        3.6210    -0.5730     0.2660 C.ar  1 <1>  -0.1500 
  7 C        2.6570    -1.8030     2.0830 C.ar  1 <1>   0.1770 
  8 C        4.3440     1.9990    -0.8050 C.3   1 <1>   0.1810 
  9 C        3.2490    -1.7830     0.8320 C.ar  1 <1>  -0.1500 
 10 CL       2.1940    -3.3330     2.7840 Cl    1 <1>  -0.1770 
 11 C        4.6280     3.4680    -1.0980 C.2   1 <1>   0.5690 
 12 O        5.1750     3.7580    -2.1360 O.2   1 <1>  -0.5700 
 13 N        4.2840     4.4160    -0.1940 N.am  1 <1>  -0.7300 
 14 C        4.5310     5.8580    -0.3310 C.3   1 <1>   0.4000 
 15 C        5.7280     6.2280     0.5440 C.2   1 <1>   0.0060 
 16 C        3.2390     6.6050     0.0360 C.3   1 <1>  -0.1600 
 17 N        5.6820     6.6470     1.7630 N.2   1 <1>  -0.5650 
 18 N        6.9970     6.1290     0.1190 N.pl3 1 <1>   0.3140 
 19 C        3.3230     8.1140    -0.2390 C.3   1 <1>  -0.2400 
 20 C        6.9800     6.8020     2.0450 C.2   1 <1>   0.3660 
 21 N        7.8060     6.5070     1.0970 N.2   1 <1>  -0.7070 
 22 C        7.5280     5.6630    -1.1730 C.3   1 <1>   0.0160 
 23 H        1.9640    -0.6650     3.7580 H     1 <1>   0.1500 
 24 H        4.0790    -0.5830    -0.7060 H     1 <1>   0.1500 
 25 H        3.6760     1.6110    -1.5520 H     1 <1>   0.0800 
 26 H        5.2680     1.4520    -0.8130 H     1 <1>   0.0800 
 27 H        3.4150    -2.7100     0.3110 H     1 <1>   0.1500 
 28 H        3.9270     4.1260     0.7210 H     1 <1>   0.3700 
 29 H        4.7600     6.0820    -1.3580 H     1 <1>   0.0800 
 30 H        3.0210     6.4490     1.0790 H     1 <1>   0.0800 
 31 H        2.4280     6.1990    -0.5430 H     1 <1>   0.0800 
 32 H        4.0990     8.5650     0.3550 H     1 <1>   0.0800 
 33 H        2.3900     8.5850     0.0140 H     1 <1>   0.0800 
 34 H        3.5290     8.3000    -1.2790 H     1 <1>   0.0800 
 35 H        7.2950     7.1530     3.0140 H     1 <1>   0.1500 
 36 H        6.9260     6.0430    -1.9760 H     1 <1>   0.0800 
 37 H        7.5200     4.5900    -1.1890 H     1 <1>   0.0800 
 38 H        8.5370     6.0140    -1.2850 H     1 <1>   0.0800 
@<TRIPOS>BOND
  1   1   2  1   
  2   2   3  ar  
  3   2   4  ar  
  4   3   5  1   
  5   3   6  ar  
  6   4   7  ar  
  7   4  23  1   
  8   5   8  1   
  9   6   9  ar  
 10   6  24  1   
 11   7   9  ar  
 12   7  10  1   
 13   8  11  1   
 14   8  25  1   
 15   8  26  1   
 16   9  27  1   
 17  11  12  2   
 18  11  13  am  
 19  13  14  1   
 20  13  28  1   
 21  14  15  1   
 22  14  16  1   
 23  14  29  1   
 24  15  17  2   
 25  15  18  1   
 26  16  19  1   
 27  16  30  1   
 28  16  31  1   
 29  17  20  1   
 30  18  21  1   
 31  18  22  1   
 32  19  32  1   
 33  19  33  1   
 34  19  34  1   
 35  20  21  2   
 36  20  35  1   
 37  22  36  1   
 38  22  37  1   
 39  22  38  1   
@<TRIPOS>SUBSTRUCTURE
  1 ****   5 GROUP 4 **** **** 0

# MOE 2024.06 (io_trps.svl 2023.06)
