@<TRIPOS>MOLECULE
NONAME
51 54 1 0 0 
SMALL
USER_CHARGES


@<TRIPOS>ATOM
  1 CL      -0.4130    -0.3130    -1.6140 Cl    1 <1>  -0.1770 
  2 C       -1.7120    -0.8830    -0.5820 C.ar  1 <1>   0.1770 
  3 C       -2.6400     0.0150    -0.0390 C.ar  1 <1>   0.1000 
  4 C       -1.7770    -2.2400    -0.3470 C.ar  1 <1>  -0.1500 
  5 N       -2.5800     1.3910    -0.2790 N.pl3 1 <1>  -0.8380 
  6 C       -3.6350    -0.5320     0.7690 C.ar  1 <1>  -0.1500 
  7 C       -2.7870    -2.7840     0.4440 C.ar  1 <1>   0.0860 
  8 C       -1.4150     2.1720     0.1990 C.3   1 <1>   0.2090 
  9 C       -3.7730     2.2650    -0.4120 C.3   1 <1>   0.2090 
 10 C       -3.7050    -1.8930     1.0040 C.ar  1 <1>  -0.1500 
 11 C       -2.8640    -4.2110     0.6720 C.2   1 <1>   0.5440 
 12 C       -1.9900     3.5200     0.6140 C.3   1 <1>  -0.1600 
 13 C       -3.2360     3.6820    -0.2510 C.3   1 <1>  -0.1600 
 14 O       -1.8780    -4.8160     1.0480 O.2   1 <1>  -0.5700 
 15 N       -4.0250    -4.9210     0.4550 N.am  1 <1>  -0.6600 
 16 C       -5.1400    -4.4610    -0.4150 C.3   1 <1>   0.1400 
 17 C       -4.1010    -6.3930     0.6450 C.3   1 <1>   0.1400 
 18 C       -6.1250    -5.6300    -0.4280 C.3   1 <1>   0.2000 
 19 C       -5.2280    -6.8630    -0.2820 C.3   1 <1>  -0.0800 
 20 O       -6.9420    -5.5160     0.6860 O.3   1 <1>  -0.6800 
 21 C       -5.9460    -8.1370     0.2000 C.3   1 <1>   0.0200 
 22 C       -5.0510    -9.3650     0.1980 C.2   1 <1>  -0.0400 
 23 O       -5.5120   -10.4750     0.7100 O.3   1 <1>  -0.0190 
 24 C       -3.8040    -9.6060    -0.2390 C.2   1 <1>  -0.1500 
 25 N       -4.6430   -11.4420     0.6430 N.2   1 <1>  -0.4100 
 26 C       -3.6030   -10.9470     0.0750 C.2   1 <1>   0.1080 
 27 C       -2.3370   -11.7240    -0.2070 C.3   1 <1>  -0.0590 
 28 H       -1.0390    -2.8900    -0.7790 H     1 <1>   0.1500 
 29 H       -4.3560     0.1140     1.2310 H     1 <1>   0.1500 
 30 H       -0.9220     1.6780     1.0190 H     1 <1>   0.0800 
 31 H       -0.7220     2.3000    -0.6150 H     1 <1>   0.0800 
 32 H       -4.2370     2.1260    -1.3740 H     1 <1>   0.0800 
 33 H       -4.4810     2.0550     0.3680 H     1 <1>   0.0800 
 34 H       -4.4790    -2.2800     1.6430 H     1 <1>   0.1500 
 35 H       -2.2670     3.4740     1.6530 H     1 <1>   0.0800 
 36 H       -1.2830     4.3170     0.4720 H     1 <1>   0.0800 
 37 H       -2.9610     4.0610    -1.2190 H     1 <1>   0.0800 
 38 H       -3.9640     4.3380     0.1920 H     1 <1>   0.0800 
 39 H       -5.6030    -3.5630    -0.0450 H     1 <1>   0.0800 
 40 H       -4.7610    -4.2890    -1.4080 H     1 <1>   0.0800 
 41 H       -3.1640    -6.8620     0.3970 H     1 <1>   0.0800 
 42 H       -4.3350    -6.6000     1.6750 H     1 <1>   0.0800 
 43 H       -6.7460    -5.6500    -1.3080 H     1 <1>   0.0800 
 44 H       -4.7950    -7.0610    -1.2470 H     1 <1>   0.0800 
 45 H       -6.3820    -5.3630     1.4740 H     1 <1>   0.4000 
 46 H       -6.7920    -8.3320    -0.4360 H     1 <1>   0.0800 
 47 H       -6.3200    -7.9940     1.1990 H     1 <1>   0.0800 
 48 H       -3.0950    -8.9600    -0.7210 H     1 <1>   0.1500 
 49 H       -2.1440   -11.7360    -1.2640 H     1 <1>   0.0800 
 50 H       -2.4430   -12.7360     0.1400 H     1 <1>   0.0800 
 51 H       -1.5080   -11.2670     0.3010 H     1 <1>   0.0800 
@<TRIPOS>BOND
  1   1   2  1   
  2   2   3  ar  
  3   2   4  ar  
  4   3   5  1   
  5   3   6  ar  
  6   4   7  ar  
  7   4  28  1   
  8   5   8  1   
  9   5   9  1   
 10   6  10  ar  
 11   6  29  1   
 12   7  10  ar  
 13   7  11  1   
 14   8  12  1   
 15   8  30  1   
 16   8  31  1   
 17   9  13  1   
 18   9  32  1   
 19   9  33  1   
 20  10  34  1   
 21  11  14  2   
 22  11  15  am  
 23  12  13  1   
 24  12  35  1   
 25  12  36  1   
 26  13  37  1   
 27  13  38  1   
 28  15  16  1   
 29  15  17  1   
 30  16  18  1   
 31  16  39  1   
 32  16  40  1   
 33  17  19  1   
 34  17  41  1   
 35  17  42  1   
 36  18  19  1   
 37  18  20  1   
 38  18  43  1   
 39  19  21  1   
 40  19  44  1   
 41  20  45  1   
 42  21  22  1   
 43  21  46  1   
 44  21  47  1   
 45  22  23  1   
 46  22  24  2   
 47  23  25  1   
 48  24  26  1   
 49  24  48  1   
 50  25  26  2   
 51  26  27  1   
 52  27  49  1   
 53  27  50  1   
 54  27  51  1   
@<TRIPOS>SUBSTRUCTURE
  1 ****  11 GROUP 4 **** **** 0

# MOE 2024.06 (io_trps.svl 2023.06)
