@<TRIPOS>MOLECULE
NONAME
60 64 1 0 0 
SMALL
USER_CHARGES


@<TRIPOS>ATOM
  1 N       -1.4960     1.2960     0.8350 N.ar  1 <1>  -0.6200 
  2 C       -0.1730     1.2640     0.7230 C.ar  1 <1>   0.4760 
  3 C       -1.9970     0.7810     1.9450 C.ar  1 <1>   0.1660 
  4 N        0.6800     0.7580     1.6000 N.ar  1 <1>  -0.6200 
  5 C        0.4170     1.8690    -0.5600 C.3   1 <1>   0.0630 
  6 C       -1.1900     0.2380     2.9180 C.ar  1 <1>  -0.1500 
  7 C       -3.5170     0.8000     2.0920 C.3   1 <1>   0.4870 
  8 C        0.1640     0.2510     2.6950 C.ar  1 <1>   0.1600 
  9 C        1.1080     0.8020    -1.4250 C.3   1 <1>  -0.2400 
 10 C        1.3930     3.0190    -0.2580 C.3   1 <1>  -0.2400 
 11 N       -4.1270     0.5720     0.7490 N.4   1 <1>  -0.9590 
 12 C       -5.4920     1.1760     0.6190 C.3   1 <1>   0.3430 
 13 C       -4.0910    -0.8620     0.3500 C.3   1 <1>   0.3430 
 14 C       -6.0190     1.0800    -0.8230 C.3   1 <1>   0.1430 
 15 C       -4.5660    -1.0060    -1.0980 C.3   1 <1>  -0.1600 
 16 C       -7.4440     1.5770    -0.8420 C.ar  1 <1>   0.1670 
 17 C       -5.9560    -0.3800    -1.3210 C.3   1 <1>  -0.1600 
 18 C       -5.3110     2.0600    -1.7970 C.3   1 <1>  -0.1600 
 19 N       -8.3640     1.2190     0.0190 N.ar  1 <1>  -0.6200 
 20 C       -7.6620     2.4610    -1.8510 C.ar  1 <1>  -0.1430 
 21 C       -6.4150     2.6920    -2.6680 C.3   1 <1>  -0.0170 
 22 C       -9.5710     1.7770    -0.1630 C.ar  1 <1>   0.6200 
 23 C       -8.9210     2.9910    -1.9670 C.ar  1 <1>   0.1600 
 24 N       -9.8750     2.6560    -1.1280 N.ar  1 <1>  -0.6200 
 25 C      -10.6270     1.4050     0.7660 C.ar  1 <1>   0.0000 
 26 C      -10.6960     0.1230     1.3210 C.ar  1 <1>  -0.1500 
 27 C      -11.6200     2.3120     1.1460 C.ar  1 <1>  -0.1500 
 28 C      -11.6950    -0.2320     2.2090 C.ar  1 <1>  -0.1500 
 29 C      -12.6230     1.9630     2.0320 C.ar  1 <1>  -0.1500 
 30 C      -12.6620     0.6890     2.5670 C.ar  1 <1>  -0.1500 
 31 H       -0.3930     2.2800    -1.1360 H     1 <1>   0.0800 
 32 H       -1.5830    -0.1830     3.8250 H     1 <1>   0.1500 
 33 H       -3.8050     1.7700     2.4620 H     1 <1>   0.0800 
 34 H       -3.8430     0.0500     2.7930 H     1 <1>   0.0800 
 35 H        0.8420    -0.1600     3.4250 H     1 <1>   0.1500 
 36 H        1.9460     0.3800    -0.8990 H     1 <1>   0.0800 
 37 H        1.4610     1.2350    -2.3440 H     1 <1>   0.0800 
 38 H        0.4180     0.0120    -1.6590 H     1 <1>   0.0800 
 39 H        2.2450     2.6540     0.2890 H     1 <1>   0.0800 
 40 H        0.9050     3.7720     0.3340 H     1 <1>   0.0800 
 41 H        1.7380     3.4700    -1.1710 H     1 <1>   0.0800 
 42 H       -3.4690     1.0680     0.1200 H     1 <1>   0.4500 
 43 H       -5.4740     2.2120     0.9160 H     1 <1>   0.0800 
 44 H       -6.1800     0.6570     1.2680 H     1 <1>   0.0800 
 45 H       -4.7340    -1.4380     0.9970 H     1 <1>   0.0800 
 46 H       -3.0850    -1.2450     0.4370 H     1 <1>   0.0800 
 47 H       -4.6080    -2.0530    -1.3470 H     1 <1>   0.0800 
 48 H       -3.8410    -0.5570    -1.7540 H     1 <1>   0.0800 
 49 H       -6.2190    -0.4270    -2.3650 H     1 <1>   0.0800 
 50 H       -6.6860    -0.9620    -0.7840 H     1 <1>   0.0800 
 51 H       -4.5640     1.5850    -2.4080 H     1 <1>   0.0800 
 52 H       -4.8390     2.8500    -1.2380 H     1 <1>   0.0800 
 53 H       -6.5020     2.1780    -3.6100 H     1 <1>   0.0800 
 54 H       -6.2380     3.7400    -2.8400 H     1 <1>   0.0800 
 55 H       -9.1500     3.6950    -2.7500 H     1 <1>   0.1500 
 56 H       -9.9560    -0.6080     1.0500 H     1 <1>   0.1500 
 57 H      -11.6070     3.3070     0.7370 H     1 <1>   0.1500 
 58 H      -11.7240    -1.2260     2.6200 H     1 <1>   0.1500 
 59 H      -13.3740     2.6840     2.3050 H     1 <1>   0.1500 
 60 H      -13.4420     0.4160     3.2570 H     1 <1>   0.1500 
@<TRIPOS>BOND
  1   1   2  ar  
  2   1   3  ar  
  3   2   4  ar  
  4   2   5  1   
  5   3   6  ar  
  6   3   7  1   
  7   4   8  ar  
  8   5   9  1   
  9   5  10  1   
 10   5  31  1   
 11   6   8  ar  
 12   6  32  1   
 13   7  11  1   
 14   7  33  1   
 15   7  34  1   
 16   8  35  1   
 17   9  36  1   
 18   9  37  1   
 19   9  38  1   
 20  10  39  1   
 21  10  40  1   
 22  10  41  1   
 23  11  12  1   
 24  11  13  1   
 25  11  42  1   
 26  12  14  1   
 27  12  43  1   
 28  12  44  1   
 29  13  15  1   
 30  13  45  1   
 31  13  46  1   
 32  14  16  1   
 33  14  17  1   
 34  14  18  1   
 35  15  17  1   
 36  15  47  1   
 37  15  48  1   
 38  16  19  ar  
 39  16  20  ar  
 40  17  49  1   
 41  17  50  1   
 42  18  21  1   
 43  18  51  1   
 44  18  52  1   
 45  19  22  ar  
 46  20  21  1   
 47  20  23  ar  
 48  21  53  1   
 49  21  54  1   
 50  22  24  ar  
 51  22  25  1   
 52  23  24  ar  
 53  23  55  1   
 54  25  26  ar  
 55  25  27  ar  
 56  26  28  ar  
 57  26  56  1   
 58  27  29  ar  
 59  27  57  1   
 60  28  30  ar  
 61  28  58  1   
 62  29  30  ar  
 63  29  59  1   
 64  30  60  1   
@<TRIPOS>SUBSTRUCTURE
  1 ****  12 GROUP 4 **** **** 0

# MOE 2024.06 (io_trps.svl 2023.06)
