@<TRIPOS>MOLECULE
NONAME
44 46 1 0 0 
SMALL
USER_CHARGES


@<TRIPOS>ATOM
  1 S       -1.4860    -3.2400     1.7820 S.3   1 <1>  -0.0800 
  2 C       -2.2360    -1.9310     0.8600 C.2   1 <1>   0.0400 
  3 C       -0.4790    -2.1250     2.6840 C.2   1 <1>  -0.1100 
  4 C       -3.2320    -2.2530    -0.1220 C.2   1 <1>   0.4780 
  5 C       -1.7020    -0.7510     1.2700 C.2   1 <1>  -0.1500 
  6 C       -0.7150    -0.8600     2.2940 C.2   1 <1>  -0.1500 
  7 O       -3.8090    -1.2820    -0.8070 O.3   1 <1>  -0.2800 
  8 N       -3.6810    -3.4310    -0.4530 N.2   1 <1>  -0.5650 
  9 C       -4.6600    -1.8420    -1.6160 C.2   1 <1>  -0.0400 
 10 C       -4.5910    -3.1660    -1.4140 C.2   1 <1>   0.0460 
 11 C       -5.4780    -0.9530    -2.5330 C.3   1 <1>  -0.0600 
 12 C       -5.3570    -4.3070    -2.0620 C.3   1 <1>   0.5240 
 13 N       -5.6540    -5.2700    -0.9730 N.4   1 <1>  -0.9590 
 14 C       -5.4200    -6.6740    -1.3630 C.3   1 <1>   0.5230 
 15 C       -6.9840    -5.0090    -0.3330 C.3   1 <1>   0.3430 
 16 C       -5.2230    -7.4620    -0.0960 C.2   1 <1>  -0.3320 
 17 C       -6.9250    -5.0490     1.2000 C.3   1 <1>   0.1200 
 18 N       -4.1520    -7.3860     0.7280 N.pl3 1 <1>   0.0480 
 19 C       -6.0610    -8.3750     0.4430 C.2   1 <1>   0.0770 
 20 O       -8.1290    -4.5580     1.6720 O.3   1 <1>  -0.6800 
 21 C       -4.4350    -8.2520     1.7260 C.2   1 <1>   0.0360 
 22 C       -2.9170    -6.5800     0.6200 C.3   1 <1>   0.0160 
 23 N       -5.5700    -8.8550     1.5930 N.2   1 <1>  -0.5650 
 24 H        0.1910    -2.5370     3.4180 H     1 <1>   0.1500 
 25 H       -1.9780     0.2100     0.8730 H     1 <1>   0.1500 
 26 H       -0.2280     0.0140     2.6910 H     1 <1>   0.1500 
 27 H       -6.0630    -0.2660    -1.9480 H     1 <1>   0.0800 
 28 H       -6.1390    -1.5340    -3.1500 H     1 <1>   0.0800 
 29 H       -4.8210    -0.3850    -3.1690 H     1 <1>   0.0800 
 30 H       -4.7240    -4.7650    -2.8040 H     1 <1>   0.0800 
 31 H       -6.2580    -3.9530    -2.5340 H     1 <1>   0.0800 
 32 H       -4.9290    -5.0340    -0.2750 H     1 <1>   0.4500 
 33 H       -4.5350    -6.7580    -1.9750 H     1 <1>   0.0800 
 34 H       -6.2630    -7.0570    -1.9150 H     1 <1>   0.0800 
 35 H       -7.7110    -5.7250    -0.6790 H     1 <1>   0.0800 
 36 H       -7.3220    -4.0230    -0.6090 H     1 <1>   0.0800 
 37 H       -6.1400    -4.4160     1.5770 H     1 <1>   0.0800 
 38 H       -6.8080    -6.0530     1.5700 H     1 <1>   0.0800 
 39 H       -7.0140    -8.7210     0.0730 H     1 <1>   0.1500 
 40 H       -8.1800    -4.6190     2.6510 H     1 <1>   0.4000 
 41 H       -3.7620    -8.4150     2.5510 H     1 <1>   0.1500 
 42 H       -2.7150    -6.3430    -0.4080 H     1 <1>   0.0800 
 43 H       -2.0900    -7.1400     1.0190 H     1 <1>   0.0800 
 44 H       -3.0320    -5.6740     1.1860 H     1 <1>   0.0800 
@<TRIPOS>BOND
  1   1   2  1   
  2   1   3  1   
  3   2   4  1   
  4   2   5  2   
  5   3   6  2   
  6   3  24  1   
  7   4   7  1   
  8   4   8  2   
  9   5   6  1   
 10   5  25  1   
 11   6  26  1   
 12   7   9  1   
 13   8  10  1   
 14   9  10  2   
 15   9  11  1   
 16  10  12  1   
 17  11  27  1   
 18  11  28  1   
 19  11  29  1   
 20  12  13  1   
 21  12  30  1   
 22  12  31  1   
 23  13  14  1   
 24  13  15  1   
 25  13  32  1   
 26  14  16  1   
 27  14  33  1   
 28  14  34  1   
 29  15  17  1   
 30  15  35  1   
 31  15  36  1   
 32  16  18  1   
 33  16  19  2   
 34  17  20  1   
 35  17  37  1   
 36  17  38  1   
 37  18  21  1   
 38  18  22  1   
 39  19  23  1   
 40  19  39  1   
 41  20  40  1   
 42  21  23  2   
 43  21  41  1   
 44  22  42  1   
 45  22  43  1   
 46  22  44  1   
@<TRIPOS>SUBSTRUCTURE
  1 ****   8 GROUP 4 **** **** 0

# MOE 2024.06 (io_trps.svl 2023.06)
