@<TRIPOS>MOLECULE
NONAME
46 49 1 0 0 
SMALL
USER_CHARGES


@<TRIPOS>ATOM
  1 O        0.4350     0.8700     1.4820 O.3   1 <1>  -0.0190 
  2 N        1.1380    -0.2150     1.3330 N.2   1 <1>  -0.4100 
  3 C        0.6250     1.7140     0.5040 C.2   1 <1>  -0.0400 
  4 C        1.7900    -0.0700     0.2370 C.2   1 <1>   0.1080 
  5 C        1.5010     1.1590    -0.3490 C.2   1 <1>  -0.1500 
  6 C       -0.1210     3.0380     0.5260 C.3   1 <1>   0.0200 
  7 C        2.7370    -1.1040    -0.3300 C.3   1 <1>  -0.0590 
  8 C        0.5050     4.0860    -0.4140 C.3   1 <1>  -0.0800 
  9 C       -0.2640     5.4060    -0.5210 C.3   1 <1>   0.2000 
 10 C        1.9330     4.4940    -0.0120 C.3   1 <1>   0.2090 
 11 O       -0.6640     5.8120     0.7430 O.3   1 <1>  -0.6800 
 12 C        0.8070     6.3770    -1.0040 C.3   1 <1>   0.2090 
 13 N        2.0230     5.9720    -0.2280 N.pl3 1 <1>  -0.8380 
 14 C        3.0680     6.7600     0.1390 C.ar  1 <1>   0.1000 
 15 C        2.9520     8.1490     0.4800 C.ar  1 <1>   0.0000 
 16 C        4.3570     6.2200     0.1380 C.ar  1 <1>  -0.1500 
 17 C        4.1190     8.9400     0.5200 C.ar  1 <1>   0.3610 
 18 C        1.7490     8.7840     0.8540 C.ar  1 <1>  -0.1500 
 19 C        5.4760     7.0020     0.2600 C.ar  1 <1>   0.2180 
 20 N        5.3460     8.3310     0.4010 N.ar  1 <1>  -0.1790 
 21 C        4.0350    10.3230     0.7420 C.ar  1 <1>  -0.1500 
 22 C        1.6830    10.1310     1.0980 C.ar  1 <1>  -0.1500 
 23 C        6.8760     6.4100     0.2200 C.3   1 <1>  -0.0970 
 24 C        2.8310    10.9160     1.0190 C.ar  1 <1>  -0.1500 
 25 H        1.9070     1.5260    -1.2730 H     1 <1>   0.1500 
 26 H       -1.1440     2.8610     0.2450 H     1 <1>   0.0800 
 27 H       -0.1220     3.4080     1.5360 H     1 <1>   0.0800 
 28 H        2.4030    -1.4090    -1.3050 H     1 <1>   0.0800 
 29 H        2.7650    -1.9660     0.3120 H     1 <1>   0.0800 
 30 H        3.7260    -0.6930    -0.4050 H     1 <1>   0.0800 
 31 H        0.5530     3.6660    -1.4030 H     1 <1>   0.0800 
 32 H       -1.1270     5.3580    -1.1630 H     1 <1>   0.0800 
 33 H        2.6540     3.9740    -0.6210 H     1 <1>   0.0800 
 34 H        2.1180     4.2750     1.0260 H     1 <1>   0.0800 
 35 H        0.1460     5.9750     1.2700 H     1 <1>   0.4000 
 36 H        0.5120     7.4010    -0.8860 H     1 <1>   0.0800 
 37 H        0.9940     6.2040    -2.0500 H     1 <1>   0.0800 
 38 H        4.4740     5.1620    -0.0040 H     1 <1>   0.1500 
 39 H        0.8560     8.1980     0.9700 H     1 <1>   0.1500 
 40 H        6.1740     8.9240     0.4670 H     1 <1>   0.4570 
 41 H        4.9210    10.9320     0.7080 H     1 <1>   0.1500 
 42 H        0.7450    10.5950     1.3600 H     1 <1>   0.1500 
 43 H        6.8330     5.3410     0.1040 H     1 <1>   0.0800 
 44 H        7.4010     6.6260     1.1330 H     1 <1>   0.0800 
 45 H        7.4310     6.8130    -0.6090 H     1 <1>   0.0800 
 46 H        2.7550    11.9780     1.1950 H     1 <1>   0.1500 
@<TRIPOS>BOND
  1   1   2  1   
  2   1   3  1   
  3   2   4  2   
  4   3   5  2   
  5   3   6  1   
  6   4   5  1   
  7   4   7  1   
  8   5  25  1   
  9   6   8  1   
 10   6  26  1   
 11   6  27  1   
 12   7  28  1   
 13   7  29  1   
 14   7  30  1   
 15   8   9  1   
 16   8  10  1   
 17   8  31  1   
 18   9  11  1   
 19   9  12  1   
 20   9  32  1   
 21  10  13  1   
 22  10  33  1   
 23  10  34  1   
 24  11  35  1   
 25  12  13  1   
 26  12  36  1   
 27  12  37  1   
 28  13  14  1   
 29  14  15  ar  
 30  14  16  ar  
 31  15  17  ar  
 32  15  18  ar  
 33  16  19  ar  
 34  16  38  1   
 35  17  20  ar  
 36  17  21  ar  
 37  18  22  ar  
 38  18  39  1   
 39  19  20  ar  
 40  19  23  1   
 41  20  40  1   
 42  21  24  ar  
 43  21  41  1   
 44  22  24  ar  
 45  22  42  1   
 46  23  43  1   
 47  23  44  1   
 48  23  45  1   
 49  24  46  1   
@<TRIPOS>SUBSTRUCTURE
  1 ****  13 GROUP 4 **** **** 0

# MOE 2024.06 (io_trps.svl 2023.06)
