@<TRIPOS>MOLECULE
NONAME
44 45 1 0 0 
SMALL
USER_CHARGES


@<TRIPOS>ATOM
  1 S        0.1980    -0.0450     0.4840 S.o2  1 <1>   1.3330 
  2 O       -0.9260     0.0010     1.3920 O.2   1 <1>  -0.6500 
  3 O        1.5440    -0.0330     1.0080 O.2   1 <1>  -0.6500 
  4 N        0.0330    -1.4120    -0.5100 N.am  1 <1>  -0.8490 
  5 C        0.0150     1.3150    -0.6680 C.3   1 <1>  -0.0550 
  6 C       -0.5280    -2.5590     0.2110 C.3   1 <1>   0.1160 
  7 C        1.2810    -1.8040    -1.1740 C.3   1 <1>   0.1160 
  8 C        0.0050     2.6910     0.0200 C.3   1 <1>  -0.0800 
  9 C       -0.2720     3.8290    -0.9580 C.3   1 <1>   0.2000 
 10 C        1.3320     3.0870     0.6750 C.3   1 <1>   0.1400 
 11 O       -1.6330     3.9390    -1.1880 O.3   1 <1>  -0.6800 
 12 C        0.2970     5.0780    -0.2890 C.3   1 <1>   0.1400 
 13 N        1.3750     4.5690     0.5950 N.am  1 <1>  -0.6600 
 14 C        2.4780     5.2960     0.9790 C.2   1 <1>   0.7150 
 15 O        3.4710     4.6930     1.3370 O.2   1 <1>  -0.5700 
 16 C        2.4730     6.7330     0.9500 C.2   1 <1>  -0.2370 
 17 N        3.5540     7.5050     0.6490 N.pl3 1 <1>   0.3140 
 18 C        1.4670     7.6130     1.2170 C.2   1 <1>  -0.1500 
 19 N        3.2610     8.8190     0.7080 N.2   1 <1>  -0.7070 
 20 C        4.9230     7.0170     0.3090 C.3   1 <1>   0.0960 
 21 C        2.0110     8.8710     1.0500 C.2   1 <1>   0.1390 
 22 C        5.7580     8.0310    -0.4890 C.3   1 <1>  -0.2400 
 23 H        0.8040     1.2810    -1.3930 H     1 <1>   0.0800 
 24 H       -0.9140     1.1920    -1.1910 H     1 <1>   0.0800 
 25 H       -0.6350    -3.4010    -0.4510 H     1 <1>   0.0800 
 26 H       -1.5030    -2.3100     0.5970 H     1 <1>   0.0800 
 27 H        0.1100    -2.8330     1.0350 H     1 <1>   0.0800 
 28 H        1.0980    -2.6170    -1.8550 H     1 <1>   0.0800 
 29 H        2.0140    -2.1140    -0.4470 H     1 <1>   0.0800 
 30 H        1.6800    -0.9760    -1.7340 H     1 <1>   0.0800 
 31 H       -0.7450     2.6980     0.7920 H     1 <1>   0.0800 
 32 H        0.2210     3.6670    -1.9020 H     1 <1>   0.0800 
 33 H        2.1700     2.6800     0.1340 H     1 <1>   0.0800 
 34 H        1.3830     2.7590     1.7000 H     1 <1>   0.0800 
 35 H       -2.1230     4.0050    -0.3450 H     1 <1>   0.4000 
 36 H       -0.4530     5.5600     0.3120 H     1 <1>   0.0800 
 37 H        0.6910     5.7630    -1.0200 H     1 <1>   0.0800 
 38 H        0.4550     7.4020     1.5120 H     1 <1>   0.1500 
 39 H        5.4240     6.7750     1.2280 H     1 <1>   0.0800 
 40 H        4.8270     6.1160    -0.2690 H     1 <1>   0.0800 
 41 H        1.4770     9.7970     1.1860 H     1 <1>   0.1500 
 42 H        5.9220     8.9200     0.0950 H     1 <1>   0.0800 
 43 H        5.2510     8.2950    -1.4000 H     1 <1>   0.0800 
 44 H        6.7130     7.6040    -0.7350 H     1 <1>   0.0800 
@<TRIPOS>BOND
  1   1   2  2   
  2   1   3  2   
  3   1   4  am  
  4   1   5  1   
  5   4   6  1   
  6   4   7  1   
  7   5   8  1   
  8   5  23  1   
  9   5  24  1   
 10   6  25  1   
 11   6  26  1   
 12   6  27  1   
 13   7  28  1   
 14   7  29  1   
 15   7  30  1   
 16   8   9  1   
 17   8  10  1   
 18   8  31  1   
 19   9  11  1   
 20   9  12  1   
 21   9  32  1   
 22  10  13  1   
 23  10  33  1   
 24  10  34  1   
 25  11  35  1   
 26  12  13  1   
 27  12  36  1   
 28  12  37  1   
 29  13  14  am  
 30  14  15  2   
 31  14  16  1   
 32  16  17  1   
 33  16  18  2   
 34  17  19  1   
 35  17  20  1   
 36  18  21  1   
 37  18  38  1   
 38  19  21  2   
 39  20  22  1   
 40  20  39  1   
 41  20  40  1   
 42  21  41  1   
 43  22  42  1   
 44  22  43  1   
 45  22  44  1   
@<TRIPOS>SUBSTRUCTURE
  1 ****  10 GROUP 4 **** **** 0

# MOE 2024.06 (io_trps.svl 2023.06)
