@<TRIPOS>MOLECULE
NONAME
43 46 1 0 0 
SMALL
USER_CHARGES


@<TRIPOS>ATOM
  1 S        0.3330     1.2320    -2.6920 S.3   1 <1>  -0.0800 
  2 C        0.1280     2.4250    -1.4270 C.2   1 <1>  -0.1400 
  3 C        2.0470     1.6100    -2.7970 C.2   1 <1>  -0.1100 
  4 C        1.2820     3.0330    -1.1210 C.2   1 <1>  -0.1810 
  5 C       -1.2030     2.7120    -0.7880 C.3   1 <1>   0.0200 
  6 C        2.3850     2.5700    -1.9140 C.2   1 <1>  -0.1500 
  7 C        1.3450     4.1030    -0.0280 C.3   1 <1>   0.4610 
  8 C       -1.0850     4.0740    -0.0850 C.3   1 <1>   0.1200 
  9 O        0.1070     4.1610     0.6610 O.3   1 <1>  -0.5600 
 10 C        2.3930     3.7260     1.0280 C.3   1 <1>  -0.1600 
 11 C        1.6510     5.4850    -0.6250 C.3   1 <1>  -0.1600 
 12 C        2.5520     4.8170     2.0900 C.3   1 <1>   0.1400 
 13 C        1.8050     6.5420     0.4680 C.3   1 <1>   0.1400 
 14 N        2.8700     6.1000     1.4070 N.am  1 <1>  -0.6600 
 15 C        4.0860     6.7470     1.5770 C.2   1 <1>   0.5440 
 16 O        4.7620     6.4330     2.5450 O.2   1 <1>  -0.5700 
 17 C        4.5880     7.7920     0.6760 C.ar  1 <1>   0.3960 
 18 N        4.4580     7.6670    -0.6580 N.ar  1 <1>  -0.6200 
 19 C        5.2120     8.9080     1.2360 C.ar  1 <1>  -0.1500 
 20 C        4.9350     8.6380    -1.4120 C.ar  1 <1>   0.1670 
 21 C        5.7070     9.9200     0.4440 C.ar  1 <1>  -0.1500 
 22 C        5.5590     9.7710    -0.9160 C.ar  1 <1>  -0.1500 
 23 C        4.7680     8.4540    -2.9050 C.3   1 <1>  -0.0970 
 24 H        2.6280     1.0660    -3.5200 H     1 <1>   0.1500 
 25 H       -1.4410     1.9430    -0.0750 H     1 <1>   0.0800 
 26 H       -1.9780     2.7500    -1.5310 H     1 <1>   0.0800 
 27 H        3.3730     2.9760    -1.7860 H     1 <1>   0.1500 
 28 H       -1.9080     4.2150     0.5920 H     1 <1>   0.0800 
 29 H       -1.0940     4.8700    -0.8080 H     1 <1>   0.0800 
 30 H        3.3460     3.5770     0.5570 H     1 <1>   0.0800 
 31 H        2.1110     2.8000     1.4920 H     1 <1>   0.0800 
 32 H        0.8830     5.7730    -1.3160 H     1 <1>   0.0800 
 33 H        2.5720     5.4360    -1.1790 H     1 <1>   0.0800 
 34 H        3.3330     4.5410     2.7770 H     1 <1>   0.0800 
 35 H        1.6380     4.9280     2.6490 H     1 <1>   0.0800 
 36 H        0.8800     6.6430     1.0110 H     1 <1>   0.0800 
 37 H        2.0360     7.4980     0.0360 H     1 <1>   0.0800 
 38 H        5.3060     8.9670     2.3050 H     1 <1>   0.1500 
 39 H        6.1890    10.7840     0.8680 H     1 <1>   0.1500 
 40 H        5.9270    10.5290    -1.5830 H     1 <1>   0.1500 
 41 H        5.2690     7.5550    -3.2140 H     1 <1>   0.0800 
 42 H        5.1800     9.2840    -3.4480 H     1 <1>   0.0800 
 43 H        3.7240     8.3670    -3.1420 H     1 <1>   0.0800 
@<TRIPOS>BOND
  1   1   2  1   
  2   1   3  1   
  3   2   4  2   
  4   2   5  1   
  5   3   6  2   
  6   3  24  1   
  7   4   6  1   
  8   4   7  1   
  9   5   8  1   
 10   5  25  1   
 11   5  26  1   
 12   6  27  1   
 13   7   9  1   
 14   7  10  1   
 15   7  11  1   
 16   8   9  1   
 17   8  28  1   
 18   8  29  1   
 19  10  12  1   
 20  10  30  1   
 21  10  31  1   
 22  11  13  1   
 23  11  32  1   
 24  11  33  1   
 25  12  14  1   
 26  12  34  1   
 27  12  35  1   
 28  13  14  1   
 29  13  36  1   
 30  13  37  1   
 31  14  15  am  
 32  15  16  2   
 33  15  17  1   
 34  17  18  ar  
 35  17  19  ar  
 36  18  20  ar  
 37  19  21  ar  
 38  19  38  1   
 39  20  22  ar  
 40  20  23  1   
 41  21  22  ar  
 42  21  39  1   
 43  22  40  1   
 44  23  41  1   
 45  23  42  1   
 46  23  43  1   
@<TRIPOS>SUBSTRUCTURE
  1 ****  11 GROUP 4 **** **** 0

# MOE 2024.06 (io_trps.svl 2023.06)
