@<TRIPOS>MOLECULE
NONAME
56 59 1 0 0 
SMALL
USER_CHARGES


@<TRIPOS>ATOM
  1 O        1.7200    -1.0690     2.4140 O.2   1 <1>  -0.5700 
  2 C        1.8310    -1.1880     1.2200 C.2   1 <1>   0.5690 
  3 N        2.1520    -0.1710     0.3640 N.am  1 <1>  -0.5470 
  4 C        1.5680    -2.5510     0.6190 C.3   1 <1>  -0.0990 
  5 C        2.4450     1.1830     0.5910 C.ar  1 <1>   0.1170 
  6 C        0.0640    -2.7790     0.4050 C.3   1 <1>  -0.0990 
  7 C        2.3920     2.0580    -0.4920 C.ar  1 <1>  -0.1500 
  8 C        2.8000     1.6900     1.8420 C.ar  1 <1>  -0.1500 
  9 C       -0.1960    -4.1220    -0.2380 C.2   1 <1>   0.5690 
 10 C        2.6830     3.3960    -0.3130 C.ar  1 <1>  -0.1430 
 11 C        3.0890     3.0340     2.0150 C.ar  1 <1>  -0.1500 
 12 O       -0.0150    -4.2420    -1.4240 O.2   1 <1>  -0.5700 
 13 N       -0.6120    -5.1510     0.5360 N.am  1 <1>  -0.7300 
 14 C        3.0260     3.8790     0.9230 C.ar  1 <1>  -0.1430 
 15 C        2.6810     4.4950    -1.3480 C.3   1 <1>  -0.0170 
 16 C       -0.8760    -6.5240     0.0480 C.3   1 <1>   0.2200 
 17 C        3.2980     5.3620     0.8800 C.3   1 <1>  -0.0170 
 18 C        2.7740     5.7790    -0.5050 C.3   1 <1>  -0.1600 
 19 C       -2.3730    -6.7840     0.0690 C.3   1 <1>  -0.0800 
 20 C       -0.3710    -7.5350     1.0720 C.3   1 <1>   0.1200 
 21 C       -2.6080    -7.2030     1.5250 C.3   1 <1>   0.1200 
 22 C       -2.7660    -7.8920    -0.9290 C.3   1 <1>  -0.0160 
 23 O       -1.3840    -7.6590     2.0260 O.3   1 <1>  -0.5600 
 24 C       -4.2660    -8.1420    -0.9230 C.ar  1 <1>  -0.1430 
 25 C       -4.8230    -9.2510    -0.3170 C.ar  1 <1>  -0.1500 
 26 C       -5.1500    -7.2720    -1.5270 C.ar  1 <1>  -0.1500 
 27 C       -6.1970    -9.4260    -0.3390 C.ar  1 <1>   0.1600 
 28 C       -6.5080    -7.5400    -1.4930 C.ar  1 <1>   0.1600 
 29 N       -7.0530    -8.5960    -0.9110 N.ar  1 <1>  -0.6200 
 30 H        2.1450    -0.4290    -0.6210 H     1 <1>   0.3700 
 31 H        2.0890    -2.6450    -0.3170 H     1 <1>   0.0800 
 32 H        1.9540    -3.2990     1.2870 H     1 <1>   0.0800 
 33 H       -0.3330    -2.0140    -0.2370 H     1 <1>   0.0800 
 34 H       -0.4500    -2.7200     1.3480 H     1 <1>   0.0800 
 35 H        2.1240     1.6980    -1.4670 H     1 <1>   0.1500 
 36 H        2.8550     1.0370     2.6920 H     1 <1>   0.1500 
 37 H        3.3590     3.4130     2.9840 H     1 <1>   0.1500 
 38 H       -0.7520    -5.0280     1.5420 H     1 <1>   0.3700 
 39 H        3.5450     4.3920    -1.9800 H     1 <1>   0.0800 
 40 H        1.7850     4.4770    -1.9430 H     1 <1>   0.0800 
 41 H       -0.4310    -6.6690    -0.9220 H     1 <1>   0.0800 
 42 H        2.7840     5.8810     1.6700 H     1 <1>   0.0800 
 43 H        4.3570     5.5340     0.9550 H     1 <1>   0.0800 
 44 H        3.4070     6.5160    -0.9670 H     1 <1>   0.0800 
 45 H        1.7850     6.1890    -0.3910 H     1 <1>   0.0800 
 46 H       -2.9260    -5.8930    -0.1710 H     1 <1>   0.0800 
 47 H        0.5410    -7.2240     1.5490 H     1 <1>   0.0800 
 48 H       -0.2320    -8.5000     0.6170 H     1 <1>   0.0800 
 49 H       -3.3400    -7.9830     1.6290 H     1 <1>   0.0800 
 50 H       -2.9050    -6.3570     2.1190 H     1 <1>   0.0800 
 51 H       -2.2480    -8.8060    -0.6960 H     1 <1>   0.0800 
 52 H       -2.4720    -7.5970    -1.9220 H     1 <1>   0.0800 
 53 H       -4.2040    -9.9800     0.1740 H     1 <1>   0.1500 
 54 H       -4.7960    -6.3880    -2.0250 H     1 <1>   0.1500 
 55 H       -6.6130   -10.2960     0.1400 H     1 <1>   0.1500 
 56 H       -7.1820    -6.8490    -1.9700 H     1 <1>   0.1500 
@<TRIPOS>BOND
  1   1   2  2   
  2   2   3  am  
  3   2   4  1   
  4   3   5  1   
  5   3  30  1   
  6   4   6  1   
  7   4  31  1   
  8   4  32  1   
  9   5   7  ar  
 10   5   8  ar  
 11   6   9  1   
 12   6  33  1   
 13   6  34  1   
 14   7  10  ar  
 15   7  35  1   
 16   8  11  ar  
 17   8  36  1   
 18   9  12  2   
 19   9  13  am  
 20  10  14  ar  
 21  10  15  1   
 22  11  14  ar  
 23  11  37  1   
 24  13  16  1   
 25  13  38  1   
 26  14  17  1   
 27  15  18  1   
 28  15  39  1   
 29  15  40  1   
 30  16  19  1   
 31  16  20  1   
 32  16  41  1   
 33  17  18  1   
 34  17  42  1   
 35  17  43  1   
 36  18  44  1   
 37  18  45  1   
 38  19  21  1   
 39  19  22  1   
 40  19  46  1   
 41  20  23  1   
 42  20  47  1   
 43  20  48  1   
 44  21  23  1   
 45  21  49  1   
 46  21  50  1   
 47  22  24  1   
 48  22  51  1   
 49  22  52  1   
 50  24  25  ar  
 51  24  26  ar  
 52  25  27  ar  
 53  25  53  1   
 54  26  28  ar  
 55  26  54  1   
 56  27  29  ar  
 57  27  55  1   
 58  28  29  ar  
 59  28  56  1   
@<TRIPOS>SUBSTRUCTURE
  1 ****   6 GROUP 4 **** **** 0

# MOE 2024.06 (io_trps.svl 2023.06)
