@<TRIPOS>MOLECULE
NONAME
50 52 1 0 0 
SMALL
USER_CHARGES


@<TRIPOS>ATOM
  1 S       -0.3800     0.7010     0.5890 S.o2  1 <1>   1.0900 
  2 O       -0.8680     0.4730     1.9290 O.2   1 <1>  -0.6500 
  3 O       -0.8860    -0.0340    -0.5470 O.2   1 <1>  -0.6500 
  4 C       -0.4650     2.4310     0.2110 C.3   1 <1>  -0.0550 
  5 C        1.4010     0.6260     0.5560 C.3   1 <1>  -0.0550 
  6 C        0.8010     2.7570    -0.5840 C.3   1 <1>   0.1900 
  7 C        1.9370     2.0030     0.1330 C.3   1 <1>  -0.1600 
  8 N        1.0660     4.2130    -0.6230 N.3   1 <1>  -0.8100 
  9 C        2.2680     4.5470    -1.4630 C.3   1 <1>   0.1710 
 10 C       -0.0950     4.9680    -1.1480 C.3   1 <1>   0.0300 
 11 C        2.8170     5.9560    -1.2320 C.2   1 <1>   0.5690 
 12 O        3.4280     6.5010    -2.1200 O.2   1 <1>  -0.5700 
 13 N        2.5690     6.5150    -0.0130 N.am  1 <1>  -0.4940 
 14 C        2.8140     7.8090     0.5070 C.2   1 <1>  -0.0880 
 15 N        3.9400     8.5760     0.3780 N.pl3 1 <1>   0.3140 
 16 C        1.9460     8.5200     1.2670 C.2   1 <1>  -0.1810 
 17 N        3.7860     9.7600     1.0330 N.2   1 <1>  -0.7070 
 18 C        5.2260     8.2090    -0.3000 C.3   1 <1>   0.1760 
 19 C        2.6020     9.7090     1.5520 C.2   1 <1>   0.1390 
 20 C        0.5470     8.1570     1.7310 C.3   1 <1>  -0.0590 
 21 C        5.8560     6.9240     0.2610 C.3   1 <1>  -0.1600 
 22 C        6.3400     9.2560    -0.1700 C.3   1 <1>  -0.1600 
 23 C        7.3790     7.1020     0.1800 C.3   1 <1>  -0.1600 
 24 C        7.6190     8.4730    -0.4510 C.3   1 <1>  -0.1600 
 25 H       -0.4610     2.9950     1.1230 H     1 <1>   0.0800 
 26 H       -1.3530     2.6490    -0.3490 H     1 <1>   0.0800 
 27 H        1.7100    -0.1180    -0.1550 H     1 <1>   0.0800 
 28 H        1.7900     0.3550     1.5200 H     1 <1>   0.0800 
 29 H        0.6910     2.3730    -1.5870 H     1 <1>   0.0800 
 30 H        2.7970     1.8750    -0.4990 H     1 <1>   0.0800 
 31 H        2.2210     2.5510     1.0160 H     1 <1>   0.0800 
 32 H        2.0290     4.4360    -2.5070 H     1 <1>   0.0800 
 33 H        3.0790     3.8790    -1.2450 H     1 <1>   0.0800 
 34 H       -0.9300     4.9010    -0.4730 H     1 <1>   0.0800 
 35 H       -0.3900     4.5860    -2.1120 H     1 <1>   0.0800 
 36 H        0.1450     6.0130    -1.2560 H     1 <1>   0.0800 
 37 H        1.9240     5.9340     0.5320 H     1 <1>   0.3700 
 38 H        5.0290     8.0820    -1.3470 H     1 <1>   0.0800 
 39 H        2.1840    10.5090     2.1390 H     1 <1>   0.1500 
 40 H        0.2400     7.2150     1.3180 H     1 <1>   0.0800 
 41 H       -0.1470     8.9140     1.4140 H     1 <1>   0.0800 
 42 H        0.5260     8.0910     2.8040 H     1 <1>   0.0800 
 43 H        5.5430     6.0720    -0.3150 H     1 <1>   0.0800 
 44 H        5.5680     6.7880     1.2890 H     1 <1>   0.0800 
 45 H        6.3810     9.6340     0.8370 H     1 <1>   0.0800 
 46 H        6.2030    10.0700    -0.8590 H     1 <1>   0.0800 
 47 H        7.8390     6.3230    -0.4050 H     1 <1>   0.0800 
 48 H        7.7950     7.0830     1.1730 H     1 <1>   0.0800 
 49 H        8.4880     8.9610    -0.0440 H     1 <1>   0.0800 
 50 H        7.7420     8.3630    -1.5160 H     1 <1>   0.0800 
@<TRIPOS>BOND
  1   1   2  2   
  2   1   3  2   
  3   1   4  1   
  4   1   5  1   
  5   4   6  1   
  6   4  25  1   
  7   4  26  1   
  8   5   7  1   
  9   5  27  1   
 10   5  28  1   
 11   6   7  1   
 12   6   8  1   
 13   6  29  1   
 14   7  30  1   
 15   7  31  1   
 16   8   9  1   
 17   8  10  1   
 18   9  11  1   
 19   9  32  1   
 20   9  33  1   
 21  10  34  1   
 22  10  35  1   
 23  10  36  1   
 24  11  12  2   
 25  11  13  am  
 26  13  14  1   
 27  13  37  1   
 28  14  15  1   
 29  14  16  2   
 30  15  17  1   
 31  15  18  1   
 32  16  19  1   
 33  16  20  1   
 34  17  19  2   
 35  18  21  1   
 36  18  22  1   
 37  18  38  1   
 38  19  39  1   
 39  20  40  1   
 40  20  41  1   
 41  20  42  1   
 42  21  23  1   
 43  21  43  1   
 44  21  44  1   
 45  22  24  1   
 46  22  45  1   
 47  22  46  1   
 48  23  24  1   
 49  23  47  1   
 50  23  48  1   
 51  24  49  1   
 52  24  50  1   
@<TRIPOS>SUBSTRUCTURE
  1 ****  13 GROUP 4 **** **** 0

# MOE 2024.06 (io_trps.svl 2023.06)
