@<TRIPOS>MOLECULE
NONAME
48 50 1 0 0 
SMALL
USER_CHARGES


@<TRIPOS>ATOM
  1 O        0.1720    -4.1950     0.2020 O.2   1 <1>  -0.5700 
  2 C       -0.9880    -3.7890     0.1460 C.2   1 <1>   0.5410 
  3 C       -1.9960    -4.3270     1.0090 C.2   1 <1>  -0.1240 
  4 C       -1.3740    -2.7950    -0.8000 C.2   1 <1>  -0.1240 
  5 C       -3.2900    -3.8970     0.9010 C.2   1 <1>  -0.0380 
  6 C       -1.5280    -5.3850     2.0150 C.3   1 <1>  -0.1020 
  7 C       -2.6670    -2.3900    -0.8650 C.2   1 <1>  -0.0500 
  8 C       -0.3160    -2.2060    -1.7270 C.3   1 <1>  -0.1020 
  9 N       -3.6160    -2.9280    -0.0290 N.pl3 1 <1>  -0.6000 
 10 C       -4.4270    -4.4580     1.7470 C.3   1 <1>   0.4810 
 11 N       -5.0140    -5.5930     0.9950 N.4   1 <1>  -0.9590 
 12 C       -6.0550    -5.2070    -0.0040 C.3   1 <1>   0.3430 
 13 C       -5.5940    -6.6820     1.8200 C.3   1 <1>   0.3430 
 14 C       -7.1370    -6.3010     0.0550 C.3   1 <1>   0.2000 
 15 C       -6.5240    -7.4410     0.8730 C.3   1 <1>  -0.0800 
 16 O       -8.2020    -5.7900     0.7840 O.3   1 <1>  -0.6800 
 17 C       -5.7730    -8.5000     0.0280 C.3   1 <1>   0.0200 
 18 C       -4.6560    -7.9140    -0.8240 C.2   1 <1>  -0.3320 
 19 N       -4.8250    -7.4570    -2.0850 N.pl3 1 <1>   0.3000 
 20 C       -3.3490    -7.7370    -0.5240 C.2   1 <1>  -0.1500 
 21 N       -3.6990    -6.9080    -2.5590 N.2   1 <1>  -0.7070 
 22 C       -2.8110    -7.1050    -1.6390 C.2   1 <1>   0.1080 
 23 C       -1.3690    -6.6810    -1.8120 C.3   1 <1>  -0.0590 
 24 H       -1.0230    -6.1810     1.4970 H     1 <1>   0.0800 
 25 H       -2.3220    -5.8170     2.5900 H     1 <1>   0.0800 
 26 H       -0.8230    -4.9400     2.6960 H     1 <1>   0.0800 
 27 H       -2.9910    -1.6380    -1.5680 H     1 <1>   0.1500 
 28 H        0.1220    -2.9860    -2.3240 H     1 <1>   0.0800 
 29 H        0.4620    -1.7430    -1.1460 H     1 <1>   0.0800 
 30 H       -0.7400    -1.4680    -2.3830 H     1 <1>   0.0800 
 31 H       -4.5680    -2.5440    -0.0960 H     1 <1>   0.4000 
 32 H       -5.1680    -3.7010     1.9430 H     1 <1>   0.0800 
 33 H       -4.0380    -4.8010     2.6900 H     1 <1>   0.0800 
 34 H       -4.2490    -6.0070     0.4310 H     1 <1>   0.4500 
 35 H       -6.4940    -4.2530     0.2320 H     1 <1>   0.0800 
 36 H       -5.6100    -5.1640    -0.9850 H     1 <1>   0.0800 
 37 H       -4.8300    -7.3220     2.2310 H     1 <1>   0.0800 
 38 H       -6.1790    -6.2560     2.6200 H     1 <1>   0.0800 
 39 H       -7.4950    -6.5890    -0.9190 H     1 <1>   0.0800 
 40 H       -7.2790    -7.9560     1.4420 H     1 <1>   0.0800 
 41 H       -9.0010    -6.3550     0.7050 H     1 <1>   0.4000 
 42 H       -6.4710    -9.0220    -0.6050 H     1 <1>   0.0800 
 43 H       -5.3470    -9.2350     0.6910 H     1 <1>   0.0800 
 44 H       -5.6770    -7.5080    -2.6590 H     1 <1>   0.2700 
 45 H       -2.8020    -8.0080     0.3630 H     1 <1>   0.1500 
 46 H       -0.8170    -6.8050    -0.8990 H     1 <1>   0.0800 
 47 H       -1.3270    -5.6500    -2.1120 H     1 <1>   0.0800 
 48 H       -0.9120    -7.2780    -2.5790 H     1 <1>   0.0800 
@<TRIPOS>BOND
  1   1   2  2   
  2   2   3  1   
  3   2   4  1   
  4   3   5  2   
  5   3   6  1   
  6   4   7  2   
  7   4   8  1   
  8   5   9  1   
  9   5  10  1   
 10   6  24  1   
 11   6  25  1   
 12   6  26  1   
 13   7   9  1   
 14   7  27  1   
 15   8  28  1   
 16   8  29  1   
 17   8  30  1   
 18   9  31  1   
 19  10  11  1   
 20  10  32  1   
 21  10  33  1   
 22  11  12  1   
 23  11  13  1   
 24  11  34  1   
 25  12  14  1   
 26  12  35  1   
 27  12  36  1   
 28  13  15  1   
 29  13  37  1   
 30  13  38  1   
 31  14  15  1   
 32  14  16  1   
 33  14  39  1   
 34  15  17  1   
 35  15  40  1   
 36  16  41  1   
 37  17  18  1   
 38  17  42  1   
 39  17  43  1   
 40  18  19  1   
 41  18  20  2   
 42  19  21  1   
 43  19  44  1   
 44  20  22  1   
 45  20  45  1   
 46  21  22  2   
 47  22  23  1   
 48  23  46  1   
 49  23  47  1   
 50  23  48  1   
@<TRIPOS>SUBSTRUCTURE
  1 ****  11 GROUP 4 **** **** 0

# MOE 2024.06 (io_trps.svl 2023.06)
