@<TRIPOS>MOLECULE
NONAME
49 53 1 0 0 
SMALL
USER_CHARGES


@<TRIPOS>ATOM
  1 S       -1.4410     0.9790    -1.9350 S.3   1 <1>  -0.0800 
  2 C       -1.4450     1.9290    -0.4570 C.2   1 <1>  -0.1400 
  3 C       -3.1260     0.5370    -1.6930 C.2   1 <1>  -0.1100 
  4 C       -2.6500     1.8930     0.1260 C.2   1 <1>  -0.1810 
  5 C       -0.2160     2.6750     0.0480 C.3   1 <1>   0.4600 
  6 C       -3.6140     1.0960    -0.5690 C.2   1 <1>  -0.1500 
  7 C       -2.8810     2.6600     1.4080 C.3   1 <1>   0.0210 
  8 O       -0.5030     3.1990     1.3310 O.3   1 <1>  -0.5600 
  9 C        0.1690     3.8290    -0.8890 C.3   1 <1>  -0.1600 
 10 C        0.9700     1.7220     0.2300 C.3   1 <1>  -0.1600 
 11 C       -1.7860     3.7350     1.5560 C.3   1 <1>   0.1200 
 12 C        1.4250     4.5520    -0.4020 C.3   1 <1>   0.1400 
 13 C        2.2230     2.4630     0.7000 C.3   1 <1>   0.1400 
 14 N        2.5350     3.5660    -0.2550 N.am  1 <1>  -0.6600 
 15 C        3.7610     3.6490    -0.8730 C.2   1 <1>   0.5690 
 16 O        4.6240     2.8220    -0.6890 O.2   1 <1>  -0.5700 
 17 C        4.1160     4.7980    -1.8150 C.3   1 <1>   0.2010 
 18 N        4.4540     6.0540    -1.0760 N.am  1 <1>  -0.4200 
 19 C        3.7780     7.2290    -1.3090 C.2   1 <1>   0.5440 
 20 C        5.4620     6.0250    -0.1410 C.2   1 <1>   0.4500 
 21 O        2.8730     7.2570    -2.1280 O.2   1 <1>  -0.5700 
 22 C        4.1630     8.3920    -0.5600 C.ar  1 <1>   0.0860 
 23 N        5.8370     7.0330     0.5510 N.2   1 <1>  -0.6290 
 24 C        5.2030     8.2450     0.3660 C.ar  1 <1>   0.1790 
 25 C        3.5590     9.6450    -0.7060 C.ar  1 <1>  -0.1500 
 26 C        5.6090     9.3420     1.1170 C.ar  1 <1>  -0.1500 
 27 C        3.9730    10.7240     0.0470 C.ar  1 <1>  -0.1500 
 28 C        5.0030    10.5720     0.9640 C.ar  1 <1>  -0.1500 
 29 H       -3.5790    -0.1030    -2.4280 H     1 <1>   0.1500 
 30 H       -4.6170     0.9810    -0.1950 H     1 <1>   0.1500 
 31 H       -2.8480     1.9870     2.2460 H     1 <1>   0.0800 
 32 H       -3.8450     3.1340     1.3880 H     1 <1>   0.0800 
 33 H       -0.6460     4.5220    -0.9770 H     1 <1>   0.0800 
 34 H        0.3580     3.4370    -1.8710 H     1 <1>   0.0800 
 35 H        1.1930     1.2350    -0.7010 H     1 <1>   0.0800 
 36 H        0.7060     0.9610     0.9400 H     1 <1>   0.0800 
 37 H       -1.8000     4.1430     2.5520 H     1 <1>   0.0800 
 38 H       -1.9500     4.5350     0.8560 H     1 <1>   0.0800 
 39 H        1.2370     5.0120     0.5530 H     1 <1>   0.0800 
 40 H        1.6740     5.3280    -1.0990 H     1 <1>   0.0800 
 41 H        3.0440     1.7710     0.7700 H     1 <1>   0.0800 
 42 H        2.0570     2.8820     1.6790 H     1 <1>   0.0800 
 43 H        3.3040     4.9530    -2.4990 H     1 <1>   0.0800 
 44 H        4.9710     4.5060    -2.3970 H     1 <1>   0.0800 
 45 H        5.9570     5.0790     0.0020 H     1 <1>   0.0600 
 46 H        2.7600     9.7600    -1.4190 H     1 <1>   0.1500 
 47 H        6.4080     9.2120     1.8240 H     1 <1>   0.1500 
 48 H        3.5010    11.6850    -0.0730 H     1 <1>   0.1500 
 49 H        5.3270    11.4140     1.5520 H     1 <1>   0.1500 
@<TRIPOS>BOND
  1   1   2  1   
  2   1   3  1   
  3   2   4  2   
  4   2   5  1   
  5   3   6  2   
  6   3  29  1   
  7   4   6  1   
  8   4   7  1   
  9   5   8  1   
 10   5   9  1   
 11   5  10  1   
 12   6  30  1   
 13   7  11  1   
 14   7  31  1   
 15   7  32  1   
 16   8  11  1   
 17   9  12  1   
 18   9  33  1   
 19   9  34  1   
 20  10  13  1   
 21  10  35  1   
 22  10  36  1   
 23  11  37  1   
 24  11  38  1   
 25  12  14  1   
 26  12  39  1   
 27  12  40  1   
 28  13  14  1   
 29  13  41  1   
 30  13  42  1   
 31  14  15  am  
 32  15  16  2   
 33  15  17  1   
 34  17  18  1   
 35  17  43  1   
 36  17  44  1   
 37  18  19  am  
 38  18  20  1   
 39  19  21  2   
 40  19  22  1   
 41  20  23  2   
 42  20  45  1   
 43  22  24  ar  
 44  22  25  ar  
 45  23  24  1   
 46  24  26  ar  
 47  25  27  ar  
 48  25  46  1   
 49  26  28  ar  
 50  26  47  1   
 51  27  28  ar  
 52  27  48  1   
 53  28  49  1   
@<TRIPOS>SUBSTRUCTURE
  1 ****  12 GROUP 4 **** **** 0

# MOE 2024.06 (io_trps.svl 2023.06)
