@<TRIPOS>MOLECULE
NONAME
57 60 1 0 0 
SMALL
USER_CHARGES


@<TRIPOS>ATOM
  1 O       -0.2200    -0.0200    -1.0040 O.2   1 <1>  -0.5700 
  2 C       -1.2210     0.5660    -0.6390 C.2   1 <1>   0.7160 
  3 N       -2.4120    -0.0780    -0.7530 N.am  1 <1>  -0.7300 
  4 C       -1.1590     1.8920    -0.0950 C.2   1 <1>  -0.0860 
  5 C       -2.6110    -1.5020    -1.0690 C.3   1 <1>   0.2350 
  6 C       -2.2530     2.7190     0.2010 C.2   1 <1>   0.3720 
  7 C       -0.0920     2.6460     0.2960 C.2   1 <1>   0.0870 
  8 C       -3.4590    -2.1270     0.0420 C.3   1 <1>  -0.1950 
  9 N       -1.8720     3.8290     0.7280 N.2   1 <1>  -0.4100 
 10 N       -3.6000     2.4280    -0.0570 N.pl3 1 <1>  -0.8210 
 11 O       -0.5710     3.7640     0.7790 O.3   1 <1>  -0.0190 
 12 C        1.3360     2.4530     0.2870 C.ar  1 <1>   0.0530 
 13 C       -4.2650    -3.3860    -0.1410 C.3   1 <1>  -0.1900 
 14 C       -4.9630    -2.0740     0.1020 C.3   1 <1>  -0.1900 
 15 C       -4.5270     2.8100     1.0560 C.3   1 <1>   0.2090 
 16 C       -4.0650     3.0550    -1.3330 C.3   1 <1>   0.2090 
 17 C        2.0960     2.7700     1.4130 C.ar  1 <1>  -0.1500 
 18 C        2.0160     1.9740    -0.8310 C.ar  1 <1>  -0.1500 
 19 C       -4.3400    -4.0840    -1.5110 C.3   1 <1>  -0.1450 
 20 C       -4.1810    -4.4470     0.9680 C.3   1 <1>  -0.1450 
 21 C       -5.6030    -1.7680     1.4650 C.3   1 <1>  -0.1450 
 22 C       -5.7800    -1.4070    -1.0170 C.3   1 <1>  -0.1450 
 23 C       -5.9900     2.5020     0.6930 C.3   1 <1>   0.1200 
 24 C       -5.5480     2.7430    -1.6040 C.3   1 <1>   0.1200 
 25 C        3.4690     2.6090     1.4270 C.ar  1 <1>  -0.1500 
 26 C        3.3880     1.8080    -0.8250 C.ar  1 <1>  -0.1500 
 27 O       -6.3490     3.1130    -0.5160 O.3   1 <1>  -0.5600 
 28 C        4.1190     2.1260     0.3050 C.ar  1 <1>  -0.1500 
 29 H       -3.2390     0.4390    -0.4260 H     1 <1>   0.3700 
 30 H       -1.6630    -2.0090    -1.1230 H     1 <1>   0.0800 
 31 H       -3.0900    -1.5840    -2.0270 H     1 <1>   0.0800 
 32 H       -2.9300    -2.0530     0.9770 H     1 <1>   0.1000 
 33 H       -4.4370     3.8620     1.2680 H     1 <1>   0.0800 
 34 H       -4.2560     2.2670     1.9450 H     1 <1>   0.0800 
 35 H       -3.4700     2.6850    -2.1500 H     1 <1>   0.0800 
 36 H       -3.9330     4.1230    -1.2810 H     1 <1>   0.0800 
 37 H        1.5990     3.1480     2.2900 H     1 <1>   0.1500 
 38 H        1.4610     1.7260    -1.7190 H     1 <1>   0.1500 
 39 H       -4.3260    -3.3970    -2.3340 H     1 <1>   0.0800 
 40 H       -5.2470    -4.6590    -1.5730 H     1 <1>   0.0800 
 41 H       -3.5050    -4.7510    -1.6300 H     1 <1>   0.0800 
 42 H       -3.9690    -4.0130     1.9270 H     1 <1>   0.0800 
 43 H       -3.3940    -5.1470     0.7520 H     1 <1>   0.0800 
 44 H       -5.1110    -4.9830     1.0320 H     1 <1>   0.0800 
 45 H       -4.9880    -2.0970     2.2810 H     1 <1>   0.0800 
 46 H       -6.5580    -2.2560     1.5380 H     1 <1>   0.0800 
 47 H       -5.7470    -0.7100     1.5790 H     1 <1>   0.0800 
 48 H       -5.3150    -1.4870    -1.9790 H     1 <1>   0.0800 
 49 H       -5.9070    -0.3630    -0.8050 H     1 <1>   0.0800 
 50 H       -6.7520    -1.8620    -1.0740 H     1 <1>   0.0800 
 51 H       -6.6470     2.8780     1.4560 H     1 <1>   0.0800 
 52 H       -6.1410     1.4420     0.6000 H     1 <1>   0.0800 
 53 H       -5.6830     1.6940    -1.7910 H     1 <1>   0.0800 
 54 H       -5.8890     3.2930    -2.4620 H     1 <1>   0.0800 
 55 H        4.0330     2.8590     2.3080 H     1 <1>   0.1500 
 56 H        3.8870     1.4300    -1.7010 H     1 <1>   0.1500 
 57 H        5.1880     1.9970     0.3120 H     1 <1>   0.1500 
@<TRIPOS>BOND
  1   1   2  2   
  2   2   3  am  
  3   2   4  1   
  4   3   5  1   
  5   3  29  1   
  6   4   6  1   
  7   4   7  2   
  8   5   8  1   
  9   5  30  1   
 10   5  31  1   
 11   6   9  2   
 12   6  10  1   
 13   7  11  1   
 14   7  12  1   
 15   8  13  1   
 16   8  14  1   
 17   8  32  1   
 18   9  11  1   
 19  10  15  1   
 20  10  16  1   
 21  12  17  ar  
 22  12  18  ar  
 23  13  14  1   
 24  13  19  1   
 25  13  20  1   
 26  14  21  1   
 27  14  22  1   
 28  15  23  1   
 29  15  33  1   
 30  15  34  1   
 31  16  24  1   
 32  16  35  1   
 33  16  36  1   
 34  17  25  ar  
 35  17  37  1   
 36  18  26  ar  
 37  18  38  1   
 38  19  39  1   
 39  19  40  1   
 40  19  41  1   
 41  20  42  1   
 42  20  43  1   
 43  20  44  1   
 44  21  45  1   
 45  21  46  1   
 46  21  47  1   
 47  22  48  1   
 48  22  49  1   
 49  22  50  1   
 50  23  27  1   
 51  23  51  1   
 52  23  52  1   
 53  24  27  1   
 54  24  53  1   
 55  24  54  1   
 56  25  28  ar  
 57  25  55  1   
 58  26  28  ar  
 59  26  56  1   
 60  28  57  1   
@<TRIPOS>SUBSTRUCTURE
  1 ****   2 GROUP 4 **** **** 0

# MOE 2024.06 (io_trps.svl 2023.06)
