@<TRIPOS>MOLECULE
NONAME
43 46 1 0 0 
SMALL
USER_CHARGES


@<TRIPOS>ATOM
  1 S       -0.8930     0.1060    -0.0850 S.3   1 <1>  -0.0800 
  2 C       -0.0740     1.5860     0.3650 C.2   1 <1>  -0.1400 
  3 C        0.0000     0.0480    -1.5970 C.2   1 <1>  -0.1100 
  4 C        0.8050     1.9750    -0.5670 C.2   1 <1>  -0.1810 
  5 C       -0.3580     2.3040     1.6570 C.3   1 <1>   0.0200 
  6 C        0.8450     1.0930    -1.7000 C.2   1 <1>  -0.1500 
  7 C        1.6480     3.2330    -0.3710 C.3   1 <1>   0.4610 
  8 C        0.1940     3.7320     1.5170 C.3   1 <1>   0.1200 
  9 O        1.4850     3.7310     0.9460 O.3   1 <1>  -0.5600 
 10 C        3.1380     2.9140    -0.5030 C.3   1 <1>  -0.1600 
 11 C        1.2760     4.3380    -1.3750 C.3   1 <1>  -0.1600 
 12 C        4.0150     4.1270    -0.1740 C.3   1 <1>   0.3430 
 13 C        2.3600     5.4070    -1.5490 C.3   1 <1>   0.3430 
 14 N        3.2730     5.4020    -0.3780 N.4   1 <1>  -0.9590 
 15 C        4.0850     6.6400    -0.2460 C.3   1 <1>   0.5230 
 16 C        3.1770     7.7640     0.2400 C.2   1 <1>   0.0070 
 17 N        1.9830     7.5610     0.7120 N.2   1 <1>  -0.5650 
 18 N        3.5400     9.0730     0.2310 N.pl3 1 <1>   0.0480 
 19 C        1.5440     8.7930     1.0250 C.2   1 <1>   0.0770 
 20 C        2.4780     9.7220     0.7370 C.2   1 <1>  -0.3020 
 21 C        4.8000     9.7060    -0.2090 C.3   1 <1>   0.0160 
 22 H       -0.2070    -0.7760    -2.2570 H     1 <1>   0.1500 
 23 H        0.1220     1.7950     2.4740 H     1 <1>   0.0800 
 24 H       -1.4160     2.3380     1.8450 H     1 <1>   0.0800 
 25 H        1.4970     1.2710    -2.5370 H     1 <1>   0.1500 
 26 H        0.2590     4.1990     2.4840 H     1 <1>   0.0800 
 27 H       -0.4580     4.3210     0.8970 H     1 <1>   0.0800 
 28 H        3.3480     2.5900    -1.5050 H     1 <1>   0.0800 
 29 H        3.3910     2.0980     0.1500 H     1 <1>   0.0800 
 30 H        0.3510     4.8030    -1.0910 H     1 <1>   0.0800 
 31 H        1.1050     3.8950    -2.3390 H     1 <1>   0.0800 
 32 H        4.9020     4.1030    -0.7860 H     1 <1>   0.0800 
 33 H        4.3170     4.0640     0.8600 H     1 <1>   0.0800 
 34 H        1.8890     6.3730    -1.6480 H     1 <1>   0.0800 
 35 H        2.9260     5.2090    -2.4440 H     1 <1>   0.0800 
 36 H        2.6120     5.4800     0.4260 H     1 <1>   0.4500 
 37 H        4.5300     6.8980    -1.1920 H     1 <1>   0.0800 
 38 H        4.8650     6.4910     0.4810 H     1 <1>   0.0800 
 39 H        0.5640     8.9540     1.4480 H     1 <1>   0.1500 
 40 H        2.4380    10.7890     0.8680 H     1 <1>   0.1500 
 41 H        5.6230     9.3070     0.3550 H     1 <1>   0.0800 
 42 H        4.7440    10.7670    -0.0400 H     1 <1>   0.0800 
 43 H        4.9500     9.5260    -1.2570 H     1 <1>   0.0800 
@<TRIPOS>BOND
  1   1   2  1   
  2   1   3  1   
  3   2   4  2   
  4   2   5  1   
  5   3   6  2   
  6   3  22  1   
  7   4   6  1   
  8   4   7  1   
  9   5   8  1   
 10   5  23  1   
 11   5  24  1   
 12   6  25  1   
 13   7   9  1   
 14   7  10  1   
 15   7  11  1   
 16   8   9  1   
 17   8  26  1   
 18   8  27  1   
 19  10  12  1   
 20  10  28  1   
 21  10  29  1   
 22  11  13  1   
 23  11  30  1   
 24  11  31  1   
 25  12  14  1   
 26  12  32  1   
 27  12  33  1   
 28  13  14  1   
 29  13  34  1   
 30  13  35  1   
 31  14  15  1   
 32  14  36  1   
 33  15  16  1   
 34  15  37  1   
 35  15  38  1   
 36  16  17  2   
 37  16  18  1   
 38  17  19  1   
 39  18  20  1   
 40  18  21  1   
 41  19  20  2   
 42  19  39  1   
 43  20  40  1   
 44  21  41  1   
 45  21  42  1   
 46  21  43  1   
@<TRIPOS>SUBSTRUCTURE
  1 ****   9 GROUP 4 **** **** 0

# MOE 2024.06 (io_trps.svl 2023.06)
