@<TRIPOS>MOLECULE
NONAME
65 68 1 0 0 
SMALL
USER_CHARGES


@<TRIPOS>ATOM
  1 O       -2.4310     0.9430    -0.0910 O.2   1 <1>  -0.5700 
  2 C       -2.7820     1.7760    -0.9120 C.2   1 <1>   0.7150 
  3 N       -3.8140     1.4110    -1.7410 N.am  1 <1>  -0.6600 
  4 C       -2.1860     3.0920    -0.9900 C.2   1 <1>   0.0550 
  5 C       -5.2050     1.6200    -1.2270 C.3   1 <1>   0.1400 
  6 C       -3.6730     0.1300    -2.5100 C.3   1 <1>   0.1400 
  7 O       -1.2660     3.4830    -0.1130 O.3   1 <1>  -0.2800 
  8 C       -2.3950     4.1130    -1.8680 C.2   1 <1>  -0.1500 
  9 C       -5.6700     0.4470    -0.3180 C.3   1 <1>   0.4230 
 10 C       -4.3610    -1.0650    -1.8050 C.3   1 <1>   0.3430 
 11 C       -0.8830     4.7070    -0.4010 C.2   1 <1>  -0.0400 
 12 C       -1.5520     5.1570    -1.4850 C.2   1 <1>  -0.1500 
 13 N       -4.7220    -0.7340    -0.3820 N.4   1 <1>  -0.9590 
 14 C       -7.1150     0.0150    -0.6570 C.3   1 <1>   0.1200 
 15 C        0.1720     5.3880     0.4580 C.3   1 <1>   0.5230 
 16 C       -5.2450    -1.8690     0.4470 C.3   1 <1>   0.4230 
 17 O       -7.5130    -1.0600     0.1440 O.3   1 <1>  -0.5600 
 18 N        1.4760     4.6760     0.3220 N.4   1 <1>  -0.9590 
 19 C       -6.7070    -2.2040     0.0650 C.3   1 <1>   0.1200 
 20 C       -4.3060    -3.0830     0.3600 C.3   1 <1>  -0.1600 
 21 C        1.4990     3.4130     1.1210 C.3   1 <1>   0.3430 
 22 C        2.6230     5.5650     0.6540 C.3   1 <1>   0.3430 
 23 C       -4.5920    -4.1260     1.4520 C.3   1 <1>  -0.1600 
 24 C        2.7940     2.6510     0.8420 C.3   1 <1>  -0.1600 
 25 C        3.9380     4.8400     0.3620 C.3   1 <1>  -0.1600 
 26 C       -3.5860    -5.2780     1.3810 C.3   1 <1>  -0.2400 
 27 C        4.0340     3.5120     1.1260 C.3   1 <1>  -0.0800 
 28 C        5.3120     2.7600     0.7430 C.3   1 <1>  -0.2400 
 29 H       -5.2540     2.5390    -0.6670 H     1 <1>   0.0800 
 30 H       -5.8700     1.7280    -2.0670 H     1 <1>   0.0800 
 31 H       -4.0850     0.2540    -3.4970 H     1 <1>   0.0800 
 32 H       -2.6260    -0.0970    -2.6310 H     1 <1>   0.0800 
 33 H       -3.0710     4.1360    -2.7050 H     1 <1>   0.1500 
 34 H       -5.6850     0.8140     0.6960 H     1 <1>   0.0800 
 35 H       -3.6920    -1.9090    -1.8350 H     1 <1>   0.0800 
 36 H       -5.2490    -1.3350    -2.3520 H     1 <1>   0.0800 
 37 H       -1.4850     6.1100    -1.9850 H     1 <1>   0.1500 
 38 H       -3.8370    -0.3910     0.0440 H     1 <1>   0.4500 
 39 H       -7.2070    -0.2750    -1.6890 H     1 <1>   0.0800 
 40 H       -7.7980     0.8260    -0.4690 H     1 <1>   0.0800 
 41 H       -0.1440     5.3990     1.4880 H     1 <1>   0.0800 
 42 H        0.2770     6.4060     0.1230 H     1 <1>   0.0800 
 43 H       -5.2580    -1.5510     1.4780 H     1 <1>   0.0800 
 44 H        1.5550     4.4000    -0.6650 H     1 <1>   0.4500 
 45 H       -7.1150    -2.9270     0.7490 H     1 <1>   0.0800 
 46 H       -6.7700    -2.6060    -0.9310 H     1 <1>   0.0800 
 47 H       -4.3980    -3.5590    -0.6000 H     1 <1>   0.0800 
 48 H       -3.2900    -2.7460     0.4830 H     1 <1>   0.0800 
 49 H        1.4360     3.6430     2.1720 H     1 <1>   0.0800 
 50 H        0.6610     2.7870     0.8620 H     1 <1>   0.0800 
 51 H        2.5760     6.4680     0.0660 H     1 <1>   0.0800 
 52 H        2.5880     5.8340     1.6970 H     1 <1>   0.0800 
 53 H       -4.5270    -3.6680     2.4250 H     1 <1>   0.0800 
 54 H       -5.5830    -4.5320     1.3400 H     1 <1>   0.0800 
 55 H        2.8190     1.7730     1.4630 H     1 <1>   0.0800 
 56 H        2.7960     2.3200    -0.1820 H     1 <1>   0.0800 
 57 H        4.0210     4.6680    -0.6970 H     1 <1>   0.0800 
 58 H        4.7570     5.4770     0.6490 H     1 <1>   0.0800 
 59 H       -2.5820    -4.9180     1.5260 H     1 <1>   0.0800 
 60 H       -3.6420    -5.7770     0.4290 H     1 <1>   0.0800 
 61 H       -3.7990    -5.9990     2.1520 H     1 <1>   0.0800 
 62 H        4.0720     3.7230     2.1830 H     1 <1>   0.0800 
 63 H        5.3230     2.5230    -0.3070 H     1 <1>   0.0800 
 64 H        5.3880     1.8420     1.3000 H     1 <1>   0.0800 
 65 H        6.1800     3.3560     0.9660 H     1 <1>   0.0800 
@<TRIPOS>BOND
  1   1   2  2   
  2   2   3  am  
  3   2   4  1   
  4   3   5  1   
  5   3   6  1   
  6   4   7  1   
  7   4   8  2   
  8   5   9  1   
  9   5  29  1   
 10   5  30  1   
 11   6  10  1   
 12   6  31  1   
 13   6  32  1   
 14   7  11  1   
 15   8  12  1   
 16   8  33  1   
 17   9  13  1   
 18   9  14  1   
 19   9  34  1   
 20  10  13  1   
 21  10  35  1   
 22  10  36  1   
 23  11  12  2   
 24  11  15  1   
 25  12  37  1   
 26  13  16  1   
 27  13  38  1   
 28  14  17  1   
 29  14  39  1   
 30  14  40  1   
 31  15  18  1   
 32  15  41  1   
 33  15  42  1   
 34  16  19  1   
 35  16  20  1   
 36  16  43  1   
 37  17  19  1   
 38  18  21  1   
 39  18  22  1   
 40  18  44  1   
 41  19  45  1   
 42  19  46  1   
 43  20  23  1   
 44  20  47  1   
 45  20  48  1   
 46  21  24  1   
 47  21  49  1   
 48  21  50  1   
 49  22  25  1   
 50  22  51  1   
 51  22  52  1   
 52  23  26  1   
 53  23  53  1   
 54  23  54  1   
 55  24  27  1   
 56  24  55  1   
 57  24  56  1   
 58  25  27  1   
 59  25  57  1   
 60  25  58  1   
 61  26  59  1   
 62  26  60  1   
 63  26  61  1   
 64  27  28  1   
 65  27  62  1   
 66  28  63  1   
 67  28  64  1   
 68  28  65  1   
@<TRIPOS>SUBSTRUCTURE
  1 ****   1 GROUP 4 **** **** 0

# MOE 2024.06 (io_trps.svl 2023.06)
