@<TRIPOS>MOLECULE
NONAME
45 46 1 0 0 
SMALL
USER_CHARGES


@<TRIPOS>ATOM
  1 CL       2.2680    -0.0020     3.4620 Cl    1 <1>  -0.1770 
  2 C        2.2670    -0.9300     1.9850 C.ar  1 <1>   0.1770 
  3 C        2.0190    -2.2850     2.0410 C.ar  1 <1>  -0.1500 
  4 C        2.5110    -0.2920     0.7850 C.ar  1 <1>  -0.1500 
  5 C        2.0050    -3.0500     0.8750 C.ar  1 <1>   0.0860 
  6 C        2.5030    -1.0320    -0.3830 C.ar  1 <1>  -0.1500 
  7 C        2.2500    -2.4020    -0.3440 C.ar  1 <1>   0.0830 
  8 C        1.7510    -4.4720     0.9530 C.2   1 <1>   0.5440 
  9 O        2.2190    -3.1370    -1.4810 O.3   1 <1>  -0.3630 
 10 O        2.6150    -5.2650     0.6310 O.2   1 <1>  -0.5700 
 11 N        0.5430    -4.9750     1.3950 N.am  1 <1>  -0.6600 
 12 C        3.1010    -2.8380    -2.5450 C.3   1 <1>   0.0400 
 13 C        0.4940    -6.3350     2.0060 C.3   1 <1>   0.3200 
 14 C       -0.7420    -4.1960     1.3620 C.3   1 <1>   0.1400 
 15 C        0.2370    -7.3310     0.8990 C.2   1 <1>  -0.3320 
 16 C       -1.7800    -4.7890     0.3800 C.3   1 <1>   0.3430 
 17 N        1.1450    -7.5720    -0.0650 N.pl3 1 <1>   0.0330 
 18 C       -0.8250    -8.1220     0.6340 C.2   1 <1>   0.0770 
 19 N       -1.1540    -5.2320    -0.9050 N.4   1 <1>  -0.9590 
 20 C        0.5570    -8.4690    -0.8830 C.2   1 <1>   0.0360 
 21 N       -0.6360    -8.8060    -0.5090 N.2   1 <1>  -0.5650 
 22 C       -0.6660    -4.1010    -1.7460 C.3   1 <1>   0.2630 
 23 C       -2.0480    -6.1410    -1.6850 C.3   1 <1>   0.2630 
 24 H        1.8460    -2.7500     2.9940 H     1 <1>   0.1500 
 25 H        2.7050     0.7670     0.7720 H     1 <1>   0.1500 
 26 H        2.6870    -0.5280    -1.3150 H     1 <1>   0.1500 
 27 H        3.1050    -3.6720    -3.2240 H     1 <1>   0.0800 
 28 H        4.0910    -2.6900    -2.1480 H     1 <1>   0.0800 
 29 H        2.7590    -1.9560    -3.0550 H     1 <1>   0.0800 
 30 H       -0.2830    -6.3830     2.7500 H     1 <1>   0.0800 
 31 H        1.4320    -6.5580     2.4890 H     1 <1>   0.0800 
 32 H       -0.5500    -3.1780     1.0740 H     1 <1>   0.0800 
 33 H       -1.1670    -4.1660     2.3510 H     1 <1>   0.0800 
 34 H       -2.5560    -4.0670     0.1880 H     1 <1>   0.0800 
 35 H       -2.2370    -5.6410     0.8550 H     1 <1>   0.0800 
 36 H        2.0780    -7.1340    -0.1380 H     1 <1>   0.2700 
 37 H       -1.7350    -8.2360     1.2030 H     1 <1>   0.1500 
 38 H       -0.3310    -5.7960    -0.6060 H     1 <1>   0.4500 
 39 H        1.0530    -8.8540    -1.7590 H     1 <1>   0.1500 
 40 H       -1.4970    -3.5340    -2.1340 H     1 <1>   0.0800 
 41 H       -0.0840    -4.4750    -2.5730 H     1 <1>   0.0800 
 42 H       -0.0440    -3.4440    -1.1640 H     1 <1>   0.0800 
 43 H       -2.9250    -5.6130    -2.0210 H     1 <1>   0.0800 
 44 H       -2.3560    -6.9770    -1.0780 H     1 <1>   0.0800 
 45 H       -1.5250    -6.5290    -2.5440 H     1 <1>   0.0800 
@<TRIPOS>BOND
  1   1   2  1   
  2   2   3  ar  
  3   2   4  ar  
  4   3   5  ar  
  5   3  24  1   
  6   4   6  ar  
  7   4  25  1   
  8   5   7  ar  
  9   5   8  1   
 10   6   7  ar  
 11   6  26  1   
 12   7   9  1   
 13   8  10  2   
 14   8  11  am  
 15   9  12  1   
 16  11  13  1   
 17  11  14  1   
 18  12  27  1   
 19  12  28  1   
 20  12  29  1   
 21  13  15  1   
 22  13  30  1   
 23  13  31  1   
 24  14  16  1   
 25  14  32  1   
 26  14  33  1   
 27  15  17  1   
 28  15  18  2   
 29  16  19  1   
 30  16  34  1   
 31  16  35  1   
 32  17  20  1   
 33  17  36  1   
 34  18  21  1   
 35  18  37  1   
 36  19  22  1   
 37  19  23  1   
 38  19  38  1   
 39  20  21  2   
 40  20  39  1   
 41  22  40  1   
 42  22  41  1   
 43  22  42  1   
 44  23  43  1   
 45  23  44  1   
 46  23  45  1   
@<TRIPOS>SUBSTRUCTURE
  1 ****   8 GROUP 4 **** **** 0

# MOE 2024.06 (io_trps.svl 2023.06)
