@<TRIPOS>MOLECULE
NONAME
57 60 1 0 0 
SMALL
USER_CHARGES


@<TRIPOS>ATOM
  1 O       -1.3970     0.7370     0.0260 O.2   1 <1>  -0.5700 
  2 C       -0.9950     1.8080     0.4040 C.2   1 <1>   0.5690 
  3 N       -1.7790     2.9040     0.3280 N.am  1 <1>  -0.7300 
  4 C        0.4330     1.9440     0.9380 C.3   1 <1>   0.1810 
  5 C       -1.3560     4.2520     0.7780 C.3   1 <1>   0.3640 
  6 O        0.6460     3.1280     1.6790 O.3   1 <1>  -0.5600 
  7 C       -1.7230     5.2680    -0.3040 C.ar  1 <1>  -0.1440 
  8 C        0.1680     4.3180     1.0680 C.3   1 <1>   0.2610 
  9 C       -1.4880     5.0100    -1.6490 C.ar  1 <1>  -0.1500 
 10 C       -2.2890     6.4830     0.0570 C.ar  1 <1>  -0.1500 
 11 C        0.5400     5.5480     1.9190 C.2   1 <1>   0.5690 
 12 C       -1.8120     5.9490    -2.6130 C.ar  1 <1>  -0.1500 
 13 C       -2.6130     7.4230    -0.9060 C.ar  1 <1>  -0.1500 
 14 O       -0.3360     6.1060     2.5440 O.2   1 <1>  -0.5700 
 15 N        1.8370     6.0240     1.9690 N.am  1 <1>  -0.6600 
 16 C       -2.3740     7.1570    -2.2420 C.ar  1 <1>  -0.1500 
 17 C        3.0090     5.3660     1.3360 C.3   1 <1>   0.1400 
 18 C        2.1790     7.2180     2.7900 C.3   1 <1>   0.1400 
 19 C        3.6870     6.3740     0.4050 C.3   1 <1>  -0.1600 
 20 C        2.8430     8.2570     1.8870 C.3   1 <1>  -0.1600 
 21 C        4.0590     7.6510     1.1780 C.3   1 <1>   0.4230 
 22 N        4.7090     8.6800     0.3110 N.4   1 <1>  -0.9590 
 23 C        3.8980     9.0900    -0.8800 C.3   1 <1>   0.3430 
 24 C        6.0910     8.2750    -0.0850 C.3   1 <1>   0.3430 
 25 C        4.5630    10.2820    -1.5700 C.3   1 <1>  -0.1600 
 26 C        6.8000     9.4510    -0.7590 C.3   1 <1>  -0.1600 
 27 C        6.0120     9.9750    -1.9660 C.3   1 <1>  -0.1600 
 28 H       -2.7310     2.8090    -0.0300 H     1 <1>   0.3700 
 29 H        1.1230     1.9300     0.1150 H     1 <1>   0.0800 
 30 H        0.6490     1.1130     1.5850 H     1 <1>   0.0800 
 31 H       -1.9010     4.4770     1.6790 H     1 <1>   0.0800 
 32 H        0.6700     4.4120     0.1240 H     1 <1>   0.0800 
 33 H       -1.0570     4.0740    -1.9600 H     1 <1>   0.1500 
 34 H       -2.4800     6.7080     1.0940 H     1 <1>   0.1500 
 35 H       -1.6310     5.7380    -3.6530 H     1 <1>   0.1500 
 36 H       -3.0530     8.3600    -0.6140 H     1 <1>   0.1500 
 37 H       -2.6290     7.8870    -2.9910 H     1 <1>   0.1500 
 38 H        3.6910     5.0500     2.1090 H     1 <1>   0.0800 
 39 H        2.7220     4.4900     0.7830 H     1 <1>   0.0800 
 40 H        1.2990     7.6450     3.2420 H     1 <1>   0.0800 
 41 H        2.8440     6.9220     3.5850 H     1 <1>   0.0800 
 42 H        3.0040     6.5910    -0.3960 H     1 <1>   0.0800 
 43 H        4.5670     5.9140    -0.0060 H     1 <1>   0.0800 
 44 H        3.1460     9.0920     2.4930 H     1 <1>   0.0800 
 45 H        2.1050     8.5930     1.1810 H     1 <1>   0.0800 
 46 H        4.7600     7.3680     1.9480 H     1 <1>   0.0800 
 47 H        4.8150     9.5260     0.8850 H     1 <1>   0.4500 
 48 H        3.8280     8.2690    -1.5750 H     1 <1>   0.0800 
 49 H        2.9010     9.3660    -0.5800 H     1 <1>   0.0800 
 50 H        6.6530     7.9710     0.7840 H     1 <1>   0.0800 
 51 H        6.0470     7.4450    -0.7710 H     1 <1>   0.0800 
 52 H        4.0000    10.5350    -2.4520 H     1 <1>   0.0800 
 53 H        4.5330    11.1370    -0.9160 H     1 <1>   0.0800 
 54 H        6.9440    10.2420    -0.0430 H     1 <1>   0.0800 
 55 H        7.7770     9.1340    -1.0840 H     1 <1>   0.0800 
 56 H        6.4830    10.8630    -2.3540 H     1 <1>   0.0800 
 57 H        6.0210     9.2340    -2.7490 H     1 <1>   0.0800 
@<TRIPOS>BOND
  1   1   2  2   
  2   2   3  am  
  3   2   4  1   
  4   3   5  1   
  5   3  28  1   
  6   4   6  1   
  7   4  29  1   
  8   4  30  1   
  9   5   7  1   
 10   5   8  1   
 11   5  31  1   
 12   6   8  1   
 13   7   9  ar  
 14   7  10  ar  
 15   8  11  1   
 16   8  32  1   
 17   9  12  ar  
 18   9  33  1   
 19  10  13  ar  
 20  10  34  1   
 21  11  14  2   
 22  11  15  am  
 23  12  16  ar  
 24  12  35  1   
 25  13  16  ar  
 26  13  36  1   
 27  15  17  1   
 28  15  18  1   
 29  16  37  1   
 30  17  19  1   
 31  17  38  1   
 32  17  39  1   
 33  18  20  1   
 34  18  40  1   
 35  18  41  1   
 36  19  21  1   
 37  19  42  1   
 38  19  43  1   
 39  20  21  1   
 40  20  44  1   
 41  20  45  1   
 42  21  22  1   
 43  21  46  1   
 44  22  23  1   
 45  22  24  1   
 46  22  47  1   
 47  23  25  1   
 48  23  48  1   
 49  23  49  1   
 50  24  26  1   
 51  24  50  1   
 52  24  51  1   
 53  25  27  1   
 54  25  52  1   
 55  25  53  1   
 56  26  27  1   
 57  26  54  1   
 58  26  55  1   
 59  27  56  1   
 60  27  57  1   
@<TRIPOS>SUBSTRUCTURE
  1 ****  15 GROUP 4 **** **** 0

# MOE 2024.06 (io_trps.svl 2023.06)
