@<TRIPOS>MOLECULE
NONAME
44 47 1 0 0 
SMALL
USER_CHARGES


@<TRIPOS>ATOM
  1 S       -0.7580     1.5120     2.7730 S.3   1 <1>  -0.0800 
  2 C       -1.3230     1.4750     1.1090 C.2   1 <1>  -0.1400 
  3 C       -2.0120     0.3770     3.2570 C.2   1 <1>  -0.1100 
  4 C       -2.3830     0.6650     0.9870 C.2   1 <1>  -0.1810 
  5 C       -0.6610     2.2760    -0.0060 C.3   1 <1>   0.4600 
  6 C       -2.7790     0.0300     2.2060 C.2   1 <1>  -0.1500 
  7 C       -3.0420     0.4990    -0.3630 C.3   1 <1>   0.0210 
  8 O       -1.2540     1.9110    -1.2380 O.3   1 <1>  -0.5600 
  9 C        0.8260     1.9250    -0.1250 C.3   1 <1>  -0.1600 
 10 C       -0.8380     3.7870     0.2040 C.3   1 <1>  -0.1600 
 11 C       -2.6450     1.6840    -1.2650 C.3   1 <1>   0.1200 
 12 C        1.5190     2.7590    -1.2050 C.3   1 <1>   0.1400 
 13 C       -0.1300     4.5890    -0.8880 C.3   1 <1>   0.1400 
 14 N        1.3100     4.2070    -0.9140 N.am  1 <1>  -0.6600 
 15 C        2.3760     5.0440    -0.6700 C.2   1 <1>   0.5690 
 16 O        3.5130     4.6290    -0.7010 O.2   1 <1>  -0.5700 
 17 C        2.1570     6.5290    -0.3410 C.3   1 <1>  -0.0190 
 18 C        3.3940     7.4270    -0.4560 C.3   1 <1>  -0.1600 
 19 C        1.6940     6.7760     1.0990 C.3   1 <1>  -0.1600 
 20 C        3.0300     8.6880     0.3270 C.3   1 <1>  -0.1600 
 21 C        2.0270     8.2420     1.3980 C.3   1 <1>  -0.1600 
 22 H       -2.0400     0.0870     4.2920 H     1 <1>   0.1500 
 23 H       -3.6120    -0.6510     2.2360 H     1 <1>   0.1500 
 24 H       -4.1110     0.4760    -0.2540 H     1 <1>   0.0800 
 25 H       -2.7240    -0.4250    -0.8120 H     1 <1>   0.0800 
 26 H        0.9270     0.8790    -0.3490 H     1 <1>   0.0800 
 27 H        1.3210     2.1070     0.8110 H     1 <1>   0.0800 
 28 H       -0.4210     4.0610     1.1550 H     1 <1>   0.0800 
 29 H       -1.8820     4.0360     0.2310 H     1 <1>   0.0800 
 30 H       -3.1430     2.5810    -0.9430 H     1 <1>   0.0800 
 31 H       -2.9230     1.4830    -2.2850 H     1 <1>   0.0800 
 32 H        1.1050     2.5300    -2.1720 H     1 <1>   0.0800 
 33 H        2.5670     2.5170    -1.2280 H     1 <1>   0.0800 
 34 H       -0.2610     5.6380    -0.7030 H     1 <1>   0.0800 
 35 H       -0.5670     4.3670    -1.8480 H     1 <1>   0.0800 
 36 H        1.4260     6.9270    -1.0200 H     1 <1>   0.0800 
 37 H        3.6450     7.6390    -1.4810 H     1 <1>   0.0800 
 38 H        4.2370     6.9520     0.0190 H     1 <1>   0.0800 
 39 H        2.2610     6.1430     1.7610 H     1 <1>   0.0800 
 40 H        0.6480     6.5690     1.2330 H     1 <1>   0.0800 
 41 H        2.5600     9.3970    -0.3320 H     1 <1>   0.0800 
 42 H        3.9040     9.1420     0.7630 H     1 <1>   0.0800 
 43 H        2.4490     8.3350     2.3840 H     1 <1>   0.0800 
 44 H        1.1400     8.8480     1.3410 H     1 <1>   0.0800 
@<TRIPOS>BOND
  1   1   2  1   
  2   1   3  1   
  3   2   4  2   
  4   2   5  1   
  5   3   6  2   
  6   3  22  1   
  7   4   6  1   
  8   4   7  1   
  9   5   8  1   
 10   5   9  1   
 11   5  10  1   
 12   6  23  1   
 13   7  11  1   
 14   7  24  1   
 15   7  25  1   
 16   8  11  1   
 17   9  12  1   
 18   9  26  1   
 19   9  27  1   
 20  10  13  1   
 21  10  28  1   
 22  10  29  1   
 23  11  30  1   
 24  11  31  1   
 25  12  14  1   
 26  12  32  1   
 27  12  33  1   
 28  13  14  1   
 29  13  34  1   
 30  13  35  1   
 31  14  15  am  
 32  15  16  2   
 33  15  17  1   
 34  17  18  1   
 35  17  19  1   
 36  17  36  1   
 37  18  20  1   
 38  18  37  1   
 39  18  38  1   
 40  19  21  1   
 41  19  39  1   
 42  19  40  1   
 43  20  21  1   
 44  20  41  1   
 45  20  42  1   
 46  21  43  1   
 47  21  44  1   
@<TRIPOS>SUBSTRUCTURE
  1 ****  10 GROUP 4 **** **** 0

# MOE 2024.06 (io_trps.svl 2023.06)
