@<TRIPOS>MOLECULE
NONAME
39 41 1 0 0 
SMALL
USER_CHARGES


@<TRIPOS>ATOM
  1 F        0.1640    -1.3510     1.0300 F     1 <1>  -0.3400 
  2 C       -0.9700    -1.6670     0.4240 C.3   1 <1>   0.7800 
  3 F       -1.9160    -1.1540     1.1970 F     1 <1>  -0.3400 
  4 C       -1.1150    -3.1720     0.4040 C.2   1 <1>  -0.3320 
  5 N       -1.0880    -3.8930     1.5380 N.pl3 1 <1>   0.3000 
  6 C       -1.2830    -4.0480    -0.6080 C.2   1 <1>  -0.1500 
  7 N       -1.2340    -5.2050     1.3000 N.2   1 <1>  -0.7070 
  8 C       -1.3530    -5.3140    -0.0130 C.2   1 <1>   0.2030 
  9 C       -1.5310    -6.5580    -0.7460 C.2   1 <1>   0.7160 
 10 O       -1.6810    -6.5800    -1.9560 O.2   1 <1>  -0.5700 
 11 N       -1.5480    -7.7410    -0.0680 N.am  1 <1>  -0.7300 
 12 C       -1.6970    -9.0940    -0.6470 C.3   1 <1>   0.2200 
 13 C       -3.0740    -9.6730    -0.3540 C.3   1 <1>  -0.0800 
 14 C       -0.8130   -10.0660     0.1240 C.3   1 <1>   0.1200 
 15 C       -2.9050   -10.2650     1.0490 C.3   1 <1>   0.1200 
 16 C       -4.2580    -8.6980    -0.4900 C.3   1 <1>  -0.0160 
 17 O       -1.5310   -10.3890     1.2760 O.3   1 <1>  -0.5600 
 18 C       -5.5790    -9.4150    -0.2600 C.ar  1 <1>  -0.1430 
 19 C       -6.2360    -9.3730     0.9530 C.ar  1 <1>  -0.1500 
 20 C       -6.1890   -10.1490    -1.2570 C.ar  1 <1>  -0.1500 
 21 C       -7.4330   -10.0510     1.1080 C.ar  1 <1>   0.1600 
 22 C       -7.3890   -10.7910    -0.9990 C.ar  1 <1>   0.1600 
 23 N       -8.0240   -10.7620     0.1620 N.ar  1 <1>  -0.6200 
 24 H       -1.0010    -1.1850    -0.5370 H     1 <1>   0.0800 
 25 H       -0.9700    -3.5060     2.4850 H     1 <1>   0.2700 
 26 H       -1.3560    -3.8700    -1.6680 H     1 <1>   0.1500 
 27 H       -1.4290    -7.6940     0.9490 H     1 <1>   0.3700 
 28 H       -1.4670    -9.0840    -1.7000 H     1 <1>   0.0800 
 29 H       -3.2350   -10.4940    -1.0300 H     1 <1>   0.0800 
 30 H        0.1380    -9.6410     0.3950 H     1 <1>   0.0800 
 31 H       -0.6650   -10.9720    -0.4360 H     1 <1>   0.0800 
 32 H       -3.3660   -11.2340     1.1330 H     1 <1>   0.0800 
 33 H       -3.2980    -9.6080     1.8060 H     1 <1>   0.0800 
 34 H       -4.2530    -8.2650    -1.4750 H     1 <1>   0.0800 
 35 H       -4.1650    -7.8910     0.2160 H     1 <1>   0.0800 
 36 H       -5.8290    -8.8180     1.7790 H     1 <1>   0.1500 
 37 H       -5.7430   -10.2270    -2.2320 H     1 <1>   0.1500 
 38 H       -7.9300   -10.0070     2.0620 H     1 <1>   0.1500 
 39 H       -7.8500   -11.3600    -1.7880 H     1 <1>   0.1500 
@<TRIPOS>BOND
  1   1   2  1   
  2   2   3  1   
  3   2   4  1   
  4   2  24  1   
  5   4   5  1   
  6   4   6  2   
  7   5   7  1   
  8   5  25  1   
  9   6   8  1   
 10   6  26  1   
 11   7   8  2   
 12   8   9  1   
 13   9  10  2   
 14   9  11  am  
 15  11  12  1   
 16  11  27  1   
 17  12  13  1   
 18  12  14  1   
 19  12  28  1   
 20  13  15  1   
 21  13  16  1   
 22  13  29  1   
 23  14  17  1   
 24  14  30  1   
 25  14  31  1   
 26  15  17  1   
 27  15  32  1   
 28  15  33  1   
 29  16  18  1   
 30  16  34  1   
 31  16  35  1   
 32  18  19  ar  
 33  18  20  ar  
 34  19  21  ar  
 35  19  36  1   
 36  20  22  ar  
 37  20  37  1   
 38  21  23  ar  
 39  21  38  1   
 40  22  23  ar  
 41  22  39  1   
@<TRIPOS>SUBSTRUCTURE
  1 ****  11 GROUP 4 **** **** 0

# MOE 2024.06 (io_trps.svl 2023.06)
