@<TRIPOS>MOLECULE
NONAME
39 40 1 0 0 
SMALL
USER_CHARGES


@<TRIPOS>ATOM
  1 O       -1.1800    -0.0400     0.0930 O.2   1 <1>  -0.5700 
  2 C       -2.1080     0.7210     0.2800 C.2   1 <1>   0.7160 
  3 N       -3.2380     0.2610     0.9240 N.am  1 <1>  -0.6600 
  4 C       -2.0120     2.0800    -0.1940 C.2   1 <1>  -0.0860 
  5 C       -3.1850    -1.0270     1.6730 C.3   1 <1>   0.3200 
  6 C       -4.4760     1.0860     1.1230 C.3   1 <1>   0.1400 
  7 C       -1.8420     2.5330    -1.4660 C.2   1 <1>  -0.0400 
  8 C       -2.0830     3.2560     0.5830 C.2   1 <1>  -0.1500 
  9 C       -3.7550    -2.1690     0.8540 C.2   1 <1>  -0.3320 
 10 C       -5.1590     1.5030    -0.1930 C.3   1 <1>   0.1200 
 11 O       -1.8310     3.8420    -1.5040 O.3   1 <1>  -0.2800 
 12 C       -1.6770     1.7710    -2.7640 C.3   1 <1>  -0.0600 
 13 C       -1.9700     4.2890    -0.2750 C.2   1 <1>  -0.0400 
 14 N       -4.9080    -2.1310     0.1620 N.pl3 1 <1>   0.0330 
 15 C       -3.2500    -3.4080     0.6650 C.2   1 <1>   0.0770 
 16 O       -5.2880     0.4090    -1.0330 O.3   1 <1>  -0.6800 
 17 C       -1.9700     5.7840    -0.0450 C.3   1 <1>  -0.0600 
 18 C       -5.0330    -3.3510    -0.4000 C.2   1 <1>   0.0070 
 19 N       -4.0590    -4.1500    -0.1150 N.2   1 <1>  -0.5650 
 20 C       -6.2000    -3.7240    -1.2870 C.3   1 <1>  -0.0600 
 21 H       -3.7400    -0.9340     2.5900 H     1 <1>   0.0800 
 22 H       -2.1680    -1.2580     1.9410 H     1 <1>   0.0800 
 23 H       -4.2330     1.9660     1.6900 H     1 <1>   0.0800 
 24 H       -5.1910     0.5280     1.7030 H     1 <1>   0.0800 
 25 H       -2.1950     3.2840     1.6510 H     1 <1>   0.1500 
 26 H       -4.5920     2.2600    -0.7060 H     1 <1>   0.0800 
 27 H       -6.1430     1.8920     0.0030 H     1 <1>   0.0800 
 28 H       -1.6830     0.7110    -2.5860 H     1 <1>   0.0800 
 29 H       -0.7420     2.0390    -3.2210 H     1 <1>   0.0800 
 30 H       -2.4770     2.0200    -3.4370 H     1 <1>   0.0800 
 31 H       -5.5240    -1.3200     0.0170 H     1 <1>   0.2700 
 32 H       -2.3320    -3.8150     1.0550 H     1 <1>   0.1500 
 33 H       -4.3930     0.0510    -1.2290 H     1 <1>   0.4000 
 34 H       -2.0860     6.0010     1.0010 H     1 <1>   0.0800 
 35 H       -2.7790     6.2350    -0.5910 H     1 <1>   0.0800 
 36 H       -1.0420     6.2010    -0.3890 H     1 <1>   0.0800 
 37 H       -6.2520    -3.0540    -2.1260 H     1 <1>   0.0800 
 38 H       -7.1170    -3.6720    -0.7300 H     1 <1>   0.0800 
 39 H       -6.0720    -4.7270    -1.6520 H     1 <1>   0.0800 
@<TRIPOS>BOND
  1   1   2  2   
  2   2   3  am  
  3   2   4  1   
  4   3   5  1   
  5   3   6  1   
  6   4   7  2   
  7   4   8  1   
  8   5   9  1   
  9   5  21  1   
 10   5  22  1   
 11   6  10  1   
 12   6  23  1   
 13   6  24  1   
 14   7  11  1   
 15   7  12  1   
 16   8  13  2   
 17   8  25  1   
 18   9  14  1   
 19   9  15  2   
 20  10  16  1   
 21  10  26  1   
 22  10  27  1   
 23  11  13  1   
 24  12  28  1   
 25  12  29  1   
 26  12  30  1   
 27  13  17  1   
 28  14  18  1   
 29  14  31  1   
 30  15  19  1   
 31  15  32  1   
 32  16  33  1   
 33  17  34  1   
 34  17  35  1   
 35  17  36  1   
 36  18  19  2   
 37  18  20  1   
 38  20  37  1   
 39  20  38  1   
 40  20  39  1   
@<TRIPOS>SUBSTRUCTURE
  1 ****   3 GROUP 4 **** **** 0

# MOE 2024.06 (io_trps.svl 2023.06)
