@<TRIPOS>MOLECULE
NONAME
50 52 1 0 0 
SMALL
USER_CHARGES


@<TRIPOS>ATOM
  1 S        0.6200    -1.1240     0.3860 S.3   1 <1>  -0.0800 
  2 C       -1.0670    -0.9890    -0.0780 C.2   1 <1>  -0.1100 
  3 C        0.2880    -2.5640     1.3310 C.2   1 <1>  -0.1100 
  4 C       -1.7950    -1.9840     0.4640 C.2   1 <1>  -0.1810 
  5 C       -1.0180    -2.8820     1.2680 C.2   1 <1>  -0.1500 
  6 C       -3.2890    -2.1950     0.2840 C.3   1 <1>   0.3210 
  7 N       -3.5500    -3.5110    -0.3660 N.am  1 <1>  -0.6600 
  8 C       -4.0890    -4.5520     0.3560 C.2   1 <1>   0.5690 
  9 C       -3.0910    -3.6140    -1.7820 C.3   1 <1>   0.0600 
 10 O       -4.2910    -4.4370     1.5460 O.2   1 <1>  -0.5700 
 11 C       -4.4640    -5.8770    -0.3340 C.3   1 <1>   0.2610 
 12 O       -3.3290    -6.7000    -0.5000 O.3   1 <1>  -0.5600 
 13 C       -5.5970    -6.6150     0.4230 C.3   1 <1>   0.3640 
 14 C       -3.5840    -7.8630    -1.2460 C.3   1 <1>   0.1810 
 15 N       -5.7190    -8.0720     0.0690 N.am  1 <1>  -0.6600 
 16 C       -6.9160    -5.8890     0.1450 C.ar  1 <1>  -0.1430 
 17 C       -4.7630    -8.6790    -0.7110 C.2   1 <1>   0.5690 
 18 C       -6.7730    -8.8110     0.8240 C.3   1 <1>   0.2200 
 19 C       -7.5900    -6.0560    -1.0580 C.ar  1 <1>  -0.1500 
 20 C       -7.4500    -5.0370     1.1020 C.ar  1 <1>  -0.1500 
 21 O       -4.8020    -9.8460    -1.0240 O.2   1 <1>  -0.5700 
 22 C       -6.1330    -9.7660     1.8310 C.3   1 <1>  -0.2400 
 23 C       -7.7330    -9.5360    -0.1200 C.3   1 <1>  -0.2400 
 24 C       -8.7760    -5.3860    -1.3000 C.ar  1 <1>  -0.1500 
 25 C       -8.6360    -4.3660     0.8620 C.ar  1 <1>  -0.1500 
 26 C       -9.3000    -4.5400    -0.3390 C.ar  1 <1>  -0.1500 
 27 H       -1.3340    -0.1660    -0.7160 H     1 <1>   0.1500 
 28 H        1.1150    -3.0270     1.8390 H     1 <1>   0.1500 
 29 H       -1.4830    -3.7220     1.7580 H     1 <1>   0.1500 
 30 H       -3.6980    -1.4120    -0.3300 H     1 <1>   0.0800 
 31 H       -3.7710    -2.1400     1.2450 H     1 <1>   0.0800 
 32 H       -2.1640    -3.0830    -1.9120 H     1 <1>   0.0800 
 33 H       -3.8310    -3.1870    -2.4360 H     1 <1>   0.0800 
 34 H       -2.9190    -4.6380    -2.0600 H     1 <1>   0.0800 
 35 H       -4.8280    -5.6370    -1.3150 H     1 <1>   0.0800 
 36 H       -5.3890    -6.5690     1.4780 H     1 <1>   0.0800 
 37 H       -3.7760    -7.5810    -2.2650 H     1 <1>   0.0800 
 38 H       -2.6970    -8.4670    -1.2160 H     1 <1>   0.0800 
 39 H       -7.3580    -8.1020     1.3870 H     1 <1>   0.0800 
 40 H       -7.1960    -6.7160    -1.8120 H     1 <1>   0.1500 
 41 H       -6.9410    -4.8860     2.0400 H     1 <1>   0.1500 
 42 H       -5.5990   -10.5530     1.3300 H     1 <1>   0.0800 
 43 H       -6.8950   -10.2150     2.4410 H     1 <1>   0.0800 
 44 H       -5.4560    -9.2300     2.4720 H     1 <1>   0.0800 
 45 H       -7.2360   -10.3280    -0.6490 H     1 <1>   0.0800 
 46 H       -8.1540    -8.8460    -0.8260 H     1 <1>   0.0800 
 47 H       -8.5370    -9.9680     0.4460 H     1 <1>   0.0800 
 48 H       -9.2930    -5.5240    -2.2340 H     1 <1>   0.1500 
 49 H       -9.0410    -3.7080     1.6100 H     1 <1>   0.1500 
 50 H      -10.2230    -4.0190    -0.5250 H     1 <1>   0.1500 
@<TRIPOS>BOND
  1   1   2  1   
  2   1   3  1   
  3   2   4  2   
  4   2  27  1   
  5   3   5  2   
  6   3  28  1   
  7   4   5  1   
  8   4   6  1   
  9   5  29  1   
 10   6   7  1   
 11   6  30  1   
 12   6  31  1   
 13   7   8  am  
 14   7   9  1   
 15   8  10  2   
 16   8  11  1   
 17   9  32  1   
 18   9  33  1   
 19   9  34  1   
 20  11  12  1   
 21  11  13  1   
 22  11  35  1   
 23  12  14  1   
 24  13  15  1   
 25  13  16  1   
 26  13  36  1   
 27  14  17  1   
 28  14  37  1   
 29  14  38  1   
 30  15  17  am  
 31  15  18  1   
 32  16  19  ar  
 33  16  20  ar  
 34  17  21  2   
 35  18  22  1   
 36  18  23  1   
 37  18  39  1   
 38  19  24  ar  
 39  19  40  1   
 40  20  25  ar  
 41  20  41  1   
 42  22  42  1   
 43  22  43  1   
 44  22  44  1   
 45  23  45  1   
 46  23  46  1   
 47  23  47  1   
 48  24  26  ar  
 49  24  48  1   
 50  25  26  ar  
 51  25  49  1   
 52  26  50  1   
@<TRIPOS>SUBSTRUCTURE
  1 ****  11 GROUP 4 **** **** 0

# MOE 2024.06 (io_trps.svl 2023.06)
