@<TRIPOS>MOLECULE
NONAME
48 51 1 0 0 
SMALL
USER_CHARGES


@<TRIPOS>ATOM
  1 S       -0.9060     0.4180    -1.1530 S.3   1 <1>  -0.0800 
  2 C       -0.5830     1.9660    -0.4010 C.2   1 <1>  -0.1400 
  3 C        0.7500     0.3360    -1.7360 C.2   1 <1>  -0.1100 
  4 C        0.6840     2.3570    -0.5830 C.2   1 <1>  -0.1810 
  5 C       -1.6330     2.7370     0.3510 C.3   1 <1>   0.0200 
  6 C        1.4510     1.4220    -1.3560 C.2   1 <1>  -0.1500 
  7 C        1.1990     3.6740     0.0090 C.3   1 <1>   0.4610 
  8 C       -1.1440     4.1910     0.4410 C.3   1 <1>   0.1200 
  9 O        0.2080     4.2570     0.8350 O.3   1 <1>  -0.5600 
 10 C        2.3970     3.4120     0.9430 C.3   1 <1>  -0.1600 
 11 C        1.5420     4.6730    -1.1090 C.3   1 <1>  -0.1600 
 12 C        3.7430     3.7790     0.3150 C.3   1 <1>   0.1400 
 13 C        2.4510     5.7830    -0.5870 C.3   1 <1>   0.1400 
 14 N        3.7520     5.2080    -0.1230 N.am  1 <1>  -0.6600 
 15 C        4.9230     5.9220    -0.0900 C.2   1 <1>   0.5690 
 16 O        5.9740     5.3990     0.2020 O.2   1 <1>  -0.5700 
 17 C        4.9240     7.4040    -0.4280 C.3   1 <1>  -0.0990 
 18 C        6.2460     8.0820    -0.0720 C.3   1 <1>   0.1200 
 19 O        6.1400     9.4520    -0.3920 O.3   1 <1>  -0.3630 
 20 C        7.1740    10.3030    -0.1760 C.ar  1 <1>   0.0820 
 21 C        8.4010     9.9140     0.3560 C.ar  1 <1>  -0.1500 
 22 C        6.9700    11.6320    -0.5140 C.ar  1 <1>  -0.1500 
 23 C        9.4040    10.8500     0.5430 C.ar  1 <1>  -0.1500 
 24 C        7.9730    12.5670    -0.3270 C.ar  1 <1>  -0.1500 
 25 C        9.1910    12.1750     0.2020 C.ar  1 <1>  -0.1500 
 26 H        1.0270    -0.5300    -2.3100 H     1 <1>   0.1500 
 27 H       -1.7610     2.3230     1.3340 H     1 <1>   0.0800 
 28 H       -2.5730     2.6990    -0.1690 H     1 <1>   0.0800 
 29 H        2.4850     1.6030    -1.5910 H     1 <1>   0.1500 
 30 H       -1.7250     4.7320     1.1670 H     1 <1>   0.0800 
 31 H       -1.2480     4.6770    -0.5120 H     1 <1>   0.0800 
 32 H        2.4130     2.3780     1.2320 H     1 <1>   0.0800 
 33 H        2.2920     3.9920     1.8430 H     1 <1>   0.0800 
 34 H        0.6470     5.0910    -1.5270 H     1 <1>   0.0800 
 35 H        2.0530     4.1670    -1.9070 H     1 <1>   0.0800 
 36 H        3.9390     3.1520    -0.5370 H     1 <1>   0.0800 
 37 H        4.5250     3.6110     1.0360 H     1 <1>   0.0800 
 38 H        1.9730     6.2880     0.2360 H     1 <1>   0.0800 
 39 H        2.6210     6.4950    -1.3750 H     1 <1>   0.0800 
 40 H        4.1350     7.8850     0.1180 H     1 <1>   0.0800 
 41 H        4.7510     7.5130    -1.4820 H     1 <1>   0.0800 
 42 H        7.0560     7.6580    -0.6410 H     1 <1>   0.0800 
 43 H        6.4460     7.9900     0.9820 H     1 <1>   0.0800 
 44 H        8.5950     8.8930     0.6280 H     1 <1>   0.1500 
 45 H        6.0220    11.9270    -0.9250 H     1 <1>   0.1500 
 46 H       10.3510    10.5470     0.9540 H     1 <1>   0.1500 
 47 H        7.8060    13.5960    -0.5920 H     1 <1>   0.1500 
 48 H        9.9720    12.9010     0.3490 H     1 <1>   0.1500 
@<TRIPOS>BOND
  1   1   2  1   
  2   1   3  1   
  3   2   4  2   
  4   2   5  1   
  5   3   6  2   
  6   3  26  1   
  7   4   6  1   
  8   4   7  1   
  9   5   8  1   
 10   5  27  1   
 11   5  28  1   
 12   6  29  1   
 13   7   9  1   
 14   7  10  1   
 15   7  11  1   
 16   8   9  1   
 17   8  30  1   
 18   8  31  1   
 19  10  12  1   
 20  10  32  1   
 21  10  33  1   
 22  11  13  1   
 23  11  34  1   
 24  11  35  1   
 25  12  14  1   
 26  12  36  1   
 27  12  37  1   
 28  13  14  1   
 29  13  38  1   
 30  13  39  1   
 31  14  15  am  
 32  15  16  2   
 33  15  17  1   
 34  17  18  1   
 35  17  40  1   
 36  17  41  1   
 37  18  19  1   
 38  18  42  1   
 39  18  43  1   
 40  19  20  1   
 41  20  21  ar  
 42  20  22  ar  
 43  21  23  ar  
 44  21  44  1   
 45  22  24  ar  
 46  22  45  1   
 47  23  25  ar  
 48  23  46  1   
 49  24  25  ar  
 50  24  47  1   
 51  25  48  1   
@<TRIPOS>SUBSTRUCTURE
  1 ****  14 GROUP 4 **** **** 0

# MOE 2024.06 (io_trps.svl 2023.06)
