@<TRIPOS>MOLECULE
NONAME
41 42 1 0 0 
SMALL
USER_CHARGES


@<TRIPOS>ATOM
  1 F        0.1890    -1.3880     1.7640 F     1 <1>  -0.1900 
  2 C       -0.0890    -2.3400     0.9140 C.ar  1 <1>   0.1900 
  3 C        0.6280    -3.5270     0.9620 C.ar  1 <1>  -0.1440 
  4 C       -1.0960    -2.1190    -0.0030 C.ar  1 <1>  -0.1500 
  5 C        0.3010    -4.5190     0.0500 C.ar  1 <1>  -0.1500 
  6 C        1.7420    -3.7280     1.9800 C.3   1 <1>  -0.0960 
  7 C       -1.4090    -3.1190    -0.9070 C.ar  1 <1>  -0.1500 
  8 C       -0.7170    -4.3250    -0.8770 C.ar  1 <1>  -0.1440 
  9 C       -1.0740    -5.4370    -1.8430 C.3   1 <1>   0.4870 
 10 N       -1.9490    -6.3850    -1.1110 N.4   1 <1>  -0.9590 
 11 C       -1.9460    -7.7400    -1.7020 C.3   1 <1>   0.5230 
 12 C       -3.3430    -5.8430    -0.9650 C.3   1 <1>   0.3430 
 13 C       -2.4840    -8.6640    -0.6420 C.2   1 <1>  -0.3320 
 14 C       -3.7830    -5.7570     0.5010 C.3   1 <1>   0.1200 
 15 N       -1.7750    -9.1950     0.3810 N.pl3 1 <1>   0.0480 
 16 C       -3.7480    -9.1280    -0.5150 C.2   1 <1>   0.0770 
 17 O       -5.0250    -5.1490     0.5240 O.3   1 <1>  -0.6800 
 18 C       -2.6760    -9.9290     1.0700 C.2   1 <1>   0.0360 
 19 C       -0.3360    -9.0830     0.6940 C.3   1 <1>   0.0160 
 20 N       -3.8660    -9.9050     0.5700 N.2   1 <1>  -0.5650 
 21 H       -1.6190    -1.1780    -0.0050 H     1 <1>   0.1500 
 22 H        0.8560    -5.4420     0.0690 H     1 <1>   0.1500 
 23 H        2.4860    -2.9590     1.8640 H     1 <1>   0.0800 
 24 H        2.2200    -4.6830     1.8570 H     1 <1>   0.0800 
 25 H        1.3430    -3.6690     2.9770 H     1 <1>   0.0800 
 26 H       -2.1930    -2.9390    -1.6240 H     1 <1>   0.1500 
 27 H       -0.1690    -5.9270    -2.1640 H     1 <1>   0.0800 
 28 H       -1.5790    -5.0410    -2.7100 H     1 <1>   0.0800 
 29 H       -1.5650    -6.4690    -0.1640 H     1 <1>   0.4500 
 30 H       -0.9490    -8.0420    -1.9770 H     1 <1>   0.0800 
 31 H       -2.5740    -7.7690    -2.5780 H     1 <1>   0.0800 
 32 H       -4.0410    -6.4690    -1.4960 H     1 <1>   0.0800 
 33 H       -3.3960    -4.8520    -1.3830 H     1 <1>   0.0800 
 34 H       -3.1060    -5.1470     1.0760 H     1 <1>   0.0800 
 35 H       -3.8800    -6.7350     0.9420 H     1 <1>   0.0800 
 36 H       -4.6050    -8.9450    -1.1460 H     1 <1>   0.1500 
 37 H       -5.3970    -5.1260     1.4320 H     1 <1>   0.4000 
 38 H       -2.4110   -10.4840     1.9550 H     1 <1>   0.1500 
 39 H        0.2430    -9.3100    -0.1830 H     1 <1>   0.0800 
 40 H       -0.0830    -9.7870     1.4680 H     1 <1>   0.0800 
 41 H       -0.1130    -8.0900     1.0370 H     1 <1>   0.0800 
@<TRIPOS>BOND
  1   1   2  1   
  2   2   3  ar  
  3   2   4  ar  
  4   3   5  ar  
  5   3   6  1   
  6   4   7  ar  
  7   4  21  1   
  8   5   8  ar  
  9   5  22  1   
 10   6  23  1   
 11   6  24  1   
 12   6  25  1   
 13   7   8  ar  
 14   7  26  1   
 15   8   9  1   
 16   9  10  1   
 17   9  27  1   
 18   9  28  1   
 19  10  11  1   
 20  10  12  1   
 21  10  29  1   
 22  11  13  1   
 23  11  30  1   
 24  11  31  1   
 25  12  14  1   
 26  12  32  1   
 27  12  33  1   
 28  13  15  1   
 29  13  16  2   
 30  14  17  1   
 31  14  34  1   
 32  14  35  1   
 33  15  18  1   
 34  15  19  1   
 35  16  20  1   
 36  16  36  1   
 37  17  37  1   
 38  18  20  2   
 39  18  38  1   
 40  19  39  1   
 41  19  40  1   
 42  19  41  1   
@<TRIPOS>SUBSTRUCTURE
  1 ****  10 GROUP 4 **** **** 0

# MOE 2024.06 (io_trps.svl 2023.06)
