@<TRIPOS>MOLECULE
NONAME
65 67 1 0 0 
SMALL
USER_CHARGES


@<TRIPOS>ATOM
  1 O        0.7200    -0.8890     3.0670 O.2   1 <1>  -0.5700 
  2 C        1.3540    -1.6780     2.4090 C.2   1 <1>   0.5690 
  3 N        0.8050    -2.4440     1.4180 N.am  1 <1>  -0.6600 
  4 C        2.8340    -1.8440     2.6860 C.3   1 <1>  -0.0990 
  5 C        1.6410    -3.4180     0.6720 C.3   1 <1>   0.1400 
  6 C       -0.6410    -2.3960     1.0740 C.3   1 <1>   0.0600 
  7 C        3.6250    -1.8760     1.3670 C.3   1 <1>  -0.0800 
  8 C        2.9900    -2.7810     0.2850 C.3   1 <1>  -0.0800 
  9 C        5.0750    -2.3440     1.5460 C.3   1 <1>  -0.1600 
 10 C        4.0560    -3.8240    -0.0740 C.3   1 <1>  -0.1600 
 11 C        5.3800    -3.1540     0.2870 C.3   1 <1>   0.2200 
 12 N        6.5120    -4.1170     0.4630 N.am  1 <1>  -0.6600 
 13 C        7.7340    -4.0310    -0.1890 C.2   1 <1>   0.5690 
 14 C        6.2970    -5.2580     1.4110 C.3   1 <1>   0.0600 
 15 O        8.5580    -4.9050    -0.0060 O.2   1 <1>  -0.5700 
 16 C        8.1440    -2.8890    -1.1810 C.3   1 <1>   0.3410 
 17 O        7.7290    -1.5910    -0.7660 O.3   1 <1>  -0.3630 
 18 C        7.4590    -3.1190    -2.5390 C.3   1 <1>  -0.2400 
 19 C        9.6630    -2.8080    -1.4490 C.3   1 <1>  -0.2400 
 20 C        8.1010    -0.9170     0.3580 C.ar  1 <1>   0.0820 
 21 C        7.8050     0.4480     0.4290 C.ar  1 <1>  -0.1440 
 22 C        8.7390    -1.5380     1.4310 C.ar  1 <1>  -0.1500 
 23 C        8.1490     1.1470     1.5780 C.ar  1 <1>  -0.1500 
 24 C        7.1180     1.2360    -0.6970 C.3   1 <1>   0.0630 
 25 C        9.0780    -0.8280     2.5680 C.ar  1 <1>  -0.1440 
 26 C        8.7780     0.5190     2.6370 C.ar  1 <1>  -0.1500 
 27 C        5.6850     0.7550    -0.9530 C.3   1 <1>  -0.2400 
 28 C        7.9460     1.2450    -1.9880 C.3   1 <1>  -0.2400 
 29 C        9.7670    -1.5240     3.7270 C.3   1 <1>  -0.0970 
 30 H        3.1790    -1.0340     3.3030 H     1 <1>   0.0800 
 31 H        2.9650    -2.7620     3.2290 H     1 <1>   0.0800 
 32 H        1.8010    -4.2730     1.3050 H     1 <1>   0.0800 
 33 H        1.1290    -3.7460    -0.2160 H     1 <1>   0.0800 
 34 H       -0.7600    -2.1070     0.0440 H     1 <1>   0.0800 
 35 H       -1.1530    -1.6790     1.6930 H     1 <1>   0.0800 
 36 H       -1.0850    -3.3630     1.2280 H     1 <1>   0.0800 
 37 H        3.6380    -0.8730     0.9750 H     1 <1>   0.0800 
 38 H        2.8220    -2.1690    -0.5860 H     1 <1>   0.0800 
 39 H        5.1620    -2.9560     2.4230 H     1 <1>   0.0800 
 40 H        5.7410    -1.5060     1.6410 H     1 <1>   0.0800 
 41 H        4.0220    -4.0800    -1.1180 H     1 <1>   0.0800 
 42 H        3.9030    -4.7080     0.5150 H     1 <1>   0.0800 
 43 H        5.5910    -2.4560    -0.4980 H     1 <1>   0.0800 
 44 H        5.4950    -5.0600     2.0970 H     1 <1>   0.0800 
 45 H        7.1920    -5.4330     1.9840 H     1 <1>   0.0800 
 46 H        6.0690    -6.1480     0.8510 H     1 <1>   0.0800 
 47 H        7.7740    -4.0620    -2.9480 H     1 <1>   0.0800 
 48 H        7.7240    -2.3400    -3.2300 H     1 <1>   0.0800 
 49 H        6.3920    -3.1450    -2.4320 H     1 <1>   0.0800 
 50 H       10.0020    -3.7130    -1.9180 H     1 <1>   0.0800 
 51 H       10.2120    -2.6940    -0.5340 H     1 <1>   0.0800 
 52 H        9.8870    -1.9810    -2.0980 H     1 <1>   0.0800 
 53 H        8.9800    -2.5800     1.4100 H     1 <1>   0.1500 
 54 H        7.9310     2.1960     1.6610 H     1 <1>   0.1500 
 55 H        7.0410     2.2620    -0.3830 H     1 <1>   0.0800 
 56 H        9.0320     1.0870     3.5150 H     1 <1>   0.1500 
 57 H        5.6770    -0.2380    -1.3590 H     1 <1>   0.0800 
 58 H        5.1940     1.4110    -1.6490 H     1 <1>   0.0800 
 59 H        5.1330     0.7580    -0.0310 H     1 <1>   0.0800 
 60 H        7.9860     0.2680    -2.4320 H     1 <1>   0.0800 
 61 H        8.9500     1.5640    -1.7740 H     1 <1>   0.0800 
 62 H        7.5150     1.9240    -2.7010 H     1 <1>   0.0800 
 63 H       10.3790    -0.8300     4.2740 H     1 <1>   0.0800 
 64 H       10.3950    -2.3190     3.3680 H     1 <1>   0.0800 
 65 H        9.0290    -1.9370     4.3910 H     1 <1>   0.0800 
@<TRIPOS>BOND
  1   1   2  2   
  2   2   3  am  
  3   2   4  1   
  4   3   5  1   
  5   3   6  1   
  6   4   7  1   
  7   4  30  1   
  8   4  31  1   
  9   5   8  1   
 10   5  32  1   
 11   5  33  1   
 12   6  34  1   
 13   6  35  1   
 14   6  36  1   
 15   7   8  1   
 16   7   9  1   
 17   7  37  1   
 18   8  10  1   
 19   8  38  1   
 20   9  11  1   
 21   9  39  1   
 22   9  40  1   
 23  10  11  1   
 24  10  41  1   
 25  10  42  1   
 26  11  12  1   
 27  11  43  1   
 28  12  13  am  
 29  12  14  1   
 30  13  15  2   
 31  13  16  1   
 32  14  44  1   
 33  14  45  1   
 34  14  46  1   
 35  16  17  1   
 36  16  18  1   
 37  16  19  1   
 38  17  20  1   
 39  18  47  1   
 40  18  48  1   
 41  18  49  1   
 42  19  50  1   
 43  19  51  1   
 44  19  52  1   
 45  20  21  ar  
 46  20  22  ar  
 47  21  23  ar  
 48  21  24  1   
 49  22  25  ar  
 50  22  53  1   
 51  23  26  ar  
 52  23  54  1   
 53  24  27  1   
 54  24  28  1   
 55  24  55  1   
 56  25  26  ar  
 57  25  29  1   
 58  26  56  1   
 59  27  57  1   
 60  27  58  1   
 61  27  59  1   
 62  28  60  1   
 63  28  61  1   
 64  28  62  1   
 65  29  63  1   
 66  29  64  1   
 67  29  65  1   
@<TRIPOS>SUBSTRUCTURE
  1 ****   9 GROUP 4 **** **** 0

# MOE 2024.06 (io_trps.svl 2023.06)
