@<TRIPOS>MOLECULE
NONAME
51 55 1 0 0 
SMALL
USER_CHARGES


@<TRIPOS>ATOM
  1 S       -0.9110     1.2660     2.2420 S.3   1 <1>  -0.0800 
  2 C       -0.3350     2.1060     0.8180 C.2   1 <1>  -0.1400 
  3 C        0.4170     1.9220     3.1890 C.2   1 <1>  -0.1100 
  4 C        0.7780     2.8070     1.0660 C.2   1 <1>  -0.1810 
  5 C       -1.0380     2.0290    -0.5100 C.3   1 <1>   0.0200 
  6 C        1.2090     2.7070     2.4320 C.2   1 <1>  -0.1500 
  7 C        1.4670     3.6080    -0.0410 C.3   1 <1>   0.4610 
  8 C       -0.5360     3.2070    -1.3590 C.3   1 <1>   0.1200 
  9 O        0.8670     3.3250    -1.2920 O.3   1 <1>  -0.5600 
 10 C        1.3710     5.1170     0.2260 C.3   1 <1>  -0.1600 
 11 C        2.9350     3.1860    -0.1720 C.3   1 <1>  -0.1600 
 12 C        2.1230     5.9260    -0.8330 C.3   1 <1>   0.1400 
 13 C        3.6720     4.0220    -1.2190 C.3   1 <1>   0.1400 
 14 N        3.5420     5.4690    -0.8750 N.am  1 <1>  -0.6600 
 15 C        4.6550     6.2310    -0.6010 C.2   1 <1>   0.5690 
 16 O        5.7550     5.7340    -0.5430 O.2   1 <1>  -0.5700 
 17 C        4.5450     7.7350    -0.3400 C.3   1 <1>  -0.0190 
 18 C        5.8490     8.4630    -0.7230 C.3   1 <1>   0.1400 
 19 C        4.1800     8.0230     1.1340 C.3   1 <1>  -0.1600 
 20 N        5.7880     9.8780    -0.3020 N.am  1 <1>  -0.4200 
 21 C        3.9420     9.5280     1.3630 C.3   1 <1>  -0.0990 
 22 C        6.6210    10.8770    -0.6440 C.2   1 <1>   0.6900 
 23 C        5.0130    10.3860     0.7140 C.2   1 <1>   0.4490 
 24 O        7.4970    10.8250    -1.5050 O.2   1 <1>  -0.5700 
 25 N        6.3090    11.9350     0.1520 N.am  1 <1>  -0.2980 
 26 N        5.2860    11.5980     1.0090 N.2   1 <1>  -0.5120 
 27 C        6.9410    13.2660     0.1660 C.3   1 <1>   0.0600 
 28 H        0.4650     1.6460     4.2270 H     1 <1>   0.1500 
 29 H       -2.1020     2.1010    -0.3770 H     1 <1>   0.0800 
 30 H       -0.8100     1.0960    -0.9930 H     1 <1>   0.0800 
 31 H        2.0860     3.2220     2.7820 H     1 <1>   0.1500 
 32 H       -0.9730     4.1280    -1.0150 H     1 <1>   0.0800 
 33 H       -0.8050     3.0630    -2.3900 H     1 <1>   0.0800 
 34 H        1.7970     5.3310     1.1890 H     1 <1>   0.0800 
 35 H        0.3420     5.4190     0.2620 H     1 <1>   0.0800 
 36 H        2.9800     2.1450    -0.4360 H     1 <1>   0.0800 
 37 H        3.4370     3.3040     0.7690 H     1 <1>   0.0800 
 38 H        2.0460     6.9700    -0.5970 H     1 <1>   0.0800 
 39 H        1.6760     5.7690    -1.8000 H     1 <1>   0.0800 
 40 H        3.2460     3.8510    -2.1930 H     1 <1>   0.0800 
 41 H        4.7060     3.7240    -1.2550 H     1 <1>   0.0800 
 42 H        3.7810     8.1280    -0.9850 H     1 <1>   0.0800 
 43 H        6.0110     8.4100    -1.7860 H     1 <1>   0.0800 
 44 H        6.6910     8.0050    -0.2310 H     1 <1>   0.0800 
 45 H        4.9890     7.6910     1.7630 H     1 <1>   0.0800 
 46 H        3.3000     7.4750     1.4200 H     1 <1>   0.0800 
 47 H        3.9080     9.7430     2.4160 H     1 <1>   0.0800 
 48 H        2.9970     9.8100     0.9360 H     1 <1>   0.0800 
 49 H        7.7150    13.3110    -0.5800 H     1 <1>   0.0800 
 50 H        7.3670    13.4460     1.1360 H     1 <1>   0.0800 
 51 H        6.1980    14.0140    -0.0420 H     1 <1>   0.0800 
@<TRIPOS>BOND
  1   1   2  1   
  2   1   3  1   
  3   2   4  2   
  4   2   5  1   
  5   3   6  2   
  6   3  28  1   
  7   4   6  1   
  8   4   7  1   
  9   5   8  1   
 10   5  29  1   
 11   5  30  1   
 12   6  31  1   
 13   7   9  1   
 14   7  10  1   
 15   7  11  1   
 16   8   9  1   
 17   8  32  1   
 18   8  33  1   
 19  10  12  1   
 20  10  34  1   
 21  10  35  1   
 22  11  13  1   
 23  11  36  1   
 24  11  37  1   
 25  12  14  1   
 26  12  38  1   
 27  12  39  1   
 28  13  14  1   
 29  13  40  1   
 30  13  41  1   
 31  14  15  am  
 32  15  16  2   
 33  15  17  1   
 34  17  18  1   
 35  17  19  1   
 36  17  42  1   
 37  18  20  1   
 38  18  43  1   
 39  18  44  1   
 40  19  21  1   
 41  19  45  1   
 42  19  46  1   
 43  20  22  am  
 44  20  23  1   
 45  21  23  1   
 46  21  47  1   
 47  21  48  1   
 48  22  24  2   
 49  22  25  am  
 50  23  26  2   
 51  25  26  1   
 52  25  27  1   
 53  27  49  1   
 54  27  50  1   
 55  27  51  1   
@<TRIPOS>SUBSTRUCTURE
  1 ****  14 GROUP 4 **** **** 0

# MOE 2024.06 (io_trps.svl 2023.06)
