@<TRIPOS>MOLECULE
NONAME
40 41 1 0 0 
SMALL
USER_CHARGES


@<TRIPOS>ATOM
  1 O        2.1510     0.0140     0.3500 O.co2 1 <1>  -0.9000 
  2 C        1.5820    -0.9120    -0.2220 C.2   1 <1>   0.9060 
  3 O        1.2690    -0.9120    -1.4230 O.co2 1 <1>  -0.9000 
  4 C        1.1400    -2.1450     0.5690 C.3   1 <1>   0.2370 
  5 N        0.0510    -2.8780    -0.1870 N.4   1 <1>  -0.9590 
  6 C       -0.0070    -4.3580     0.0340 C.3   1 <1>   0.3430 
  7 C       -1.2760    -2.2110    -0.0080 C.3   1 <1>   0.3430 
  8 C       -1.1980    -5.0120    -0.7010 C.3   1 <1>   0.3440 
  9 C       -2.3940    -2.9650    -0.7640 C.3   1 <1>   0.2000 
 10 O       -2.3860    -4.3250    -0.4070 O.3   1 <1>  -0.5600 
 11 C       -1.3290    -6.4670    -0.2700 C.ar  1 <1>  -0.1440 
 12 C       -3.7960    -2.3770    -0.4850 C.3   1 <1>  -0.0800 
 13 C       -0.7230    -7.4640    -1.0220 C.ar  1 <1>  -0.1500 
 14 C       -2.0300    -6.8170     0.8760 C.ar  1 <1>  -0.1500 
 15 C       -4.2150    -2.4810     0.9930 C.3   1 <1>  -0.2400 
 16 C       -4.8590    -3.0520    -1.3650 C.3   1 <1>  -0.2400 
 17 C       -0.8110    -8.7890    -0.6300 C.ar  1 <1>  -0.1500 
 18 C       -2.1180    -8.1410     1.2690 C.ar  1 <1>  -0.1500 
 19 C       -1.5060    -9.1280     0.5170 C.ar  1 <1>  -0.1500 
 20 H        0.7990    -1.8310     1.5380 H     1 <1>   0.0800 
 21 H        2.0040    -2.7720     0.6860 H     1 <1>   0.0800 
 22 H        0.3300    -2.6450    -1.1690 H     1 <1>   0.4500 
 23 H        0.9090    -4.8160    -0.2980 H     1 <1>   0.0800 
 24 H       -0.1140    -4.5610     1.0860 H     1 <1>   0.0800 
 25 H       -1.5250    -2.1780     1.0380 H     1 <1>   0.0800 
 26 H       -1.2200    -1.1970    -0.3710 H     1 <1>   0.0800 
 27 H       -1.0450    -4.9660    -1.7660 H     1 <1>   0.0800 
 28 H       -2.2030    -2.8980    -1.8220 H     1 <1>   0.0800 
 29 H       -3.7750    -1.3330    -0.7520 H     1 <1>   0.0800 
 30 H       -0.1800    -7.2250    -1.9200 H     1 <1>   0.1500 
 31 H       -2.5180    -6.0610     1.4680 H     1 <1>   0.1500 
 32 H       -4.2330    -3.5100     1.3080 H     1 <1>   0.0800 
 33 H       -5.2020    -2.0720     1.1260 H     1 <1>   0.0800 
 34 H       -3.5450    -1.9340     1.6310 H     1 <1>   0.0800 
 35 H       -4.9400    -4.0990    -1.1260 H     1 <1>   0.0800 
 36 H       -4.6020    -2.9600    -2.4060 H     1 <1>   0.0800 
 37 H       -5.8200    -2.5930    -1.2140 H     1 <1>   0.0800 
 38 H       -0.3410    -9.5590    -1.2170 H     1 <1>   0.1500 
 39 H       -2.6650    -8.4050     2.1570 H     1 <1>   0.1500 
 40 H       -1.5760   -10.1580     0.8210 H     1 <1>   0.1500 
@<TRIPOS>BOND
  1   1   2  ar  
  2   2   3  ar  
  3   2   4  1   
  4   4   5  1   
  5   4  20  1   
  6   4  21  1   
  7   5   6  1   
  8   5   7  1   
  9   5  22  1   
 10   6   8  1   
 11   6  23  1   
 12   6  24  1   
 13   7   9  1   
 14   7  25  1   
 15   7  26  1   
 16   8  10  1   
 17   8  11  1   
 18   8  27  1   
 19   9  10  1   
 20   9  12  1   
 21   9  28  1   
 22  11  13  ar  
 23  11  14  ar  
 24  12  15  1   
 25  12  16  1   
 26  12  29  1   
 27  13  17  ar  
 28  13  30  1   
 29  14  18  ar  
 30  14  31  1   
 31  15  32  1   
 32  15  33  1   
 33  15  34  1   
 34  16  35  1   
 35  16  36  1   
 36  16  37  1   
 37  17  19  ar  
 38  17  38  1   
 39  18  19  ar  
 40  18  39  1   
 41  19  40  1   
@<TRIPOS>SUBSTRUCTURE
  1 ****   8 GROUP 4 **** **** 0

# MOE 2024.06 (io_trps.svl 2023.06)
