@<TRIPOS>MOLECULE
NONAME
47 49 1 0 0 
SMALL
USER_CHARGES


@<TRIPOS>ATOM
  1 S       -1.0570    -0.4580     2.3770 S.3   1 <1>  -0.0800 
  2 C       -1.9970     0.3550     1.1330 C.2   1 <1>  -0.1400 
  3 C        0.3680     0.4800     1.9790 C.2   1 <1>  -0.1100 
  4 C       -1.2370     1.2610     0.4840 C.2   1 <1>  -0.1810 
  5 C       -3.4440    -0.0730     0.9940 C.3   1 <1>   0.3200 
  6 C        0.1080     1.3310     0.9710 C.2   1 <1>  -0.1500 
  7 C       -1.6700     2.1600    -0.6610 C.3   1 <1>  -0.0590 
  8 N       -3.4770    -1.4230     0.4130 N.am  1 <1>  -0.7300 
  9 C       -4.3930    -1.8640    -0.4860 C.2   1 <1>   0.5690 
 10 O       -5.3330    -1.1770    -0.8040 O.2   1 <1>  -0.5700 
 11 C       -4.2250    -3.2570    -1.0980 C.3   1 <1>   0.2610 
 12 O       -2.8510    -3.6040    -1.1510 O.3   1 <1>  -0.5600 
 13 C       -5.0360    -4.2890    -0.2730 C.3   1 <1>   0.3640 
 14 C       -2.6080    -4.8440    -1.7690 C.3   1 <1>   0.1810 
 15 N       -4.5400    -5.7000    -0.4240 N.am  1 <1>  -0.6600 
 16 C       -6.5240    -4.2290    -0.6470 C.ar  1 <1>  -0.1430 
 17 C       -3.4000    -5.9840    -1.1290 C.2   1 <1>   0.5690 
 18 C       -5.3110    -6.7540     0.2990 C.3   1 <1>   0.0600 
 19 C       -7.4910    -3.7000     0.2080 C.ar  1 <1>  -0.1430 
 20 C       -6.9180    -4.7230    -1.8860 C.ar  1 <1>  -0.1500 
 21 O       -2.9960    -7.1130    -1.2790 O.2   1 <1>  -0.5700 
 22 C       -8.8190    -3.6750    -0.1940 C.ar  1 <1>  -0.1500 
 23 C       -7.1500    -3.1350     1.5820 C.3   1 <1>  -0.0970 
 24 C       -8.2430    -4.6940    -2.2770 C.ar  1 <1>  -0.1500 
 25 C       -9.1960    -4.1680    -1.4280 C.ar  1 <1>  -0.1500 
 26 H        1.2610     0.2930     2.5490 H     1 <1>   0.1500 
 27 H       -3.9800     0.6120     0.3610 H     1 <1>   0.0800 
 28 H       -3.9160    -0.0840     1.9610 H     1 <1>   0.0800 
 29 H        0.8180     2.0170     0.5410 H     1 <1>   0.1500 
 30 H       -1.0420     1.9860    -1.5160 H     1 <1>   0.0800 
 31 H       -1.5830     3.1910    -0.3690 H     1 <1>   0.0800 
 32 H       -2.6880     1.9660    -0.9430 H     1 <1>   0.0800 
 33 H       -2.6060    -1.9540     0.5210 H     1 <1>   0.3700 
 34 H       -4.5950    -3.2220    -2.1060 H     1 <1>   0.0800 
 35 H       -4.9120    -4.0320     0.7620 H     1 <1>   0.0800 
 36 H       -2.8630    -4.7660    -2.8100 H     1 <1>   0.0800 
 37 H       -1.5570    -5.0510    -1.6840 H     1 <1>   0.0800 
 38 H       -5.4770    -6.4530     1.3180 H     1 <1>   0.0800 
 39 H       -4.7730    -7.6860     0.2990 H     1 <1>   0.0800 
 40 H       -6.2610    -6.9080    -0.1820 H     1 <1>   0.0800 
 41 H       -6.1900    -5.1440    -2.5570 H     1 <1>   0.1500 
 42 H       -9.5750    -3.2660     0.4530 H     1 <1>   0.1500 
 43 H       -8.0330    -2.7800     2.0820 H     1 <1>   0.0800 
 44 H       -6.4720    -2.3060     1.4850 H     1 <1>   0.0800 
 45 H       -6.7020    -3.8940     2.1960 H     1 <1>   0.0800 
 46 H       -8.5310    -5.0810    -3.2390 H     1 <1>   0.1500 
 47 H      -10.2290    -4.1410    -1.7270 H     1 <1>   0.1500 
@<TRIPOS>BOND
  1   1   2  1   
  2   1   3  1   
  3   2   4  2   
  4   2   5  1   
  5   3   6  2   
  6   3  26  1   
  7   4   6  1   
  8   4   7  1   
  9   5   8  1   
 10   5  27  1   
 11   5  28  1   
 12   6  29  1   
 13   7  30  1   
 14   7  31  1   
 15   7  32  1   
 16   8   9  am  
 17   8  33  1   
 18   9  10  2   
 19   9  11  1   
 20  11  12  1   
 21  11  13  1   
 22  11  34  1   
 23  12  14  1   
 24  13  15  1   
 25  13  16  1   
 26  13  35  1   
 27  14  17  1   
 28  14  36  1   
 29  14  37  1   
 30  15  17  am  
 31  15  18  1   
 32  16  19  ar  
 33  16  20  ar  
 34  17  21  2   
 35  18  38  1   
 36  18  39  1   
 37  18  40  1   
 38  19  22  ar  
 39  19  23  1   
 40  20  24  ar  
 41  20  41  1   
 42  22  25  ar  
 43  22  42  1   
 44  23  43  1   
 45  23  44  1   
 46  23  45  1   
 47  24  25  ar  
 48  24  46  1   
 49  25  47  1   
@<TRIPOS>SUBSTRUCTURE
  1 ****   9 GROUP 4 **** **** 0

# MOE 2024.06 (io_trps.svl 2023.06)
