@<TRIPOS>MOLECULE
NONAME
58 61 1 0 0 
SMALL
USER_CHARGES


@<TRIPOS>ATOM
  1 S        0.3130     0.3950     1.9290 S.o2  1 <1>   1.4470 
  2 O       -0.2260    -0.2640     3.0990 O.2   1 <1>  -0.6500 
  3 O        0.7030     1.7870     2.0140 O.2   1 <1>  -0.6500 
  4 N       -0.8560     0.2840     0.7070 N.am  1 <1>  -0.8490 
  5 C        1.6820    -0.5980     1.2730 C.ar  1 <1>  -0.0090 
  6 C       -2.1730     0.7320     1.1870 C.3   1 <1>   0.1960 
  7 C       -0.4770     1.0420    -0.4900 C.3   1 <1>   0.1960 
  8 C        2.9640    -0.0760     1.1550 C.ar  1 <1>  -0.1500 
  9 C        1.4840    -1.9160     0.8800 C.ar  1 <1>  -0.1500 
 10 C       -3.2790     0.4400     0.1540 C.3   1 <1>   0.0000 
 11 C       -1.4730     0.7790    -1.6230 C.3   1 <1>  -0.1600 
 12 C        4.0060    -0.8320     0.6450 C.ar  1 <1>  -0.1430 
 13 C        2.5200    -2.6760     0.3670 C.ar  1 <1>  -0.1500 
 14 C       -4.6480     0.8910     0.6960 C.3   1 <1>   0.2000 
 15 C       -2.9110     1.1120    -1.1960 C.3   1 <1>  -0.1600 
 16 C       -3.5160    -1.0700    -0.0350 C.3   1 <1>  -0.1600 
 17 C        3.7920    -2.1370     0.2110 C.ar  1 <1>   0.1170 
 18 C        5.4180    -0.2780     0.5870 C.3   1 <1>  -0.0170 
 19 O       -4.8410     2.2650     0.5410 O.3   1 <1>  -0.5600 
 20 C       -5.6840     0.0820    -0.0880 C.3   1 <1>  -0.1600 
 21 C       -4.9670    -1.2080    -0.5120 C.3   1 <1>  -0.1600 
 22 N        4.8600    -2.8760    -0.3490 N.am  1 <1>  -0.4770 
 23 C        6.3580    -1.3870     1.0680 C.3   1 <1>  -0.1600 
 24 C       -5.9090     2.7950     1.2610 C.3   1 <1>   0.0400 
 25 C        4.7840    -3.6840    -1.4670 C.2   1 <1>   0.5690 
 26 C        6.2360    -2.6520     0.2010 C.3   1 <1>   0.1400 
 27 O        5.6840    -4.4250    -1.7840 O.2   1 <1>  -0.5700 
 28 C        3.5810    -3.6470    -2.3850 C.3   1 <1>  -0.1790 
 29 H       -2.4170     0.2230     2.1050 H     1 <1>   0.0800 
 30 H       -2.1440     1.7890     1.3960 H     1 <1>   0.0800 
 31 H       -0.4530     2.0970    -0.2660 H     1 <1>   0.0800 
 32 H        0.5070     0.7450    -0.8150 H     1 <1>   0.0800 
 33 H        3.1450     0.9360     1.4770 H     1 <1>   0.1500 
 34 H        0.5020    -2.3490     0.9830 H     1 <1>   0.1500 
 35 H       -1.2060     1.3810    -2.4730 H     1 <1>   0.0800 
 36 H       -1.3970    -0.2510    -1.9230 H     1 <1>   0.0800 
 37 H        2.3370    -3.6990     0.0950 H     1 <1>   0.1500 
 38 H       -4.7120     0.6450     1.7430 H     1 <1>   0.0800 
 39 H       -3.6000     0.8230    -1.9690 H     1 <1>   0.0800 
 40 H       -2.9800     2.1810    -1.0890 H     1 <1>   0.0800 
 41 H       -2.8240    -1.5260    -0.7190 H     1 <1>   0.0800 
 42 H       -3.4180    -1.5670     0.9150 H     1 <1>   0.0800 
 43 H        5.6570     0.0040    -0.4230 H     1 <1>   0.0800 
 44 H        5.5160     0.5860     1.2210 H     1 <1>   0.0800 
 45 H       -6.5410    -0.1360     0.5230 H     1 <1>   0.0800 
 46 H       -5.9890     0.6280    -0.9640 H     1 <1>   0.0800 
 47 H       -5.4300    -2.0770    -0.0770 H     1 <1>   0.0800 
 48 H       -4.9950    -1.3010    -1.5850 H     1 <1>   0.0800 
 49 H        6.1090    -1.6400     2.0840 H     1 <1>   0.0800 
 50 H        7.3770    -1.0430     1.0590 H     1 <1>   0.0800 
 51 H       -5.9370     3.8560     1.0810 H     1 <1>   0.0800 
 52 H       -5.7590     2.6100     2.3100 H     1 <1>   0.0800 
 53 H       -6.8270     2.3480     0.9230 H     1 <1>   0.0800 
 54 H        6.5320    -3.5170     0.7700 H     1 <1>   0.0800 
 55 H        6.9170    -2.5580    -0.6270 H     1 <1>   0.0800 
 56 H        3.1380    -2.6690    -2.3940 H     1 <1>   0.0800 
 57 H        2.8600    -4.3750    -2.0680 H     1 <1>   0.0800 
 58 H        3.8910    -3.8870    -3.3850 H     1 <1>   0.0800 
@<TRIPOS>BOND
  1   1   2  2   
  2   1   3  2   
  3   1   4  am  
  4   1   5  1   
  5   4   6  1   
  6   4   7  1   
  7   5   8  ar  
  8   5   9  ar  
  9   6  10  1   
 10   6  29  1   
 11   6  30  1   
 12   7  11  1   
 13   7  31  1   
 14   7  32  1   
 15   8  12  ar  
 16   8  33  1   
 17   9  13  ar  
 18   9  34  1   
 19  10  14  1   
 20  10  15  1   
 21  10  16  1   
 22  11  15  1   
 23  11  35  1   
 24  11  36  1   
 25  12  17  ar  
 26  12  18  1   
 27  13  17  ar  
 28  13  37  1   
 29  14  19  1   
 30  14  20  1   
 31  14  38  1   
 32  15  39  1   
 33  15  40  1   
 34  16  21  1   
 35  16  41  1   
 36  16  42  1   
 37  17  22  1   
 38  18  23  1   
 39  18  43  1   
 40  18  44  1   
 41  19  24  1   
 42  20  21  1   
 43  20  45  1   
 44  20  46  1   
 45  21  47  1   
 46  21  48  1   
 47  22  25  am  
 48  22  26  1   
 49  23  26  1   
 50  23  49  1   
 51  23  50  1   
 52  24  51  1   
 53  24  52  1   
 54  24  53  1   
 55  25  27  2   
 56  25  28  1   
 57  26  54  1   
 58  26  55  1   
 59  28  56  1   
 60  28  57  1   
 61  28  58  1   
@<TRIPOS>SUBSTRUCTURE
  1 ****   5 GROUP 4 **** **** 0

# MOE 2024.06 (io_trps.svl 2023.06)
