@<TRIPOS>MOLECULE
NONAME
47 50 1 0 0 
SMALL
USER_CHARGES


@<TRIPOS>ATOM
  1 S       -0.4360     0.1210    -0.5380 S.o2  1 <1>   1.0900 
  2 O        0.9140     0.4750    -0.9080 O.2   1 <1>  -0.6500 
  3 O       -1.3290     1.1420    -0.0400 O.2   1 <1>  -0.6500 
  4 C       -0.3390    -1.2100     0.6650 C.3   1 <1>   0.0890 
  5 C       -1.2050    -0.6290    -1.9630 C.3   1 <1>  -0.1350 
  6 C       -1.6400    -1.9860     0.8170 C.ar  1 <1>  -0.1440 
  7 C       -1.7410    -3.2970     0.3780 C.ar  1 <1>   0.1600 
  8 C       -2.7510    -1.3910     1.3810 C.ar  1 <1>  -0.1500 
  9 N       -2.8330    -4.0350     0.4400 N.ar  1 <1>  -0.6200 
 10 C       -3.8930    -2.1520     1.4590 C.ar  1 <1>  -0.1500 
 11 C       -3.9050    -3.4590     0.9750 C.ar  1 <1>   0.4100 
 12 N       -5.0650    -4.2130     1.0380 N.pl3 1 <1>  -0.8380 
 13 C       -4.9620    -5.7020     1.0590 C.3   1 <1>   0.2090 
 14 C       -6.3530    -3.6210     0.5750 C.3   1 <1>   0.2090 
 15 C       -6.3140    -6.3130     1.4180 C.3   1 <1>  -0.1600 
 16 C       -7.0830    -4.6070    -0.3310 C.3   1 <1>  -0.1600 
 17 C       -7.4220    -5.8980     0.4320 C.3   1 <1>   0.4600 
 18 O       -8.5660    -5.6550     1.2310 O.3   1 <1>  -0.5600 
 19 C       -7.7410    -7.0380    -0.5330 C.2   1 <1>  -0.1400 
 20 C       -9.8400    -5.7540     0.6370 C.3   1 <1>   0.1200 
 21 S       -6.5320    -7.7480    -1.5920 S.3   1 <1>  -0.0800 
 22 C       -8.9260    -7.6390    -0.6980 C.2   1 <1>  -0.1810 
 23 C      -10.1140    -7.1770     0.1140 C.3   1 <1>   0.0210 
 24 C       -7.7140    -8.8810    -2.2340 C.2   1 <1>  -0.1100 
 25 C       -8.9200    -8.6950    -1.6630 C.2   1 <1>  -0.1500 
 26 H       -0.0650    -0.8020     1.6200 H     1 <1>   0.0800 
 27 H        0.4410    -1.8870     0.3760 H     1 <1>   0.0800 
 28 H       -1.2850     0.0910    -2.7550 H     1 <1>   0.0800 
 29 H       -2.1930    -0.9740    -1.7240 H     1 <1>   0.0800 
 30 H       -0.6230    -1.4570    -2.3170 H     1 <1>   0.0800 
 31 H       -0.8780    -3.7750    -0.0540 H     1 <1>   0.1500 
 32 H       -2.7340    -0.3760     1.7450 H     1 <1>   0.1500 
 33 H       -4.7850    -1.7510     1.8980 H     1 <1>   0.1500 
 34 H       -4.2230    -5.9950     1.7850 H     1 <1>   0.0800 
 35 H       -4.6390    -6.0510     0.0920 H     1 <1>   0.0800 
 36 H       -6.1630    -2.7110     0.0320 H     1 <1>   0.0800 
 37 H       -6.9640    -3.3900     1.4310 H     1 <1>   0.0800 
 38 H       -6.5640    -5.9860     2.4110 H     1 <1>   0.0800 
 39 H       -6.2230    -7.3830     1.4390 H     1 <1>   0.0800 
 40 H       -6.4390    -4.8320    -1.1610 H     1 <1>   0.0800 
 41 H       -7.9700    -4.1570    -0.7320 H     1 <1>   0.0800 
 42 H       -9.8980    -5.0460    -0.1700 H     1 <1>   0.0800 
 43 H      -10.5690    -5.4860     1.3810 H     1 <1>   0.0800 
 44 H      -10.9990    -7.1690    -0.4950 H     1 <1>   0.0800 
 45 H      -10.2730    -7.8460     0.9410 H     1 <1>   0.0800 
 46 H       -7.3750    -9.5760    -2.9810 H     1 <1>   0.1500 
 47 H       -9.8100    -9.2590    -1.8790 H     1 <1>   0.1500 
@<TRIPOS>BOND
  1   1   2  2   
  2   1   3  2   
  3   1   4  1   
  4   1   5  1   
  5   4   6  1   
  6   4  26  1   
  7   4  27  1   
  8   5  28  1   
  9   5  29  1   
 10   5  30  1   
 11   6   7  ar  
 12   6   8  ar  
 13   7   9  ar  
 14   7  31  1   
 15   8  10  ar  
 16   8  32  1   
 17   9  11  ar  
 18  10  11  ar  
 19  10  33  1   
 20  11  12  1   
 21  12  13  1   
 22  12  14  1   
 23  13  15  1   
 24  13  34  1   
 25  13  35  1   
 26  14  16  1   
 27  14  36  1   
 28  14  37  1   
 29  15  17  1   
 30  15  38  1   
 31  15  39  1   
 32  16  17  1   
 33  16  40  1   
 34  16  41  1   
 35  17  18  1   
 36  17  19  1   
 37  18  20  1   
 38  19  21  1   
 39  19  22  2   
 40  20  23  1   
 41  20  42  1   
 42  20  43  1   
 43  21  24  1   
 44  22  23  1   
 45  22  25  1   
 46  23  44  1   
 47  23  45  1   
 48  24  25  2   
 49  24  46  1   
 50  25  47  1   
@<TRIPOS>SUBSTRUCTURE
  1 ****  12 GROUP 4 **** **** 0

# MOE 2024.06 (io_trps.svl 2023.06)
