@<TRIPOS>MOLECULE
NONAME
33 33 1 0 0 
SMALL
USER_CHARGES


@<TRIPOS>ATOM
  1 O       -0.1220     0.2900    -0.5400 O.2   1 <1>  -0.5700 
  2 C       -1.1380     0.8740    -0.2180 C.2   1 <1>   0.7800 
  3 O       -2.2410     0.2120     0.1410 O.3   1 <1>  -0.4300 
  4 N       -1.2180     2.2300    -0.2110 N.am  1 <1>  -0.5100 
  5 C       -2.4120    -1.1860     0.2130 C.3   1 <1>   0.2800 
  6 C       -2.4480     3.0020    -0.5650 C.3   1 <1>   0.2250 
  7 C       -0.4000     3.1220    -1.0930 C.3   1 <1>   0.2250 
  8 C       -2.2360    -1.8150    -1.1740 C.3   1 <1>  -0.2400 
  9 C       -3.8550    -1.3880     0.6780 C.3   1 <1>  -0.2400 
 10 C       -1.4580    -1.7850     1.2530 C.3   1 <1>  -0.2400 
 11 C       -1.5280     4.1730    -0.9800 C.3   1 <1>   0.0000 
 12 C       -1.3000     5.2100     0.1300 C.3   1 <1>   0.2000 
 13 O       -0.2550     6.0300    -0.2400 O.3   1 <1>  -0.6800 
 14 C       -2.5110     6.1110     0.3630 C.3   1 <1>  -0.2400 
 15 H       -2.9720     2.5490    -1.3880 H     1 <1>   0.0000 
 16 H       -3.0620     3.1970     0.2970 H     1 <1>   0.0000 
 17 H        0.5270     3.4080    -0.6290 H     1 <1>   0.0000 
 18 H       -0.2920     2.7060    -2.0800 H     1 <1>   0.0000 
 19 H       -2.5020    -2.8560    -1.1410 H     1 <1>   0.0800 
 20 H       -1.2140    -1.7530    -1.5020 H     1 <1>   0.0800 
 21 H       -2.8680    -1.3240    -1.8910 H     1 <1>   0.0800 
 22 H       -4.0780    -2.4360     0.7630 H     1 <1>   0.0800 
 23 H       -4.5390    -0.9530    -0.0280 H     1 <1>   0.0800 
 24 H       -4.0040    -0.9310     1.6390 H     1 <1>   0.0800 
 25 H       -1.6870    -2.8240     1.4060 H     1 <1>   0.0800 
 26 H       -1.5590    -1.2720     2.1930 H     1 <1>   0.0800 
 27 H       -0.4370    -1.7230     0.9250 H     1 <1>   0.0800 
 28 H       -1.8130     4.6070    -1.9230 H     1 <1>   0.0000 
 29 H       -1.0170     4.7210     1.0480 H     1 <1>   0.0800 
 30 H       -0.5070     6.5690    -1.0140 H     1 <1>   0.4000 
 31 H       -2.8030     6.6070    -0.5460 H     1 <1>   0.0800 
 32 H       -2.2820     6.8460     1.1150 H     1 <1>   0.0800 
 33 H       -3.3430     5.5280     0.7130 H     1 <1>   0.0800 
@<TRIPOS>BOND
  1   1   2  2   
  2   2   3  1   
  3   2   4  am  
  4   3   5  1   
  5   4   6  1   
  6   4   7  1   
  7   5   8  1   
  8   5   9  1   
  9   5  10  1   
 10   6  11  1   
 11   6  15  1   
 12   6  16  1   
 13   7  11  1   
 14   7  17  1   
 15   7  18  1   
 16   8  19  1   
 17   8  20  1   
 18   8  21  1   
 19   9  22  1   
 20   9  23  1   
 21   9  24  1   
 22  10  25  1   
 23  10  26  1   
 24  10  27  1   
 25  11  12  1   
 26  11  28  1   
 27  12  13  1   
 28  12  14  1   
 29  12  29  1   
 30  13  30  1   
 31  14  31  1   
 32  14  32  1   
 33  14  33  1   
@<TRIPOS>SUBSTRUCTURE
  1 ****   4 GROUP 4 **** **** 0

# MOE 2024.06 (io_trps.svl 2023.06)
