@<TRIPOS>MOLECULE
NONAME
50 52 1 0 0 
SMALL
USER_CHARGES


@<TRIPOS>ATOM
  1 O        1.2450     0.8930     1.1250 O.2   1 <1>  -0.5700 
  2 C        1.8930     0.0420     0.5600 C.2   1 <1>   0.6300 
  3 N        3.0640     0.3510    -0.0860 N.am  1 <1>  -0.6600 
  4 C        1.3660    -1.4010     0.6090 C.3   1 <1>  -0.0950 
  5 C        4.0060    -0.6350    -0.7080 C.3   1 <1>   0.1400 
  6 C        3.4880     1.7690    -0.2370 C.3   1 <1>   0.1400 
  7 C       -0.0840    -1.6240     0.2890 C.3   1 <1>  -0.2000 
  8 C        0.9730    -2.1040    -0.6590 C.3   1 <1>  -0.2000 
  9 C        1.9560    -2.2100     1.7720 C.3   1 <1>  -0.1450 
 10 C        5.2970    -0.8170     0.1080 C.3   1 <1>   0.1400 
 11 C        4.2880     2.2470     0.9810 C.3   1 <1>  -0.1600 
 12 N        5.9720     0.4810     0.4210 N.am  1 <1>  -0.6600 
 13 C        5.3220     1.2500     1.5200 C.3   1 <1>   0.1400 
 14 C        7.0570     0.9030    -0.3040 C.2   1 <1>   0.5690 
 15 O        7.4640     0.2680    -1.2490 O.2   1 <1>  -0.5700 
 16 C        7.7660     2.1990     0.0670 C.3   1 <1>  -0.0990 
 17 C        8.9910     2.5120    -0.8040 C.3   1 <1>  -0.0170 
 18 C        9.6330     3.8190    -0.3640 C.ar  1 <1>  -0.1440 
 19 C       10.5730     3.8240     0.6560 C.ar  1 <1>  -0.1500 
 20 C        9.2820     5.0140    -0.9770 C.ar  1 <1>  -0.1500 
 21 C       11.1570     5.0110     1.0620 C.ar  1 <1>  -0.1500 
 22 C        9.8640     6.2040    -0.5760 C.ar  1 <1>  -0.1500 
 23 C       10.8020     6.1970     0.4450 C.ar  1 <1>   0.0820 
 24 O       11.3760     7.3420     0.8440 O.3   1 <1>  -0.5330 
 25 H        4.2680    -0.3000    -1.6970 H     1 <1>   0.0800 
 26 H        3.5360    -1.5930    -0.8150 H     1 <1>   0.0800 
 27 H        2.6200     2.3940    -0.3660 H     1 <1>   0.0800 
 28 H        4.0920     1.8680    -1.1240 H     1 <1>   0.0800 
 29 H       -0.6820    -0.7710     0.0160 H     1 <1>   0.1000 
 30 H       -0.6410    -2.3470     0.8580 H     1 <1>   0.1000 
 31 H        1.1390    -3.1630    -0.7480 H     1 <1>   0.1000 
 32 H        1.0800    -1.5880    -1.5980 H     1 <1>   0.1000 
 33 H        1.7500    -1.7090     2.7010 H     1 <1>   0.0800 
 34 H        3.0190    -2.3060     1.6600 H     1 <1>   0.0800 
 35 H        1.5240    -3.1940     1.8110 H     1 <1>   0.0800 
 36 H        5.9670    -1.4520    -0.4460 H     1 <1>   0.0800 
 37 H        5.0710    -1.3290     1.0260 H     1 <1>   0.0800 
 38 H        3.5970     2.4790     1.7720 H     1 <1>   0.0800 
 39 H        4.7790     3.1670     0.7240 H     1 <1>   0.0800 
 40 H        4.8210     0.5590     2.1780 H     1 <1>   0.0800 
 41 H        6.0590     1.7670     2.1090 H     1 <1>   0.0800 
 42 H        8.0830     2.1320     1.0910 H     1 <1>   0.0800 
 43 H        7.0680     3.0090    -0.0200 H     1 <1>   0.0800 
 44 H        8.6950     2.5800    -1.8370 H     1 <1>   0.0800 
 45 H        9.7070     1.7120    -0.7250 H     1 <1>   0.0800 
 46 H       10.8550     2.9040     1.1380 H     1 <1>   0.1500 
 47 H        8.5550     5.0190    -1.7700 H     1 <1>   0.1500 
 48 H       11.8870     5.0240     1.8510 H     1 <1>   0.1500 
 49 H        9.5880     7.1230    -1.0570 H     1 <1>   0.1500 
 50 H       11.0700     8.1170     0.3410 H     1 <1>   0.4500 
@<TRIPOS>BOND
  1   1   2  2   
  2   2   3  am  
  3   2   4  1   
  4   3   5  1   
  5   3   6  1   
  6   4   7  1   
  7   4   8  1   
  8   4   9  1   
  9   5  10  1   
 10   5  25  1   
 11   5  26  1   
 12   6  11  1   
 13   6  27  1   
 14   6  28  1   
 15   7   8  1   
 16   7  29  1   
 17   7  30  1   
 18   8  31  1   
 19   8  32  1   
 20   9  33  1   
 21   9  34  1   
 22   9  35  1   
 23  10  12  1   
 24  10  36  1   
 25  10  37  1   
 26  11  13  1   
 27  11  38  1   
 28  11  39  1   
 29  12  13  1   
 30  12  14  am  
 31  13  40  1   
 32  13  41  1   
 33  14  15  2   
 34  14  16  1   
 35  16  17  1   
 36  16  42  1   
 37  16  43  1   
 38  17  18  1   
 39  17  44  1   
 40  17  45  1   
 41  18  19  ar  
 42  18  20  ar  
 43  19  21  ar  
 44  19  46  1   
 45  20  22  ar  
 46  20  47  1   
 47  21  23  ar  
 48  21  48  1   
 49  22  23  ar  
 50  22  49  1   
 51  23  24  1   
 52  24  50  1   
@<TRIPOS>SUBSTRUCTURE
  1 ****  12 GROUP 4 **** **** 0

# MOE 2024.06 (io_trps.svl 2023.06)
