@<TRIPOS>MOLECULE
NONAME
52 54 1 0 0 
SMALL
USER_CHARGES


@<TRIPOS>ATOM
  1 O        1.6260    -0.6860    -1.6700 O.3   1 <1>  -0.0190 
  2 N        1.8380     0.5630    -1.3830 N.2   1 <1>  -0.4100 
  3 C        1.7190    -1.4520    -0.6150 C.2   1 <1>  -0.0400 
  4 C        2.0850     0.6070    -0.1200 C.2   1 <1>   0.1080 
  5 C        2.0230    -0.6710     0.4330 C.2   1 <1>  -0.1500 
  6 C        1.4990    -2.9490    -0.7440 C.3   1 <1>   0.2900 
  7 C        2.4020     1.8730     0.6690 C.3   1 <1>   0.1010 
  8 N        0.0610    -3.3050    -0.7130 N.3   1 <1>  -0.8100 
  9 C        1.2210     2.8590     0.6270 C.3   1 <1>  -0.1600 
 10 C        3.6860     2.5410     0.1470 C.3   1 <1>  -0.1600 
 11 C       -0.7180    -2.6260    -1.7840 C.3   1 <1>   0.1100 
 12 C       -0.1370    -4.7710    -0.7740 C.3   1 <1>   0.1100 
 13 C        1.5350     4.1510     1.3960 C.3   1 <1>  -0.1600 
 14 C        4.0040     3.8330     0.9150 C.3   1 <1>  -0.1600 
 15 C       -2.1720    -3.1420    -1.9000 C.3   1 <1>   0.3430 
 16 C       -1.6250    -5.1680    -0.6080 C.3   1 <1>   0.3430 
 17 C        2.8200     4.8080     0.8730 C.3   1 <1>  -0.1600 
 18 N       -2.5420    -3.9770    -0.7140 N.4   1 <1>  -0.9590 
 19 C       -4.0000    -4.3270    -0.6720 C.3   1 <1>   0.3430 
 20 C       -4.4880    -4.8320     0.7010 C.3   1 <1>   0.1200 
 21 O       -3.7970    -5.9850     1.0710 O.3   1 <1>  -0.5600 
 22 C       -4.2270    -6.5440     2.2740 C.3   1 <1>   0.0400 
 23 H        2.1840    -0.9320     1.4620 H     1 <1>   0.1500 
 24 H        1.9940    -3.4330     0.0810 H     1 <1>   0.0800 
 25 H        1.9530    -3.2960    -1.6570 H     1 <1>   0.0800 
 26 H        2.5660     1.5940     1.6950 H     1 <1>   0.0800 
 27 H        0.3480     2.3920     1.0470 H     1 <1>   0.0800 
 28 H        1.0020     3.1030    -0.3990 H     1 <1>   0.0800 
 29 H        3.5640     2.7720    -0.8980 H     1 <1>   0.0800 
 30 H        4.5090     1.8550     0.2360 H     1 <1>   0.0800 
 31 H       -0.2260    -2.7430    -2.7350 H     1 <1>   0.0800 
 32 H       -0.7590    -1.5710    -1.5720 H     1 <1>   0.0800 
 33 H        0.4330    -5.2490     0.0060 H     1 <1>   0.0800 
 34 H        0.2250    -5.1480    -1.7160 H     1 <1>   0.0800 
 35 H        1.6500     3.9270     2.4430 H     1 <1>   0.0800 
 36 H        0.7130     4.8390     1.2940 H     1 <1>   0.0800 
 37 H        4.8720     4.3020     0.4850 H     1 <1>   0.0800 
 38 H        4.2330     3.5930     1.9400 H     1 <1>   0.0800 
 39 H       -2.2650    -3.7280    -2.8000 H     1 <1>   0.0800 
 40 H       -2.8350    -2.2980    -1.9870 H     1 <1>   0.0800 
 41 H       -1.7410    -5.6270     0.3590 H     1 <1>   0.0800 
 42 H       -1.8830    -5.9060    -1.3480 H     1 <1>   0.0800 
 43 H        3.0470     5.6780     1.4640 H     1 <1>   0.0800 
 44 H        2.6640     5.1320    -0.1430 H     1 <1>   0.0800 
 45 H       -2.2860    -3.4030     0.1030 H     1 <1>   0.4500 
 46 H       -4.2160    -5.0790    -1.4120 H     1 <1>   0.0800 
 47 H       -4.5770    -3.4520    -0.9220 H     1 <1>   0.0800 
 48 H       -5.5370    -5.0690     0.6440 H     1 <1>   0.0800 
 49 H       -4.3370    -4.0780     1.4550 H     1 <1>   0.0800 
 50 H       -3.6330    -7.4200     2.4710 H     1 <1>   0.0800 
 51 H       -5.2630    -6.8250     2.1890 H     1 <1>   0.0800 
 52 H       -4.0930    -5.8310     3.0700 H     1 <1>   0.0800 
@<TRIPOS>BOND
  1   1   2  1   
  2   1   3  1   
  3   2   4  2   
  4   3   5  2   
  5   3   6  1   
  6   4   5  1   
  7   4   7  1   
  8   5  23  1   
  9   6   8  1   
 10   6  24  1   
 11   6  25  1   
 12   7   9  1   
 13   7  10  1   
 14   7  26  1   
 15   8  11  1   
 16   8  12  1   
 17   9  13  1   
 18   9  27  1   
 19   9  28  1   
 20  10  14  1   
 21  10  29  1   
 22  10  30  1   
 23  11  15  1   
 24  11  31  1   
 25  11  32  1   
 26  12  16  1   
 27  12  33  1   
 28  12  34  1   
 29  13  17  1   
 30  13  35  1   
 31  13  36  1   
 32  14  17  1   
 33  14  37  1   
 34  14  38  1   
 35  15  18  1   
 36  15  39  1   
 37  15  40  1   
 38  16  18  1   
 39  16  41  1   
 40  16  42  1   
 41  17  43  1   
 42  17  44  1   
 43  18  19  1   
 44  18  45  1   
 45  19  20  1   
 46  19  46  1   
 47  19  47  1   
 48  20  21  1   
 49  20  48  1   
 50  20  49  1   
 51  21  22  1   
 52  22  50  1   
 53  22  51  1   
 54  22  52  1   
@<TRIPOS>SUBSTRUCTURE
  1 ****   3 GROUP 4 **** **** 0

# MOE 2024.06 (io_trps.svl 2023.06)
