@<TRIPOS>MOLECULE
NONAME
50 52 1 0 0 
SMALL
USER_CHARGES


@<TRIPOS>ATOM
  1 F        2.1210    -0.1110    -3.0420 F     1 <1>  -0.3400 
  2 C        1.1840     0.2610    -2.1790 C.3   1 <1>   1.1640 
  3 F        0.0500    -0.2890    -2.6010 F     1 <1>  -0.3400 
  4 F        1.0350     1.5690    -2.3460 F     1 <1>  -0.3400 
  5 C        1.5220    -0.1500    -0.7300 C.ar  1 <1>  -0.1440 
  6 C        1.8210    -1.4710    -0.3660 C.ar  1 <1>  -0.1440 
  7 C        1.5300     0.8310     0.2630 C.ar  1 <1>  -0.1500 
  8 C        2.1320    -1.7610     0.9560 C.ar  1 <1>  -0.1500 
  9 C        1.8320    -2.6470    -1.3580 C.3   1 <1>   0.0450 
 10 C        1.8300     0.5240     1.5760 C.ar  1 <1>  -0.1500 
 11 C        2.1330    -0.7760     1.9230 C.ar  1 <1>  -0.1500 
 12 C        1.1920    -3.9220    -0.8140 C.2   1 <1>   0.5690 
 13 O        1.9230    -4.8660    -0.6210 O.2   1 <1>  -0.5700 
 14 N       -0.1580    -4.0140    -0.5720 N.am  1 <1>  -0.6600 
 15 C       -0.7050    -5.2680     0.0480 C.3   1 <1>   0.1400 
 16 C       -1.1450    -2.9180    -0.8540 C.3   1 <1>   0.1400 
 17 C       -2.1970    -5.4170    -0.3030 C.3   1 <1>   0.4230 
 18 C       -2.2870    -2.9150     0.1700 C.3   1 <1>  -0.1600 
 19 N       -2.8270    -6.7490    -0.0220 N.4   1 <1>  -0.9590 
 20 C       -3.0040    -4.2870     0.3660 C.3   1 <1>  -0.1060 
 21 C       -4.1970    -6.8330    -0.5990 C.3   1 <1>   0.3430 
 22 C       -1.9930    -7.9390    -0.3360 C.3   1 <1>   0.2630 
 23 C       -3.1480    -4.5490     1.8770 C.2   1 <1>   0.9060 
 24 C       -4.4000    -4.2860    -0.2990 C.3   1 <1>  -0.1600 
 25 C       -5.0750    -5.6620    -0.1370 C.3   1 <1>  -0.1600 
 26 O       -3.7210    -3.7120     2.5700 O.co2 1 <1>  -0.9000 
 27 O       -2.7490    -5.6250     2.3510 O.co2 1 <1>  -0.9000 
 28 H        1.3010     1.8580     0.0310 H     1 <1>   0.1500 
 29 H        2.3760    -2.7670     1.2550 H     1 <1>   0.1500 
 30 H        2.8550    -2.8650    -1.6050 H     1 <1>   0.0800 
 31 H        1.3330    -2.4190    -2.2770 H     1 <1>   0.0800 
 32 H        1.8280     1.2940     2.3280 H     1 <1>   0.1500 
 33 H        2.3680    -1.0240     2.9440 H     1 <1>   0.1500 
 34 H       -0.1500    -6.1060    -0.3300 H     1 <1>   0.0800 
 35 H       -0.5710    -5.2190     1.1150 H     1 <1>   0.0800 
 36 H       -0.6660    -1.9590    -0.8150 H     1 <1>   0.0800 
 37 H       -1.5460    -3.0500    -1.8450 H     1 <1>   0.0800 
 38 H       -2.2540    -5.2670    -1.3670 H     1 <1>   0.0800 
 39 H       -1.8560    -2.6010     1.1070 H     1 <1>   0.0800 
 40 H       -3.0020    -2.1550    -0.0900 H     1 <1>   0.0800 
 41 H       -2.9310    -6.6930     1.0280 H     1 <1>   0.4500 
 42 H       -4.1300    -6.8200    -1.6740 H     1 <1>   0.0800 
 43 H       -4.6610    -7.7590    -0.3000 H     1 <1>   0.0800 
 44 H       -1.7620    -7.9690    -1.3870 H     1 <1>   0.0800 
 45 H       -2.5190    -8.8400    -0.0650 H     1 <1>   0.0800 
 46 H       -1.0740    -7.9050     0.2260 H     1 <1>   0.0800 
 47 H       -5.0180    -3.5350     0.1660 H     1 <1>   0.0800 
 48 H       -4.3120    -4.0430    -1.3440 H     1 <1>   0.0800 
 49 H       -5.9970    -5.6740    -0.6910 H     1 <1>   0.0800 
 50 H       -5.3320    -5.8140     0.8980 H     1 <1>   0.0800 
@<TRIPOS>BOND
  1   1   2  1   
  2   2   3  1   
  3   2   4  1   
  4   2   5  1   
  5   5   6  ar  
  6   5   7  ar  
  7   6   8  ar  
  8   6   9  1   
  9   7  10  ar  
 10   7  28  1   
 11   8  11  ar  
 12   8  29  1   
 13   9  12  1   
 14   9  30  1   
 15   9  31  1   
 16  10  11  ar  
 17  10  32  1   
 18  11  33  1   
 19  12  13  2   
 20  12  14  am  
 21  14  15  1   
 22  14  16  1   
 23  15  17  1   
 24  15  34  1   
 25  15  35  1   
 26  16  18  1   
 27  16  36  1   
 28  16  37  1   
 29  17  19  1   
 30  17  20  1   
 31  17  38  1   
 32  18  20  1   
 33  18  39  1   
 34  18  40  1   
 35  19  21  1   
 36  19  22  1   
 37  19  41  1   
 38  20  23  1   
 39  20  24  1   
 40  21  25  1   
 41  21  42  1   
 42  21  43  1   
 43  22  44  1   
 44  22  45  1   
 45  22  46  1   
 46  23  26  ar  
 47  23  27  ar  
 48  24  25  1   
 49  24  47  1   
 50  24  48  1   
 51  25  49  1   
 52  25  50  1   
@<TRIPOS>SUBSTRUCTURE
  1 ****  16 GROUP 4 **** **** 0

# MOE 2024.06 (io_trps.svl 2023.06)
