@<TRIPOS>MOLECULE
NONAME
53 56 1 0 0 
SMALL
USER_CHARGES


@<TRIPOS>ATOM
  1 S        0.1450     0.1710     0.2260 S.3   1 <1>  -0.0800 
  2 C       -0.9380     1.5140    -0.1080 C.2   1 <1>  -0.1400 
  3 C       -1.0520    -0.9800    -0.3560 C.2   1 <1>  -0.1100 
  4 C       -2.1010     1.0720    -0.6050 C.2   1 <1>  -0.1810 
  5 C       -0.5560     2.9670     0.1510 C.3   1 <1>   0.4600 
  6 C       -2.1720    -0.3490    -0.7560 C.2   1 <1>  -0.1500 
  7 C       -3.1890     2.0640    -0.9500 C.3   1 <1>   0.0210 
  8 O       -1.5750     3.7990    -0.3720 O.3   1 <1>  -0.5600 
  9 C       -0.4000     3.2520     1.6530 C.3   1 <1>  -0.1600 
 10 C        0.7270     3.3370    -0.6050 C.3   1 <1>  -0.1600 
 11 C       -2.9140     3.3890    -0.2130 C.3   1 <1>   0.1200 
 12 C        0.0520     4.6910     1.9120 C.3   1 <1>   0.1400 
 13 C        1.1480     4.7770    -0.3120 C.3   1 <1>   0.1400 
 14 N        1.3100     4.9390     1.1590 N.am  1 <1>  -0.6600 
 15 C        2.4650     5.3190     1.7990 C.2   1 <1>   0.5690 
 16 O        2.4620     5.6440     2.9640 O.2   1 <1>  -0.5700 
 17 C        3.8100     5.3260     1.1050 C.3   1 <1>  -0.0990 
 18 C        4.3110     6.7360     0.7580 C.3   1 <1>   0.2510 
 19 N        3.4130     7.3550    -0.2940 N.3   1 <1>  -0.8100 
 20 C        5.8130     6.6230     0.3870 C.2   1 <1>   0.5690 
 21 C        4.1670     8.0960    -1.3350 C.3   1 <1>   0.1100 
 22 C        2.3990     8.2220     0.3350 C.3   1 <1>   0.1100 
 23 O        6.6330     6.3740     1.2370 O.2   1 <1>  -0.5700 
 24 N        6.2150     6.7960    -0.8940 N.am  1 <1>  -0.7300 
 25 C        5.3000     7.2620    -1.9550 C.3   1 <1>   0.1400 
 26 C        1.2720     8.5550    -0.6410 C.3   1 <1>  -0.2400 
 27 H       -0.7850    -2.0210    -0.3360 H     1 <1>   0.1500 
 28 H       -3.0520    -0.8250    -1.1540 H     1 <1>   0.1500 
 29 H       -4.1470     1.6810    -0.6500 H     1 <1>   0.0800 
 30 H       -3.2040     2.2320    -2.0120 H     1 <1>   0.0800 
 31 H        0.3390     2.5890     2.0620 H     1 <1>   0.0800 
 32 H       -1.3210     3.0550     2.1670 H     1 <1>   0.0800 
 33 H        0.5660     3.2070    -1.6590 H     1 <1>   0.0800 
 34 H        1.5260     2.6800    -0.3110 H     1 <1>   0.0800 
 35 H       -3.1150     3.2810     0.8380 H     1 <1>   0.0800 
 36 H       -3.5430     4.1680    -0.6040 H     1 <1>   0.0800 
 37 H        0.2020     4.8380     2.9680 H     1 <1>   0.0800 
 38 H       -0.7020     5.3850     1.5800 H     1 <1>   0.0800 
 39 H        0.3800     5.4500    -0.6510 H     1 <1>   0.0800 
 40 H        2.0480     5.0250    -0.8440 H     1 <1>   0.0800 
 41 H        3.8180     4.7040     0.2340 H     1 <1>   0.0800 
 42 H        4.5050     4.8860     1.7960 H     1 <1>   0.0800 
 43 H        4.2750     7.3370     1.6510 H     1 <1>   0.0800 
 44 H        4.5870     8.9930    -0.9120 H     1 <1>   0.0800 
 45 H        3.4990     8.3830    -2.1270 H     1 <1>   0.0800 
 46 H        2.8570     9.1280     0.6980 H     1 <1>   0.0800 
 47 H        1.9620     7.7210     1.1810 H     1 <1>   0.0800 
 48 H        7.2090     6.6860    -1.1020 H     1 <1>   0.3700 
 49 H        5.8450     7.8660    -2.6590 H     1 <1>   0.0800 
 50 H        4.8860     6.4140    -2.4740 H     1 <1>   0.0800 
 51 H        1.6020     9.2400    -1.3990 H     1 <1>   0.0800 
 52 H        0.4660     9.0220    -0.1040 H     1 <1>   0.0800 
 53 H        0.8990     7.6590    -1.1010 H     1 <1>   0.0800 
@<TRIPOS>BOND
  1   1   2  1   
  2   1   3  1   
  3   2   4  2   
  4   2   5  1   
  5   3   6  2   
  6   3  27  1   
  7   4   6  1   
  8   4   7  1   
  9   5   8  1   
 10   5   9  1   
 11   5  10  1   
 12   6  28  1   
 13   7  11  1   
 14   7  29  1   
 15   7  30  1   
 16   8  11  1   
 17   9  12  1   
 18   9  31  1   
 19   9  32  1   
 20  10  13  1   
 21  10  33  1   
 22  10  34  1   
 23  11  35  1   
 24  11  36  1   
 25  12  14  1   
 26  12  37  1   
 27  12  38  1   
 28  13  14  1   
 29  13  39  1   
 30  13  40  1   
 31  14  15  am  
 32  15  16  2   
 33  15  17  1   
 34  17  18  1   
 35  17  41  1   
 36  17  42  1   
 37  18  19  1   
 38  18  20  1   
 39  18  43  1   
 40  19  21  1   
 41  19  22  1   
 42  20  23  2   
 43  20  24  am  
 44  21  25  1   
 45  21  44  1   
 46  21  45  1   
 47  22  26  1   
 48  22  46  1   
 49  22  47  1   
 50  24  25  1   
 51  24  48  1   
 52  25  49  1   
 53  25  50  1   
 54  26  51  1   
 55  26  52  1   
 56  26  53  1   
@<TRIPOS>SUBSTRUCTURE
  1 ****  13 GROUP 4 **** **** 0

# MOE 2024.06 (io_trps.svl 2023.06)
