@<TRIPOS>MOLECULE
NONAME
46 48 1 0 0 
SMALL
USER_CHARGES


@<TRIPOS>ATOM
  1 CL      -1.9870     0.7710    -0.6800 Cl    1 <1>  -0.1770 
  2 C       -1.0730     1.8780     0.3210 C.ar  1 <1>   0.1770 
  3 C       -1.7260     2.5670     1.3420 C.ar  1 <1>   0.0860 
  4 C        0.2830     2.0450     0.0670 C.ar  1 <1>  -0.1440 
  5 C       -3.1380     2.4050     1.5970 C.2   1 <1>   0.5440 
  6 C       -0.9640     3.4350     2.1210 C.ar  1 <1>  -0.1500 
  7 C        1.0080     2.9220     0.8580 C.ar  1 <1>  -0.1500 
  8 C        0.9760     1.2830    -1.0540 C.3   1 <1>  -0.0960 
  9 O       -3.4860     1.6670     2.4990 O.2   1 <1>  -0.5700 
 10 N       -4.0890     3.0940     0.8730 N.am  1 <1>  -0.6600 
 11 C        0.3860     3.6130     1.8830 C.ar  1 <1>  -0.1500 
 12 C       -5.5550     2.9450     1.1420 C.3   1 <1>   0.1400 
 13 C       -3.7840     4.0020    -0.2650 C.3   1 <1>   0.1400 
 14 C       -6.2930     2.4000    -0.1060 C.3   1 <1>   0.0000 
 15 C       -4.4750     3.4900    -1.5330 C.3   1 <1>  -0.1600 
 16 C       -7.8070     2.2870     0.1430 C.3   1 <1>   0.2000 
 17 C       -5.9880     3.3020    -1.3220 C.3   1 <1>  -0.1600 
 18 C       -5.9110     0.9300    -0.3520 C.3   1 <1>  -0.1600 
 19 O       -8.2960     3.3880     0.8510 O.3   1 <1>  -0.5600 
 20 C       -8.0030     0.9840     0.9260 C.3   1 <1>  -0.1600 
 21 C       -6.7830     0.1110     0.6040 C.3   1 <1>  -0.1600 
 22 C       -9.6830     3.5130     0.8590 C.3   1 <1>   0.0400 
 23 H       -1.4460     3.9690     2.9230 H     1 <1>   0.1500 
 24 H        2.0610     3.0700     0.6840 H     1 <1>   0.1500 
 25 H        2.0200     1.5310    -1.1040 H     1 <1>   0.0800 
 26 H        0.5230     1.5240    -1.9990 H     1 <1>   0.0800 
 27 H        0.8860     0.2240    -0.8880 H     1 <1>   0.0800 
 28 H        0.9570     4.2890     2.4970 H     1 <1>   0.1500 
 29 H       -5.7230     2.2970     1.9840 H     1 <1>   0.0800 
 30 H       -5.9480     3.9120     1.4010 H     1 <1>   0.0800 
 31 H       -4.1480     4.9870    -0.0270 H     1 <1>   0.0800 
 32 H       -2.7240     4.0720    -0.4350 H     1 <1>   0.0800 
 33 H       -4.3100     4.1900    -2.3320 H     1 <1>   0.0800 
 34 H       -4.0280     2.5560    -1.8220 H     1 <1>   0.0800 
 35 H       -8.3160     2.2240    -0.8040 H     1 <1>   0.0800 
 36 H       -6.4270     2.8880    -2.2130 H     1 <1>   0.0800 
 37 H       -6.4370     4.2660    -1.1550 H     1 <1>   0.0800 
 38 H       -6.1520     0.6560    -1.3640 H     1 <1>   0.0800 
 39 H       -4.8650     0.7380    -0.1880 H     1 <1>   0.0800 
 40 H       -8.0280     1.1860     1.9830 H     1 <1>   0.0800 
 41 H       -8.9140     0.4970     0.6270 H     1 <1>   0.0800 
 42 H       -6.2340    -0.0890     1.5090 H     1 <1>   0.0800 
 43 H       -7.0690    -0.8260     0.1580 H     1 <1>   0.0800 
 44 H       -9.9340     4.4020     1.4100 H     1 <1>   0.0800 
 45 H      -10.1190     2.6550     1.3410 H     1 <1>   0.0800 
 46 H      -10.0380     3.6020    -0.1530 H     1 <1>   0.0800 
@<TRIPOS>BOND
  1   1   2  1   
  2   2   3  ar  
  3   2   4  ar  
  4   3   5  1   
  5   3   6  ar  
  6   4   7  ar  
  7   4   8  1   
  8   5   9  2   
  9   5  10  am  
 10   6  11  ar  
 11   6  23  1   
 12   7  11  ar  
 13   7  24  1   
 14   8  25  1   
 15   8  26  1   
 16   8  27  1   
 17  10  12  1   
 18  10  13  1   
 19  11  28  1   
 20  12  14  1   
 21  12  29  1   
 22  12  30  1   
 23  13  15  1   
 24  13  31  1   
 25  13  32  1   
 26  14  16  1   
 27  14  17  1   
 28  14  18  1   
 29  15  17  1   
 30  15  33  1   
 31  15  34  1   
 32  16  19  1   
 33  16  20  1   
 34  16  35  1   
 35  17  36  1   
 36  17  37  1   
 37  18  21  1   
 38  18  38  1   
 39  18  39  1   
 40  19  22  1   
 41  20  21  1   
 42  20  40  1   
 43  20  41  1   
 44  21  42  1   
 45  21  43  1   
 46  22  44  1   
 47  22  45  1   
 48  22  46  1   
@<TRIPOS>SUBSTRUCTURE
  1 ****  10 GROUP 4 **** **** 0

# MOE 2024.06 (io_trps.svl 2023.06)
