@<TRIPOS>MOLECULE
NONAME
49 50 1 0 0 
SMALL
USER_CHARGES


@<TRIPOS>ATOM
  1 S       -0.0960     0.0130     0.3050 S.o2  1 <1>   1.4470 
  2 O        0.9840    -0.8350    -0.1440 O.2   1 <1>  -0.6500 
  3 O       -0.6360    -0.1300     1.6380 O.2   1 <1>  -0.6500 
  4 N       -1.3330    -0.2960    -0.7870 N.am  1 <1>  -0.9140 
  5 C        0.3110     1.7550    -0.0110 C.ar  1 <1>  -0.0090 
  6 C       -2.3060    -1.2960    -0.3700 C.3   1 <1>   0.1960 
  7 C        1.6120     2.1590    -0.2880 C.ar  1 <1>  -0.1500 
  8 C       -0.6680     2.7390     0.0260 C.ar  1 <1>  -0.1500 
  9 C       -1.7010    -2.7030    -0.4190 C.3   1 <1>  -0.1600 
 10 C        1.9200     3.4870    -0.5230 C.ar  1 <1>  -0.1500 
 11 C       -0.3630     4.0680    -0.2100 C.ar  1 <1>  -0.1500 
 12 C       -2.7580    -3.7700    -0.1140 C.3   1 <1>  -0.2400 
 13 C        0.9380     4.4790    -0.4970 C.ar  1 <1>   0.0860 
 14 C        1.2410     5.8790    -0.7490 C.2   1 <1>   0.5440 
 15 O        0.5470     6.7580    -0.2800 O.2   1 <1>  -0.5700 
 16 N        2.3100     6.2410    -1.5210 N.am  1 <1>  -0.7300 
 17 C        2.6880     7.6460    -1.8510 C.3   1 <1>   0.1400 
 18 C        3.1740     8.4310    -0.6210 C.3   1 <1>   0.2000 
 19 O        3.6120     9.6950    -1.0820 O.3   1 <1>  -0.3630 
 20 C        4.3490     7.7510     0.0970 C.3   1 <1>  -0.2400 
 21 C        3.6930    10.7910    -0.2800 C.ar  1 <1>   0.0830 
 22 C        4.2260    11.9510    -0.8310 C.ar  1 <1>   0.1600 
 23 C        3.2770    10.8220     1.0430 C.ar  1 <1>  -0.1500 
 24 N        4.3780    13.1050    -0.1960 N.ar  1 <1>  -0.6200 
 25 C        3.4280    12.0150     1.7180 C.ar  1 <1>  -0.1500 
 26 C        3.9740    13.1080     1.0640 C.ar  1 <1>   0.1600 
 27 H       -0.8470    -0.6660    -1.6010 H     1 <1>   0.4200 
 28 H       -3.1440    -1.2540    -1.0460 H     1 <1>   0.0800 
 29 H       -2.6740    -1.0750     0.6190 H     1 <1>   0.0800 
 30 H        2.3960     1.4190    -0.3150 H     1 <1>   0.1500 
 31 H       -1.6860     2.4580     0.2460 H     1 <1>   0.1500 
 32 H       -0.9120    -2.7890     0.3080 H     1 <1>   0.0800 
 33 H       -1.2900    -2.8900    -1.3960 H     1 <1>   0.0800 
 34 H        2.9420     3.7550    -0.7210 H     1 <1>   0.1500 
 35 H       -1.1450     4.8080    -0.1710 H     1 <1>   0.1500 
 36 H       -3.1710    -3.6200     0.8680 H     1 <1>   0.0800 
 37 H       -2.3110    -4.7480    -0.1480 H     1 <1>   0.0800 
 38 H       -3.5550    -3.7330    -0.8360 H     1 <1>   0.0800 
 39 H        2.8340     5.5180    -2.0160 H     1 <1>   0.3700 
 40 H        1.8280     8.1470    -2.2630 H     1 <1>   0.0800 
 41 H        3.4670     7.6330    -2.5940 H     1 <1>   0.0800 
 42 H        2.3370     8.5750     0.0380 H     1 <1>   0.0800 
 43 H        5.1600     7.5860    -0.5880 H     1 <1>   0.0800 
 44 H        4.0360     6.8030     0.4960 H     1 <1>   0.0800 
 45 H        4.6940     8.3550     0.9150 H     1 <1>   0.0800 
 46 H        4.5430    11.9140    -1.8580 H     1 <1>   0.1500 
 47 H        2.8540     9.9720     1.5440 H     1 <1>   0.1500 
 48 H        3.1240    12.1030     2.7450 H     1 <1>   0.1500 
 49 H        4.0850    14.0310     1.6060 H     1 <1>   0.1500 
@<TRIPOS>BOND
  1   1   2  2   
  2   1   3  2   
  3   1   4  am  
  4   1   5  1   
  5   4   6  1   
  6   4  27  1   
  7   5   7  ar  
  8   5   8  ar  
  9   6   9  1   
 10   6  28  1   
 11   6  29  1   
 12   7  10  ar  
 13   7  30  1   
 14   8  11  ar  
 15   8  31  1   
 16   9  12  1   
 17   9  32  1   
 18   9  33  1   
 19  10  13  ar  
 20  10  34  1   
 21  11  13  ar  
 22  11  35  1   
 23  12  36  1   
 24  12  37  1   
 25  12  38  1   
 26  13  14  1   
 27  14  15  2   
 28  14  16  am  
 29  16  17  1   
 30  16  39  1   
 31  17  18  1   
 32  17  40  1   
 33  17  41  1   
 34  18  19  1   
 35  18  20  1   
 36  18  42  1   
 37  19  21  1   
 38  20  43  1   
 39  20  44  1   
 40  20  45  1   
 41  21  22  ar  
 42  21  23  ar  
 43  22  24  ar  
 44  22  46  1   
 45  23  25  ar  
 46  23  47  1   
 47  24  26  ar  
 48  25  26  ar  
 49  25  48  1   
 50  26  49  1   
@<TRIPOS>SUBSTRUCTURE
  1 ****  13 GROUP 4 **** **** 0

# MOE 2024.06 (io_trps.svl 2023.06)
