@<TRIPOS>MOLECULE
NONAME
47 48 1 0 0 
SMALL
USER_CHARGES


@<TRIPOS>ATOM
  1 S       -0.0310    -0.1260     0.7850 S.o2  1 <1>   1.3330 
  2 O        1.3560     0.2270     0.5970 O.2   1 <1>  -0.6500 
  3 O       -0.7370     0.2730     1.9810 O.2   1 <1>  -0.6500 
  4 N       -0.9100     0.4240    -0.5610 N.am  1 <1>  -0.8490 
  5 C       -0.1980    -1.9110     0.6560 C.3   1 <1>  -0.0550 
  6 C       -0.1070     0.4810    -1.7900 C.3   1 <1>   0.1160 
  7 C       -1.5190     1.7380    -0.3200 C.3   1 <1>   0.1160 
  8 C       -1.6610    -2.3930     0.7400 C.3   1 <1>  -0.1600 
  9 C       -1.7580    -3.9170     0.6850 C.3   1 <1>   0.3430 
 10 N       -3.1690    -4.3440     0.8720 N.4   1 <1>  -0.9590 
 11 C       -4.1090    -3.9490    -0.2200 C.3   1 <1>   0.3430 
 12 C       -3.3140    -5.8230     1.0440 C.3   1 <1>   0.3430 
 13 C       -5.2300    -4.9860    -0.1550 C.3   1 <1>   0.2000 
 14 C       -4.4810    -6.2810     0.1510 C.3   1 <1>  -0.0800 
 15 O       -6.0340    -4.6850     0.9370 O.3   1 <1>  -0.6800 
 16 C       -3.9970    -6.9640    -1.1480 C.3   1 <1>  -0.0170 
 17 C       -3.2230    -8.2460    -0.8780 C.ar  1 <1>   0.1670 
 18 N       -1.9560    -8.1010    -0.5230 N.ar  1 <1>  -0.6200 
 19 C       -3.8490    -9.4850    -1.0160 C.ar  1 <1>   0.1600 
 20 C       -1.3600    -9.2690    -0.3280 C.ar  1 <1>   0.1600 
 21 N       -3.2580   -10.6470    -0.8070 N.ar  1 <1>  -0.6200 
 22 C       -1.9900   -10.5000    -0.4640 C.ar  1 <1>   0.1600 
 23 H        0.2340    -2.2340    -0.2720 H     1 <1>   0.0800 
 24 H        0.3670    -2.3580     1.4520 H     1 <1>   0.0800 
 25 H       -0.7290     0.7520    -2.6270 H     1 <1>   0.0800 
 26 H        0.3360    -0.4790    -1.9920 H     1 <1>   0.0800 
 27 H        0.6820     1.2100    -1.6920 H     1 <1>   0.0800 
 28 H       -2.0730     2.0600    -1.1850 H     1 <1>   0.0800 
 29 H       -0.7580     2.4680    -0.0950 H     1 <1>   0.0800 
 30 H       -2.2000     1.6840     0.5130 H     1 <1>   0.0800 
 31 H       -2.0820    -2.0410     1.6670 H     1 <1>   0.0800 
 32 H       -2.2110    -1.9550    -0.0740 H     1 <1>   0.0800 
 33 H       -1.1500    -4.3380     1.4710 H     1 <1>   0.0800 
 34 H       -1.3840    -4.2790    -0.2590 H     1 <1>   0.0800 
 35 H       -3.5520    -3.9180     1.7300 H     1 <1>   0.4500 
 36 H       -4.4920    -2.9510    -0.0830 H     1 <1>   0.0800 
 37 H       -3.6120    -4.0180    -1.1730 H     1 <1>   0.0800 
 38 H       -2.3990    -6.3270     0.7860 H     1 <1>   0.0800 
 39 H       -3.5430    -6.0430     2.0750 H     1 <1>   0.0800 
 40 H       -5.8380    -5.0110    -1.0450 H     1 <1>   0.0800 
 41 H       -5.1060    -6.9770     0.6840 H     1 <1>   0.0800 
 42 H       -6.8630    -5.2100     0.9330 H     1 <1>   0.4000 
 43 H       -3.3640    -6.3020    -1.7140 H     1 <1>   0.0800 
 44 H       -4.8480    -7.1950    -1.7660 H     1 <1>   0.0800 
 45 H       -4.8830    -9.5220    -1.3110 H     1 <1>   0.1500 
 46 H       -0.3210    -9.2570    -0.0470 H     1 <1>   0.1500 
 47 H       -1.4230   -11.3960    -0.2820 H     1 <1>   0.1500 
@<TRIPOS>BOND
  1   1   2  2   
  2   1   3  2   
  3   1   4  am  
  4   1   5  1   
  5   4   6  1   
  6   4   7  1   
  7   5   8  1   
  8   5  23  1   
  9   5  24  1   
 10   6  25  1   
 11   6  26  1   
 12   6  27  1   
 13   7  28  1   
 14   7  29  1   
 15   7  30  1   
 16   8   9  1   
 17   8  31  1   
 18   8  32  1   
 19   9  10  1   
 20   9  33  1   
 21   9  34  1   
 22  10  11  1   
 23  10  12  1   
 24  10  35  1   
 25  11  13  1   
 26  11  36  1   
 27  11  37  1   
 28  12  14  1   
 29  12  38  1   
 30  12  39  1   
 31  13  14  1   
 32  13  15  1   
 33  13  40  1   
 34  14  16  1   
 35  14  41  1   
 36  15  42  1   
 37  16  17  1   
 38  16  43  1   
 39  16  44  1   
 40  17  18  ar  
 41  17  19  ar  
 42  18  20  ar  
 43  19  21  ar  
 44  19  45  1   
 45  20  22  ar  
 46  20  46  1   
 47  21  22  ar  
 48  22  47  1   
@<TRIPOS>SUBSTRUCTURE
  1 ****   9 GROUP 4 **** **** 0

# MOE 2024.06 (io_trps.svl 2023.06)
