@<TRIPOS>MOLECULE
NONAME
42 43 1 0 0 
SMALL
USER_CHARGES


@<TRIPOS>ATOM
  1 S       -0.5700     0.0410    -1.7470 S.o2  1 <1>   1.4470 
  2 O       -0.9720     1.0030    -2.7540 O.2   1 <1>  -0.6500 
  3 O       -0.4580    -1.3470    -2.1390 O.2   1 <1>  -0.6500 
  4 N       -1.7220     0.1540    -0.5040 N.am  1 <1>  -0.8490 
  5 C        0.9810     0.6100    -0.9910 C.ar  1 <1>  -0.0090 
  6 C       -1.4030    -0.5560     0.7490 C.3   1 <1>   0.1960 
  7 C       -3.1080    -0.0430    -0.9660 C.3   1 <1>   0.1960 
  8 C        1.3150     1.9580    -0.9640 C.ar  1 <1>  -0.1500 
  9 C        1.8620    -0.2830    -0.3940 C.ar  1 <1>  -0.1500 
 10 C       -1.6200    -2.0690     0.6570 C.3   1 <1>  -0.1860 
 11 C       -3.8120    -1.2460    -0.3230 C.3   1 <1>  -0.1600 
 12 C        2.4860     2.3980    -0.3730 C.ar  1 <1>  -0.1500 
 13 C        3.0330     0.1510     0.2020 C.ar  1 <1>  -0.1500 
 14 C       -1.6270    -2.5540     2.0880 C.2   1 <1>   0.9060 
 15 C       -2.8510    -2.4250    -0.2030 C.3   1 <1>   0.2000 
 16 C        3.3590     1.4970     0.2170 C.ar  1 <1>  -0.1440 
 17 O       -0.5420    -2.6460     2.6660 O.co2 1 <1>  -0.9000 
 18 O       -2.7030    -2.7810     2.6590 O.co2 1 <1>  -0.9000 
 19 O       -3.5510    -3.4840     0.3300 O.3   1 <1>  -0.6800 
 20 C        4.6540     1.9610     0.8800 C.3   1 <1>   0.0630 
 21 C        4.3600     2.8970     2.0570 C.3   1 <1>  -0.2400 
 22 C        5.5780     2.6390    -0.1370 C.3   1 <1>  -0.2400 
 23 H       -0.3960    -0.3510     1.0670 H     1 <1>   0.0800 
 24 H       -2.0480    -0.1660     1.5200 H     1 <1>   0.0800 
 25 H       -3.6720     0.8480    -0.7520 H     1 <1>   0.0800 
 26 H       -3.1180    -0.1770    -2.0360 H     1 <1>   0.0800 
 27 H        0.6460     2.6720    -1.4140 H     1 <1>   0.1500 
 28 H        1.6260    -1.3350    -0.3890 H     1 <1>   0.1500 
 29 H       -0.7590    -2.5110     0.1970 H     1 <1>   0.0800 
 30 H       -4.6580    -1.5250    -0.9250 H     1 <1>   0.0800 
 31 H       -4.1700    -0.9730     0.6540 H     1 <1>   0.0800 
 32 H        2.7120     3.4500    -0.3730 H     1 <1>   0.1500 
 33 H        3.6860    -0.5740     0.6580 H     1 <1>   0.1500 
 34 H       -2.5300    -2.7190    -1.1890 H     1 <1>   0.0800 
 35 H       -3.4640    -3.3970     1.3280 H     1 <1>   0.4000 
 36 H        5.1710     1.0990     1.2690 H     1 <1>   0.0800 
 37 H        3.8900     3.8030     1.7190 H     1 <1>   0.0800 
 38 H        5.2710     3.1520     2.5670 H     1 <1>   0.0800 
 39 H        3.7020     2.4090     2.7540 H     1 <1>   0.0800 
 40 H        5.1300     3.5360    -0.5230 H     1 <1>   0.0800 
 41 H        5.7670     1.9700    -0.9590 H     1 <1>   0.0800 
 42 H        6.5160     2.8920     0.3220 H     1 <1>   0.0800 
@<TRIPOS>BOND
  1   1   2  2   
  2   1   3  2   
  3   1   4  am  
  4   1   5  1   
  5   4   6  1   
  6   4   7  1   
  7   5   8  ar  
  8   5   9  ar  
  9   6  10  1   
 10   6  23  1   
 11   6  24  1   
 12   7  11  1   
 13   7  25  1   
 14   7  26  1   
 15   8  12  ar  
 16   8  27  1   
 17   9  13  ar  
 18   9  28  1   
 19  10  14  1   
 20  10  15  1   
 21  10  29  1   
 22  11  15  1   
 23  11  30  1   
 24  11  31  1   
 25  12  16  ar  
 26  12  32  1   
 27  13  16  ar  
 28  13  33  1   
 29  14  17  ar  
 30  14  18  ar  
 31  15  19  1   
 32  15  34  1   
 33  16  20  1   
 34  19  35  1   
 35  20  21  1   
 36  20  22  1   
 37  20  36  1   
 38  21  37  1   
 39  21  38  1   
 40  21  39  1   
 41  22  40  1   
 42  22  41  1   
 43  22  42  1   
@<TRIPOS>SUBSTRUCTURE
  1 ****   5 GROUP 4 **** **** 0

# MOE 2024.06 (io_trps.svl 2023.06)
