@<TRIPOS>MOLECULE
NONAME
54 57 1 0 0 
SMALL
USER_CHARGES


@<TRIPOS>ATOM
  1 O       -0.8940     0.3230    -2.2430 O.2   1 <1>  -0.5700 
  2 C       -1.5220     0.6950    -1.2720 C.2   1 <1>   0.5690 
  3 N       -2.8290     0.2630    -1.1140 N.am  1 <1>  -0.6600 
  4 C       -0.7700     1.6080    -0.2350 C.3   1 <1>   0.3410 
  5 C       -3.6940     0.4710     0.0820 C.3   1 <1>   0.1400 
  6 C       -3.5390    -0.4630    -2.2070 C.3   1 <1>   0.1400 
  7 O       -1.6440     2.6210     0.2300 O.3   1 <1>  -0.5600 
  8 C       -0.3000     0.7470     0.9530 C.3   1 <1>  -0.2400 
  9 C        0.4550     2.2930    -0.8810 C.3   1 <1>  -0.2400 
 10 C       -4.1240    -0.8910     0.6270 C.3   1 <1>  -0.1600 
 11 C       -3.9690    -1.8400    -1.7010 C.3   1 <1>  -0.1600 
 12 C       -1.2080     3.5950     1.1290 C.3   1 <1>   0.1200 
 13 C       -4.8350    -1.7300    -0.4430 C.3   1 <1>   0.4600 
 14 C       -2.4330     4.4000     1.5420 C.3   1 <1>  -0.2400 
 15 O       -6.0220    -1.0730    -0.8340 O.3   1 <1>  -0.5600 
 16 C       -5.1800    -3.1170     0.0860 C.2   1 <1>  -0.3320 
 17 C       -7.1620    -1.2190    -0.0200 C.3   1 <1>   0.1200 
 18 N       -4.2930    -4.1040     0.4170 N.pl3 1 <1>   0.0330 
 19 C       -6.4360    -3.5590     0.2960 C.2   1 <1>  -0.1810 
 20 C       -7.6320    -2.6830     0.0220 C.3   1 <1>   0.0210 
 21 C       -5.0120    -5.1950     0.8430 C.ar  1 <1>  -0.1520 
 22 C       -6.3670    -4.8840     0.7760 C.ar  1 <1>   0.0000 
 23 C       -4.5870    -6.4500     1.2870 C.ar  1 <1>  -0.1500 
 24 C       -7.3170    -5.8370     1.1560 C.ar  1 <1>  -0.1500 
 25 C       -5.5310    -7.3780     1.6590 C.ar  1 <1>  -0.1500 
 26 C       -6.8960    -7.0720     1.5940 C.ar  1 <1>  -0.1500 
 27 H       -4.5580     1.0460    -0.2050 H     1 <1>   0.0800 
 28 H       -3.1860     1.0070     0.8590 H     1 <1>   0.0800 
 29 H       -2.9100    -0.5770    -3.0730 H     1 <1>   0.0800 
 30 H       -4.4050     0.1060    -2.5020 H     1 <1>   0.0800 
 31 H       -1.1390     0.3730     1.5090 H     1 <1>   0.0800 
 32 H        0.3510     1.2950     1.6070 H     1 <1>   0.0800 
 33 H        0.2530    -0.0960     0.5780 H     1 <1>   0.0800 
 34 H        0.1310     2.9440    -1.6730 H     1 <1>   0.0800 
 35 H        1.1080     1.5520    -1.3060 H     1 <1>   0.0800 
 36 H        1.0310     2.8480    -0.1650 H     1 <1>   0.0800 
 37 H       -4.7610    -0.7640     1.4810 H     1 <1>   0.0800 
 38 H       -3.2470    -1.4140     0.9610 H     1 <1>   0.0800 
 39 H       -3.0860    -2.4130    -1.4910 H     1 <1>   0.0800 
 40 H       -4.5220    -2.3560    -2.4640 H     1 <1>   0.0800 
 41 H       -0.4950     4.2360     0.6410 H     1 <1>   0.0800 
 42 H       -0.7660     3.1280     1.9910 H     1 <1>   0.0800 
 43 H       -2.8810     4.8570     0.6780 H     1 <1>   0.0800 
 44 H       -2.1460     5.1740     2.2300 H     1 <1>   0.0800 
 45 H       -3.1510     3.7600     2.0230 H     1 <1>   0.0800 
 46 H       -7.9360    -0.5920    -0.4250 H     1 <1>   0.0800 
 47 H       -6.9220    -0.8760     0.9700 H     1 <1>   0.0800 
 48 H       -3.2720    -4.0590     0.3490 H     1 <1>   0.2700 
 49 H       -8.0720    -2.9540    -0.9210 H     1 <1>   0.0800 
 50 H       -8.3680    -2.8060     0.7950 H     1 <1>   0.0800 
 51 H       -3.5370    -6.6770     1.3340 H     1 <1>   0.1500 
 52 H       -8.3600    -5.5890     1.0990 H     1 <1>   0.1500 
 53 H       -5.2300    -8.3520     2.0050 H     1 <1>   0.1500 
 54 H       -7.6150    -7.8170     1.8900 H     1 <1>   0.1500 
@<TRIPOS>BOND
  1   1   2  2   
  2   2   3  am  
  3   2   4  1   
  4   3   5  1   
  5   3   6  1   
  6   4   7  1   
  7   4   8  1   
  8   4   9  1   
  9   5  10  1   
 10   5  27  1   
 11   5  28  1   
 12   6  11  1   
 13   6  29  1   
 14   6  30  1   
 15   7  12  1   
 16   8  31  1   
 17   8  32  1   
 18   8  33  1   
 19   9  34  1   
 20   9  35  1   
 21   9  36  1   
 22  10  13  1   
 23  10  37  1   
 24  10  38  1   
 25  11  13  1   
 26  11  39  1   
 27  11  40  1   
 28  12  14  1   
 29  12  41  1   
 30  12  42  1   
 31  13  15  1   
 32  13  16  1   
 33  14  43  1   
 34  14  44  1   
 35  14  45  1   
 36  15  17  1   
 37  16  18  1   
 38  16  19  2   
 39  17  20  1   
 40  17  46  1   
 41  17  47  1   
 42  18  21  1   
 43  18  48  1   
 44  19  20  1   
 45  19  22  1   
 46  20  49  1   
 47  20  50  1   
 48  21  22  ar  
 49  21  23  ar  
 50  22  24  ar  
 51  23  25  ar  
 52  23  51  1   
 53  24  26  ar  
 54  24  52  1   
 55  25  26  ar  
 56  25  53  1   
 57  26  54  1   
@<TRIPOS>SUBSTRUCTURE
  1 ****  10 GROUP 4 **** **** 0

# MOE 2024.06 (io_trps.svl 2023.06)
