@<TRIPOS>MOLECULE
NONAME
44 46 1 0 0 
SMALL
USER_CHARGES


@<TRIPOS>ATOM
  1 CL       1.2710     3.2100    -0.2930 Cl    1 <1>  -0.1770 
  2 C       -0.4250     3.0820     0.1170 C.ar  1 <1>   0.1770 
  3 C       -1.4020     3.2680    -0.8560 C.ar  1 <1>  -0.1440 
  4 C       -0.7490     2.8050     1.4320 C.ar  1 <1>  -0.1500 
  5 C       -2.7360     3.1690    -0.4810 C.ar  1 <1>  -0.1500 
  6 C       -1.0550     3.5800    -2.3110 C.3   1 <1>   0.0450 
  7 C       -2.0790     2.7110     1.7940 C.ar  1 <1>   0.0820 
  8 C       -3.0760     2.8860     0.8310 C.ar  1 <1>   0.0820 
  9 C       -0.9020     5.0710    -2.5570 C.2   1 <1>   0.5690 
 10 O       -2.3900     2.4560     3.0900 O.3   1 <1>  -0.3630 
 11 O       -4.3900     2.7790     1.1560 O.3   1 <1>  -0.3630 
 12 O       -1.5670     5.6000    -3.4140 O.2   1 <1>  -0.5700 
 13 N       -0.0160     5.7750    -1.8160 N.am  1 <1>  -0.7300 
 14 C       -3.7320     2.6780     3.4850 C.3   1 <1>   0.1200 
 15 C       -4.6950     2.1770     2.4000 C.3   1 <1>   0.1200 
 16 C        0.2030     7.2200    -1.9280 C.3   1 <1>   0.3210 
 17 C        1.4610     7.5470    -1.1560 C.2   1 <1>  -0.1810 
 18 C        2.7620     7.3130    -1.5820 C.2   1 <1>   0.1390 
 19 C        1.5980     8.0980     0.0690 C.2   1 <1>  -0.3020 
 20 N        3.6410     7.6850    -0.7020 N.2   1 <1>  -0.7070 
 21 N        2.9190     8.1710     0.3240 N.pl3 1 <1>   0.3140 
 22 C        3.5540     8.6930     1.5490 C.3   1 <1>   0.0960 
 23 C        3.5460     7.6350     2.6620 C.3   1 <1>  -0.1600 
 24 C        4.2040     8.1650     3.9410 C.3   1 <1>  -0.2400 
 25 H        0.0220     2.6670     2.1680 H     1 <1>   0.1500 
 26 H       -3.5240     3.3110    -1.2000 H     1 <1>   0.1500 
 27 H       -1.8330     3.2080    -2.9520 H     1 <1>   0.0800 
 28 H       -0.1470     3.0860    -2.6010 H     1 <1>   0.0800 
 29 H        0.5360     5.3190    -1.0840 H     1 <1>   0.3700 
 30 H       -3.8640     3.7330     3.6430 H     1 <1>   0.0800 
 31 H       -3.8950     2.1580     4.4110 H     1 <1>   0.0800 
 32 H       -4.6090     1.1110     2.2860 H     1 <1>   0.0800 
 33 H       -5.7120     2.4250     2.6470 H     1 <1>   0.0800 
 34 H       -0.6390     7.7420    -1.5070 H     1 <1>   0.0800 
 35 H        0.3060     7.4990    -2.9630 H     1 <1>   0.0800 
 36 H        3.0250     6.8710    -2.5290 H     1 <1>   0.1500 
 37 H        0.8470     8.4310     0.7620 H     1 <1>   0.1500 
 38 H        3.0210     9.5720     1.8610 H     1 <1>   0.0800 
 39 H        4.5650     8.9700     1.3100 H     1 <1>   0.0800 
 40 H        4.0830     6.7650     2.3230 H     1 <1>   0.0800 
 41 H        2.5320     7.3470     2.8790 H     1 <1>   0.0800 
 42 H        5.2280     8.4390     3.7530 H     1 <1>   0.0800 
 43 H        4.1900     7.4050     4.7020 H     1 <1>   0.0800 
 44 H        3.6760     9.0270     4.3100 H     1 <1>   0.0800 
@<TRIPOS>BOND
  1   1   2  1   
  2   2   3  ar  
  3   2   4  ar  
  4   3   5  ar  
  5   3   6  1   
  6   4   7  ar  
  7   4  25  1   
  8   5   8  ar  
  9   5  26  1   
 10   6   9  1   
 11   6  27  1   
 12   6  28  1   
 13   7   8  ar  
 14   7  10  1   
 15   8  11  1   
 16   9  12  2   
 17   9  13  am  
 18  10  14  1   
 19  11  15  1   
 20  13  16  1   
 21  13  29  1   
 22  14  15  1   
 23  14  30  1   
 24  14  31  1   
 25  15  32  1   
 26  15  33  1   
 27  16  17  1   
 28  16  34  1   
 29  16  35  1   
 30  17  18  1   
 31  17  19  2   
 32  18  20  2   
 33  18  36  1   
 34  19  21  1   
 35  19  37  1   
 36  20  21  1   
 37  21  22  1   
 38  22  23  1   
 39  22  38  1   
 40  22  39  1   
 41  23  24  1   
 42  23  40  1   
 43  23  41  1   
 44  24  42  1   
 45  24  43  1   
 46  24  44  1   
@<TRIPOS>SUBSTRUCTURE
  1 ****   2 GROUP 4 **** **** 0

# MOE 2024.06 (io_trps.svl 2023.06)
