@<TRIPOS>MOLECULE
NONAME
44 46 1 0 0 
SMALL
USER_CHARGES


@<TRIPOS>ATOM
  1 S       -1.2380    -1.1370    -1.9410 S.3   1 <1>  -0.0800 
  2 C       -1.5550    -1.0160    -0.2130 C.2   1 <1>  -0.1400 
  3 C       -1.2750     0.6070    -2.1180 C.2   1 <1>  -0.1100 
  4 C       -1.6690     0.2770     0.1500 C.2   1 <1>  -0.1500 
  5 C       -1.6550    -2.2970     0.5990 C.3   1 <1>   0.3800 
  6 C       -1.5110     1.1990    -0.9330 C.2   1 <1>  -0.1500 
  7 O       -0.4380    -2.9340     0.5210 O.3   1 <1>  -0.6800 
  8 C       -2.7470    -3.2650     0.0930 C.3   1 <1>  -0.0800 
  9 C       -4.1430    -2.6130     0.0790 C.3   1 <1>  -0.1600 
 10 C       -2.8040    -4.5670     0.9160 C.3   1 <1>  -0.1600 
 11 C       -5.2120    -3.5890    -0.4110 C.3   1 <1>   0.3430 
 12 C       -3.8960    -5.5050     0.4080 C.3   1 <1>   0.3430 
 13 N       -5.2230    -4.8120     0.4500 N.4   1 <1>  -0.9590 
 14 C       -6.3570    -5.7070     0.0390 C.3   1 <1>   0.3430 
 15 C       -6.6080    -6.8580     1.0220 C.3   1 <1>   0.0960 
 16 N       -7.7690    -7.6220     0.5430 N.pl3 1 <1>   0.0480 
 17 C       -7.8240    -8.6300    -0.3350 C.2   1 <1>   0.0060 
 18 C       -9.0550    -7.4140     0.8340 C.2   1 <1>   0.0360 
 19 N       -9.0380    -8.9860    -0.5620 N.2   1 <1>  -0.3380 
 20 C       -6.6270    -9.2900    -0.9960 C.3   1 <1>  -0.0600 
 21 N       -9.8250    -8.2100     0.1840 N.2   1 <1>  -0.3380 
 22 H       -1.1120     1.0090    -3.1030 H     1 <1>   0.1500 
 23 H       -1.8590     0.6390     1.1460 H     1 <1>   0.1500 
 24 H       -1.8230    -2.0490     1.6330 H     1 <1>   0.0800 
 25 H       -1.5810     2.2610    -0.7700 H     1 <1>   0.1500 
 26 H        0.2540    -2.2600     0.3640 H     1 <1>   0.4000 
 27 H       -2.4970    -3.5240    -0.9230 H     1 <1>   0.0800 
 28 H       -4.1380    -1.7630    -0.5820 H     1 <1>   0.0800 
 29 H       -4.4000    -2.2540     1.0610 H     1 <1>   0.0800 
 30 H       -2.9650    -4.3480     1.9570 H     1 <1>   0.0800 
 31 H       -1.8600    -5.0800     0.8410 H     1 <1>   0.0800 
 32 H       -5.0030    -3.8620    -1.4330 H     1 <1>   0.0800 
 33 H       -6.1760    -3.1040    -0.3810 H     1 <1>   0.0800 
 34 H       -3.9130    -6.3900     1.0230 H     1 <1>   0.0800 
 35 H       -3.6680    -5.8000    -0.6050 H     1 <1>   0.0800 
 36 H       -5.3730    -4.4870     1.4160 H     1 <1>   0.4500 
 37 H       -6.1530    -6.1160    -0.9380 H     1 <1>   0.0800 
 38 H       -7.2600    -5.1210    -0.0300 H     1 <1>   0.0800 
 39 H       -6.8310    -6.4770     2.0030 H     1 <1>   0.0800 
 40 H       -5.7620    -7.5180     1.0760 H     1 <1>   0.0800 
 41 H       -9.4040    -6.6690     1.5260 H     1 <1>   0.1500 
 42 H       -6.0860    -8.5830    -1.5950 H     1 <1>   0.0800 
 43 H       -6.9660   -10.0870    -1.6360 H     1 <1>   0.0800 
 44 H       -5.9770    -9.7130    -0.2520 H     1 <1>   0.0800 
@<TRIPOS>BOND
  1   1   2  1   
  2   1   3  1   
  3   2   4  2   
  4   2   5  1   
  5   3   6  2   
  6   3  22  1   
  7   4   6  1   
  8   4  23  1   
  9   5   7  1   
 10   5   8  1   
 11   5  24  1   
 12   6  25  1   
 13   7  26  1   
 14   8   9  1   
 15   8  10  1   
 16   8  27  1   
 17   9  11  1   
 18   9  28  1   
 19   9  29  1   
 20  10  12  1   
 21  10  30  1   
 22  10  31  1   
 23  11  13  1   
 24  11  32  1   
 25  11  33  1   
 26  12  13  1   
 27  12  34  1   
 28  12  35  1   
 29  13  14  1   
 30  13  36  1   
 31  14  15  1   
 32  14  37  1   
 33  14  38  1   
 34  15  16  1   
 35  15  39  1   
 36  15  40  1   
 37  16  17  1   
 38  16  18  1   
 39  17  19  2   
 40  17  20  1   
 41  18  21  2   
 42  18  41  1   
 43  19  21  1   
 44  20  42  1   
 45  20  43  1   
 46  20  44  1   
@<TRIPOS>SUBSTRUCTURE
  1 ****  13 GROUP 4 **** **** 0

# MOE 2024.06 (io_trps.svl 2023.06)
