@<TRIPOS>MOLECULE
NONAME
57 59 1 0 0 
SMALL
USER_CHARGES


@<TRIPOS>ATOM
  1 S       -0.6700    -0.4650     0.8870 S.o2  1 <1>   1.3330 
  2 O       -2.0380    -0.4260     1.3430 O.2   1 <1>  -0.6500 
  3 O        0.3980     0.0300     1.7180 O.2   1 <1>  -0.6500 
  4 N       -0.3310    -2.1320     0.5790 N.am  1 <1>  -0.6930 
  5 C       -0.5870     0.2670    -0.7340 C.3   1 <1>  -0.1350 
  6 C        0.7650    -2.5070    -0.1880 C.ar  1 <1>   0.1990 
  7 C       -0.6920    -3.0490     1.7050 C.3   1 <1>   0.2570 
  8 C        2.0640    -2.1970     0.1980 C.ar  1 <1>  -0.1500 
  9 C        0.5650    -3.2100    -1.3740 C.ar  1 <1>  -0.1500 
 10 C       -1.2850    -4.3920     1.2560 C.2   1 <1>   0.5690 
 11 C        3.1120    -2.5900    -0.6080 C.ar  1 <1>   0.1900 
 12 C        1.6300    -3.5970    -2.1710 C.ar  1 <1>  -0.1500 
 13 O       -0.8340    -5.4060     1.7430 O.2   1 <1>  -0.5700 
 14 N       -2.3310    -4.4740     0.3670 N.am  1 <1>  -0.6600 
 15 F        4.3310    -2.2950    -0.2440 F     1 <1>  -0.1900 
 16 C        2.9240    -3.2850    -1.7880 C.ar  1 <1>  -0.1500 
 17 C       -2.7650    -5.7770    -0.1650 C.3   1 <1>   0.1400 
 18 C       -3.3990    -3.4520     0.2350 C.3   1 <1>   0.1400 
 19 C       -4.0220    -6.1260     0.6480 C.3   1 <1>   0.4230 
 20 C       -4.7380    -4.0010     0.7990 C.3   1 <1>  -0.1600 
 21 N       -4.1350    -7.5860     1.0250 N.4   1 <1>  -0.9590 
 22 C       -5.2900    -5.3410     0.0580 C.3   1 <1>   0.0000 
 23 C       -4.1410    -8.4710    -0.1540 C.3   1 <1>   0.3430 
 24 C       -3.0570    -7.9710     1.9950 C.3   1 <1>   0.2630 
 25 C       -5.8360    -6.6300    -0.7550 C.3   1 <1>  -0.1600 
 26 C       -6.5730    -4.5260    -0.4470 C.3   1 <1>   0.1200 
 27 C       -4.9200    -7.7750    -1.2560 C.3   1 <1>  -0.1600 
 28 O       -6.2220    -3.7690    -1.5630 O.3   1 <1>  -0.6800 
 29 H       -1.2880    -0.2080    -1.3920 H     1 <1>   0.0800 
 30 H        0.3990     0.1600    -1.1420 H     1 <1>   0.0800 
 31 H       -0.8220     1.3120    -0.6760 H     1 <1>   0.0800 
 32 H        0.1940    -3.2450     2.2840 H     1 <1>   0.0800 
 33 H       -1.3990    -2.5760     2.3600 H     1 <1>   0.0800 
 34 H        2.2570    -1.6620     1.1090 H     1 <1>   0.1500 
 35 H       -0.4400    -3.4530    -1.6680 H     1 <1>   0.1500 
 36 H        1.4560    -4.1390    -3.0850 H     1 <1>   0.1500 
 37 H        3.7710    -3.5720    -2.3860 H     1 <1>   0.1500 
 38 H       -2.9920    -5.6720    -1.2120 H     1 <1>   0.0800 
 39 H       -1.9870    -6.5090    -0.0480 H     1 <1>   0.0800 
 40 H       -3.1340    -2.5560     0.7660 H     1 <1>   0.0800 
 41 H       -3.5200    -3.1940    -0.8050 H     1 <1>   0.0800 
 42 H       -3.8020    -5.7020     1.6100 H     1 <1>   0.0800 
 43 H       -4.6550    -4.1350     1.8660 H     1 <1>   0.0800 
 44 H       -5.3330    -3.1040     0.7620 H     1 <1>   0.0800 
 45 H       -5.0460    -7.6900     1.4900 H     1 <1>   0.4500 
 46 H       -3.1350    -8.6670    -0.4900 H     1 <1>   0.0800 
 47 H       -4.6090    -9.4100     0.0970 H     1 <1>   0.0800 
 48 H       -2.0830    -7.8530     1.5480 H     1 <1>   0.0800 
 49 H       -3.1740    -8.9970     2.3020 H     1 <1>   0.0800 
 50 H       -3.1000    -7.3430     2.8710 H     1 <1>   0.0800 
 51 H       -6.6230    -7.0860    -0.1740 H     1 <1>   0.0800 
 52 H       -6.2730    -6.3560    -1.7070 H     1 <1>   0.0800 
 53 H       -7.0100    -3.8740     0.2920 H     1 <1>   0.0800 
 54 H       -7.4420    -5.1040    -0.7240 H     1 <1>   0.0800 
 55 H       -4.2300    -7.3940    -1.9890 H     1 <1>   0.0800 
 56 H       -5.5140    -8.5140    -1.7660 H     1 <1>   0.0800 
 57 H       -6.9870    -3.2560    -1.8970 H     1 <1>   0.4000 
@<TRIPOS>BOND
  1   1   2  2   
  2   1   3  2   
  3   1   4  am  
  4   1   5  1   
  5   4   6  1   
  6   4   7  1   
  7   5  29  1   
  8   5  30  1   
  9   5  31  1   
 10   6   8  ar  
 11   6   9  ar  
 12   7  10  1   
 13   7  32  1   
 14   7  33  1   
 15   8  11  ar  
 16   8  34  1   
 17   9  12  ar  
 18   9  35  1   
 19  10  13  2   
 20  10  14  am  
 21  11  15  1   
 22  11  16  ar  
 23  12  16  ar  
 24  12  36  1   
 25  14  17  1   
 26  14  18  1   
 27  16  37  1   
 28  17  19  1   
 29  17  38  1   
 30  17  39  1   
 31  18  20  1   
 32  18  40  1   
 33  18  41  1   
 34  19  21  1   
 35  19  22  1   
 36  19  42  1   
 37  20  22  1   
 38  20  43  1   
 39  20  44  1   
 40  21  23  1   
 41  21  24  1   
 42  21  45  1   
 43  22  25  1   
 44  22  26  1   
 45  23  27  1   
 46  23  46  1   
 47  23  47  1   
 48  24  48  1   
 49  24  49  1   
 50  24  50  1   
 51  25  27  1   
 52  25  51  1   
 53  25  52  1   
 54  26  28  1   
 55  26  53  1   
 56  26  54  1   
 57  27  55  1   
 58  27  56  1   
 59  28  57  1   
@<TRIPOS>SUBSTRUCTURE
  1 ****  14 GROUP 4 **** **** 0

# MOE 2024.06 (io_trps.svl 2023.06)
