@<TRIPOS>MOLECULE
NONAME
23 24 1 0 0 
SMALL
USER_CHARGES


@<TRIPOS>ATOM
  1 BR      -0.1480     0.2610    -0.1890 Br    1 <1>  -0.1110 
  2 C        1.4530    -0.8090    -0.0800 C.ar  1 <1>   0.1110 
  3 C        2.5870    -0.4440    -0.7860 C.ar  1 <1>   0.1770 
  4 C        1.4350    -1.9400     0.7160 C.ar  1 <1>  -0.1500 
  5 CL       2.6040     0.9870    -1.7890 Cl    1 <1>  -0.1770 
  6 C        3.7270    -1.2190    -0.7010 C.ar  1 <1>  -0.1500 
  7 C        2.5790    -2.7180     0.8020 C.ar  1 <1>  -0.1500 
  8 C        3.7270    -2.3620     0.0880 C.ar  1 <1>   0.0830 
  9 O        4.8790    -3.0780     0.1120 O.3   1 <1>  -0.3400 
 10 C        4.9220    -4.3950     0.6230 C.3   1 <1>   0.2580 
 11 C        6.3080    -5.0350     0.3700 C.3   1 <1>   0.4720 
 12 C        4.3670    -5.4300    -0.3870 C.3   1 <1>   0.4720 
 13 N        5.6210    -6.2410    -0.2070 N.4   1 <1>  -0.8440 
 14 H        0.5410    -2.1970     1.2600 H     1 <1>   0.1500 
 15 H        4.6070    -0.9310    -1.2470 H     1 <1>   0.1500 
 16 H        2.5490    -3.5830     1.4380 H     1 <1>   0.1500 
 17 H        4.5730    -4.4680     1.6380 H     1 <1>   0.0000 
 18 H        6.8520    -5.2820     1.2640 H     1 <1>   0.0000 
 19 H        6.8820    -4.5230    -0.3820 H     1 <1>   0.0000 
 20 H        4.2960    -5.0500    -1.3900 H     1 <1>   0.0000 
 21 H        3.5000    -5.9640    -0.0420 H     1 <1>   0.0000 
 22 H        5.5150    -7.0040     0.4710 H     1 <1>   0.4500 
 23 H        6.0320    -6.5510    -1.0950 H     1 <1>   0.4500 
@<TRIPOS>BOND
  1   1   2  1   
  2   2   3  ar  
  3   2   4  ar  
  4   3   5  1   
  5   3   6  ar  
  6   4   7  ar  
  7   4  14  1   
  8   6   8  ar  
  9   6  15  1   
 10   7   8  ar  
 11   7  16  1   
 12   8   9  1   
 13   9  10  1   
 14  10  11  1   
 15  10  12  1   
 16  10  17  1   
 17  11  13  1   
 18  11  18  1   
 19  11  19  1   
 20  12  13  1   
 21  12  20  1   
 22  12  21  1   
 23  13  22  1   
 24  13  23  1   
@<TRIPOS>SUBSTRUCTURE
  1 ****   8 GROUP 4 **** **** 0

# MOE 2024.06 (io_trps.svl 2023.06)
