@<TRIPOS>MOLECULE
NONAME
42 44 1 0 0 
SMALL
USER_CHARGES


@<TRIPOS>ATOM
  1 F        1.2970    -0.2600     2.0490 F     1 <1>  -0.3400 
  2 C        2.0390    -0.8610     1.1260 C.3   1 <1>   1.1640 
  3 F        2.4420     0.0910     0.2940 F     1 <1>  -0.3400 
  4 F        3.1270    -1.2990     1.7460 F     1 <1>  -0.3400 
  5 C        1.3040    -1.9900     0.3960 C.ar  1 <1>  -0.1430 
  6 C        0.0920    -2.4980     0.8210 C.ar  1 <1>  -0.1500 
  7 C        1.8280    -2.5760    -0.7470 C.ar  1 <1>  -0.1500 
  8 C       -0.5300    -3.5250     0.1220 C.ar  1 <1>   0.4100 
  9 C        1.1360    -3.5950    -1.3760 C.ar  1 <1>   0.1600 
 10 N       -0.0240    -4.0810    -0.9720 N.ar  1 <1>  -0.6200 
 11 N       -1.7410    -4.0010     0.5700 N.pl3 1 <1>  -0.8380 
 12 C       -2.9230    -3.7230    -0.2980 C.3   1 <1>   0.2090 
 13 C       -1.7860    -5.4370     0.9400 C.3   1 <1>   0.2090 
 14 C       -3.6770    -5.0510    -0.4780 C.3   1 <1>   0.2000 
 15 C       -2.6270    -6.1080    -0.1440 C.3   1 <1>  -0.0800 
 16 O       -4.7300    -5.1520     0.4440 O.3   1 <1>  -0.5600 
 17 C       -3.1880    -7.4800     0.2710 C.3   1 <1>   0.0200 
 18 C       -5.9180    -4.5390     0.0550 C.3   1 <1>   0.0400 
 19 C       -2.1050    -8.5360     0.4200 C.2   1 <1>  -0.0400 
 20 O       -2.4240    -9.7050     0.9090 O.3   1 <1>  -0.0190 
 21 C       -0.7920    -8.5570     0.1380 C.2   1 <1>  -0.1500 
 22 N       -1.3970   -10.5030     0.9740 N.2   1 <1>  -0.4100 
 23 C       -0.4000    -9.8370     0.5160 C.2   1 <1>   0.1080 
 24 C        1.0080   -10.3790     0.4060 C.3   1 <1>  -0.0590 
 25 H       -0.4060    -2.1220     1.6960 H     1 <1>   0.1500 
 26 H        2.7690    -2.2450    -1.1520 H     1 <1>   0.1500 
 27 H        1.5600    -4.0350    -2.2630 H     1 <1>   0.1500 
 28 H       -3.5480    -2.9760     0.1560 H     1 <1>   0.0800 
 29 H       -2.5890    -3.3690    -1.2580 H     1 <1>   0.0800 
 30 H       -0.7980    -5.8590     0.9970 H     1 <1>   0.0800 
 31 H       -2.2670    -5.5310     1.8990 H     1 <1>   0.0800 
 32 H       -4.0640    -5.1740    -1.4740 H     1 <1>   0.0800 
 33 H       -2.0030    -6.2320    -1.0110 H     1 <1>   0.0800 
 34 H       -3.8920    -7.8170    -0.4680 H     1 <1>   0.0800 
 35 H       -3.7140    -7.3910     1.2060 H     1 <1>   0.0800 
 36 H       -6.6380    -4.6810     0.8420 H     1 <1>   0.0800 
 37 H       -6.2770    -5.0000    -0.8490 H     1 <1>   0.0800 
 38 H       -5.7520    -3.4870    -0.0950 H     1 <1>   0.0800 
 39 H       -0.1590    -7.7950    -0.2790 H     1 <1>   0.1500 
 40 H        1.3670   -10.2620    -0.6000 H     1 <1>   0.0800 
 41 H        1.0200   -11.4230     0.6620 H     1 <1>   0.0800 
 42 H        1.6550    -9.8470     1.0790 H     1 <1>   0.0800 
@<TRIPOS>BOND
  1   1   2  1   
  2   2   3  1   
  3   2   4  1   
  4   2   5  1   
  5   5   6  ar  
  6   5   7  ar  
  7   6   8  ar  
  8   6  25  1   
  9   7   9  ar  
 10   7  26  1   
 11   8  10  ar  
 12   8  11  1   
 13   9  10  ar  
 14   9  27  1   
 15  11  12  1   
 16  11  13  1   
 17  12  14  1   
 18  12  28  1   
 19  12  29  1   
 20  13  15  1   
 21  13  30  1   
 22  13  31  1   
 23  14  15  1   
 24  14  16  1   
 25  14  32  1   
 26  15  17  1   
 27  15  33  1   
 28  16  18  1   
 29  17  19  1   
 30  17  34  1   
 31  17  35  1   
 32  18  36  1   
 33  18  37  1   
 34  18  38  1   
 35  19  20  1   
 36  19  21  2   
 37  20  22  1   
 38  21  23  1   
 39  21  39  1   
 40  22  23  2   
 41  23  24  1   
 42  24  40  1   
 43  24  41  1   
 44  24  42  1   
@<TRIPOS>SUBSTRUCTURE
  1 ****  13 GROUP 4 **** **** 0

# MOE 2024.06 (io_trps.svl 2023.06)
