@<TRIPOS>MOLECULE
NONAME
56 57 1 0 0 
SMALL
USER_CHARGES


@<TRIPOS>ATOM
  1 O       -0.5750    -0.0230     0.7610 O.2   1 <1>  -0.5700 
  2 C       -1.5980     0.4930     0.3620 C.2   1 <1>   0.5440 
  3 N       -2.6900    -0.3050     0.1000 N.am  1 <1>  -0.6600 
  4 C       -1.6730     1.9350     0.2330 C.ar  1 <1>   0.0860 
  5 C       -2.6030    -1.7640     0.4670 C.3   1 <1>   0.3210 
  6 C       -4.0110     0.2540    -0.3230 C.3   1 <1>   0.1400 
  7 C       -1.7300     2.7440     1.3630 C.ar  1 <1>  -0.1500 
  8 C       -1.7230     2.5640    -1.0070 C.ar  1 <1>  -0.1500 
  9 C       -3.8760    -2.5780     0.2130 C.2   1 <1>   0.0460 
 10 C       -4.8190     0.6840     0.9150 C.3   1 <1>   0.3430 
 11 C       -1.8760     4.1150     1.2570 C.ar  1 <1>  -0.1500 
 12 C       -1.8720     3.9340    -1.1140 C.ar  1 <1>  -0.1500 
 13 N       -4.9800    -2.4200     0.9790 N.2   1 <1>  -0.5650 
 14 C       -4.0830    -3.5290    -0.7300 C.2   1 <1>  -0.3320 
 15 N       -5.7730     1.8090     0.6330 N.4   1 <1>  -0.9590 
 16 C       -1.9620     4.7400     0.0180 C.ar  1 <1>  -0.1430 
 17 C       -5.8160    -3.2840     0.5030 C.2   1 <1>   0.0360 
 18 N       -5.3330    -3.9890    -0.5400 N.pl3 1 <1>   0.0330 
 19 C       -3.1760    -4.0730    -1.8230 C.3   1 <1>  -0.0600 
 20 C       -5.0540     3.1060     0.4090 C.3   1 <1>   0.2630 
 21 C       -6.7390     1.9370     1.7660 C.3   1 <1>   0.2630 
 22 C       -2.1240     6.2750    -0.0500 C.3   1 <1>   0.1430 
 23 C       -2.2170     6.8110    -1.4880 C.3   1 <1>  -0.2400 
 24 C       -0.9140     6.9450     0.6170 C.3   1 <1>  -0.2400 
 25 C       -3.4070     6.6940     0.6830 C.3   1 <1>  -0.2400 
 26 H       -2.3590    -1.8430     1.5120 H     1 <1>   0.0800 
 27 H       -1.7890    -2.2020    -0.0800 H     1 <1>   0.0800 
 28 H       -4.5630    -0.4710    -0.8940 H     1 <1>   0.0800 
 29 H       -3.8440     1.0930    -0.9690 H     1 <1>   0.0800 
 30 H       -1.6490     2.2870     2.3350 H     1 <1>   0.1500 
 31 H       -1.6400     1.9640    -1.8980 H     1 <1>   0.1500 
 32 H       -4.1320     0.9900     1.6850 H     1 <1>   0.0800 
 33 H       -5.3660    -0.1680     1.2810 H     1 <1>   0.0800 
 34 H       -1.9090     4.6970     2.1620 H     1 <1>   0.1500 
 35 H       -1.9030     4.3540    -2.1040 H     1 <1>   0.1500 
 36 H       -6.3080     1.5660    -0.2150 H     1 <1>   0.4500 
 37 H       -6.8090    -3.4480     0.8870 H     1 <1>   0.1500 
 38 H       -5.8130    -4.7290    -1.0620 H     1 <1>   0.2700 
 39 H       -2.2370    -3.5500    -1.8410 H     1 <1>   0.0800 
 40 H       -3.6430    -3.9590    -2.7850 H     1 <1>   0.0800 
 41 H       -2.9790    -5.1170    -1.6550 H     1 <1>   0.0800 
 42 H       -4.4780     3.3710     1.2810 H     1 <1>   0.0800 
 43 H       -5.7580     3.8970     0.2090 H     1 <1>   0.0800 
 44 H       -4.3800     3.0300    -0.4290 H     1 <1>   0.0800 
 45 H       -6.2180     2.1820     2.6770 H     1 <1>   0.0800 
 46 H       -7.2680     1.0090     1.9120 H     1 <1>   0.0800 
 47 H       -7.4590     2.7130     1.5600 H     1 <1>   0.0800 
 48 H       -1.3200     6.5830    -2.0360 H     1 <1>   0.0800 
 49 H       -2.3360     7.8810    -1.4850 H     1 <1>   0.0800 
 50 H       -3.0600     6.3860    -2.0030 H     1 <1>   0.0800 
 51 H       -0.0060     6.6330     0.1330 H     1 <1>   0.0800 
 52 H       -0.8460     6.6850     1.6570 H     1 <1>   0.0800 
 53 H       -0.9850     8.0160     0.5470 H     1 <1>   0.0800 
 54 H       -4.2630     6.2260     0.2330 H     1 <1>   0.0800 
 55 H       -3.5380     7.7610     0.6290 H     1 <1>   0.0800 
 56 H       -3.3700     6.4220     1.7220 H     1 <1>   0.0800 
@<TRIPOS>BOND
  1   1   2  2   
  2   2   3  am  
  3   2   4  1   
  4   3   5  1   
  5   3   6  1   
  6   4   7  ar  
  7   4   8  ar  
  8   5   9  1   
  9   5  26  1   
 10   5  27  1   
 11   6  10  1   
 12   6  28  1   
 13   6  29  1   
 14   7  11  ar  
 15   7  30  1   
 16   8  12  ar  
 17   8  31  1   
 18   9  13  1   
 19   9  14  2   
 20  10  15  1   
 21  10  32  1   
 22  10  33  1   
 23  11  16  ar  
 24  11  34  1   
 25  12  16  ar  
 26  12  35  1   
 27  13  17  2   
 28  14  18  1   
 29  14  19  1   
 30  15  20  1   
 31  15  21  1   
 32  15  36  1   
 33  16  22  1   
 34  17  18  1   
 35  17  37  1   
 36  18  38  1   
 37  19  39  1   
 38  19  40  1   
 39  19  41  1   
 40  20  42  1   
 41  20  43  1   
 42  20  44  1   
 43  21  45  1   
 44  21  46  1   
 45  21  47  1   
 46  22  23  1   
 47  22  24  1   
 48  22  25  1   
 49  23  48  1   
 50  23  49  1   
 51  23  50  1   
 52  24  51  1   
 53  24  52  1   
 54  24  53  1   
 55  25  54  1   
 56  25  55  1   
 57  25  56  1   
@<TRIPOS>SUBSTRUCTURE
  1 ****   6 GROUP 4 **** **** 0

# MOE 2024.06 (io_trps.svl 2023.06)
