@<TRIPOS>MOLECULE
NONAME
36 38 1 0 0 
SMALL
USER_CHARGES


@<TRIPOS>ATOM
  1 S       -0.1380     0.0090    -0.8680 S.3   1 <1>  -0.0800 
  2 C       -0.6600     1.4310     0.0050 C.2   1 <1>   0.4620 
  3 C       -1.2730    -0.9690     0.0450 C.2   1 <1>  -0.0450 
  4 N       -1.5720     1.2090     0.8760 N.2   1 <1>  -0.5650 
  5 N       -0.0950     2.6220    -0.2810 N.pl3 1 <1>  -0.8840 
  6 C       -1.3560    -2.3800    -0.2140 C.2   1 <1>   0.7150 
  7 C       -1.8980    -0.1220     0.8970 C.2   1 <1>   0.0770 
  8 O       -0.4130    -2.9660    -0.7140 O.2   1 <1>  -0.5700 
  9 N       -2.4850    -3.1140     0.0910 N.am  1 <1>  -0.6600 
 10 C       -3.8560    -2.5580     0.2190 C.3   1 <1>   0.1400 
 11 C       -2.5440    -4.5810    -0.1440 C.3   1 <1>   0.1400 
 12 C       -4.7900    -3.7260    -0.1010 C.3   1 <1>   0.2000 
 13 C       -3.9820    -4.9870     0.1890 C.3   1 <1>  -0.0800 
 14 O       -5.9300    -3.7020     0.6870 O.3   1 <1>  -0.6800 
 15 C       -4.4930    -6.2100    -0.5940 C.3   1 <1>  -0.0170 
 16 C       -3.7250    -7.4730    -0.2380 C.ar  1 <1>   0.1670 
 17 N       -2.5450    -7.6300    -0.8160 N.ar  1 <1>  -0.6200 
 18 C       -4.2720    -8.3940     0.6540 C.ar  1 <1>   0.1600 
 19 C       -1.9530    -8.7530    -0.4440 C.ar  1 <1>   0.1600 
 20 N       -3.6810    -9.5170     1.0290 N.ar  1 <1>  -0.6200 
 21 C       -2.5030    -9.6650     0.4480 C.ar  1 <1>   0.1600 
 22 H        0.6480     2.7320    -0.9710 H     1 <1>   0.4000 
 23 H       -0.3760     3.4590     0.2320 H     1 <1>   0.4000 
 24 H       -2.6430    -0.4280     1.6100 H     1 <1>   0.1500 
 25 H       -4.0080    -2.2220     1.2300 H     1 <1>   0.0800 
 26 H       -4.0080    -1.7480    -0.4740 H     1 <1>   0.0800 
 27 H       -2.3180    -4.7830    -1.1780 H     1 <1>   0.0800 
 28 H       -1.8320    -5.0980     0.4770 H     1 <1>   0.0800 
 29 H       -5.0890    -3.6810    -1.1350 H     1 <1>   0.0800 
 30 H       -4.0150    -5.1990     1.2440 H     1 <1>   0.0800 
 31 H       -5.6950    -3.7450     1.6340 H     1 <1>   0.4000 
 32 H       -4.4030    -6.0340    -1.6520 H     1 <1>   0.0800 
 33 H       -5.5370    -6.3530    -0.3790 H     1 <1>   0.0800 
 34 H       -5.2390    -8.1940     1.0790 H     1 <1>   0.1500 
 35 H       -0.9860    -8.9620    -0.8670 H     1 <1>   0.1500 
 36 H       -1.9440   -10.5520     0.6890 H     1 <1>   0.1500 
@<TRIPOS>BOND
  1   1   2  1   
  2   1   3  1   
  3   2   4  2   
  4   2   5  1   
  5   3   6  1   
  6   3   7  2   
  7   4   7  1   
  8   5  22  1   
  9   5  23  1   
 10   6   8  2   
 11   6   9  am  
 12   7  24  1   
 13   9  10  1   
 14   9  11  1   
 15  10  12  1   
 16  10  25  1   
 17  10  26  1   
 18  11  13  1   
 19  11  27  1   
 20  11  28  1   
 21  12  13  1   
 22  12  14  1   
 23  12  29  1   
 24  13  15  1   
 25  13  30  1   
 26  14  31  1   
 27  15  16  1   
 28  15  32  1   
 29  15  33  1   
 30  16  17  ar  
 31  16  18  ar  
 32  17  19  ar  
 33  18  20  ar  
 34  18  34  1   
 35  19  21  ar  
 36  19  35  1   
 37  20  21  ar  
 38  21  36  1   
@<TRIPOS>SUBSTRUCTURE
  1 ****  11 GROUP 4 **** **** 0

# MOE 2024.06 (io_trps.svl 2023.06)
