@<TRIPOS>MOLECULE
NONAME
42 44 1 0 0 
SMALL
USER_CHARGES


@<TRIPOS>ATOM
  1 O        0.5940     1.2530    -0.1410 O.3   1 <1>  -0.2800 
  2 C        0.1890     1.8550     0.9340 C.2   1 <1>   0.2980 
  3 C       -0.4160     0.5240    -0.4820 C.2   1 <1>   0.2980 
  4 N       -1.0010     1.5090     1.2580 N.2   1 <1>  -0.3380 
  5 C        1.1090     2.8110     1.6930 C.3   1 <1>   0.2900 
  6 N       -1.3970     0.6390     0.3270 N.2   1 <1>  -0.3380 
  7 C       -0.3410    -0.3370    -1.7210 C.3   1 <1>  -0.0600 
  8 N        1.3050     4.1420     1.0620 N.3   1 <1>  -0.8100 
  9 C        1.9990     5.0660     2.0120 C.3   1 <1>   0.2530 
 10 C        2.0160     4.0590    -0.2240 C.3   1 <1>   0.0300 
 11 C        2.1940     6.5150     1.5370 C.ar  1 <1>   0.4760 
 12 N        3.3470     6.7890     0.9460 N.ar  1 <1>  -0.6200 
 13 N        1.2060     7.3620     1.7890 N.ar  1 <1>  -0.6200 
 14 C        3.5300     8.0360     0.5410 C.ar  1 <1>   0.3100 
 15 C        1.3870     8.5940     1.3790 C.ar  1 <1>   0.1670 
 16 C        4.7700     8.3870    -0.1190 C.ar  1 <1>   0.0000 
 17 C        2.5410     8.9770     0.7440 C.ar  1 <1>  -0.1500 
 18 C        0.2610     9.5720     1.6370 C.3   1 <1>  -0.0970 
 19 C        5.4860     9.5310     0.2360 C.ar  1 <1>  -0.1500 
 20 C        5.2920     7.5900    -1.1370 C.ar  1 <1>  -0.1500 
 21 C        6.6630     9.8700    -0.4060 C.ar  1 <1>  -0.1500 
 22 C        6.4690     7.9230    -1.7820 C.ar  1 <1>  -0.1500 
 23 C        7.1560     9.0670    -1.4190 C.ar  1 <1>  -0.1500 
 24 H        2.0620     2.3320     1.8310 H     1 <1>   0.0800 
 25 H        0.6700     2.9560     2.6650 H     1 <1>   0.0800 
 26 H        0.4660    -1.0390    -1.6250 H     1 <1>   0.0800 
 27 H       -0.1730     0.2840    -2.5810 H     1 <1>   0.0800 
 28 H       -1.2630    -0.8730    -1.8490 H     1 <1>   0.0800 
 29 H        2.9670     4.6640     2.2520 H     1 <1>   0.0800 
 30 H        1.4300     5.1090     2.9240 H     1 <1>   0.0800 
 31 H        1.4690     3.4440    -0.9160 H     1 <1>   0.0800 
 32 H        3.0040     3.6520    -0.0890 H     1 <1>   0.0800 
 33 H        2.0990     5.0370    -0.6660 H     1 <1>   0.0800 
 34 H        2.6780     9.9850     0.4050 H     1 <1>   0.1500 
 35 H       -0.6330     9.2220     1.1530 H     1 <1>   0.0800 
 36 H        0.5020    10.5490     1.2610 H     1 <1>   0.0800 
 37 H        0.0780     9.6380     2.6940 H     1 <1>   0.0800 
 38 H        5.1210    10.1590     1.0280 H     1 <1>   0.1500 
 39 H        4.7630     6.6970    -1.4210 H     1 <1>   0.1500 
 40 H        7.1990    10.7580    -0.1180 H     1 <1>   0.1500 
 41 H        6.8500     7.2930    -2.5660 H     1 <1>   0.1500 
 42 H        8.0720     9.3290    -1.9200 H     1 <1>   0.1500 
@<TRIPOS>BOND
  1   1   2  1   
  2   1   3  1   
  3   2   4  2   
  4   2   5  1   
  5   3   6  2   
  6   3   7  1   
  7   4   6  1   
  8   5   8  1   
  9   5  24  1   
 10   5  25  1   
 11   7  26  1   
 12   7  27  1   
 13   7  28  1   
 14   8   9  1   
 15   8  10  1   
 16   9  11  1   
 17   9  29  1   
 18   9  30  1   
 19  10  31  1   
 20  10  32  1   
 21  10  33  1   
 22  11  12  ar  
 23  11  13  ar  
 24  12  14  ar  
 25  13  15  ar  
 26  14  16  1   
 27  14  17  ar  
 28  15  17  ar  
 29  15  18  1   
 30  16  19  ar  
 31  16  20  ar  
 32  17  34  1   
 33  18  35  1   
 34  18  36  1   
 35  18  37  1   
 36  19  21  ar  
 37  19  38  1   
 38  20  22  ar  
 39  20  39  1   
 40  21  23  ar  
 41  21  40  1   
 42  22  23  ar  
 43  22  41  1   
 44  23  42  1   
@<TRIPOS>SUBSTRUCTURE
  1 ****  11 GROUP 4 **** **** 0

# MOE 2024.06 (io_trps.svl 2023.06)
