@<TRIPOS>MOLECULE
NONAME
46 47 1 0 0 
SMALL
USER_CHARGES


@<TRIPOS>ATOM
  1 O       -1.9260    -4.3310     3.6290 O.2   1 <1>  -0.5700 
  2 C       -1.7460    -4.8200     2.5400 C.2   1 <1>   0.5690 
  3 N       -1.1800    -6.0600     2.3730 N.am  1 <1>  -0.6600 
  4 C       -2.1600    -3.9970     1.3300 C.3   1 <1>  -0.0990 
  5 C       -1.0210    -6.7240     1.0440 C.3   1 <1>   0.1400 
  6 C       -0.7960    -6.9100     3.5330 C.3   1 <1>   0.0600 
  7 C       -2.3800    -4.8350     0.0620 C.3   1 <1>  -0.1600 
  8 C       -1.1880    -5.7660    -0.1480 C.3   1 <1>   0.2200 
  9 N       -1.4140    -6.5430    -1.3790 N.am  1 <1>  -0.7300 
 10 C       -0.4340    -7.0440    -2.1700 C.2   1 <1>   0.5690 
 11 O        0.7290    -6.8090    -1.9550 O.2   1 <1>  -0.5700 
 12 C       -0.7740    -7.9310    -3.3540 C.3   1 <1>  -0.0990 
 13 C       -2.1190    -8.6600    -3.2730 C.3   1 <1>   0.1400 
 14 N       -2.1860    -9.5110    -2.0590 N.am  1 <1>  -0.7300 
 15 C       -2.9320    -9.2440    -0.9440 C.2   1 <1>   0.5440 
 16 O       -3.6700    -8.2770    -0.9680 O.2   1 <1>  -0.5700 
 17 C       -2.8080   -10.0560     0.2540 C.ar  1 <1>   0.0860 
 18 C       -3.8760   -10.1950     1.1380 C.ar  1 <1>  -0.1500 
 19 C       -1.6170   -10.7070     0.5820 C.ar  1 <1>  -0.1500 
 20 C       -3.7680   -10.9540     2.2890 C.ar  1 <1>  -0.1500 
 21 C       -1.5050   -11.4680     1.7310 C.ar  1 <1>  -0.1500 
 22 C       -2.5800   -11.5970     2.5930 C.ar  1 <1>  -0.1440 
 23 C       -2.4610   -12.4330     3.8550 C.3   1 <1>  -0.0970 
 24 H       -1.3880    -3.2720     1.1530 H     1 <1>   0.0800 
 25 H       -3.0630    -3.4650     1.5690 H     1 <1>   0.0800 
 26 H       -1.7640    -7.4990     0.9770 H     1 <1>   0.0800 
 27 H       -0.0470    -7.1760     0.9860 H     1 <1>   0.0800 
 28 H       -0.9720    -6.3940     4.4610 H     1 <1>   0.0800 
 29 H        0.2490    -7.1560     3.4710 H     1 <1>   0.0800 
 30 H       -1.3770    -7.8160     3.5270 H     1 <1>   0.0800 
 31 H       -2.4930    -4.1830    -0.7860 H     1 <1>   0.0800 
 32 H       -3.2760    -5.4210     0.1760 H     1 <1>   0.0800 
 33 H       -0.2870    -5.1850    -0.2580 H     1 <1>   0.0800 
 34 H       -2.3590    -6.9530    -1.4490 H     1 <1>   0.3700 
 35 H        0.0110    -8.6550    -3.4720 H     1 <1>   0.0800 
 36 H       -0.7700    -7.3120    -4.2310 H     1 <1>   0.0800 
 37 H       -2.2480    -9.2820    -4.1430 H     1 <1>   0.0800 
 38 H       -2.9220    -7.9410    -3.2670 H     1 <1>   0.0800 
 39 H       -1.6160   -10.3590    -2.0770 H     1 <1>   0.3700 
 40 H       -4.8040    -9.6970     0.9170 H     1 <1>   0.1500 
 41 H       -0.7610   -10.6120    -0.0610 H     1 <1>   0.1500 
 42 H       -4.6140   -11.0420     2.9480 H     1 <1>   0.1500 
 43 H       -0.5740   -11.9610     1.9560 H     1 <1>   0.1500 
 44 H       -3.0890   -12.0330     4.6310 H     1 <1>   0.0800 
 45 H       -1.4470   -12.4390     4.2100 H     1 <1>   0.0800 
 46 H       -2.7640   -13.4440     3.6510 H     1 <1>   0.0800 
@<TRIPOS>BOND
  1   1   2  2   
  2   2   3  am  
  3   2   4  1   
  4   3   5  1   
  5   3   6  1   
  6   4   7  1   
  7   4  24  1   
  8   4  25  1   
  9   5   8  1   
 10   5  26  1   
 11   5  27  1   
 12   6  28  1   
 13   6  29  1   
 14   6  30  1   
 15   7   8  1   
 16   7  31  1   
 17   7  32  1   
 18   8   9  1   
 19   8  33  1   
 20   9  10  am  
 21   9  34  1   
 22  10  11  2   
 23  10  12  1   
 24  12  13  1   
 25  12  35  1   
 26  12  36  1   
 27  13  14  1   
 28  13  37  1   
 29  13  38  1   
 30  14  15  am  
 31  14  39  1   
 32  15  16  2   
 33  15  17  1   
 34  17  18  ar  
 35  17  19  ar  
 36  18  20  ar  
 37  18  40  1   
 38  19  21  ar  
 39  19  41  1   
 40  20  22  ar  
 41  20  42  1   
 42  21  22  ar  
 43  21  43  1   
 44  22  23  1   
 45  23  44  1   
 46  23  45  1   
 47  23  46  1   
@<TRIPOS>SUBSTRUCTURE
  1 ****   5 GROUP 4 **** **** 0

# MOE 2024.06 (io_trps.svl 2023.06)
