@<TRIPOS>MOLECULE
NONAME
45 48 1 0 0 
SMALL
USER_CHARGES


@<TRIPOS>ATOM
  1 S        0.1560    -0.4150     0.0920 S.3   1 <1>  -0.0800 
  2 C       -1.5790    -0.3380     0.4490 C.2   1 <1>   0.4620 
  3 C        0.1550     1.2940    -0.2740 C.ar  1 <1>   0.0400 
  4 N       -2.0830     0.8340     0.3080 N.2   1 <1>  -0.5650 
  5 N       -2.2500    -1.4780     0.8420 N.pl3 1 <1>  -0.8220 
  6 C       -1.1340     1.7590    -0.0960 C.ar  1 <1>   0.2270 
  7 C        1.2110     2.0900    -0.6730 C.ar  1 <1>  -0.1500 
  8 C       -3.6650    -1.3490     1.3190 C.3   1 <1>   0.2090 
  9 C       -1.6640    -2.8480     0.7860 C.3   1 <1>   0.2090 
 10 C       -1.3760     3.1060    -0.3320 C.ar  1 <1>  -0.1500 
 11 C        0.9500     3.4310    -0.9040 C.ar  1 <1>  -0.1500 
 12 C       -4.6650    -1.4570     0.1580 C.3   1 <1>   0.2090 
 13 C       -2.6210    -3.9080     0.2210 C.3   1 <1>  -0.1600 
 14 C       -0.3380     3.9340    -0.7340 C.ar  1 <1>  -0.1500 
 15 N       -4.7640    -2.8540    -0.3730 N.pl3 1 <1>  -0.8220 
 16 C       -3.5040    -3.4130    -0.9290 C.3   1 <1>   0.2090 
 17 C       -5.9240    -3.5870    -0.1890 C.2   1 <1>   0.4620 
 18 S       -6.0150    -5.2390    -0.7290 S.3   1 <1>  -0.0800 
 19 N       -7.0220    -3.2110     0.3710 N.2   1 <1>  -0.3380 
 20 C       -7.6350    -5.2830    -0.1160 C.2   1 <1>   0.1980 
 21 N       -7.9870    -4.1790     0.4080 N.2   1 <1>  -0.3380 
 22 C       -8.4120    -6.5880    -0.2740 C.3   1 <1>   0.1000 
 23 C       -9.9270    -6.3640    -0.1620 C.3   1 <1>  -0.2400 
 24 C       -7.9590    -7.6170     0.7700 C.3   1 <1>  -0.2400 
 25 H        2.1960     1.6760    -0.7960 H     1 <1>   0.1500 
 26 H       -3.7910    -0.3900     1.7910 H     1 <1>   0.0800 
 27 H       -3.8830    -2.1010     2.0570 H     1 <1>   0.0800 
 28 H       -1.3520    -3.1370     1.7750 H     1 <1>   0.0800 
 29 H       -0.7900    -2.8410     0.1600 H     1 <1>   0.0800 
 30 H       -2.3720     3.4860    -0.1980 H     1 <1>   0.1500 
 31 H        1.7440     4.0880    -1.2150 H     1 <1>   0.1500 
 32 H       -4.3670    -0.7890    -0.6310 H     1 <1>   0.0800 
 33 H       -5.6280    -1.1290     0.5080 H     1 <1>   0.0800 
 34 H       -3.2370    -4.3030     1.0090 H     1 <1>   0.0800 
 35 H       -2.0200    -4.7230    -0.1390 H     1 <1>   0.0800 
 36 H       -0.5280     4.9780    -0.9160 H     1 <1>   0.1500 
 37 H       -3.7240    -4.2270    -1.5960 H     1 <1>   0.0800 
 38 H       -2.9900    -2.6590    -1.5030 H     1 <1>   0.0800 
 39 H       -8.2050    -6.9780    -1.2550 H     1 <1>   0.0800 
 40 H      -10.1790    -5.9830     0.8120 H     1 <1>   0.0800 
 41 H      -10.4580    -7.2840    -0.3240 H     1 <1>   0.0800 
 42 H      -10.2470    -5.6480    -0.8990 H     1 <1>   0.0800 
 43 H       -8.1360    -7.2400     1.7630 H     1 <1>   0.0800 
 44 H       -6.9080    -7.8180     0.6650 H     1 <1>   0.0800 
 45 H       -8.4970    -8.5390     0.6470 H     1 <1>   0.0800 
@<TRIPOS>BOND
  1   1   2  1   
  2   1   3  1   
  3   2   4  2   
  4   2   5  1   
  5   3   6  ar  
  6   3   7  ar  
  7   4   6  1   
  8   5   8  1   
  9   5   9  1   
 10   6  10  ar  
 11   7  11  ar  
 12   7  25  1   
 13   8  12  1   
 14   8  26  1   
 15   8  27  1   
 16   9  13  1   
 17   9  28  1   
 18   9  29  1   
 19  10  14  ar  
 20  10  30  1   
 21  11  14  ar  
 22  11  31  1   
 23  12  15  1   
 24  12  32  1   
 25  12  33  1   
 26  13  16  1   
 27  13  34  1   
 28  13  35  1   
 29  14  36  1   
 30  15  16  1   
 31  15  17  1   
 32  16  37  1   
 33  16  38  1   
 34  17  18  1   
 35  17  19  2   
 36  18  20  1   
 37  19  21  1   
 38  20  21  2   
 39  20  22  1   
 40  22  23  1   
 41  22  24  1   
 42  22  39  1   
 43  23  40  1   
 44  23  41  1   
 45  23  42  1   
 46  24  43  1   
 47  24  44  1   
 48  24  45  1   
@<TRIPOS>SUBSTRUCTURE
  1 ****  12 GROUP 4 **** **** 0

# MOE 2024.06 (io_trps.svl 2023.06)
