@<TRIPOS>MOLECULE
NONAME
27 27 1 0 0 
SMALL
USER_CHARGES


@<TRIPOS>ATOM
  1 F        0.5270     0.2980    -0.0510 F     1 <1>  -0.3400 
  2 C        0.1670     1.5790    -0.0950 C.3   1 <1>   0.6610 
  3 F       -0.8570     1.6120    -0.9460 F     1 <1>  -0.3400 
  4 C        1.3010     2.5060    -0.5620 C.2   1 <1>   0.4230 
  5 O        2.2700     2.0530    -1.1310 O.2   1 <1>  -0.5700 
  6 C        1.1870     3.9160    -0.2550 C.ar  1 <1>   0.0860 
  7 C       -0.0330     4.5500     0.0130 C.ar  1 <1>  -0.1500 
  8 C        2.3340     4.7120    -0.2070 C.ar  1 <1>  -0.1500 
  9 C       -0.1070     5.8950     0.3240 C.ar  1 <1>  -0.1440 
 10 C        2.2890     6.0590     0.1010 C.ar  1 <1>  -0.1430 
 11 C        1.0580     6.6550     0.3550 C.ar  1 <1>   0.0820 
 12 C       -1.4600     6.5270     0.6280 C.3   1 <1>  -0.0960 
 13 C        3.5850     6.8560     0.1620 C.3   1 <1>  -0.0960 
 14 O        0.9930     7.9680     0.6480 O.3   1 <1>  -0.3630 
 15 C        0.8700     8.8570    -0.4400 C.3   1 <1>   0.0400 
 16 H       -0.2050     1.8410     0.8780 H     1 <1>   0.0800 
 17 H       -0.9520     3.9940    -0.0280 H     1 <1>   0.1500 
 18 H        3.2850     4.2510    -0.4150 H     1 <1>   0.1500 
 19 H       -2.2040     5.7770     0.8280 H     1 <1>   0.0800 
 20 H       -1.7840     7.1180    -0.2080 H     1 <1>   0.0800 
 21 H       -1.3840     7.1630     1.4930 H     1 <1>   0.0800 
 22 H        4.4310     6.2040     0.2800 H     1 <1>   0.0800 
 23 H        3.5650     7.5340     0.9970 H     1 <1>   0.0800 
 24 H        3.7100     7.4220    -0.7430 H     1 <1>   0.0800 
 25 H        0.8250     9.8590    -0.0520 H     1 <1>   0.0800 
 26 H       -0.0310     8.6270    -0.9790 H     1 <1>   0.0800 
 27 H        1.7250     8.7460    -1.0810 H     1 <1>   0.0800 
@<TRIPOS>BOND
  1   1   2  1   
  2   2   3  1   
  3   2   4  1   
  4   2  16  1   
  5   4   5  2   
  6   4   6  1   
  7   6   7  ar  
  8   6   8  ar  
  9   7   9  ar  
 10   7  17  1   
 11   8  10  ar  
 12   8  18  1   
 13   9  11  ar  
 14   9  12  1   
 15  10  11  ar  
 16  10  13  1   
 17  11  14  1   
 18  12  19  1   
 19  12  20  1   
 20  12  21  1   
 21  13  22  1   
 22  13  23  1   
 23  13  24  1   
 24  14  15  1   
 25  15  25  1   
 26  15  26  1   
 27  15  27  1   
@<TRIPOS>SUBSTRUCTURE
  1 ****   6 GROUP 4 **** **** 0

# MOE 2024.06 (io_trps.svl 2023.06)
