@<TRIPOS>MOLECULE
NONAME
51 52 1 0 0 
SMALL
USER_CHARGES


@<TRIPOS>ATOM
  1 O       -3.8740     1.9010    -2.1480 O.2   1 <1>  -0.5700 
  2 C       -2.9600     1.1560    -1.8710 C.2   1 <1>   0.5690 
  3 N       -3.2060     0.0130    -1.1500 N.am  1 <1>  -0.6600 
  4 C       -1.5560     1.5880    -2.2790 C.3   1 <1>   0.0440 
  5 C       -2.1280    -0.9170    -0.6710 C.3   1 <1>   0.3210 
  6 C       -4.6170    -0.3590    -0.7890 C.3   1 <1>   0.1400 
  7 C       -0.8620     2.2990    -1.1230 C.ar  1 <1>  -0.1440 
  8 C       -2.4350    -1.5650     0.6810 C.2   1 <1>   0.0460 
  9 C       -5.1210     0.3350     0.4990 C.3   1 <1>   0.3430 
 10 C       -1.4430     3.4300    -0.5710 C.ar  1 <1>  -0.1500 
 11 C        0.3330     1.8300    -0.5980 C.ar  1 <1>  -0.1500 
 12 N       -2.4680    -0.8320     1.8160 N.2   1 <1>  -0.5650 
 13 C       -2.6800    -2.8710     0.9490 C.2   1 <1>  -0.3320 
 14 N       -4.7840     1.7960     0.5350 N.4   1 <1>  -0.9590 
 15 C       -0.8730     4.0650     0.5190 C.ar  1 <1>   0.0820 
 16 C        0.9210     2.4700     0.4800 C.ar  1 <1>  -0.1500 
 17 C       -2.7070    -1.7010     2.7430 C.2   1 <1>   0.0360 
 18 N       -2.8490    -2.9600     2.2820 N.pl3 1 <1>   0.0330 
 19 C       -2.7550    -4.0920     0.0460 C.3   1 <1>  -0.0600 
 20 C       -3.5650     2.0350     1.3680 C.3   1 <1>   0.2630 
 21 C       -5.9210     2.6490     0.9720 C.3   1 <1>   0.2630 
 22 O       -1.5420     5.1330     1.0200 O.3   1 <1>  -0.3630 
 23 C        0.3210     3.5820     1.0440 C.ar  1 <1>  -0.1500 
 24 C       -0.9260     6.0010     1.9460 C.3   1 <1>   0.0400 
 25 H       -1.6320     2.2670    -3.1090 H     1 <1>   0.0800 
 26 H       -0.9900     0.7390    -2.6110 H     1 <1>   0.0800 
 27 H       -1.2000    -0.3900    -0.5650 H     1 <1>   0.0800 
 28 H       -1.9860    -1.6850    -1.4090 H     1 <1>   0.0800 
 29 H       -4.6980    -1.4260    -0.6740 H     1 <1>   0.0800 
 30 H       -5.2700    -0.0860    -1.6000 H     1 <1>   0.0800 
 31 H       -4.6960    -0.1570     1.3560 H     1 <1>   0.0800 
 32 H       -6.1890     0.2060     0.5520 H     1 <1>   0.0800 
 33 H       -2.3540     3.8320    -0.9790 H     1 <1>   0.1500 
 34 H        0.8170     0.9660    -1.0190 H     1 <1>   0.1500 
 35 H       -4.5320     2.0440    -0.4480 H     1 <1>   0.4500 
 36 H        1.8480     2.0990     0.8830 H     1 <1>   0.1500 
 37 H       -2.7830    -1.4680     3.7920 H     1 <1>   0.1500 
 38 H       -3.0260    -3.8030     2.8370 H     1 <1>   0.2700 
 39 H       -2.6240    -3.8210    -0.9860 H     1 <1>   0.0800 
 40 H       -3.7110    -4.5740     0.1490 H     1 <1>   0.0800 
 41 H       -1.9840    -4.7950     0.3100 H     1 <1>   0.0800 
 42 H       -3.7300     1.7120     2.3820 H     1 <1>   0.0800 
 43 H       -3.3070     3.0810     1.3690 H     1 <1>   0.0800 
 44 H       -2.7290     1.4820     0.9700 H     1 <1>   0.0800 
 45 H       -6.2050     2.4040     1.9820 H     1 <1>   0.0800 
 46 H       -6.7680     2.5020     0.3230 H     1 <1>   0.0800 
 47 H       -5.6370     3.6890     0.9340 H     1 <1>   0.0800 
 48 H        0.7940     4.0520     1.8850 H     1 <1>   0.1500 
 49 H       -1.5900     6.8280     2.1250 H     1 <1>   0.0800 
 50 H       -0.0020     6.3610     1.5270 H     1 <1>   0.0800 
 51 H       -0.7490     5.4690     2.8640 H     1 <1>   0.0800 
@<TRIPOS>BOND
  1   1   2  2   
  2   2   3  am  
  3   2   4  1   
  4   3   5  1   
  5   3   6  1   
  6   4   7  1   
  7   4  25  1   
  8   4  26  1   
  9   5   8  1   
 10   5  27  1   
 11   5  28  1   
 12   6   9  1   
 13   6  29  1   
 14   6  30  1   
 15   7  10  ar  
 16   7  11  ar  
 17   8  12  1   
 18   8  13  2   
 19   9  14  1   
 20   9  31  1   
 21   9  32  1   
 22  10  15  ar  
 23  10  33  1   
 24  11  16  ar  
 25  11  34  1   
 26  12  17  2   
 27  13  18  1   
 28  13  19  1   
 29  14  20  1   
 30  14  21  1   
 31  14  35  1   
 32  15  22  1   
 33  15  23  ar  
 34  16  23  ar  
 35  16  36  1   
 36  17  18  1   
 37  17  37  1   
 38  18  38  1   
 39  19  39  1   
 40  19  40  1   
 41  19  41  1   
 42  20  42  1   
 43  20  43  1   
 44  20  44  1   
 45  21  45  1   
 46  21  46  1   
 47  21  47  1   
 48  22  24  1   
 49  23  48  1   
 50  24  49  1   
 51  24  50  1   
 52  24  51  1   
@<TRIPOS>SUBSTRUCTURE
  1 ****  20 GROUP 4 **** **** 0

# MOE 2024.06 (io_trps.svl 2023.06)
