@<TRIPOS>MOLECULE
NONAME
46 48 1 0 0 
SMALL
USER_CHARGES


@<TRIPOS>ATOM
  1 CL      -2.0460     0.9370     2.3780 Cl    1 <1>  -0.1770 
  2 C       -2.8800    -0.3260     1.5120 C.ar  1 <1>   0.1770 
  3 C       -3.8230     0.0150     0.5620 C.ar  1 <1>  -0.1500 
  4 C       -2.5850    -1.6460     1.7900 C.ar  1 <1>  -0.1500 
  5 C       -4.5050    -0.9740    -0.1380 C.ar  1 <1>  -0.0090 
  6 C       -3.2510    -2.6420     1.0990 C.ar  1 <1>  -0.1500 
  7 S       -5.7410    -0.5400    -1.3950 S.o2  1 <1>   1.4470 
  8 C       -4.2000    -2.3020     0.1460 C.ar  1 <1>  -0.1500 
  9 O       -6.6580    -1.6430    -1.5850 O.2   1 <1>  -0.6500 
 10 O       -5.0580     0.0190    -2.5410 O.2   1 <1>  -0.6500 
 11 N       -6.6180     0.7130    -0.6620 N.am  1 <1>  -0.8490 
 12 C       -7.3700     1.4930    -1.6480 C.3   1 <1>   0.1960 
 13 C       -7.4850     0.2260     0.4150 C.3   1 <1>   0.1960 
 14 C       -8.0100     2.7050    -0.9690 C.3   1 <1>  -0.1600 
 15 C       -8.1660     1.4010     1.1210 C.3   1 <1>  -0.1600 
 16 C       -8.9810     2.2720     0.1470 C.3   1 <1>   0.2800 
 17 O       -9.3060     3.4320     0.8760 O.3   1 <1>  -0.5600 
 18 C      -10.2740     1.5260    -0.3670 C.3   1 <1>   0.2000 
 19 C      -10.4370     4.1470     0.4990 C.3   1 <1>   0.1200 
 20 O      -10.5850     1.8930    -1.6880 O.3   1 <1>  -0.6800 
 21 C      -11.5060     1.7990     0.5410 C.3   1 <1>   0.2800 
 22 C      -11.7050     3.3140     0.7520 C.3   1 <1>  -0.1600 
 23 O      -11.2820     1.2250     1.7770 O.3   1 <1>  -0.6800 
 24 C      -12.7920     1.1330     0.0350 C.3   1 <1>  -0.2400 
 25 H       -4.0270     1.0530     0.3660 H     1 <1>   0.1500 
 26 H       -1.8450    -1.8860     2.5330 H     1 <1>   0.1500 
 27 H       -3.0330    -3.6780     1.3000 H     1 <1>   0.1500 
 28 H       -4.7140    -3.0850    -0.3880 H     1 <1>   0.1500 
 29 H       -6.7020     1.8480    -2.4160 H     1 <1>   0.0800 
 30 H       -8.1190     0.8750    -2.1170 H     1 <1>   0.0800 
 31 H       -8.2220    -0.4530     0.0190 H     1 <1>   0.0800 
 32 H       -6.8950    -0.3130     1.1370 H     1 <1>   0.0800 
 33 H       -8.5090     3.3010    -1.7090 H     1 <1>   0.0800 
 34 H       -7.2250     3.3060    -0.5470 H     1 <1>   0.0800 
 35 H       -7.4030     2.0020     1.5830 H     1 <1>   0.0800 
 36 H       -8.7940     1.0210     1.9030 H     1 <1>   0.0800 
 37 H      -10.1010     0.4670    -0.4000 H     1 <1>   0.0800 
 38 H      -10.4620     5.0520     1.0800 H     1 <1>   0.0800 
 39 H      -10.3380     4.4120    -0.5390 H     1 <1>   0.0800 
 40 H      -10.7870     2.8460    -1.7260 H     1 <1>   0.4000 
 41 H      -12.4550     3.6780     0.0730 H     1 <1>   0.0800 
 42 H      -12.0670     3.5120     1.7450 H     1 <1>   0.0800 
 43 H      -12.0180     1.4410     2.3780 H     1 <1>   0.4000 
 44 H      -13.0660     1.5250    -0.9280 H     1 <1>   0.0800 
 45 H      -13.6080     1.3090     0.7110 H     1 <1>   0.0800 
 46 H      -12.6410     0.0740    -0.0730 H     1 <1>   0.0800 
@<TRIPOS>BOND
  1   1   2  1   
  2   2   3  ar  
  3   2   4  ar  
  4   3   5  ar  
  5   3  25  1   
  6   4   6  ar  
  7   4  26  1   
  8   5   7  1   
  9   5   8  ar  
 10   6   8  ar  
 11   6  27  1   
 12   7   9  2   
 13   7  10  2   
 14   7  11  am  
 15   8  28  1   
 16  11  12  1   
 17  11  13  1   
 18  12  14  1   
 19  12  29  1   
 20  12  30  1   
 21  13  15  1   
 22  13  31  1   
 23  13  32  1   
 24  14  16  1   
 25  14  33  1   
 26  14  34  1   
 27  15  16  1   
 28  15  35  1   
 29  15  36  1   
 30  16  17  1   
 31  16  18  1   
 32  17  19  1   
 33  18  20  1   
 34  18  21  1   
 35  18  37  1   
 36  19  22  1   
 37  19  38  1   
 38  19  39  1   
 39  20  40  1   
 40  21  22  1   
 41  21  23  1   
 42  21  24  1   
 43  22  41  1   
 44  22  42  1   
 45  23  43  1   
 46  24  44  1   
 47  24  45  1   
 48  24  46  1   
@<TRIPOS>SUBSTRUCTURE
  1 ****  13 GROUP 4 **** **** 0

# MOE 2024.06 (io_trps.svl 2023.06)
