@<TRIPOS>MOLECULE
NONAME
49 52 1 0 0 
SMALL
USER_CHARGES


@<TRIPOS>ATOM
  1 O        1.7740    -0.4170    -2.5950 O.2   1 <1>  -0.5700 
  2 C        2.2030    -0.6560    -1.4830 C.2   1 <1>   0.5440 
  3 N        2.7230     0.3830    -0.7420 N.am  1 <1>  -0.6600 
  4 C        2.2160    -2.0030    -0.9700 C.ar  1 <1>   0.0860 
  5 C        2.7770     0.3270     0.7630 C.3   1 <1>   0.2200 
  6 C        3.4050     1.4940    -1.4730 C.3   1 <1>   0.1400 
  7 C        1.1620    -2.4850    -0.1710 C.ar  1 <1>   0.0000 
  8 C        3.2870    -2.8530    -1.1960 C.ar  1 <1>  -0.1500 
  9 C        2.3940     1.6640     1.4180 C.3   1 <1>   0.1200 
 10 C        4.1460    -0.1760     1.2710 C.3   1 <1>   0.3430 
 11 C        4.4730     2.2550    -0.6640 C.3   1 <1>  -0.0800 
 12 C        1.2310    -3.7490     0.4100 C.ar  1 <1>  -0.1520 
 13 C       -0.0660    -1.9270     0.2380 C.2   1 <1>  -0.1500 
 14 C        3.3480    -4.1260    -0.6260 C.ar  1 <1>  -0.1500 
 15 O        3.5020     2.5050     1.5390 O.3   1 <1>  -0.5600 
 16 N        5.2310     0.0000     0.2620 N.4   1 <1>  -0.9590 
 17 C        3.8580     3.1920     0.3860 C.3   1 <1>   0.1200 
 18 C        5.6170     1.3950    -0.0900 C.3   1 <1>   0.3430 
 19 N        0.0920    -3.9470     1.1550 N.pl3 1 <1>   0.0480 
 20 C        2.3300    -4.5790     0.1810 C.ar  1 <1>  -0.1500 
 21 C       -0.6820    -2.8290     1.0390 C.2   1 <1>  -0.3020 
 22 C        6.4460    -0.8730     0.4940 C.3   1 <1>   0.2370 
 23 C       -0.2590    -5.1690     1.8980 C.3   1 <1>   0.0160 
 24 C        7.0320    -1.3580    -0.8330 C.2   1 <1>   0.9060 
 25 O        8.1820    -1.7900    -0.8730 O.co2 1 <1>  -0.9000 
 26 O        6.2920    -1.2480    -1.8230 O.co2 1 <1>  -0.9000 
 27 H        2.0350    -0.3720     1.1020 H     1 <1>   0.0800 
 28 H        3.8760     1.0790    -2.3500 H     1 <1>   0.0800 
 29 H        2.6520     2.1830    -1.8190 H     1 <1>   0.0800 
 30 H        4.0980    -2.5280    -1.8290 H     1 <1>   0.1500 
 31 H        2.0450     1.4760     2.4180 H     1 <1>   0.0800 
 32 H        1.6070     2.1590     0.8750 H     1 <1>   0.0800 
 33 H        4.0470    -1.2260     1.4920 H     1 <1>   0.0800 
 34 H        4.4030     0.3300     2.1860 H     1 <1>   0.0800 
 35 H        4.9400     2.9170    -1.3710 H     1 <1>   0.0800 
 36 H       -0.4210    -0.9560    -0.0650 H     1 <1>   0.1500 
 37 H        4.2030    -4.7480    -0.8320 H     1 <1>   0.1500 
 38 H        4.8780    -0.3860    -0.6440 H     1 <1>   0.4500 
 39 H        2.9940     3.7090     0.0020 H     1 <1>   0.0800 
 40 H        4.5840     3.9310     0.6800 H     1 <1>   0.0800 
 41 H        6.0340     1.8850     0.7740 H     1 <1>   0.0800 
 42 H        6.3910     1.3390    -0.8400 H     1 <1>   0.0800 
 43 H        2.3730    -5.5580     0.6240 H     1 <1>   0.1500 
 44 H       -1.6370    -2.7430     1.5260 H     1 <1>   0.1500 
 45 H        7.2080    -0.3400     1.0330 H     1 <1>   0.0800 
 46 H        6.1730    -1.7490     1.0520 H     1 <1>   0.0800 
 47 H       -1.2030    -5.0330     2.3930 H     1 <1>   0.0800 
 48 H        0.5030    -5.3730     2.6270 H     1 <1>   0.0800 
 49 H       -0.3300    -5.9910     1.2100 H     1 <1>   0.0800 
@<TRIPOS>BOND
  1   1   2  2   
  2   2   3  am  
  3   2   4  1   
  4   3   5  1   
  5   3   6  1   
  6   4   7  ar  
  7   4   8  ar  
  8   5   9  1   
  9   5  10  1   
 10   5  27  1   
 11   6  11  1   
 12   6  28  1   
 13   6  29  1   
 14   7  12  ar  
 15   7  13  1   
 16   8  14  ar  
 17   8  30  1   
 18   9  15  1   
 19   9  31  1   
 20   9  32  1   
 21  10  16  1   
 22  10  33  1   
 23  10  34  1   
 24  11  17  1   
 25  11  18  1   
 26  11  35  1   
 27  12  19  1   
 28  12  20  ar  
 29  13  21  2   
 30  13  36  1   
 31  14  20  ar  
 32  14  37  1   
 33  15  17  1   
 34  16  18  1   
 35  16  22  1   
 36  16  38  1   
 37  17  39  1   
 38  17  40  1   
 39  18  41  1   
 40  18  42  1   
 41  19  21  1   
 42  19  23  1   
 43  20  43  1   
 44  21  44  1   
 45  22  24  1   
 46  22  45  1   
 47  22  46  1   
 48  23  47  1   
 49  23  48  1   
 50  23  49  1   
 51  24  25  ar  
 52  24  26  ar  
@<TRIPOS>SUBSTRUCTURE
  1 ****   4 GROUP 4 **** **** 0

# MOE 2024.06 (io_trps.svl 2023.06)
