@<TRIPOS>MOLECULE
NONAME
44 46 1 0 0 
SMALL
USER_CHARGES


@<TRIPOS>ATOM
  1 O        1.1630    -0.1770    -1.6570 O.3   1 <1>  -0.0190 
  2 N        1.3720     1.0700    -1.3740 N.2   1 <1>  -0.4100 
  3 C        1.6770    -0.9780    -0.7660 C.2   1 <1>  -0.0400 
  4 C        2.0550     1.0970    -0.2690 C.2   1 <1>   0.2350 
  5 C        2.2750    -0.2190     0.1610 C.2   1 <1>  -0.1500 
  6 C        1.5400    -2.4830    -0.9290 C.3   1 <1>   0.2900 
  7 C        2.5090     2.3060     0.3910 C.ar  1 <1>   0.0540 
  8 N        0.2250    -2.9800    -0.4570 N.3   1 <1>  -0.8100 
  9 C        3.1410     2.3170     1.6280 C.ar  1 <1>  -0.1500 
 10 C        2.3430     3.5610    -0.1790 C.ar  1 <1>  -0.1500 
 11 C       -0.9130    -2.3710    -1.2010 C.3   1 <1>   0.1100 
 12 C        0.1550    -4.4580    -0.5220 C.3   1 <1>   0.1100 
 13 C        3.5520     3.5090     2.1960 C.ar  1 <1>   0.1600 
 14 C        2.7900     4.6960     0.4700 C.ar  1 <1>   0.1600 
 15 C       -2.2790    -3.0080    -0.8500 C.3   1 <1>   0.3430 
 16 C       -1.1710    -5.0100     0.0610 C.3   1 <1>   0.3430 
 17 N        3.3930     4.7010     1.6470 N.ar  1 <1>  -0.6200 
 18 N       -2.1520    -3.9090     0.3430 N.4   1 <1>  -0.9590 
 19 C       -3.4130    -4.3830     0.9580 C.3   1 <1>   0.4230 
 20 C       -4.2990    -5.0910    -0.0670 C.3   1 <1>  -0.2400 
 21 C       -4.1380    -3.1970     1.5860 C.3   1 <1>  -0.2400 
 22 H        2.8090    -0.5250     1.0400 H     1 <1>   0.1500 
 23 H        2.3170    -2.9530    -0.3510 H     1 <1>   0.0800 
 24 H        1.6910    -2.7430    -1.9640 H     1 <1>   0.0800 
 25 H        3.3170     1.4030     2.1600 H     1 <1>   0.1500 
 26 H        1.8620     3.6540    -1.1360 H     1 <1>   0.1500 
 27 H       -0.7510    -2.4500    -2.2630 H     1 <1>   0.0800 
 28 H       -0.9700    -1.3230    -0.9630 H     1 <1>   0.0800 
 29 H        0.9770    -4.8860     0.0300 H     1 <1>   0.0800 
 30 H        0.2500    -4.7820    -1.5450 H     1 <1>   0.0800 
 31 H        4.0400     3.4830     3.1560 H     1 <1>   0.1500 
 32 H        2.6440     5.6520    -0.0030 H     1 <1>   0.1500 
 33 H       -2.6360    -3.5710    -1.6960 H     1 <1>   0.0800 
 34 H       -2.9890    -2.2210    -0.6560 H     1 <1>   0.0800 
 35 H       -0.9530    -5.5400     0.9740 H     1 <1>   0.0800 
 36 H       -1.5930    -5.7160    -0.6340 H     1 <1>   0.0800 
 37 H       -1.6580    -3.3190     1.0300 H     1 <1>   0.4500 
 38 H       -3.1730    -5.0810     1.7450 H     1 <1>   0.0800 
 39 H       -4.6310    -4.4190    -0.8380 H     1 <1>   0.0800 
 40 H       -5.1750    -5.4730     0.4270 H     1 <1>   0.0800 
 41 H       -3.7890    -5.9250    -0.5110 H     1 <1>   0.0800 
 42 H       -4.4770    -2.4970     0.8430 H     1 <1>   0.0800 
 43 H       -3.5010    -2.6940     2.2910 H     1 <1>   0.0800 
 44 H       -5.0020    -3.5500     2.1200 H     1 <1>   0.0800 
@<TRIPOS>BOND
  1   1   2  1   
  2   1   3  1   
  3   2   4  2   
  4   3   5  2   
  5   3   6  1   
  6   4   5  1   
  7   4   7  1   
  8   5  22  1   
  9   6   8  1   
 10   6  23  1   
 11   6  24  1   
 12   7   9  ar  
 13   7  10  ar  
 14   8  11  1   
 15   8  12  1   
 16   9  13  ar  
 17   9  25  1   
 18  10  14  ar  
 19  10  26  1   
 20  11  15  1   
 21  11  27  1   
 22  11  28  1   
 23  12  16  1   
 24  12  29  1   
 25  12  30  1   
 26  13  17  ar  
 27  13  31  1   
 28  14  17  ar  
 29  14  32  1   
 30  15  18  1   
 31  15  33  1   
 32  15  34  1   
 33  16  18  1   
 34  16  35  1   
 35  16  36  1   
 36  18  19  1   
 37  18  37  1   
 38  19  20  1   
 39  19  21  1   
 40  19  38  1   
 41  20  39  1   
 42  20  40  1   
 43  20  41  1   
 44  21  42  1   
 45  21  43  1   
 46  21  44  1   
@<TRIPOS>SUBSTRUCTURE
  1 ****   3 GROUP 4 **** **** 0

# MOE 2024.06 (io_trps.svl 2023.06)
