@<TRIPOS>MOLECULE
NONAME
48 50 1 0 0 
SMALL
USER_CHARGES


@<TRIPOS>ATOM
  1 S        0.0670     0.4730    -0.5160 S.o2  1 <1>   1.3330 
  2 O       -0.5760     0.1630     0.7410 O.2   1 <1>  -0.6500 
  3 O       -0.1750     1.7510    -1.1450 O.2   1 <1>  -0.6500 
  4 N       -0.3420    -0.7500    -1.6210 N.am  1 <1>  -0.8490 
  5 C        1.8420     0.2720    -0.3580 C.3   1 <1>  -0.0550 
  6 C       -0.5530    -2.0580    -0.9910 C.3   1 <1>   0.1160 
  7 C       -1.5080    -0.3970    -2.4360 C.3   1 <1>   0.1160 
  8 C        2.5080     1.3240     0.5530 C.3   1 <1>  -0.0800 
  9 C        4.0220     1.2440     0.4630 C.3   1 <1>   0.2200 
 10 C        2.2620     1.0370     2.0390 C.3   1 <1>   0.1200 
 11 N        4.6050     2.5390     0.8790 N.am  1 <1>  -0.7300 
 12 C        4.3410     0.1830     1.5100 C.3   1 <1>   0.1200 
 13 O        3.3620     0.3050     2.4980 O.3   1 <1>  -0.5600 
 14 C        5.2630     3.4130     0.0680 C.2   1 <1>   0.7160 
 15 O        5.3740     3.1320    -1.1090 O.2   1 <1>  -0.5700 
 16 C        5.8080     4.6330     0.6360 C.2   1 <1>  -0.0860 
 17 C        6.0650     5.8430    -0.1150 C.2   1 <1>  -0.1810 
 18 C        6.1460     4.7920     1.9420 C.2   1 <1>  -0.1100 
 19 C        6.5860     6.8450     0.6100 C.2   1 <1>  -0.1400 
 20 C        5.7890     6.0200    -1.6040 C.3   1 <1>   0.0210 
 21 S        6.7770     6.3860     2.2840 S.3   1 <1>  -0.0800 
 22 C        6.9870     8.2280     0.1480 C.3   1 <1>   0.0200 
 23 C        5.8280     7.5080    -2.0090 C.3   1 <1>  -0.1600 
 24 C        7.0280     8.2540    -1.3910 C.3   1 <1>  -0.1600 
 25 H        2.0590    -0.7120     0.0100 H     1 <1>   0.0800 
 26 H        2.2680     0.3550    -1.3400 H     1 <1>   0.0800 
 27 H       -0.7150    -2.8100    -1.7440 H     1 <1>   0.0800 
 28 H       -1.4090    -2.0270    -0.3360 H     1 <1>   0.0800 
 29 H        0.3120    -2.3370    -0.4130 H     1 <1>   0.0800 
 30 H       -1.7290    -1.1860    -3.1340 H     1 <1>   0.0800 
 31 H       -1.3080     0.5010    -2.9980 H     1 <1>   0.0800 
 32 H       -2.3670    -0.2270    -1.8080 H     1 <1>   0.0800 
 33 H        2.1520     2.3020     0.2740 H     1 <1>   0.0800 
 34 H        4.3780     0.9660    -0.5150 H     1 <1>   0.0800 
 35 H        1.3670     0.4730     2.2300 H     1 <1>   0.0800 
 36 H        2.2270     1.9540     2.6020 H     1 <1>   0.0800 
 37 H        4.4680     2.7810     1.8600 H     1 <1>   0.3700 
 38 H        5.3160     0.3110     1.9470 H     1 <1>   0.0800 
 39 H        4.2580    -0.8030     1.0890 H     1 <1>   0.0800 
 40 H        6.0950     4.1090     2.7700 H     1 <1>   0.1500 
 41 H        6.5310     5.4720    -2.1570 H     1 <1>   0.0800 
 42 H        4.8230     5.6160    -1.8500 H     1 <1>   0.0800 
 43 H        6.2660     8.9380     0.5120 H     1 <1>   0.0800 
 44 H        7.9540     8.4850     0.5440 H     1 <1>   0.0800 
 45 H        5.8640     7.5810    -3.0820 H     1 <1>   0.0800 
 46 H        4.9190     7.9800    -1.6780 H     1 <1>   0.0800 
 47 H        7.0440     9.2740    -1.7320 H     1 <1>   0.0800 
 48 H        7.9350     7.7790    -1.7210 H     1 <1>   0.0800 
@<TRIPOS>BOND
  1   1   2  2   
  2   1   3  2   
  3   1   4  am  
  4   1   5  1   
  5   4   6  1   
  6   4   7  1   
  7   5   8  1   
  8   5  25  1   
  9   5  26  1   
 10   6  27  1   
 11   6  28  1   
 12   6  29  1   
 13   7  30  1   
 14   7  31  1   
 15   7  32  1   
 16   8   9  1   
 17   8  10  1   
 18   8  33  1   
 19   9  11  1   
 20   9  12  1   
 21   9  34  1   
 22  10  13  1   
 23  10  35  1   
 24  10  36  1   
 25  11  14  am  
 26  11  37  1   
 27  12  13  1   
 28  12  38  1   
 29  12  39  1   
 30  14  15  2   
 31  14  16  1   
 32  16  17  1   
 33  16  18  2   
 34  17  19  2   
 35  17  20  1   
 36  18  21  1   
 37  18  40  1   
 38  19  21  1   
 39  19  22  1   
 40  20  23  1   
 41  20  41  1   
 42  20  42  1   
 43  22  24  1   
 44  22  43  1   
 45  22  44  1   
 46  23  24  1   
 47  23  45  1   
 48  23  46  1   
 49  24  47  1   
 50  24  48  1   
@<TRIPOS>SUBSTRUCTURE
  1 ****  11 GROUP 4 **** **** 0

# MOE 2024.06 (io_trps.svl 2023.06)
