@<TRIPOS>MOLECULE
NONAME
42 43 1 0 0 
SMALL
USER_CHARGES


@<TRIPOS>ATOM
  1 O        1.4210     4.2070     1.0000 O.3   1 <1>  -0.5600 
  2 C        0.3140     4.1110     0.1640 C.3   1 <1>   0.1200 
  3 C        2.6270     4.3780     0.3230 C.3   1 <1>   0.0400 
  4 C       -0.9360     4.2040     1.0370 C.3   1 <1>   0.0960 
  5 N       -2.1740     4.1670     0.2250 N.pl3 1 <1>   0.0480 
  6 C       -2.6570     5.0120    -0.7000 C.2   1 <1>   0.0060 
  7 C       -3.1340     3.2430     0.2970 C.2   1 <1>   0.0360 
  8 N       -3.8040     4.6210    -1.1430 N.2   1 <1>  -0.3380 
  9 C       -1.9570     6.2680    -1.2060 C.3   1 <1>   0.2900 
 10 N       -4.1080     3.4900    -0.5060 N.2   1 <1>  -0.3380 
 11 N       -1.3140     7.0180    -0.1050 N.3   1 <1>  -0.8100 
 12 C       -0.1910     7.8480    -0.5730 C.3   1 <1>   0.1100 
 13 C       -2.3070     7.7830     0.6640 C.3   1 <1>   0.0300 
 14 C        0.8540     7.9840     0.5360 C.3   1 <1>   0.0960 
 15 N        2.0640     8.6260    -0.0050 N.pl3 1 <1>   0.3140 
 16 N        2.9210     7.9400    -0.7860 N.2   1 <1>  -0.7070 
 17 C        2.4660     9.9090     0.1560 C.2   1 <1>  -0.3320 
 18 C        3.8460     8.7940    -1.0970 C.2   1 <1>   0.1390 
 19 C        3.6170    10.0440    -0.5370 C.2   1 <1>  -0.1500 
 20 C        1.7360    10.9640     0.9690 C.3   1 <1>  -0.0600 
 21 H        0.3560     3.1680    -0.3520 H     1 <1>   0.0800 
 22 H        0.3490     4.9240    -0.5390 H     1 <1>   0.0800 
 23 H        3.4160     4.4410     1.0510 H     1 <1>   0.0800 
 24 H        2.5930     5.2910    -0.2470 H     1 <1>   0.0800 
 25 H        2.7960     3.5350    -0.3250 H     1 <1>   0.0800 
 26 H       -0.9190     5.1210     1.5950 H     1 <1>   0.0800 
 27 H       -0.9470     3.3810     1.7270 H     1 <1>   0.0800 
 28 H       -3.0870     2.3960     0.9570 H     1 <1>   0.1500 
 29 H       -2.6650     6.8960    -1.7210 H     1 <1>   0.0800 
 30 H       -1.2180     5.9540    -1.9210 H     1 <1>   0.0800 
 31 H       -0.5400     8.8170    -0.8870 H     1 <1>   0.0800 
 32 H        0.2890     7.3700    -1.4110 H     1 <1>   0.0800 
 33 H       -3.0830     7.1260     1.0210 H     1 <1>   0.0800 
 34 H       -2.7560     8.5450     0.0490 H     1 <1>   0.0800 
 35 H       -1.8430     8.2480     1.5160 H     1 <1>   0.0800 
 36 H        1.1290     7.0110     0.8980 H     1 <1>   0.0800 
 37 H        0.4720     8.5680     1.3500 H     1 <1>   0.0800 
 38 H        4.6920     8.5530    -1.7180 H     1 <1>   0.1500 
 39 H        4.2420    10.9110    -0.6530 H     1 <1>   0.1500 
 40 H        0.7410    11.1080     0.5870 H     1 <1>   0.0800 
 41 H        2.2610    11.9010     0.9150 H     1 <1>   0.0800 
 42 H        1.6790    10.6660     2.0010 H     1 <1>   0.0800 
@<TRIPOS>BOND
  1   1   2  1   
  2   1   3  1   
  3   2   4  1   
  4   2  21  1   
  5   2  22  1   
  6   3  23  1   
  7   3  24  1   
  8   3  25  1   
  9   4   5  1   
 10   4  26  1   
 11   4  27  1   
 12   5   6  1   
 13   5   7  1   
 14   6   8  2   
 15   6   9  1   
 16   7  10  2   
 17   7  28  1   
 18   8  10  1   
 19   9  11  1   
 20   9  29  1   
 21   9  30  1   
 22  11  12  1   
 23  11  13  1   
 24  12  14  1   
 25  12  31  1   
 26  12  32  1   
 27  13  33  1   
 28  13  34  1   
 29  13  35  1   
 30  14  15  1   
 31  14  36  1   
 32  14  37  1   
 33  15  16  1   
 34  15  17  1   
 35  16  18  2   
 36  17  19  2   
 37  17  20  1   
 38  18  19  1   
 39  18  38  1   
 40  19  39  1   
 41  20  40  1   
 42  20  41  1   
 43  20  42  1   
@<TRIPOS>SUBSTRUCTURE
  1 ****  11 GROUP 4 **** **** 0

# MOE 2024.06 (io_trps.svl 2023.06)
