@<TRIPOS>MOLECULE
NONAME
49 51 1 0 0 
SMALL
USER_CHARGES


@<TRIPOS>ATOM
  1 O       -1.1340     0.3130    -1.5540 O.2   1 <1>  -0.5700 
  2 C       -1.2680     0.5990    -0.3810 C.2   1 <1>   0.5440 
  3 N       -1.5470    -0.4120     0.4940 N.am  1 <1>  -0.7300 
  4 C       -1.1420     1.9730     0.0760 C.ar  1 <1>   0.0860 
  5 C       -1.6540    -1.8480     0.1410 C.3   1 <1>   0.2200 
  6 C       -0.4210     2.9110    -0.6610 C.ar  1 <1>  -0.1500 
  7 C       -1.7330     2.4200     1.2590 C.ar  1 <1>  -0.1500 
  8 C       -3.1070    -2.2990     0.0910 C.3   1 <1>  -0.0800 
  9 C       -1.1470    -2.6770     1.3120 C.3   1 <1>   0.1200 
 10 C       -0.2750     4.2250    -0.2550 C.ar  1 <1>   0.0820 
 11 C       -1.5950     3.7260     1.6900 C.ar  1 <1>  -0.1500 
 12 C       -3.4230    -2.6090     1.5590 C.3   1 <1>   0.1200 
 13 C       -4.0930    -1.3240    -0.5790 C.3   1 <1>  -0.0160 
 14 O       -2.1970    -2.6820     2.2310 O.3   1 <1>  -0.5600 
 15 O        0.4580     5.0040    -1.1010 O.3   1 <1>  -0.3630 
 16 C       -0.8600     4.6490     0.9500 C.ar  1 <1>   0.0820 
 17 C       -5.4880    -1.9250    -0.6490 C.ar  1 <1>  -0.1430 
 18 C        0.2590     6.3970    -1.1890 C.3   1 <1>   0.3200 
 19 O       -0.6930     5.9290     1.3810 O.3   1 <1>  -0.3630 
 20 C       -5.8400    -2.8230    -1.6350 C.ar  1 <1>  -0.1500 
 21 C       -6.4720    -1.6070     0.2660 C.ar  1 <1>  -0.1500 
 22 C        0.8370     6.8800    -2.4760 C.1   1 <1>  -0.2000 
 23 C       -1.1410     6.3750     2.6430 C.3   1 <1>   0.0400 
 24 C       -7.1210    -3.3510    -1.6550 C.ar  1 <1>   0.1600 
 25 C       -7.7220    -2.1920     0.1570 C.ar  1 <1>   0.1600 
 26 C        1.2980     7.2650    -3.5030 C.1   1 <1>  -0.1770 
 27 N       -8.0700    -3.0590    -0.7810 N.ar  1 <1>  -0.6200 
 28 H       -1.6290    -0.2300     1.4960 H     1 <1>   0.3700 
 29 H       -1.1200    -2.0590    -0.7710 H     1 <1>   0.0800 
 30 H        0.0400     2.6040    -1.5840 H     1 <1>   0.1500 
 31 H       -2.3150     1.7390     1.8530 H     1 <1>   0.1500 
 32 H       -3.1420    -3.2300    -0.4470 H     1 <1>   0.0800 
 33 H       -0.2640    -2.2640     1.7670 H     1 <1>   0.0800 
 34 H       -0.9650    -3.6940     1.0110 H     1 <1>   0.0800 
 35 H       -2.0720     4.0060     2.6100 H     1 <1>   0.1500 
 36 H       -3.9380    -3.5490     1.6660 H     1 <1>   0.0800 
 37 H       -3.9980    -1.8240     2.0180 H     1 <1>   0.0800 
 38 H       -3.7500    -1.1000    -1.5750 H     1 <1>   0.0800 
 39 H       -4.1320    -0.3950    -0.0380 H     1 <1>   0.0800 
 40 H       -0.7970     6.5980    -1.1540 H     1 <1>   0.0800 
 41 H        0.7580     6.8650    -0.3600 H     1 <1>   0.0800 
 42 H       -5.1320    -3.1170    -2.3880 H     1 <1>   0.1500 
 43 H       -6.2800    -0.9110     1.0610 H     1 <1>   0.1500 
 44 H       -0.8370     7.3990     2.7630 H     1 <1>   0.0800 
 45 H       -0.6900     5.7690     3.4090 H     1 <1>   0.0800 
 46 H       -2.2140     6.3080     2.6780 H     1 <1>   0.0800 
 47 H       -7.3780    -4.0500    -2.4320 H     1 <1>   0.1500 
 48 H       -8.4770    -1.9330     0.8790 H     1 <1>   0.1500 
 49 H        1.7170     7.6050    -4.4340 H     1 <1>   0.1770 
@<TRIPOS>BOND
  1   1   2  2   
  2   2   3  am  
  3   2   4  1   
  4   3   5  1   
  5   3  28  1   
  6   4   6  ar  
  7   4   7  ar  
  8   5   8  1   
  9   5   9  1   
 10   5  29  1   
 11   6  10  ar  
 12   6  30  1   
 13   7  11  ar  
 14   7  31  1   
 15   8  12  1   
 16   8  13  1   
 17   8  32  1   
 18   9  14  1   
 19   9  33  1   
 20   9  34  1   
 21  10  15  1   
 22  10  16  ar  
 23  11  16  ar  
 24  11  35  1   
 25  12  14  1   
 26  12  36  1   
 27  12  37  1   
 28  13  17  1   
 29  13  38  1   
 30  13  39  1   
 31  15  18  1   
 32  16  19  1   
 33  17  20  ar  
 34  17  21  ar  
 35  18  22  1   
 36  18  40  1   
 37  18  41  1   
 38  19  23  1   
 39  20  24  ar  
 40  20  42  1   
 41  21  25  ar  
 42  21  43  1   
 43  22  26  3   
 44  23  44  1   
 45  23  45  1   
 46  23  46  1   
 47  24  27  ar  
 48  24  47  1   
 49  25  27  ar  
 50  25  48  1   
 51  26  49  1   
@<TRIPOS>SUBSTRUCTURE
  1 ****   2 GROUP 4 **** **** 0

# MOE 2024.06 (io_trps.svl 2023.06)
