@<TRIPOS>MOLECULE
NONAME
45 47 1 0 0 
SMALL
USER_CHARGES


@<TRIPOS>ATOM
  1 CL      -1.0480    -0.1420    -1.8600 Cl    1 <1>  -0.1770 
  2 C       -0.8630    -1.7960    -1.3280 C.ar  1 <1>   0.1770 
  3 C        0.1770    -2.5840    -1.7880 C.ar  1 <1>   0.1900 
  4 C       -1.7790    -2.3200    -0.4340 C.ar  1 <1>  -0.1500 
  5 F        1.0440    -2.0960    -2.6350 F     1 <1>  -0.1900 
  6 C        0.3190    -3.8920    -1.3700 C.ar  1 <1>  -0.1500 
  7 C       -1.6650    -3.6380     0.0060 C.ar  1 <1>  -0.0090 
  8 C       -0.6060    -4.4070    -0.4750 C.ar  1 <1>  -0.1500 
  9 S       -2.8810    -4.3470     1.1530 S.o2  1 <1>   1.4470 
 10 O       -2.1870    -5.1920     2.1010 O.2   1 <1>  -0.6500 
 11 O       -3.7860    -3.3190     1.6120 O.2   1 <1>  -0.6500 
 12 N       -3.7700    -5.3910     0.1540 N.am  1 <1>  -0.8490 
 13 C       -4.4450    -6.4450     0.9450 C.3   1 <1>   0.1960 
 14 C       -4.6340    -4.7040    -0.8360 C.3   1 <1>   0.1960 
 15 C       -5.4720    -7.1720     0.0550 C.3   1 <1>   0.4230 
 16 C       -6.1300    -4.7830    -0.4920 C.3   1 <1>  -0.1600 
 17 N       -5.9620    -8.5210     0.4880 N.4   1 <1>  -0.9590 
 18 C       -6.6560    -6.2230    -0.2020 C.3   1 <1>  -0.1060 
 19 C       -6.7640    -9.1680    -0.5880 C.3   1 <1>   0.3430 
 20 C       -4.9380    -9.4260     1.0730 C.3   1 <1>   0.2630 
 21 C       -7.5780    -6.1580     1.0290 C.2   1 <1>   0.9060 
 22 C       -7.4300    -6.8120    -1.4040 C.3   1 <1>  -0.1600 
 23 C       -7.8910    -8.2500    -1.0880 C.3   1 <1>  -0.1600 
 24 O       -8.5680    -5.4340     0.9850 O.co2 1 <1>  -0.9000 
 25 O       -7.3410    -6.8860     2.0060 O.co2 1 <1>  -0.9000 
 26 H       -2.5830    -1.6970    -0.0790 H     1 <1>   0.1500 
 27 H        1.1360    -4.4900    -1.7370 H     1 <1>   0.1500 
 28 H       -0.5060    -5.4270    -0.1390 H     1 <1>   0.1500 
 29 H       -3.6970    -7.1280     1.3020 H     1 <1>   0.0800 
 30 H       -4.9430    -6.0080     1.7970 H     1 <1>   0.0800 
 31 H       -4.3490    -3.6700    -0.9400 H     1 <1>   0.0800 
 32 H       -4.4820    -5.1690    -1.7960 H     1 <1>   0.0800 
 33 H       -4.9680    -7.3190    -0.8840 H     1 <1>   0.0800 
 34 H       -6.2840    -4.1640     0.3780 H     1 <1>   0.0800 
 35 H       -6.7090    -4.3300    -1.2780 H     1 <1>   0.0800 
 36 H       -6.6310    -8.2470     1.2590 H     1 <1>   0.4500 
 37 H       -6.1160    -9.4080    -1.4150 H     1 <1>   0.0800 
 38 H       -7.1950   -10.0840    -0.2200 H     1 <1>   0.0800 
 39 H       -4.1690    -9.6410     0.3490 H     1 <1>   0.0800 
 40 H       -5.3970   -10.3510     1.3820 H     1 <1>   0.0800 
 41 H       -4.4900    -8.9680     1.9390 H     1 <1>   0.0800 
 42 H       -8.2950    -6.2020    -1.6080 H     1 <1>   0.0800 
 43 H       -6.8080    -6.8110    -2.2830 H     1 <1>   0.0800 
 44 H       -8.3330    -8.6830    -1.9680 H     1 <1>   0.0800 
 45 H       -8.6630    -8.2190    -0.3380 H     1 <1>   0.0800 
@<TRIPOS>BOND
  1   1   2  1   
  2   2   3  ar  
  3   2   4  ar  
  4   3   5  1   
  5   3   6  ar  
  6   4   7  ar  
  7   4  26  1   
  8   6   8  ar  
  9   6  27  1   
 10   7   8  ar  
 11   7   9  1   
 12   8  28  1   
 13   9  10  2   
 14   9  11  2   
 15   9  12  am  
 16  12  13  1   
 17  12  14  1   
 18  13  15  1   
 19  13  29  1   
 20  13  30  1   
 21  14  16  1   
 22  14  31  1   
 23  14  32  1   
 24  15  17  1   
 25  15  18  1   
 26  15  33  1   
 27  16  18  1   
 28  16  34  1   
 29  16  35  1   
 30  17  19  1   
 31  17  20  1   
 32  17  36  1   
 33  18  21  1   
 34  18  22  1   
 35  19  23  1   
 36  19  37  1   
 37  19  38  1   
 38  20  39  1   
 39  20  40  1   
 40  20  41  1   
 41  21  24  ar  
 42  21  25  ar  
 43  22  23  1   
 44  22  42  1   
 45  22  43  1   
 46  23  44  1   
 47  23  45  1   
@<TRIPOS>SUBSTRUCTURE
  1 ****  12 GROUP 4 **** **** 0

# MOE 2024.06 (io_trps.svl 2023.06)
