@<TRIPOS>MOLECULE
NONAME
33 34 1 0 0 
SMALL
USER_CHARGES


@<TRIPOS>ATOM
  1 S        0.0550     0.6460     0.3380 S.3   1 <1>  -0.0800 
  2 C        1.4180    -0.4100    -0.0210 C.2   1 <1>   0.4620 
  3 C       -0.8430    -0.7220     0.9080 C.2   1 <1>  -0.1100 
  4 N        1.1900    -1.6400     0.2650 N.2   1 <1>  -0.5650 
  5 N        2.5780     0.1190    -0.5510 N.pl3 1 <1>  -0.8220 
  6 C       -0.0930    -1.8380     0.7980 C.2   1 <1>   0.1410 
  7 C        2.7620     1.5830    -0.7900 C.3   1 <1>   0.2090 
  8 C        3.6370    -0.7790    -1.0810 C.3   1 <1>   0.2090 
  9 C       -0.5250    -3.1730     1.1880 C.2   1 <1>   0.7160 
 10 C        3.1040     2.2930     0.5200 C.3   1 <1>   0.0960 
 11 C        4.8290    -0.7790    -0.1310 C.3   1 <1>  -0.2400 
 12 O       -1.6270    -3.3870     1.6490 O.2   1 <1>  -0.5700 
 13 N        0.2990    -4.2350     1.0500 N.am  1 <1>  -0.8000 
 14 N        3.4370     3.6990     0.2510 N.pl3 1 <1>   0.3140 
 15 N        2.6090     4.5110    -0.4320 N.2   1 <1>  -0.7070 
 16 C        4.5590     4.3470     0.6210 C.2   1 <1>  -0.3020 
 17 C        3.2230     5.6540    -0.4760 C.2   1 <1>   0.1390 
 18 C        4.4530     5.6130     0.1680 C.2   1 <1>  -0.1500 
 19 H       -1.8420    -0.5670     1.2720 H     1 <1>   0.1500 
 20 H        1.8640     2.0020    -1.2120 H     1 <1>   0.0800 
 21 H        3.5600     1.7360    -1.4970 H     1 <1>   0.0800 
 22 H        3.9390    -0.4500    -2.0610 H     1 <1>   0.0800 
 23 H        3.2570    -1.7820    -1.1780 H     1 <1>   0.0800 
 24 H        3.9450     1.8210     0.9890 H     1 <1>   0.0800 
 25 H        2.2640     2.2690     1.1870 H     1 <1>   0.0800 
 26 H        5.2890     0.1910    -0.0980 H     1 <1>   0.0800 
 27 H        5.5610    -1.4880    -0.4730 H     1 <1>   0.0800 
 28 H        4.5110    -1.0650     0.8560 H     1 <1>   0.0800 
 29 H       -0.0030    -5.1670     1.3250 H     1 <1>   0.3700 
 30 H        1.2380    -4.1080     0.6700 H     1 <1>   0.3700 
 31 H        5.3550     3.8840     1.1760 H     1 <1>   0.1500 
 32 H        2.8150     6.5270    -0.9580 H     1 <1>   0.1500 
 33 H        5.1450     6.4310     0.2660 H     1 <1>   0.1500 
@<TRIPOS>BOND
  1   1   2  1   
  2   1   3  1   
  3   2   4  2   
  4   2   5  1   
  5   3   6  2   
  6   3  19  1   
  7   4   6  1   
  8   5   7  1   
  9   5   8  1   
 10   6   9  1   
 11   7  10  1   
 12   7  20  1   
 13   7  21  1   
 14   8  11  1   
 15   8  22  1   
 16   8  23  1   
 17   9  12  2   
 18   9  13  am  
 19  10  14  1   
 20  10  24  1   
 21  10  25  1   
 22  11  26  1   
 23  11  27  1   
 24  11  28  1   
 25  13  29  1   
 26  13  30  1   
 27  14  15  1   
 28  14  16  1   
 29  15  17  2   
 30  16  18  2   
 31  16  31  1   
 32  17  18  1   
 33  17  32  1   
 34  18  33  1   
@<TRIPOS>SUBSTRUCTURE
  1 ****   5 GROUP 4 **** **** 0

# MOE 2024.06 (io_trps.svl 2023.06)
