@<TRIPOS>MOLECULE
NONAME
38 41 1 0 0 
SMALL
USER_CHARGES


@<TRIPOS>ATOM
  1 S       -0.6820     0.0260    -1.8100 S.3   1 <1>  -0.0800 
  2 C       -1.0630     1.1480    -0.5050 C.2   1 <1>   0.3250 
  3 C       -1.8360    -1.1040    -1.1830 C.2   1 <1>  -0.1100 
  4 N       -1.9630     0.6790     0.2910 N.2   1 <1>  -0.5650 
  5 C       -0.3800     2.4250    -0.4330 C.ar  1 <1>   0.0530 
  6 C       -2.3990    -0.5810    -0.0830 C.2   1 <1>   0.0460 
  7 C       -0.6870     3.3200     0.5940 C.ar  1 <1>  -0.1500 
  8 C        0.5950     2.8300    -1.3510 C.ar  1 <1>  -0.1500 
  9 C       -3.4680    -1.2420     0.7810 C.3   1 <1>   0.3900 
 10 C       -0.0620     4.5480     0.7050 C.ar  1 <1>  -0.1500 
 11 C        1.2240     4.0570    -1.2470 C.ar  1 <1>  -0.1500 
 12 N       -3.5760    -2.7100     0.5000 N.pl3 1 <1>  -0.8210 
 13 C        0.8980     4.9210    -0.2180 C.ar  1 <1>  -0.1500 
 14 C       -4.8560    -3.2510     0.3790 C.2   1 <1>   0.5990 
 15 C       -2.5300    -3.5330     1.1710 C.3   1 <1>   0.1290 
 16 N       -5.9120    -2.6050     0.0640 N.2   1 <1>  -0.4100 
 17 N       -5.0710    -4.5430     0.5830 N.2   1 <1>  -0.5650 
 18 O       -6.8930    -3.4680     0.0450 O.3   1 <1>  -0.0190 
 19 C       -6.3190    -4.6020     0.3600 C.2   1 <1>   0.3930 
 20 C       -7.1830    -5.8510     0.4300 C.3   1 <1>  -0.0150 
 21 C       -6.6180    -7.2130     0.1600 C.3   1 <1>  -0.2000 
 22 C       -7.5600    -6.5830    -0.8220 C.3   1 <1>  -0.2000 
 23 H       -1.9810    -2.0380    -1.6940 H     1 <1>   0.1500 
 24 H       -1.4320     3.0440     1.3200 H     1 <1>   0.1500 
 25 H        0.8750     2.1860    -2.1640 H     1 <1>   0.1500 
 26 H       -4.4000    -0.7370     0.6030 H     1 <1>   0.0800 
 27 H       -3.2140    -1.1000     1.8160 H     1 <1>   0.0800 
 28 H       -0.3220     5.2140     1.5090 H     1 <1>   0.1500 
 29 H        1.9710     4.3430    -1.9680 H     1 <1>   0.1500 
 30 H        1.3870     5.8760    -0.1350 H     1 <1>   0.1500 
 31 H       -1.5780    -3.0310     1.1380 H     1 <1>   0.0800 
 32 H       -2.4330    -4.4810     0.6680 H     1 <1>   0.0800 
 33 H       -2.8040    -3.7100     2.1970 H     1 <1>   0.0800 
 34 H       -7.9280    -5.7740     1.2020 H     1 <1>   0.1000 
 35 H       -6.9620    -8.0400     0.7570 H     1 <1>   0.1000 
 36 H       -5.5760    -7.2950    -0.0980 H     1 <1>   0.1000 
 37 H       -7.1650    -6.2370    -1.7620 H     1 <1>   0.1000 
 38 H       -8.5590    -6.9740    -0.9110 H     1 <1>   0.1000 
@<TRIPOS>BOND
  1   1   2  1   
  2   1   3  1   
  3   2   4  2   
  4   2   5  1   
  5   3   6  2   
  6   3  23  1   
  7   4   6  1   
  8   5   7  ar  
  9   5   8  ar  
 10   6   9  1   
 11   7  10  ar  
 12   7  24  1   
 13   8  11  ar  
 14   8  25  1   
 15   9  12  1   
 16   9  26  1   
 17   9  27  1   
 18  10  13  ar  
 19  10  28  1   
 20  11  13  ar  
 21  11  29  1   
 22  12  14  1   
 23  12  15  1   
 24  13  30  1   
 25  14  16  2   
 26  14  17  1   
 27  15  31  1   
 28  15  32  1   
 29  15  33  1   
 30  16  18  1   
 31  17  19  2   
 32  18  19  1   
 33  19  20  1   
 34  20  21  1   
 35  20  22  1   
 36  20  34  1   
 37  21  22  1   
 38  21  35  1   
 39  21  36  1   
 40  22  37  1   
 41  22  38  1   
@<TRIPOS>SUBSTRUCTURE
  1 ****   6 GROUP 4 **** **** 0

# MOE 2024.06 (io_trps.svl 2023.06)
