@<TRIPOS>MOLECULE
NONAME
46 49 1 0 0 
SMALL
USER_CHARGES


@<TRIPOS>ATOM
  1 CL      -0.8350    -1.0700     1.3320 Cl    1 <1>  -0.1770 
  2 C        0.7510    -0.9970     0.5980 C.ar  1 <1>   0.1770 
  3 C        1.5290    -2.1470     0.4660 C.ar  1 <1>   0.0540 
  4 C        1.1800     0.2360     0.1430 C.ar  1 <1>  -0.1500 
  5 C        1.1020    -3.4400     0.9510 C.2   1 <1>   0.4620 
  6 C        2.7640    -2.0050    -0.1680 C.ar  1 <1>  -0.1500 
  7 C        2.4140     0.3500    -0.4730 C.ar  1 <1>  -0.1500 
  8 N        0.7010    -3.7120     2.1400 N.2   1 <1>  -0.4100 
  9 N        1.1170    -4.5220     0.1680 N.2   1 <1>  -0.5650 
 10 C        3.2040    -0.7760    -0.6300 C.ar  1 <1>  -0.1500 
 11 O        0.4170    -4.9760     2.1820 O.3   1 <1>  -0.0190 
 12 C        0.6840    -5.4030     0.9760 C.2   1 <1>   0.2980 
 13 C        0.4610    -6.8780     0.6560 C.3   1 <1>   0.2900 
 14 N       -0.9620    -7.2770     0.7340 N.3   1 <1>  -0.8100 
 15 C       -1.8230    -6.5150    -0.1880 C.3   1 <1>   0.1100 
 16 C       -1.1780    -8.7030     0.4240 C.3   1 <1>   0.1100 
 17 C       -3.0660    -7.3830    -0.3330 C.3   1 <1>   0.2000 
 18 C       -2.4600    -8.7830    -0.4190 C.3   1 <1>  -0.0800 
 19 O       -3.7880    -7.2590     0.8410 O.3   1 <1>  -0.6800 
 20 C       -3.3920    -9.9420    -0.0230 C.3   1 <1>   0.0210 
 21 C       -2.6810   -11.2790    -0.1290 C.2   1 <1>   0.1080 
 22 N       -2.1120   -11.6970    -1.2180 N.2   1 <1>  -0.7070 
 23 C       -2.5540   -12.1920     0.9120 C.2   1 <1>  -0.1500 
 24 N       -1.6100   -12.9050    -0.8970 N.pl3 1 <1>   0.3000 
 25 C       -1.8610   -13.2250     0.3890 C.2   1 <1>  -0.3320 
 26 C       -1.4210   -14.5190     1.0480 C.3   1 <1>  -0.0600 
 27 H        0.5500     1.0980     0.2680 H     1 <1>   0.1500 
 28 H        3.3860    -2.8740    -0.2970 H     1 <1>   0.1500 
 29 H        2.7560     1.3060    -0.8300 H     1 <1>   0.1500 
 30 H        4.1630    -0.6950    -1.1130 H     1 <1>   0.1500 
 31 H        1.0280    -7.4660     1.3560 H     1 <1>   0.0800 
 32 H        0.8370    -7.0760    -0.3320 H     1 <1>   0.0800 
 33 H       -2.0590    -5.5380     0.2000 H     1 <1>   0.0800 
 34 H       -1.3440    -6.4130    -1.1470 H     1 <1>   0.0800 
 35 H       -0.3550    -9.1210    -0.1330 H     1 <1>   0.0800 
 36 H       -1.2860    -9.2490     1.3460 H     1 <1>   0.0800 
 37 H       -3.6940    -7.1230    -1.1680 H     1 <1>   0.0800 
 38 H       -2.1580    -8.9410    -1.4390 H     1 <1>   0.0800 
 39 H       -3.1260    -7.2470     1.5660 H     1 <1>   0.4000 
 40 H       -4.2460    -9.9530    -0.6760 H     1 <1>   0.0800 
 41 H       -3.7460    -9.8140     0.9840 H     1 <1>   0.0800 
 42 H       -2.9390   -12.0720     1.9090 H     1 <1>   0.1500 
 43 H       -1.1060   -13.4860    -1.5780 H     1 <1>   0.2700 
 44 H       -1.7420   -14.5380     2.0750 H     1 <1>   0.0800 
 45 H       -0.3500   -14.6050     1.0230 H     1 <1>   0.0800 
 46 H       -1.8540   -15.3610     0.5390 H     1 <1>   0.0800 
@<TRIPOS>BOND
  1   1   2  1   
  2   2   3  ar  
  3   2   4  ar  
  4   3   5  1   
  5   3   6  ar  
  6   4   7  ar  
  7   4  27  1   
  8   5   8  2   
  9   5   9  1   
 10   6  10  ar  
 11   6  28  1   
 12   7  10  ar  
 13   7  29  1   
 14   8  11  1   
 15   9  12  2   
 16  10  30  1   
 17  11  12  1   
 18  12  13  1   
 19  13  14  1   
 20  13  31  1   
 21  13  32  1   
 22  14  15  1   
 23  14  16  1   
 24  15  17  1   
 25  15  33  1   
 26  15  34  1   
 27  16  18  1   
 28  16  35  1   
 29  16  36  1   
 30  17  18  1   
 31  17  19  1   
 32  17  37  1   
 33  18  20  1   
 34  18  38  1   
 35  19  39  1   
 36  20  21  1   
 37  20  40  1   
 38  20  41  1   
 39  21  22  2   
 40  21  23  1   
 41  22  24  1   
 42  23  25  2   
 43  23  42  1   
 44  24  25  1   
 45  24  43  1   
 46  25  26  1   
 47  26  44  1   
 48  26  45  1   
 49  26  46  1   
@<TRIPOS>SUBSTRUCTURE
  1 ****  14 GROUP 4 **** **** 0

# MOE 2024.06 (io_trps.svl 2023.06)
