@<TRIPOS>MOLECULE
NONAME
48 49 1 0 0 
SMALL
USER_CHARGES


@<TRIPOS>ATOM
  1 S        0.0270    -0.1120     0.4690 S.o2  1 <1>   1.3330 
  2 O       -0.7920     1.0650     0.6470 O.2   1 <1>  -0.6500 
  3 O        0.5320    -0.8080     1.6310 O.2   1 <1>  -0.6500 
  4 N       -0.8520    -1.2320    -0.4560 N.am  1 <1>  -0.8490 
  5 C        1.3780     0.3230    -0.6280 C.3   1 <1>  -0.0550 
  6 C       -0.3170    -2.5960    -0.3790 C.3   1 <1>   0.1160 
  7 C       -2.2780    -1.2360    -0.1150 C.3   1 <1>   0.1160 
  8 C        2.3390     1.3790    -0.0460 C.3   1 <1>  -0.0800 
  9 C        3.3150     1.8660    -1.1040 C.3   1 <1>   0.2200 
 10 C        3.2950     0.7760     0.9840 C.3   1 <1>   0.1200 
 11 N        3.8340     3.1940    -0.7120 N.am  1 <1>  -0.7300 
 12 C        4.4360     0.8310    -1.0190 C.3   1 <1>   0.1200 
 13 O        4.3650     0.2550     0.2550 O.3   1 <1>  -0.5600 
 14 C        3.8910     4.3060    -1.4990 C.2   1 <1>   0.5440 
 15 O        3.3830     4.2350    -2.6030 O.2   1 <1>  -0.5700 
 16 C        4.5190     5.5380    -1.0410 C.ar  1 <1>   0.0860 
 17 C        5.4700     5.6060    -0.0050 C.ar  1 <1>   0.0820 
 18 C        4.1680     6.7410    -1.6610 C.ar  1 <1>  -0.1500 
 19 O        5.8550     4.4570     0.6130 O.3   1 <1>  -0.3630 
 20 C        6.0110     6.8350     0.3730 C.ar  1 <1>  -0.1500 
 21 C        4.7110     7.9510    -1.2820 C.ar  1 <1>  -0.1500 
 22 C        6.8920     4.4000     1.5690 C.3   1 <1>   0.0400 
 23 C        5.6370     8.0060    -0.2580 C.ar  1 <1>  -0.1440 
 24 C        6.2280     9.3440     0.1530 C.3   1 <1>  -0.0970 
 25 H        1.9310    -0.5600    -0.8830 H     1 <1>   0.0800 
 26 H        0.9520     0.7120    -1.5320 H     1 <1>   0.0800 
 27 H       -0.8520    -3.2420    -1.0540 H     1 <1>   0.0800 
 28 H       -0.4120    -2.9820     0.6230 H     1 <1>   0.0800 
 29 H        0.7230    -2.6050    -0.6540 H     1 <1>   0.0800 
 30 H       -2.8070    -1.9450    -0.7280 H     1 <1>   0.0800 
 31 H       -2.7010    -0.2610    -0.2900 H     1 <1>   0.0800 
 32 H       -2.4140    -1.4910     0.9230 H     1 <1>   0.0800 
 33 H        1.7680     2.1940     0.3650 H     1 <1>   0.0800 
 34 H        2.8830     1.9100    -2.0900 H     1 <1>   0.0800 
 35 H        2.8620    -0.0080     1.5800 H     1 <1>   0.0800 
 36 H        3.6850     1.5410     1.6330 H     1 <1>   0.0800 
 37 H        4.4060     3.2120     0.1400 H     1 <1>   0.3700 
 38 H        5.4080     1.2690    -1.1630 H     1 <1>   0.0800 
 39 H        4.2810     0.0460    -1.7370 H     1 <1>   0.0800 
 40 H        3.4480     6.7230    -2.4620 H     1 <1>   0.1500 
 41 H        6.7330     6.8990     1.1650 H     1 <1>   0.1500 
 42 H        4.4100     8.8530    -1.7890 H     1 <1>   0.1500 
 43 H        7.0320     3.3710     1.8510 H     1 <1>   0.0800 
 44 H        6.6090     4.9780     2.4300 H     1 <1>   0.0800 
 45 H        7.7960     4.7820     1.1270 H     1 <1>   0.0800 
 46 H        5.4450    10.0680     0.2840 H     1 <1>   0.0800 
 47 H        6.9000     9.6940    -0.6100 H     1 <1>   0.0800 
 48 H        6.7710     9.2590     1.0770 H     1 <1>   0.0800 
@<TRIPOS>BOND
  1   1   2  2   
  2   1   3  2   
  3   1   4  am  
  4   1   5  1   
  5   4   6  1   
  6   4   7  1   
  7   5   8  1   
  8   5  25  1   
  9   5  26  1   
 10   6  27  1   
 11   6  28  1   
 12   6  29  1   
 13   7  30  1   
 14   7  31  1   
 15   7  32  1   
 16   8   9  1   
 17   8  10  1   
 18   8  33  1   
 19   9  11  1   
 20   9  12  1   
 21   9  34  1   
 22  10  13  1   
 23  10  35  1   
 24  10  36  1   
 25  11  14  am  
 26  11  37  1   
 27  12  13  1   
 28  12  38  1   
 29  12  39  1   
 30  14  15  2   
 31  14  16  1   
 32  16  17  ar  
 33  16  18  ar  
 34  17  19  1   
 35  17  20  ar  
 36  18  21  ar  
 37  18  40  1   
 38  19  22  1   
 39  20  23  ar  
 40  20  41  1   
 41  21  23  ar  
 42  21  42  1   
 43  22  43  1   
 44  22  44  1   
 45  22  45  1   
 46  23  24  1   
 47  24  46  1   
 48  24  47  1   
 49  24  48  1   
@<TRIPOS>SUBSTRUCTURE
  1 ****  11 GROUP 4 **** **** 0

# MOE 2024.06 (io_trps.svl 2023.06)
