@<TRIPOS>MOLECULE
NONAME
48 49 1 0 0 
SMALL
USER_CHARGES


@<TRIPOS>ATOM
  1 O        0.6280    -0.1240    -1.0800 O.2   1 <1>  -0.5700 
  2 C        1.3150    -0.7410    -0.2880 C.2   1 <1>   0.7150 
  3 N        2.2530    -0.0850     0.4560 N.am  1 <1>  -0.4930 
  4 C        1.1720    -2.1570    -0.1070 C.2   1 <1>  -0.2370 
  5 C        2.6130     1.2860     0.4600 C.2   1 <1>   0.0630 
  6 N        0.0850    -2.8980    -0.4610 N.pl3 1 <1>   0.3140 
  7 C        2.0480    -3.0500     0.4370 C.2   1 <1>  -0.1500 
  8 C        2.1500     2.3320    -0.3400 C.2   1 <1>   0.1390 
  9 C        3.5190     1.8630     1.2770 C.2   1 <1>  -0.3020 
 10 N        0.2440    -4.1970    -0.1590 N.2   1 <1>  -0.7070 
 11 C       -1.1870    -2.4500    -1.0800 C.3   1 <1>   0.0960 
 12 C        1.4230    -4.2800     0.3730 C.2   1 <1>   0.1080 
 13 N        2.7180     3.4660    -0.0500 N.2   1 <1>  -0.7070 
 14 N        3.5670     3.1760     0.9570 N.pl3 1 <1>   0.3140 
 15 C       -2.1050    -1.7760    -0.0510 C.3   1 <1>  -0.2400 
 16 C        2.0140    -5.5930     0.8570 C.3   1 <1>   0.0210 
 17 C        4.4070     4.2080     1.5830 C.3   1 <1>   0.1570 
 18 C        3.2710    -6.0090     0.0680 C.3   1 <1>  -0.0800 
 19 C        5.6110     4.4950     0.7160 C.2   1 <1>   0.5690 
 20 C        2.9580    -6.2290    -1.4190 C.3   1 <1>  -0.2400 
 21 C        3.8770    -7.2870     0.6620 C.3   1 <1>  -0.2400 
 22 O        6.6950     4.5580     1.2450 O.2   1 <1>  -0.5700 
 23 N        5.4450     4.6870    -0.6210 N.am  1 <1>  -0.7300 
 24 C        6.5190     4.9780    -1.6020 C.3   1 <1>   0.0600 
 25 H        2.7440    -0.6680     1.1270 H     1 <1>   0.3700 
 26 H        3.0310    -2.8770     0.8340 H     1 <1>   0.1500 
 27 H        1.4070     2.2210    -1.1120 H     1 <1>   0.1500 
 28 H        4.1220     1.4260     2.0510 H     1 <1>   0.1500 
 29 H       -1.6790    -3.3150    -1.4870 H     1 <1>   0.0800 
 30 H       -0.9690    -1.7820    -1.8930 H     1 <1>   0.0800 
 31 H       -2.3190    -2.4570     0.7540 H     1 <1>   0.0800 
 32 H       -3.0310    -1.4980    -0.5210 H     1 <1>   0.0800 
 33 H       -1.6440    -0.8880     0.3420 H     1 <1>   0.0800 
 34 H        1.2640    -6.3600     0.7740 H     1 <1>   0.0800 
 35 H        2.2580    -5.4880     1.8980 H     1 <1>   0.0800 
 36 H        4.7270     3.8670     2.5480 H     1 <1>   0.0800 
 37 H        3.8280     5.1030     1.6970 H     1 <1>   0.0800 
 38 H        4.0020    -5.2220     0.1470 H     1 <1>   0.0800 
 39 H        2.2130    -6.9960    -1.5390 H     1 <1>   0.0800 
 40 H        3.8450    -6.5230    -1.9520 H     1 <1>   0.0800 
 41 H        2.5840    -5.3240    -1.8650 H     1 <1>   0.0800 
 42 H        3.1780    -8.1030     0.5960 H     1 <1>   0.0800 
 43 H        4.1340    -7.1360     1.6950 H     1 <1>   0.0800 
 44 H        4.7700    -7.5590     0.1280 H     1 <1>   0.0800 
 45 H        4.5010     4.5260    -1.0060 H     1 <1>   0.3700 
 46 H        7.4630     5.0970    -1.0990 H     1 <1>   0.0800 
 47 H        6.2900     5.8870    -2.1320 H     1 <1>   0.0800 
 48 H        6.5980     4.1670    -2.3050 H     1 <1>   0.0800 
@<TRIPOS>BOND
  1   1   2  2   
  2   2   3  am  
  3   2   4  1   
  4   3   5  1   
  5   3  25  1   
  6   4   6  1   
  7   4   7  2   
  8   5   8  1   
  9   5   9  2   
 10   6  10  1   
 11   6  11  1   
 12   7  12  1   
 13   7  26  1   
 14   8  13  2   
 15   8  27  1   
 16   9  14  1   
 17   9  28  1   
 18  10  12  2   
 19  11  15  1   
 20  11  29  1   
 21  11  30  1   
 22  12  16  1   
 23  13  14  1   
 24  14  17  1   
 25  15  31  1   
 26  15  32  1   
 27  15  33  1   
 28  16  18  1   
 29  16  34  1   
 30  16  35  1   
 31  17  19  1   
 32  17  36  1   
 33  17  37  1   
 34  18  20  1   
 35  18  21  1   
 36  18  38  1   
 37  19  22  2   
 38  19  23  am  
 39  20  39  1   
 40  20  40  1   
 41  20  41  1   
 42  21  42  1   
 43  21  43  1   
 44  21  44  1   
 45  23  24  1   
 46  23  45  1   
 47  24  46  1   
 48  24  47  1   
 49  24  48  1   
@<TRIPOS>SUBSTRUCTURE
  1 ****   3 GROUP 4 **** **** 0

# MOE 2024.06 (io_trps.svl 2023.06)
