@<TRIPOS>MOLECULE
NONAME
54 57 1 0 0 
SMALL
USER_CHARGES


@<TRIPOS>ATOM
  1 S       -0.5050     3.4570     0.0400 S.o2  1 <1>   1.3330 
  2 O        0.2530     2.2320    -0.0660 O.2   1 <1>  -0.6500 
  3 O       -0.1750     4.4310     1.0550 O.2   1 <1>  -0.6500 
  4 N       -2.1320     3.0370     0.2400 N.am  1 <1>  -0.8490 
  5 C       -0.5140     4.2850    -1.5360 C.3   1 <1>  -0.1350 
  6 C       -2.5060     2.9730     1.6600 C.3   1 <1>   0.1960 
  7 C       -2.5080     1.8050    -0.4500 C.3   1 <1>   0.1960 
  8 C       -3.9120     2.3900     1.8670 C.3   1 <1>  -0.1600 
  9 C       -4.0380     1.7090    -0.5470 C.3   1 <1>  -0.1600 
 10 C       -4.7770     2.4340     0.5990 C.3   1 <1>   0.2800 
 11 O       -5.9120     1.6730     0.9090 O.3   1 <1>  -0.5600 
 12 C       -5.1260     3.9020     0.2070 C.3   1 <1>   0.1400 
 13 C       -7.0800     1.9140     0.1940 C.3   1 <1>   0.1200 
 14 N       -6.0310     4.6060     1.1660 N.am  1 <1>  -0.6600 
 15 C       -7.9420     2.9160     0.9630 C.3   1 <1>  -0.0990 
 16 C       -7.2970     4.1890     1.4900 C.2   1 <1>   0.5690 
 17 C       -5.5130     5.9180     1.6570 C.3   1 <1>   0.2840 
 18 O       -7.9970     4.8510     2.2200 O.2   1 <1>  -0.5700 
 19 C       -5.3020     6.8700     0.4810 C.ar  1 <1>  -0.1440 
 20 C       -4.0120     7.2730     0.0370 C.ar  1 <1>   0.0000 
 21 C       -6.4290     7.3320    -0.1490 C.ar  1 <1>  -0.1500 
 22 C       -3.9320     8.1520    -1.0710 C.ar  1 <1>   0.0000 
 23 C       -2.7890     6.8650     0.6240 C.ar  1 <1>  -0.1500 
 24 C       -6.3410     8.1990    -1.2400 C.ar  1 <1>  -0.1500 
 25 C       -5.1160     8.5970    -1.6890 C.ar  1 <1>  -0.1500 
 26 C       -2.6690     8.5750    -1.5340 C.ar  1 <1>  -0.1500 
 27 C       -1.5780     7.2970     0.1600 C.ar  1 <1>  -0.1500 
 28 C       -1.5140     8.1620    -0.9340 C.ar  1 <1>  -0.1500 
 29 H        0.4660     4.6570    -1.7600 H     1 <1>   0.0800 
 30 H       -1.2000     5.1090    -1.5150 H     1 <1>   0.0800 
 31 H       -0.8110     3.6090    -2.3120 H     1 <1>   0.0800 
 32 H       -2.4750     3.9680     2.0690 H     1 <1>   0.0800 
 33 H       -1.7900     2.3760     2.2020 H     1 <1>   0.0800 
 34 H       -2.1150     0.9580     0.0920 H     1 <1>   0.0800 
 35 H       -2.0870     1.7830    -1.4420 H     1 <1>   0.0800 
 36 H       -4.4010     2.9130     2.6690 H     1 <1>   0.0800 
 37 H       -3.8050     1.3650     2.1730 H     1 <1>   0.0800 
 38 H       -4.2960     0.6650    -0.5420 H     1 <1>   0.0800 
 39 H       -4.3490     2.1110    -1.4930 H     1 <1>   0.0800 
 40 H       -5.5760     3.9330    -0.7690 H     1 <1>   0.0800 
 41 H       -4.2110     4.4560     0.1140 H     1 <1>   0.0800 
 42 H       -7.6060     0.9790     0.1190 H     1 <1>   0.0800 
 43 H       -6.8520     2.2460    -0.8030 H     1 <1>   0.0800 
 44 H       -8.3580     2.4010     1.8090 H     1 <1>   0.0800 
 45 H       -8.7670     3.2030     0.3400 H     1 <1>   0.0800 
 46 H       -4.6170     5.7510     2.2200 H     1 <1>   0.0800 
 47 H       -6.2150     6.3710     2.3360 H     1 <1>   0.0800 
 48 H       -7.4070     7.0290     0.1880 H     1 <1>   0.1500 
 49 H       -2.7880     6.1980     1.4620 H     1 <1>   0.1500 
 50 H       -7.2460     8.5420    -1.7110 H     1 <1>   0.1500 
 51 H       -5.0390     9.2650    -2.5280 H     1 <1>   0.1500 
 52 H       -2.6310     9.2430    -2.3760 H     1 <1>   0.1500 
 53 H       -0.6630     6.9790     0.6320 H     1 <1>   0.1500 
 54 H       -0.5530     8.4940    -1.2870 H     1 <1>   0.1500 
@<TRIPOS>BOND
  1   1   2  2   
  2   1   3  2   
  3   1   4  am  
  4   1   5  1   
  5   4   6  1   
  6   4   7  1   
  7   5  29  1   
  8   5  30  1   
  9   5  31  1   
 10   6   8  1   
 11   6  32  1   
 12   6  33  1   
 13   7   9  1   
 14   7  34  1   
 15   7  35  1   
 16   8  10  1   
 17   8  36  1   
 18   8  37  1   
 19   9  10  1   
 20   9  38  1   
 21   9  39  1   
 22  10  11  1   
 23  10  12  1   
 24  11  13  1   
 25  12  14  1   
 26  12  40  1   
 27  12  41  1   
 28  13  15  1   
 29  13  42  1   
 30  13  43  1   
 31  14  16  am  
 32  14  17  1   
 33  15  16  1   
 34  15  44  1   
 35  15  45  1   
 36  16  18  2   
 37  17  19  1   
 38  17  46  1   
 39  17  47  1   
 40  19  20  ar  
 41  19  21  ar  
 42  20  22  ar  
 43  20  23  ar  
 44  21  24  ar  
 45  21  48  1   
 46  22  25  ar  
 47  22  26  ar  
 48  23  27  ar  
 49  23  49  1   
 50  24  25  ar  
 51  24  50  1   
 52  25  51  1   
 53  26  28  ar  
 54  26  52  1   
 55  27  28  ar  
 56  27  53  1   
 57  28  54  1   
@<TRIPOS>SUBSTRUCTURE
  1 ****  12 GROUP 4 **** **** 0

# MOE 2024.06 (io_trps.svl 2023.06)
