@<TRIPOS>MOLECULE
NONAME
40 42 1 0 0 
SMALL
USER_CHARGES


@<TRIPOS>ATOM
  1 CL       0.3060     2.4320    -0.9180 Cl    1 <1>  -0.1770 
  2 C       -1.3530     2.2820    -0.3840 C.ar  1 <1>   0.1770 
  3 C       -1.7900     2.9460     0.7580 C.ar  1 <1>  -0.1440 
  4 C       -2.2000     1.4810    -1.1290 C.ar  1 <1>  -0.1500 
  5 C       -3.1170     2.8030     1.1400 C.ar  1 <1>  -0.1500 
  6 C       -0.8510     3.8200     1.5880 C.3   1 <1>   0.0450 
  7 C       -3.5150     1.3340    -0.7310 C.ar  1 <1>   0.0830 
  8 C       -3.9780     2.0050     0.4030 C.ar  1 <1>   0.0830 
  9 C       -0.6360     5.1950     0.9580 C.2   1 <1>   0.5690 
 10 O       -4.3340     0.5280    -1.4550 O.3   1 <1>  -0.3630 
 11 O       -5.2700     1.8960     0.8030 O.3   1 <1>  -0.3630 
 12 O       -1.6090     5.9080     0.8780 O.2   1 <1>  -0.5700 
 13 N        0.5970     5.6210     0.5120 N.am  1 <1>  -0.6600 
 14 C       -5.5670     0.1650    -0.8620 C.3   1 <1>   0.1200 
 15 C       -6.1860     1.3690    -0.1380 C.3   1 <1>   0.1200 
 16 C        0.6630     6.8110    -0.4250 C.3   1 <1>   0.2200 
 17 C        1.8870     4.9740     0.9130 C.3   1 <1>   0.0600 
 18 C        1.2720     6.4680    -1.7810 C.3   1 <1>   0.2000 
 19 C        1.5980     7.9150     0.0790 C.3   1 <1>   0.1200 
 20 O        0.7750     7.3360    -2.7510 O.3   1 <1>  -0.6800 
 21 C        2.7510     6.7890    -1.5860 C.3   1 <1>   0.1200 
 22 O        2.8160     7.7950    -0.6120 O.3   1 <1>  -0.5600 
 23 H       -1.8410     0.9760    -2.0060 H     1 <1>   0.1500 
 24 H       -3.5010     3.3120     2.0060 H     1 <1>   0.1500 
 25 H        0.0680     3.2910     1.7270 H     1 <1>   0.0800 
 26 H       -1.2740     3.9740     2.5630 H     1 <1>   0.0800 
 27 H       -6.2170    -0.1890    -1.6410 H     1 <1>   0.0800 
 28 H       -5.3810    -0.6330    -0.1660 H     1 <1>   0.0800 
 29 H       -7.0770     1.0830     0.3900 H     1 <1>   0.0800 
 30 H       -6.4250     2.1470    -0.8420 H     1 <1>   0.0800 
 31 H       -0.3250     7.2120    -0.5690 H     1 <1>   0.0800 
 32 H        2.6740     5.7020     0.9910 H     1 <1>   0.0800 
 33 H        2.1680     4.2340     0.1850 H     1 <1>   0.0800 
 34 H        1.7980     4.5080     1.8770 H     1 <1>   0.0800 
 35 H        1.0770     5.4570    -2.0940 H     1 <1>   0.0800 
 36 H        1.7750     7.8520     1.1370 H     1 <1>   0.0800 
 37 H        1.1900     8.8820    -0.1590 H     1 <1>   0.0800 
 38 H        1.1010     8.2410    -2.5750 H     1 <1>   0.4000 
 39 H        3.2220     7.1320    -2.4910 H     1 <1>   0.0800 
 40 H        3.2820     5.9340    -1.2120 H     1 <1>   0.0800 
@<TRIPOS>BOND
  1   1   2  1   
  2   2   3  ar  
  3   2   4  ar  
  4   3   5  ar  
  5   3   6  1   
  6   4   7  ar  
  7   4  23  1   
  8   5   8  ar  
  9   5  24  1   
 10   6   9  1   
 11   6  25  1   
 12   6  26  1   
 13   7   8  ar  
 14   7  10  1   
 15   8  11  1   
 16   9  12  2   
 17   9  13  am  
 18  10  14  1   
 19  11  15  1   
 20  13  16  1   
 21  13  17  1   
 22  14  15  1   
 23  14  27  1   
 24  14  28  1   
 25  15  29  1   
 26  15  30  1   
 27  16  18  1   
 28  16  19  1   
 29  16  31  1   
 30  17  32  1   
 31  17  33  1   
 32  17  34  1   
 33  18  20  1   
 34  18  21  1   
 35  18  35  1   
 36  19  22  1   
 37  19  36  1   
 38  19  37  1   
 39  20  38  1   
 40  21  22  1   
 41  21  39  1   
 42  21  40  1   
@<TRIPOS>SUBSTRUCTURE
  1 ****   3 GROUP 4 **** **** 0

# MOE 2024.06 (io_trps.svl 2023.06)
