@<TRIPOS>MOLECULE
NONAME
47 49 1 0 0 
SMALL
USER_CHARGES


@<TRIPOS>ATOM
  1 O       -0.3120     0.0070     1.0060 O.2   1 <1>  -0.5700 
  2 C       -1.3350     0.6590     0.9220 C.2   1 <1>   0.5440 
  3 N       -2.5130     0.0050     0.6430 N.am  1 <1>  -0.6600 
  4 C       -1.2920     2.0990     1.0980 C.ar  1 <1>   0.0860 
  5 C       -3.7220     0.6510     0.0730 C.3   1 <1>   0.1400 
  6 C       -2.5720    -1.4670     0.4560 C.3   1 <1>   0.1400 
  7 C       -0.3750     2.8770     0.3980 C.ar  1 <1>  -0.1500 
  8 C       -2.1610     2.7540     1.9710 C.ar  1 <1>  -0.1500 
  9 C       -4.4130    -0.4530    -0.7240 C.3   1 <1>   0.2000 
 10 C       -3.9840    -1.7560    -0.0570 C.3   1 <1>  -0.0800 
 11 C       -0.3290     4.2530     0.5390 C.ar  1 <1>   0.0830 
 12 C       -2.1270     4.1290     2.1240 C.ar  1 <1>  -0.1500 
 13 O       -5.7920    -0.3250    -0.6880 O.3   1 <1>  -0.6800 
 14 C       -4.0600    -2.9710    -0.9930 C.3   1 <1>   0.0210 
 15 O        0.5990     4.9110    -0.1990 O.3   1 <1>  -0.3630 
 16 C       -1.2140     4.8830     1.4080 C.ar  1 <1>  -0.1500 
 17 C       -3.5390    -4.2170    -0.3040 C.2   1 <1>   0.1080 
 18 C        0.7830     6.3020    -0.0800 C.3   1 <1>   0.1200 
 19 N       -4.1090    -4.7330     0.7400 N.2   1 <1>  -0.7070 
 20 C       -2.4090    -4.9290    -0.6920 C.2   1 <1>  -0.1500 
 21 C        1.9220     6.7080    -1.0100 C.3   1 <1>  -0.2400 
 22 N       -3.3510    -5.8020     1.0480 N.pl3 1 <1>   0.3000 
 23 C       -2.3130    -5.9400     0.1960 C.2   1 <1>  -0.3320 
 24 C       -1.2780    -7.0460     0.2850 C.3   1 <1>  -0.0600 
 25 H       -4.3520     0.9900     0.8770 H     1 <1>   0.0800 
 26 H       -3.4540     1.4740    -0.5650 H     1 <1>   0.0800 
 27 H       -1.8290    -1.7590    -0.2670 H     1 <1>   0.0800 
 28 H       -2.3790    -1.9770     1.3850 H     1 <1>   0.0800 
 29 H        0.3180     2.3960    -0.2690 H     1 <1>   0.1500 
 30 H       -2.8660     2.1720     2.5380 H     1 <1>   0.1500 
 31 H       -4.0940    -0.4110    -1.7520 H     1 <1>   0.0800 
 32 H       -4.5990    -1.9400     0.8070 H     1 <1>   0.0800 
 33 H       -2.8080     4.6130     2.8030 H     1 <1>   0.1500 
 34 H       -6.1280    -0.5440     0.2030 H     1 <1>   0.4000 
 35 H       -3.4870    -2.7900    -1.8840 H     1 <1>   0.0800 
 36 H       -5.0820    -3.1390    -1.2800 H     1 <1>   0.0800 
 37 H       -1.2060     5.9480     1.5410 H     1 <1>   0.1500 
 38 H       -0.1320     6.7930    -0.3620 H     1 <1>   0.0800 
 39 H        1.0300     6.5270     0.9440 H     1 <1>   0.0800 
 40 H       -1.7660    -4.6990    -1.5230 H     1 <1>   0.1500 
 41 H        1.6720     6.4640    -2.0270 H     1 <1>   0.0800 
 42 H        2.8260     6.1980    -0.7300 H     1 <1>   0.0800 
 43 H        2.0890     7.7670    -0.9420 H     1 <1>   0.0800 
 44 H       -3.5670    -6.4150     1.8430 H     1 <1>   0.2700 
 45 H       -0.5550    -6.9400    -0.5050 H     1 <1>   0.0800 
 46 H       -1.7510    -8.0080     0.1890 H     1 <1>   0.0800 
 47 H       -0.7640    -6.9990     1.2280 H     1 <1>   0.0800 
@<TRIPOS>BOND
  1   1   2  2   
  2   2   3  am  
  3   2   4  1   
  4   3   5  1   
  5   3   6  1   
  6   4   7  ar  
  7   4   8  ar  
  8   5   9  1   
  9   5  25  1   
 10   5  26  1   
 11   6  10  1   
 12   6  27  1   
 13   6  28  1   
 14   7  11  ar  
 15   7  29  1   
 16   8  12  ar  
 17   8  30  1   
 18   9  10  1   
 19   9  13  1   
 20   9  31  1   
 21  10  14  1   
 22  10  32  1   
 23  11  15  1   
 24  11  16  ar  
 25  12  16  ar  
 26  12  33  1   
 27  13  34  1   
 28  14  17  1   
 29  14  35  1   
 30  14  36  1   
 31  15  18  1   
 32  16  37  1   
 33  17  19  2   
 34  17  20  1   
 35  18  21  1   
 36  18  38  1   
 37  18  39  1   
 38  19  22  1   
 39  20  23  2   
 40  20  40  1   
 41  21  41  1   
 42  21  42  1   
 43  21  43  1   
 44  22  23  1   
 45  22  44  1   
 46  23  24  1   
 47  24  45  1   
 48  24  46  1   
 49  24  47  1   
@<TRIPOS>SUBSTRUCTURE
  1 ****   3 GROUP 4 **** **** 0

# MOE 2024.06 (io_trps.svl 2023.06)
