@<TRIPOS>MOLECULE
NONAME
49 51 1 0 0 
SMALL
USER_CHARGES


@<TRIPOS>ATOM
  1 F       -0.5250     1.0850     0.4040 F     1 <1>  -0.1900 
  2 C       -0.7550     2.3710     0.4910 C.ar  1 <1>   0.1900 
  3 C        0.0970     3.2900    -0.1330 C.ar  1 <1>   0.0830 
  4 C       -1.8890     2.7650     1.1960 C.ar  1 <1>   0.0860 
  5 O        1.2320     3.0070    -0.8330 O.3   1 <1>  -0.3630 
  6 C       -0.2250     4.6360    -0.0520 C.ar  1 <1>  -0.1500 
  7 C       -2.7660     1.8160     1.8390 C.2   1 <1>   0.5440 
  8 C       -2.1710     4.1290     1.2520 C.ar  1 <1>  -0.1500 
  9 C        1.8990     1.7670    -0.7340 C.3   1 <1>   0.0400 
 10 C       -1.3510     5.0560     0.6350 C.ar  1 <1>  -0.1500 
 11 O       -2.4780     1.3960     2.9440 O.2   1 <1>  -0.5700 
 12 N       -3.9410     1.4140     1.2400 N.am  1 <1>  -0.6600 
 13 C       -4.2560     1.6860    -0.1940 C.3   1 <1>   0.1400 
 14 C       -5.0720     0.9090     2.0560 C.3   1 <1>   0.1400 
 15 C       -5.7590     1.9160    -0.4170 C.3   1 <1>  -0.1600 
 16 C       -6.2290     1.9220     2.0490 C.3   1 <1>  -0.1600 
 17 C       -6.4010     2.7280     0.7370 C.3   1 <1>   0.2800 
 18 O       -5.6500     3.9080     0.8980 O.3   1 <1>  -0.5600 
 19 C       -7.9180     3.0880     0.5460 C.3   1 <1>   0.2000 
 20 C       -5.6500     4.8820    -0.1090 C.3   1 <1>   0.1200 
 21 O       -8.5380     2.1400    -0.2880 O.3   1 <1>  -0.6800 
 22 C       -8.1750     4.5430     0.0450 C.3   1 <1>   0.2800 
 23 C       -7.0070     5.0200    -0.8190 C.3   1 <1>  -0.1600 
 24 O       -8.2460     5.3800     1.1440 O.3   1 <1>  -0.6800 
 25 C       -9.5140     4.7360    -0.6800 C.3   1 <1>  -0.2400 
 26 H        0.4170     5.3560    -0.5300 H     1 <1>   0.1500 
 27 H       -3.0500     4.4510     1.7890 H     1 <1>   0.1500 
 28 H        2.8550     1.8630    -1.2160 H     1 <1>   0.0800 
 29 H        1.3150     1.0150    -1.2340 H     1 <1>   0.0800 
 30 H        2.0360     1.5220     0.3040 H     1 <1>   0.0800 
 31 H       -1.5860     6.1050     0.6930 H     1 <1>   0.1500 
 32 H       -3.7270     2.5630    -0.5210 H     1 <1>   0.0800 
 33 H       -3.9220     0.8550    -0.7910 H     1 <1>   0.0800 
 34 H       -5.4020    -0.0250     1.6360 H     1 <1>   0.0800 
 35 H       -4.7650     0.7180     3.0710 H     1 <1>   0.0800 
 36 H       -6.2370     0.9550    -0.4800 H     1 <1>   0.0800 
 37 H       -5.9090     2.3960    -1.3650 H     1 <1>   0.0800 
 38 H       -6.1090     2.6070     2.8700 H     1 <1>   0.0800 
 39 H       -7.1220     1.3570     2.2440 H     1 <1>   0.0800 
 40 H       -8.4200     2.9970     1.4940 H     1 <1>   0.0800 
 41 H       -5.3980     5.8110     0.3710 H     1 <1>   0.0800 
 42 H       -4.8720     4.6440    -0.8130 H     1 <1>   0.0800 
 43 H       -8.1920     2.2140    -1.1960 H     1 <1>   0.4000 
 44 H       -6.9820     4.4380    -1.7210 H     1 <1>   0.0800 
 45 H       -7.1510     6.0420    -1.1210 H     1 <1>   0.0800 
 46 H       -8.4450     6.2880     0.8580 H     1 <1>   0.4000 
 47 H       -9.5330     4.1760    -1.5960 H     1 <1>   0.0800 
 48 H       -9.6780     5.7710    -0.9210 H     1 <1>   0.0800 
 49 H      -10.3200     4.3850    -0.0590 H     1 <1>   0.0800 
@<TRIPOS>BOND
  1   1   2  1   
  2   2   3  ar  
  3   2   4  ar  
  4   3   5  1   
  5   3   6  ar  
  6   4   7  1   
  7   4   8  ar  
  8   5   9  1   
  9   6  10  ar  
 10   6  26  1   
 11   7  11  2   
 12   7  12  am  
 13   8  10  ar  
 14   8  27  1   
 15   9  28  1   
 16   9  29  1   
 17   9  30  1   
 18  10  31  1   
 19  12  13  1   
 20  12  14  1   
 21  13  15  1   
 22  13  32  1   
 23  13  33  1   
 24  14  16  1   
 25  14  34  1   
 26  14  35  1   
 27  15  17  1   
 28  15  36  1   
 29  15  37  1   
 30  16  17  1   
 31  16  38  1   
 32  16  39  1   
 33  17  18  1   
 34  17  19  1   
 35  18  20  1   
 36  19  21  1   
 37  19  22  1   
 38  19  40  1   
 39  20  23  1   
 40  20  41  1   
 41  20  42  1   
 42  21  43  1   
 43  22  23  1   
 44  22  24  1   
 45  22  25  1   
 46  23  44  1   
 47  23  45  1   
 48  24  46  1   
 49  25  47  1   
 50  25  48  1   
 51  25  49  1   
@<TRIPOS>SUBSTRUCTURE
  1 ****  13 GROUP 4 **** **** 0

# MOE 2024.06 (io_trps.svl 2023.06)
