@<TRIPOS>MOLECULE
NONAME
36 37 1 0 0 
SMALL
USER_CHARGES


@<TRIPOS>ATOM
  1 S       -0.8660    -0.2190    -0.6510 S.3   1 <1>  -0.4600 
  2 C       -1.3070    -0.6210     1.0790 C.3   1 <1>   0.1310 
  3 C       -0.3950     1.5300    -0.5670 C.3   1 <1>  -0.0100 
  4 C       -1.5080    -2.1190     1.2920 C.2   1 <1>   0.5690 
  5 O       -0.7710    -2.6810     2.0690 O.2   1 <1>  -0.5700 
  6 N       -2.5120    -2.8020     0.6570 N.am  1 <1>  -0.6600 
  7 C       -3.4460    -2.2630    -0.3650 C.3   1 <1>   0.1400 
  8 C       -2.6830    -4.2690     0.7870 C.3   1 <1>   0.1400 
  9 C       -4.4920    -3.3620    -0.5360 C.3   1 <1>   0.2000 
 10 C       -3.7000    -4.6520    -0.2960 C.3   1 <1>  -0.0800 
 11 O       -5.4440    -3.2100     0.4620 O.3   1 <1>  -0.6800 
 12 C       -4.5540    -5.8840     0.0550 C.3   1 <1>   0.0200 
 13 C       -3.7420    -7.1660     0.1420 C.2   1 <1>  -0.0400 
 14 O       -4.3320    -8.2530     0.5640 O.3   1 <1>  -0.0190 
 15 C       -2.4660    -7.4780    -0.1350 C.2   1 <1>  -0.1500 
 16 N       -3.5210    -9.2710     0.5880 N.2   1 <1>  -0.4100 
 17 C       -2.3880    -8.8330     0.1730 C.2   1 <1>   0.1080 
 18 C       -1.1440    -9.6830     0.0390 C.3   1 <1>  -0.0590 
 19 H       -0.5010    -0.2720     1.6970 H     1 <1>   0.0800 
 20 H       -2.2060    -0.0840     1.3170 H     1 <1>   0.0800 
 21 H       -0.1240     1.8430    -1.5600 H     1 <1>   0.0800 
 22 H        0.4430     1.6180     0.1010 H     1 <1>   0.0800 
 23 H       -1.2400     2.0890    -0.2070 H     1 <1>   0.0800 
 24 H       -3.8890    -1.3300    -0.0600 H     1 <1>   0.0800 
 25 H       -2.9120    -2.1250    -1.2890 H     1 <1>   0.0800 
 26 H       -1.7410    -4.7720     0.6500 H     1 <1>   0.0800 
 27 H       -3.0610    -4.4910     1.7710 H     1 <1>   0.0800 
 28 H       -4.9870    -3.3310    -1.4920 H     1 <1>   0.0800 
 29 H       -3.1520    -4.8630    -1.1980 H     1 <1>   0.0800 
 30 H       -4.9860    -3.0940     1.3180 H     1 <1>   0.4000 
 31 H       -5.3160    -6.0150    -0.6930 H     1 <1>   0.0800 
 32 H       -5.0490    -5.7320     0.9980 H     1 <1>   0.0800 
 33 H       -1.6620    -6.8700    -0.5060 H     1 <1>   0.1500 
 34 H       -0.3590    -9.2790     0.6510 H     1 <1>   0.0800 
 35 H       -0.8240    -9.7020    -0.9850 H     1 <1>   0.0800 
 36 H       -1.3520   -10.6890     0.3580 H     1 <1>   0.0800 
@<TRIPOS>BOND
  1   1   2  1   
  2   1   3  1   
  3   2   4  1   
  4   2  19  1   
  5   2  20  1   
  6   3  21  1   
  7   3  22  1   
  8   3  23  1   
  9   4   5  2   
 10   4   6  am  
 11   6   7  1   
 12   6   8  1   
 13   7   9  1   
 14   7  24  1   
 15   7  25  1   
 16   8  10  1   
 17   8  26  1   
 18   8  27  1   
 19   9  10  1   
 20   9  11  1   
 21   9  28  1   
 22  10  12  1   
 23  10  29  1   
 24  11  30  1   
 25  12  13  1   
 26  12  31  1   
 27  12  32  1   
 28  13  14  1   
 29  13  15  2   
 30  14  16  1   
 31  15  17  1   
 32  15  33  1   
 33  16  17  2   
 34  17  18  1   
 35  18  34  1   
 36  18  35  1   
 37  18  36  1   
@<TRIPOS>SUBSTRUCTURE
  1 ****   8 GROUP 4 **** **** 0

# MOE 2024.06 (io_trps.svl 2023.06)
