@<TRIPOS>MOLECULE
NONAME
23 24 1 0 0 
SMALL
USER_CHARGES


@<TRIPOS>ATOM
  1 O       -8.5060     0.5840     0.0860 O.3   1 <1>  -0.5380 
  2 C       -7.9250    -0.3110    -0.8120 C.3   1 <1>   0.2580 
  3 C       -9.7570     0.1820     0.5500 C.3   1 <1>   0.0400 
  4 C       -6.9360    -1.2690    -0.0750 C.3   1 <1>   0.0000 
  5 C       -6.6850     0.3520    -1.4870 C.3   1 <1>   0.0000 
  6 C       -5.8950    -0.1420    -0.2540 C.3   1 <1>   0.0000 
  7 C       -4.3770    -0.3580    -0.2960 C.3   1 <1>   0.4720 
  8 C       -5.6580     0.8610     0.8890 C.3   1 <1>   0.4720 
  9 N       -4.2610     1.0020     0.3430 N.4   1 <1>  -0.8440 
 10 H       -8.6380    -0.7560    -1.4850 H     1 <1>   0.0000 
 11 H      -10.1130     0.9210     1.2470 H     1 <1>   0.0800 
 12 H       -9.6710    -0.7710     1.0440 H     1 <1>   0.0800 
 13 H      -10.4390     0.1150    -0.2800 H     1 <1>   0.0800 
 14 H       -6.6980    -2.1430    -0.6570 H     1 <1>   0.0000 
 15 H       -7.1950    -1.4870     0.9460 H     1 <1>   0.0000 
 16 H       -6.7480     1.4210    -1.5890 H     1 <1>   0.0000 
 17 H       -6.3900    -0.1520    -2.3920 H     1 <1>   0.0000 
 18 H       -3.9550    -0.3860    -1.2840 H     1 <1>   0.0000 
 19 H       -4.0380    -1.1310     0.3700 H     1 <1>   0.0000 
 20 H       -5.6520     0.4040     1.8620 H     1 <1>   0.0000 
 21 H       -6.2230     1.7720     0.8130 H     1 <1>   0.0000 
 22 H       -4.2020     1.7560    -0.3480 H     1 <1>   0.4500 
 23 H       -3.5440     1.0610     1.0730 H     1 <1>   0.4500 
@<TRIPOS>BOND
  1   1   2  1   
  2   1   3  1   
  3   2   4  1   
  4   2   5  1   
  5   2  10  1   
  6   3  11  1   
  7   3  12  1   
  8   3  13  1   
  9   4   6  1   
 10   4  14  1   
 11   4  15  1   
 12   5   6  1   
 13   5  16  1   
 14   5  17  1   
 15   6   7  1   
 16   6   8  1   
 17   7   9  1   
 18   7  18  1   
 19   7  19  1   
 20   8   9  1   
 21   8  20  1   
 22   8  21  1   
 23   9  22  1   
 24   9  23  1   
@<TRIPOS>SUBSTRUCTURE
  1 ****   6 GROUP 4 **** **** 0

# MOE 2024.06 (io_trps.svl 2023.06)
