@<TRIPOS>MOLECULE
NONAME
42 44 1 0 0 
SMALL
USER_CHARGES


@<TRIPOS>ATOM
  1 O       -1.8580     0.2410    -1.5800 O.2   1 <1>  -0.5700 
  2 C       -1.9510     0.4410    -0.3850 C.2   1 <1>   0.7160 
  3 N       -2.0980    -0.6360     0.4350 N.am  1 <1>  -0.7300 
  4 C       -1.9320     1.7720     0.1770 C.2   1 <1>  -0.0860 
  5 C       -2.1190    -2.0550     0.0130 C.3   1 <1>   0.2200 
  6 C       -1.9800     2.9940    -0.4280 C.2   1 <1>  -0.0400 
  7 C       -1.8570     2.0830     1.5550 C.2   1 <1>  -0.1500 
  8 C       -3.5370    -2.6110     0.0160 C.3   1 <1>  -0.0800 
  9 C       -1.4890    -2.8970     1.1130 C.3   1 <1>   0.1200 
 10 O       -1.9440     3.9620     0.4550 O.3   1 <1>  -0.2800 
 11 C       -2.0670     3.3970    -1.8880 C.3   1 <1>  -0.0600 
 12 C       -1.8700     3.4260     1.6510 C.2   1 <1>  -0.0400 
 13 C       -3.7470    -3.0160     1.4800 C.3   1 <1>   0.1200 
 14 C       -4.6290    -1.6840    -0.5490 C.3   1 <1>  -0.0160 
 15 O       -2.4840    -3.0180     2.0840 O.3   1 <1>  -0.5600 
 16 C       -1.8110     4.3420     2.8520 C.3   1 <1>  -0.0600 
 17 C       -5.9790    -2.3840    -0.5640 C.ar  1 <1>  -0.1440 
 18 C       -6.3220    -3.2780    -1.5580 C.ar  1 <1>  -0.1500 
 19 C       -6.9300    -2.1640     0.4120 C.ar  1 <1>  -0.1500 
 20 C       -7.5600    -3.8970    -1.5250 C.ar  1 <1>   0.1600 
 21 C       -8.1400    -2.8350     0.3520 C.ar  1 <1>   0.1600 
 22 N       -8.4770    -3.6990    -0.5920 N.ar  1 <1>  -0.6200 
 23 H       -2.2450    -0.4930     1.4340 H     1 <1>   0.3700 
 24 H       -1.6220    -2.1810    -0.9350 H     1 <1>   0.0800 
 25 H       -1.7970     1.3710     2.3570 H     1 <1>   0.1500 
 26 H       -3.5340    -3.5150    -0.5670 H     1 <1>   0.0800 
 27 H       -0.6140    -2.4410     1.5420 H     1 <1>   0.0800 
 28 H       -1.2540    -3.8840     0.7550 H     1 <1>   0.0800 
 29 H       -2.1160     2.5390    -2.5300 H     1 <1>   0.0800 
 30 H       -1.2020     3.9760    -2.1520 H     1 <1>   0.0800 
 31 H       -2.9460     3.9950    -2.0440 H     1 <1>   0.0800 
 32 H       -4.1770    -3.9990     1.5640 H     1 <1>   0.0800 
 33 H       -4.3580    -2.3050     2.0080 H     1 <1>   0.0800 
 34 H       -4.3670    -1.3930    -1.5520 H     1 <1>   0.0800 
 35 H       -4.7030    -0.7850     0.0380 H     1 <1>   0.0800 
 36 H       -1.7510     3.7680     3.7580 H     1 <1>   0.0800 
 37 H       -2.6920     4.9560     2.8820 H     1 <1>   0.0800 
 38 H       -0.9460     4.9770     2.7810 H     1 <1>   0.0800 
 39 H       -5.6380    -3.4980    -2.3570 H     1 <1>   0.1500 
 40 H       -6.7450    -1.4780     1.2180 H     1 <1>   0.1500 
 41 H       -7.8100    -4.5910    -2.3090 H     1 <1>   0.1500 
 42 H       -8.8700    -2.6520     1.1220 H     1 <1>   0.1500 
@<TRIPOS>BOND
  1   1   2  2   
  2   2   3  am  
  3   2   4  1   
  4   3   5  1   
  5   3  23  1   
  6   4   6  2   
  7   4   7  1   
  8   5   8  1   
  9   5   9  1   
 10   5  24  1   
 11   6  10  1   
 12   6  11  1   
 13   7  12  2   
 14   7  25  1   
 15   8  13  1   
 16   8  14  1   
 17   8  26  1   
 18   9  15  1   
 19   9  27  1   
 20   9  28  1   
 21  10  12  1   
 22  11  29  1   
 23  11  30  1   
 24  11  31  1   
 25  12  16  1   
 26  13  15  1   
 27  13  32  1   
 28  13  33  1   
 29  14  17  1   
 30  14  34  1   
 31  14  35  1   
 32  16  36  1   
 33  16  37  1   
 34  16  38  1   
 35  17  18  ar  
 36  17  19  ar  
 37  18  20  ar  
 38  18  39  1   
 39  19  21  ar  
 40  19  40  1   
 41  20  22  ar  
 42  20  41  1   
 43  21  22  ar  
 44  21  42  1   
@<TRIPOS>SUBSTRUCTURE
  1 ****   3 GROUP 4 **** **** 0

# MOE 2024.06 (io_trps.svl 2023.06)
