@<TRIPOS>MOLECULE
NONAME
45 48 1 0 0 
SMALL
USER_CHARGES


@<TRIPOS>ATOM
  1 O       -1.9410     1.1020    -2.6550 O.2   1 <1>  -0.5700 
  2 C       -2.5470     1.5210    -1.6970 C.2   1 <1>   0.5690 
  3 N       -2.9900     0.6750    -0.7140 N.am  1 <1>  -0.6600 
  4 C       -2.8220     3.0080    -1.6470 C.3   1 <1>   0.1570 
  5 C       -3.7110     1.0560     0.5300 C.3   1 <1>   0.1400 
  6 C       -2.6980    -0.7790    -0.7270 C.3   1 <1>   0.1400 
  7 N       -2.1400     3.6220    -0.5020 N.pl3 1 <1>   0.3140 
  8 C       -4.0600    -0.2740     1.1970 C.3   1 <1>   0.2000 
  9 C       -3.0150    -1.2640     0.6890 C.3   1 <1>  -0.0800 
 10 N       -2.8360     4.2620     0.4690 N.2   1 <1>  -0.7070 
 11 C       -0.7940     3.6520    -0.2620 C.ar  1 <1>  -0.1520 
 12 O       -4.0040    -0.1870     2.5780 O.3   1 <1>  -0.6800 
 13 C       -3.4920    -2.7230     0.7500 C.3   1 <1>   0.0200 
 14 C       -1.9410     4.6920     1.2960 C.2   1 <1>   0.1390 
 15 C       -0.6330     4.3520     0.9150 C.ar  1 <1>   0.0000 
 16 C        0.3120     3.1360    -0.9500 C.ar  1 <1>  -0.1500 
 17 C       -2.4670    -3.6600     0.1410 C.2   1 <1>  -0.0400 
 18 C        0.6510     4.5590     1.4360 C.ar  1 <1>  -0.1500 
 19 C        1.5680     3.3410    -0.4320 C.ar  1 <1>  -0.1500 
 20 O       -1.2690    -3.7420     0.6560 O.3   1 <1>  -0.0190 
 21 C       -2.5230    -4.4930    -0.9090 C.2   1 <1>  -0.1500 
 22 C        1.7390     4.0550     0.7630 C.ar  1 <1>  -0.1500 
 23 N       -0.5190    -4.5820     0.0030 N.2   1 <1>  -0.4100 
 24 C       -1.2480    -5.0510    -0.9450 C.2   1 <1>   0.1080 
 25 C       -0.7750    -6.0700    -1.9570 C.3   1 <1>  -0.0590 
 26 H       -3.8770     3.1780    -1.5600 H     1 <1>   0.0800 
 27 H       -2.4660     3.4730    -2.5460 H     1 <1>   0.0800 
 28 H       -3.0550     1.6300     1.1600 H     1 <1>   0.0800 
 29 H       -4.5990     1.6200     0.3030 H     1 <1>   0.0800 
 30 H       -3.3350    -1.2550    -1.4530 H     1 <1>   0.0800 
 31 H       -1.6670    -0.9630    -0.9840 H     1 <1>   0.0800 
 32 H       -5.0550    -0.5720     0.9150 H     1 <1>   0.0800 
 33 H       -2.1130    -1.1600     1.2660 H     1 <1>   0.0800 
 34 H       -3.1110     0.0840     2.8680 H     1 <1>   0.4000 
 35 H       -4.4230    -2.8290     0.2230 H     1 <1>   0.0800 
 36 H       -3.6560    -3.0040     1.7760 H     1 <1>   0.0800 
 37 H       -2.1670     5.2540     2.1860 H     1 <1>   0.1500 
 38 H        0.1760     2.5860    -1.8660 H     1 <1>   0.1500 
 39 H        0.7650     5.1080     2.3530 H     1 <1>   0.1500 
 40 H        2.4350     2.9540    -0.9390 H     1 <1>   0.1500 
 41 H       -3.3320    -4.7040    -1.5830 H     1 <1>   0.1500 
 42 H        2.7340     4.2020     1.1450 H     1 <1>   0.1500 
 43 H       -1.4010    -6.9420    -1.9180 H     1 <1>   0.0800 
 44 H        0.2380    -6.3580    -1.7420 H     1 <1>   0.0800 
 45 H       -0.8140    -5.6470    -2.9440 H     1 <1>   0.0800 
@<TRIPOS>BOND
  1   1   2  2   
  2   2   3  am  
  3   2   4  1   
  4   3   5  1   
  5   3   6  1   
  6   4   7  1   
  7   4  26  1   
  8   4  27  1   
  9   5   8  1   
 10   5  28  1   
 11   5  29  1   
 12   6   9  1   
 13   6  30  1   
 14   6  31  1   
 15   7  10  1   
 16   7  11  1   
 17   8   9  1   
 18   8  12  1   
 19   8  32  1   
 20   9  13  1   
 21   9  33  1   
 22  10  14  2   
 23  11  15  ar  
 24  11  16  ar  
 25  12  34  1   
 26  13  17  1   
 27  13  35  1   
 28  13  36  1   
 29  14  15  1   
 30  14  37  1   
 31  15  18  ar  
 32  16  19  ar  
 33  16  38  1   
 34  17  20  1   
 35  17  21  2   
 36  18  22  ar  
 37  18  39  1   
 38  19  22  ar  
 39  19  40  1   
 40  20  23  1   
 41  21  24  1   
 42  21  41  1   
 43  22  42  1   
 44  23  24  2   
 45  24  25  1   
 46  25  43  1   
 47  25  44  1   
 48  25  45  1   
@<TRIPOS>SUBSTRUCTURE
  1 ****   3 GROUP 4 **** **** 0

# MOE 2024.06 (io_trps.svl 2023.06)
