@<TRIPOS>MOLECULE
NONAME
47 49 1 0 0 
SMALL
USER_CHARGES


@<TRIPOS>ATOM
  1 CL       4.0990     0.4820    -2.7950 Cl    1 <1>  -0.1770 
  2 C        3.3700    -0.2510    -1.3850 C.ar  1 <1>   0.1770 
  3 C        2.9280     0.5170    -0.3020 C.ar  1 <1>   0.0860 
  4 C        3.2460    -1.6290    -1.4090 C.ar  1 <1>  -0.1500 
  5 C        3.0430     1.9630    -0.2190 C.2   1 <1>   0.5440 
  6 C        2.3400    -0.1830     0.7560 C.ar  1 <1>  -0.1500 
  7 C        2.6660    -2.2900    -0.3420 C.ar  1 <1>  -0.1500 
  8 O        2.1950     2.6070     0.3660 O.2   1 <1>  -0.5700 
  9 N        4.1090     2.6390    -0.7410 N.am  1 <1>  -0.7300 
 10 C        2.2110    -1.5610     0.7420 C.ar  1 <1>  -0.1500 
 11 C        4.2710     4.1180    -0.7350 C.3   1 <1>   0.1400 
 12 C        4.8100     4.6040     0.6130 C.3   1 <1>   0.2090 
 13 N        5.0550     6.0700     0.5720 N.pl3 1 <1>  -0.8690 
 14 C        6.2390     6.6490     0.1760 C.ar  1 <1>   0.4100 
 15 N        7.0750     5.8650    -0.5050 N.ar  1 <1>  -0.6200 
 16 C        6.5090     7.9940     0.4850 C.ar  1 <1>   0.0860 
 17 C        8.2220     6.4010    -0.8690 C.ar  1 <1>   0.1600 
 18 C        5.5390     8.8000     1.1840 C.2   1 <1>   0.5440 
 19 C        7.7330     8.5200     0.0920 C.ar  1 <1>  -0.1500 
 20 C        8.6000     7.7040    -0.5970 C.ar  1 <1>  -0.1500 
 21 O        5.1160     8.4420     2.2710 O.2   1 <1>  -0.5700 
 22 N        5.0650     9.9780     0.6480 N.am  1 <1>  -0.6600 
 23 C        5.1570    10.3290    -0.7880 C.3   1 <1>   0.1400 
 24 C        4.0500    10.8130     1.3300 C.3   1 <1>   0.1400 
 25 C        4.2980    11.5790    -0.9450 C.3   1 <1>  -0.1600 
 26 C        3.2950    11.5070     0.2020 C.3   1 <1>  -0.1600 
 27 H        3.6010    -2.1800    -2.2610 H     1 <1>   0.1500 
 28 H        1.9770     0.3710     1.6060 H     1 <1>   0.1500 
 29 H        2.5660    -3.3630    -0.3550 H     1 <1>   0.1500 
 30 H        4.7990     2.1280    -1.2970 H     1 <1>   0.3700 
 31 H        1.7530    -2.0670     1.5750 H     1 <1>   0.1500 
 32 H        3.3190     4.5830    -0.9220 H     1 <1>   0.0800 
 33 H        4.9550     4.4010    -1.5160 H     1 <1>   0.0800 
 34 H        5.7290     4.0920     0.8430 H     1 <1>   0.0800 
 35 H        4.0910     4.3860     1.3830 H     1 <1>   0.0800 
 36 H        4.5630     6.5910     1.3150 H     1 <1>   0.4000 
 37 H        8.9040     5.7690    -1.4130 H     1 <1>   0.1500 
 38 H        7.9880     9.5380     0.3280 H     1 <1>   0.1500 
 39 H        9.5590     8.0670    -0.9220 H     1 <1>   0.1500 
 40 H        4.7550     9.5200    -1.3760 H     1 <1>   0.0800 
 41 H        6.1760    10.5200    -1.0780 H     1 <1>   0.0800 
 42 H        4.5520    11.5340     1.9510 H     1 <1>   0.0800 
 43 H        3.3890    10.2140     1.9350 H     1 <1>   0.0800 
 44 H        3.8190    11.6160    -1.9070 H     1 <1>   0.0800 
 45 H        4.9210    12.4480    -0.8300 H     1 <1>   0.0800 
 46 H        2.9370    12.4770     0.4990 H     1 <1>   0.0800 
 47 H        2.4570    10.8950    -0.0820 H     1 <1>   0.0800 
@<TRIPOS>BOND
  1   1   2  1   
  2   2   3  ar  
  3   2   4  ar  
  4   3   5  1   
  5   3   6  ar  
  6   4   7  ar  
  7   4  27  1   
  8   5   8  2   
  9   5   9  am  
 10   6  10  ar  
 11   6  28  1   
 12   7  10  ar  
 13   7  29  1   
 14   9  11  1   
 15   9  30  1   
 16  10  31  1   
 17  11  12  1   
 18  11  32  1   
 19  11  33  1   
 20  12  13  1   
 21  12  34  1   
 22  12  35  1   
 23  13  14  1   
 24  13  36  1   
 25  14  15  ar  
 26  14  16  ar  
 27  15  17  ar  
 28  16  18  1   
 29  16  19  ar  
 30  17  20  ar  
 31  17  37  1   
 32  18  21  2   
 33  18  22  am  
 34  19  20  ar  
 35  19  38  1   
 36  20  39  1   
 37  22  23  1   
 38  22  24  1   
 39  23  25  1   
 40  23  40  1   
 41  23  41  1   
 42  24  26  1   
 43  24  42  1   
 44  24  43  1   
 45  25  26  1   
 46  25  44  1   
 47  25  45  1   
 48  26  46  1   
 49  26  47  1   
@<TRIPOS>SUBSTRUCTURE
  1 ****  12 GROUP 4 **** **** 0

# MOE 2024.06 (io_trps.svl 2023.06)
