@<TRIPOS>MOLECULE
NONAME
37 38 1 0 0 
SMALL
USER_CHARGES


@<TRIPOS>ATOM
  1 O        0.5650     0.2040    -1.0130 O.co2 1 <1>  -0.9000 
  2 C        1.5360    -0.2530    -0.3750 C.2   1 <1>   0.9790 
  3 O        1.3600    -1.3480     0.2040 O.co2 1 <1>  -0.9000 
  4 C        2.8420     0.4180    -0.2960 C.ar  1 <1>   0.1310 
  5 N        3.0590     1.6820    -0.7330 N.ar  1 <1>  -0.6200 
  6 C        3.8940    -0.3150     0.2630 C.ar  1 <1>   0.1600 
  7 C        4.2980     2.0890    -0.5720 C.ar  1 <1>   0.1600 
  8 N        5.1410     0.0970     0.4250 N.ar  1 <1>  -0.6200 
  9 C        5.3390     1.3370    -0.0030 C.ar  1 <1>   0.4100 
 10 N        6.6270     1.8540     0.1390 N.pl3 1 <1>  -0.8380 
 11 C        6.8210     3.2450     0.6250 C.3   1 <1>   0.2090 
 12 C        7.7700     0.9300     0.3880 C.3   1 <1>   0.1290 
 13 C        7.4200     4.0930    -0.4980 C.3   1 <1>  -0.1600 
 14 C        7.8230     5.4840    -0.0040 C.3   1 <1>   0.2000 
 15 O        6.7050     6.0810     0.5770 O.3   1 <1>  -0.5600 
 16 C        8.3310     6.3730    -1.1500 C.3   1 <1>  -0.1600 
 17 C        6.9400     7.3210     1.1730 C.3   1 <1>   0.1200 
 18 C        8.6150     7.7970    -0.6560 C.3   1 <1>  -0.1600 
 19 C        7.3950     8.3250     0.1080 C.3   1 <1>  -0.1600 
 20 H        3.6790    -1.3150     0.5980 H     1 <1>   0.1500 
 21 H        4.5310     3.0790    -0.9080 H     1 <1>   0.1500 
 22 H        7.4790     3.2390     1.4770 H     1 <1>   0.0800 
 23 H        5.8800     3.6650     0.9430 H     1 <1>   0.0800 
 24 H        7.6620     0.0440    -0.2140 H     1 <1>   0.0800 
 25 H        7.7840     0.6440     1.4260 H     1 <1>   0.0800 
 26 H        8.6990     1.4070     0.1340 H     1 <1>   0.0800 
 27 H        6.7030     4.1880    -1.2920 H     1 <1>   0.0800 
 28 H        8.2910     3.6010    -0.8880 H     1 <1>   0.0800 
 29 H        8.5820     5.3910     0.7550 H     1 <1>   0.0800 
 30 H        7.5870     6.4040    -1.9270 H     1 <1>   0.0800 
 31 H        9.2270     5.9490    -1.5680 H     1 <1>   0.0800 
 32 H        7.6870     7.1990     1.9390 H     1 <1>   0.0800 
 33 H        6.0210     7.6460     1.6280 H     1 <1>   0.0800 
 34 H        8.8400     8.4410    -1.4880 H     1 <1>   0.0800 
 35 H        9.4680     7.7830     0.0010 H     1 <1>   0.0800 
 36 H        7.6340     9.2650     0.5750 H     1 <1>   0.0800 
 37 H        6.5810     8.4940    -0.5760 H     1 <1>   0.0800 
@<TRIPOS>BOND
  1   1   2  ar  
  2   2   3  ar  
  3   2   4  1   
  4   4   5  ar  
  5   4   6  ar  
  6   5   7  ar  
  7   6   8  ar  
  8   6  20  1   
  9   7   9  ar  
 10   7  21  1   
 11   8   9  ar  
 12   9  10  1   
 13  10  11  1   
 14  10  12  1   
 15  11  13  1   
 16  11  22  1   
 17  11  23  1   
 18  12  24  1   
 19  12  25  1   
 20  12  26  1   
 21  13  14  1   
 22  13  27  1   
 23  13  28  1   
 24  14  15  1   
 25  14  16  1   
 26  14  29  1   
 27  15  17  1   
 28  16  18  1   
 29  16  30  1   
 30  16  31  1   
 31  17  19  1   
 32  17  32  1   
 33  17  33  1   
 34  18  19  1   
 35  18  34  1   
 36  18  35  1   
 37  19  36  1   
 38  19  37  1   
@<TRIPOS>SUBSTRUCTURE
  1 ****   7 GROUP 4 **** **** 0

# MOE 2024.06 (io_trps.svl 2023.06)
