@<TRIPOS>MOLECULE
NONAME
50 51 1 0 0 
SMALL
USER_CHARGES


@<TRIPOS>ATOM
  1 O       -0.3940     0.6840    -2.2940 O.2   1 <1>  -0.5700 
  2 C        0.0240    -0.1290    -1.5060 C.2   1 <1>   0.5690 
  3 N        0.9290     0.1390    -0.5190 N.am  1 <1>  -0.5470 
  4 C       -0.4810    -1.5710    -1.5960 C.3   1 <1>   0.1710 
  5 C        1.6140     1.3010    -0.1300 C.ar  1 <1>   0.1170 
  6 N       -0.3790    -2.3440    -0.3140 N.3   1 <1>  -0.8100 
  7 C        1.6190     2.4730    -0.8810 C.ar  1 <1>  -0.1500 
  8 C        2.3270     1.2810     1.0630 C.ar  1 <1>  -0.1500 
  9 C       -0.5220    -3.7880    -0.5810 C.3   1 <1>   0.1100 
 10 C       -1.4000    -1.8700     0.6420 C.3   1 <1>   0.0300 
 11 C        2.3120     3.5920    -0.4540 C.ar  1 <1>  -0.1500 
 12 C        3.0220     2.3970     1.4940 C.ar  1 <1>  -0.1500 
 13 C       -0.0160    -4.6270     0.5960 C.3   1 <1>   0.0960 
 14 C        3.0220     3.5600     0.7430 C.ar  1 <1>   0.0830 
 15 N       -0.1270    -6.0600     0.2640 N.pl3 1 <1>   0.0480 
 16 O        3.7320     4.6060     1.2470 O.3   1 <1>  -0.3630 
 17 C       -1.1700    -6.9030     0.4660 C.2   1 <1>   0.0060 
 18 C        0.8060    -6.8110    -0.3470 C.2   1 <1>  -0.3020 
 19 C        3.8820     5.8310     0.5640 C.3   1 <1>   0.2000 
 20 N       -0.9600    -8.1020     0.0320 N.2   1 <1>  -0.5650 
 21 C       -2.4680    -6.4950     1.1350 C.3   1 <1>  -0.0600 
 22 C        0.2830    -8.0480    -0.4790 C.2   1 <1>   0.0770 
 23 C        4.9660     5.6740    -0.5050 C.3   1 <1>  -0.2400 
 24 C        4.2830     6.8750     1.6030 C.3   1 <1>  -0.2400 
 25 H        1.0740    -0.6840     0.0730 H     1 <1>   0.3700 
 26 H        0.1110    -2.0540    -2.3530 H     1 <1>   0.0800 
 27 H       -1.5010    -1.5590    -1.9380 H     1 <1>   0.0800 
 28 H        1.0820     2.5200    -1.8090 H     1 <1>   0.1500 
 29 H        2.3400     0.3900     1.6620 H     1 <1>   0.1500 
 30 H        0.0680    -4.0500    -1.4440 H     1 <1>   0.0800 
 31 H       -1.5520    -4.0250    -0.7920 H     1 <1>   0.0800 
 32 H       -1.3050    -0.8080     0.8000 H     1 <1>   0.0800 
 33 H       -1.2780    -2.3530     1.5950 H     1 <1>   0.0800 
 34 H       -2.3900    -2.0720     0.2700 H     1 <1>   0.0800 
 35 H        2.2850     4.4710    -1.0680 H     1 <1>   0.1500 
 36 H        3.5710     2.3750     2.4180 H     1 <1>   0.1500 
 37 H       -0.5900    -4.4330     1.4810 H     1 <1>   0.0800 
 38 H        1.0160    -4.3980     0.7890 H     1 <1>   0.0800 
 39 H        1.7680    -6.4390    -0.6490 H     1 <1>   0.1500 
 40 H        2.9360     6.1110     0.1340 H     1 <1>   0.0800 
 41 H       -2.9370    -5.7010     0.5850 H     1 <1>   0.0800 
 42 H       -2.2790    -6.1750     2.1430 H     1 <1>   0.0800 
 43 H       -3.1390    -7.3350     1.1640 H     1 <1>   0.0800 
 44 H        0.7410    -8.9180    -0.9210 H     1 <1>   0.1500 
 45 H        5.8960     5.3830    -0.0500 H     1 <1>   0.0800 
 46 H        5.1130     6.6070    -1.0170 H     1 <1>   0.0800 
 47 H        4.6830     4.9330    -1.2290 H     1 <1>   0.0800 
 48 H        5.2100     6.5990     2.0730 H     1 <1>   0.0800 
 49 H        3.5160     6.9580     2.3520 H     1 <1>   0.0800 
 50 H        4.4060     7.8340     1.1340 H     1 <1>   0.0800 
@<TRIPOS>BOND
  1   1   2  2   
  2   2   3  am  
  3   2   4  1   
  4   3   5  1   
  5   3  25  1   
  6   4   6  1   
  7   4  26  1   
  8   4  27  1   
  9   5   7  ar  
 10   5   8  ar  
 11   6   9  1   
 12   6  10  1   
 13   7  11  ar  
 14   7  28  1   
 15   8  12  ar  
 16   8  29  1   
 17   9  13  1   
 18   9  30  1   
 19   9  31  1   
 20  10  32  1   
 21  10  33  1   
 22  10  34  1   
 23  11  14  ar  
 24  11  35  1   
 25  12  14  ar  
 26  12  36  1   
 27  13  15  1   
 28  13  37  1   
 29  13  38  1   
 30  14  16  1   
 31  15  17  1   
 32  15  18  1   
 33  16  19  1   
 34  17  20  2   
 35  17  21  1   
 36  18  22  2   
 37  18  39  1   
 38  19  23  1   
 39  19  24  1   
 40  19  40  1   
 41  20  22  1   
 42  21  41  1   
 43  21  42  1   
 44  21  43  1   
 45  22  44  1   
 46  23  45  1   
 47  23  46  1   
 48  23  47  1   
 49  24  48  1   
 50  24  49  1   
 51  24  50  1   
@<TRIPOS>SUBSTRUCTURE
  1 ****   3 GROUP 4 **** **** 0

# MOE 2024.06 (io_trps.svl 2023.06)
