@<TRIPOS>MOLECULE
NONAME
42 43 1 0 0 
SMALL
USER_CHARGES


@<TRIPOS>ATOM
  1 F        1.1580    -1.9100     1.5130 F     1 <1>  -0.1900 
  2 C        0.6550    -2.9480     0.9020 C.ar  1 <1>   0.1900 
  3 C        0.5020    -4.1230     1.6080 C.ar  1 <1>  -0.1500 
  4 C        0.2960    -2.8260    -0.4260 C.ar  1 <1>  -0.1500 
  5 C       -0.0380    -5.2250     0.9520 C.ar  1 <1>   0.0830 
  6 C       -0.2390    -3.9260    -1.0740 C.ar  1 <1>  -0.1500 
  7 O       -0.2380    -6.4230     1.5600 O.3   1 <1>  -0.3630 
  8 C       -0.4070    -5.1240    -0.3880 C.ar  1 <1>  -0.1440 
  9 C        0.0890    -6.6290     2.9190 C.3   1 <1>   0.0400 
 10 C       -0.9960    -6.3320    -1.0950 C.3   1 <1>   0.4870 
 11 N       -2.2860    -6.6900    -0.4610 N.4   1 <1>  -0.9590 
 12 C       -2.7970    -8.0110    -0.8980 C.3   1 <1>   0.5240 
 13 C       -3.3110    -5.6050    -0.4790 C.3   1 <1>   0.3430 
 14 C       -2.4880    -8.9910     0.2240 C.2   1 <1>   0.0460 
 15 C       -4.3740    -5.8050     0.6120 C.3   1 <1>   0.1200 
 16 N       -2.7230    -8.6290     1.5040 N.2   1 <1>  -0.5650 
 17 C       -1.9710   -10.2410     0.1610 C.2   1 <1>  -0.3320 
 18 O       -5.3580    -4.8500     0.4270 O.3   1 <1>  -0.6800 
 19 C       -2.3570    -9.6640     2.1890 C.2   1 <1>   0.0360 
 20 N       -1.8890   -10.6780     1.4330 N.pl3 1 <1>   0.0330 
 21 C       -1.5360   -11.0960    -1.0190 C.3   1 <1>  -0.0600 
 22 H        0.8030    -4.1490     2.6380 H     1 <1>   0.1500 
 23 H        0.4360    -1.8880    -0.9350 H     1 <1>   0.1500 
 24 H       -0.5160    -3.8350    -2.1110 H     1 <1>   0.1500 
 25 H       -0.1650    -7.6420     3.1740 H     1 <1>   0.0800 
 26 H       -0.4800    -5.9470     3.5260 H     1 <1>   0.0800 
 27 H        1.1450    -6.4730     3.0540 H     1 <1>   0.0800 
 28 H       -0.3050    -7.1550    -1.0040 H     1 <1>   0.0800 
 29 H       -1.1400    -6.1140    -2.1400 H     1 <1>   0.0800 
 30 H       -2.0390    -6.8640     0.5360 H     1 <1>   0.4500 
 31 H       -2.3320    -8.3290    -1.8150 H     1 <1>   0.0800 
 32 H       -3.8640    -7.9730    -1.0380 H     1 <1>   0.0800 
 33 H       -3.7930    -5.5720    -1.4420 H     1 <1>   0.0800 
 34 H       -2.8370    -4.6530    -0.3030 H     1 <1>   0.0800 
 35 H       -3.9460    -5.6680     1.5900 H     1 <1>   0.0800 
 36 H       -4.8370    -6.7740     0.5440 H     1 <1>   0.0800 
 37 H       -6.0400    -4.9010     1.1300 H     1 <1>   0.4000 
 38 H       -2.4130    -9.7350     3.2630 H     1 <1>   0.1500 
 39 H       -1.5520   -11.5880     1.7650 H     1 <1>   0.2700 
 40 H       -1.6920   -10.5820    -1.9490 H     1 <1>   0.0800 
 41 H       -2.1020   -12.0120    -1.0400 H     1 <1>   0.0800 
 42 H       -0.4910   -11.3410    -0.9350 H     1 <1>   0.0800 
@<TRIPOS>BOND
  1   1   2  1   
  2   2   3  ar  
  3   2   4  ar  
  4   3   5  ar  
  5   3  22  1   
  6   4   6  ar  
  7   4  23  1   
  8   5   7  1   
  9   5   8  ar  
 10   6   8  ar  
 11   6  24  1   
 12   7   9  1   
 13   8  10  1   
 14   9  25  1   
 15   9  26  1   
 16   9  27  1   
 17  10  11  1   
 18  10  28  1   
 19  10  29  1   
 20  11  12  1   
 21  11  13  1   
 22  11  30  1   
 23  12  14  1   
 24  12  31  1   
 25  12  32  1   
 26  13  15  1   
 27  13  33  1   
 28  13  34  1   
 29  14  16  1   
 30  14  17  2   
 31  15  18  1   
 32  15  35  1   
 33  15  36  1   
 34  16  19  2   
 35  17  20  1   
 36  17  21  1   
 37  18  37  1   
 38  19  20  1   
 39  19  38  1   
 40  20  39  1   
 41  21  40  1   
 42  21  41  1   
 43  21  42  1   
@<TRIPOS>SUBSTRUCTURE
  1 ****  11 GROUP 4 **** **** 0

# MOE 2024.06 (io_trps.svl 2023.06)
