@<TRIPOS>MOLECULE
NONAME
53 56 1 0 0 
SMALL
USER_CHARGES


@<TRIPOS>ATOM
  1 O        0.0380    -0.4650     1.0770 O.2   1 <1>  -0.5700 
  2 C        1.1080    -0.9890     0.8290 C.2   1 <1>   0.5440 
  3 N        2.1530    -0.1990     0.4080 N.am  1 <1>  -0.6600 
  4 C        1.2430    -2.4250     0.9730 C.ar  1 <1>   0.0860 
  5 C        2.0200     1.2700     0.2780 C.3   1 <1>   0.1400 
  6 C        3.3410    -0.6860    -0.3290 C.3   1 <1>   0.1400 
  7 C        0.2940    -3.3000     0.4800 C.ar  1 <1>  -0.1500 
  8 C        2.3130    -3.0280     1.6210 C.ar  1 <1>  -0.1500 
  9 C        3.3030     1.7240    -0.4080 C.3   1 <1>  -0.1600 
 10 C        3.7800     0.4980    -1.1810 C.3   1 <1>  -0.1600 
 11 C        0.4390    -4.6720     0.6250 C.ar  1 <1>   0.4100 
 12 C        2.3800    -4.4020     1.7160 C.ar  1 <1>   0.1600 
 13 N        1.4750    -5.2350     1.2310 N.ar  1 <1>  -0.6200 
 14 N       -0.5330    -5.5060     0.1180 N.pl3 1 <1>  -0.8690 
 15 C       -0.6300    -6.9170     0.5110 C.3   1 <1>   0.2890 
 16 C        0.1970    -7.7490    -0.4670 C.3   1 <1>  -0.1600 
 17 C       -2.0930    -7.3470     0.4830 C.3   1 <1>  -0.1600 
 18 C        0.0550    -9.2330    -0.1600 C.3   1 <1>   0.3430 
 19 C       -2.2090    -8.8400     0.7730 C.3   1 <1>   0.3430 
 20 N       -1.3860    -9.6140    -0.2070 N.4   1 <1>  -0.9590 
 21 C       -1.5570   -11.0820     0.0000 C.3   1 <1>   0.5230 
 22 C       -2.9700   -11.5200    -0.3460 C.2   1 <1>  -0.0400 
 23 O       -3.3750   -12.6730     0.1480 O.3   1 <1>  -0.2800 
 24 C       -3.9520   -10.9580    -1.0890 C.2   1 <1>  -0.1500 
 25 C       -4.6110   -12.8750    -0.2600 C.2   1 <1>  -0.0100 
 26 C       -5.0300   -11.8500    -1.0300 C.2   1 <1>  -0.1500 
 27 H        1.8980     1.7270     1.2450 H     1 <1>   0.0800 
 28 H        1.1620     1.4930    -0.3350 H     1 <1>   0.0800 
 29 H        3.1020    -1.5420    -0.9380 H     1 <1>   0.0800 
 30 H        4.1140    -0.9400     0.3760 H     1 <1>   0.0800 
 31 H       -0.5680    -2.9050    -0.0230 H     1 <1>   0.1500 
 32 H        3.0850    -2.4180     2.0530 H     1 <1>   0.1500 
 33 H        4.0260     1.9880     0.3440 H     1 <1>   0.0800 
 34 H        3.1340     2.5730    -1.0460 H     1 <1>   0.0800 
 35 H        3.2780     0.4490    -2.1320 H     1 <1>   0.0800 
 36 H        4.8430     0.5030    -1.3450 H     1 <1>   0.0800 
 37 H        3.2230    -4.8430     2.2220 H     1 <1>   0.1500 
 38 H       -1.4250    -5.0480    -0.0800 H     1 <1>   0.4000 
 39 H       -0.2450    -7.0420     1.5110 H     1 <1>   0.0800 
 40 H        1.2330    -7.4730    -0.3740 H     1 <1>   0.0800 
 41 H       -0.1090    -7.5510    -1.4790 H     1 <1>   0.0800 
 42 H       -2.5300    -7.1320    -0.4760 H     1 <1>   0.0800 
 43 H       -2.6360    -6.8020     1.2350 H     1 <1>   0.0800 
 44 H        0.4590    -9.4350     0.8200 H     1 <1>   0.0800 
 45 H        0.6160    -9.8030    -0.8840 H     1 <1>   0.0800 
 46 H       -3.2440    -9.1390     0.7090 H     1 <1>   0.0800 
 47 H       -1.8660    -9.0390     1.7760 H     1 <1>   0.0800 
 48 H       -1.7370    -9.4100    -1.1510 H     1 <1>   0.4500 
 49 H       -1.3570   -11.3310     1.0290 H     1 <1>   0.0800 
 50 H       -0.8660   -11.6320    -0.6180 H     1 <1>   0.0800 
 51 H       -3.9720   -10.0330    -1.6390 H     1 <1>   0.1500 
 52 H       -5.1210   -13.7760     0.0420 H     1 <1>   0.1500 
 53 H       -5.9850   -11.7200    -1.5110 H     1 <1>   0.1500 
@<TRIPOS>BOND
  1   1   2  2   
  2   2   3  am  
  3   2   4  1   
  4   3   5  1   
  5   3   6  1   
  6   4   7  ar  
  7   4   8  ar  
  8   5   9  1   
  9   5  27  1   
 10   5  28  1   
 11   6  10  1   
 12   6  29  1   
 13   6  30  1   
 14   7  11  ar  
 15   7  31  1   
 16   8  12  ar  
 17   8  32  1   
 18   9  10  1   
 19   9  33  1   
 20   9  34  1   
 21  10  35  1   
 22  10  36  1   
 23  11  13  ar  
 24  11  14  1   
 25  12  13  ar  
 26  12  37  1   
 27  14  15  1   
 28  14  38  1   
 29  15  16  1   
 30  15  17  1   
 31  15  39  1   
 32  16  18  1   
 33  16  40  1   
 34  16  41  1   
 35  17  19  1   
 36  17  42  1   
 37  17  43  1   
 38  18  20  1   
 39  18  44  1   
 40  18  45  1   
 41  19  20  1   
 42  19  46  1   
 43  19  47  1   
 44  20  21  1   
 45  20  48  1   
 46  21  22  1   
 47  21  49  1   
 48  21  50  1   
 49  22  23  1   
 50  22  24  2   
 51  23  25  1   
 52  24  26  1   
 53  24  51  1   
 54  25  26  2   
 55  25  52  1   
 56  26  53  1   
@<TRIPOS>SUBSTRUCTURE
  1 ****  14 GROUP 4 **** **** 0

# MOE 2024.06 (io_trps.svl 2023.06)
