@<TRIPOS>MOLECULE
NONAME
47 49 1 0 0 
SMALL
USER_CHARGES


@<TRIPOS>ATOM
  1 S        0.0350     0.2870    -0.3360 S.o2  1 <1>   1.3330 
  2 O       -0.0210     0.4280    -1.7730 O.2   1 <1>  -0.6500 
  3 O       -1.1620     0.4460     0.4540 O.2   1 <1>  -0.6500 
  4 N        1.1940     1.4070     0.2140 N.am  1 <1>  -0.8490 
  5 C        0.7660    -1.2820     0.0780 C.3   1 <1>  -0.1350 
  6 C        2.1680     1.7290    -0.8500 C.3   1 <1>   0.1960 
  7 C        0.5330     2.5640     0.8350 C.3   1 <1>   0.1960 
  8 C        3.4790     2.3200    -0.2980 C.3   1 <1>   0.3430 
  9 C        1.5000     3.5870     1.4320 C.3   1 <1>  -0.1600 
 10 N        3.4840     3.8120    -0.0880 N.4   1 <1>  -0.9590 
 11 C        2.1910     4.4160     0.3570 C.3   1 <1>   0.3430 
 12 C        4.0160     4.5300    -1.2850 C.3   1 <1>   0.4860 
 13 C        4.2760     5.9750    -0.9080 C.ar  1 <1>  -0.1440 
 14 C        5.3750     6.3160    -0.0810 C.ar  1 <1>   0.0000 
 15 C        3.4210     6.9440    -1.3640 C.ar  1 <1>  -0.1500 
 16 C        5.5340     7.6660     0.3230 C.ar  1 <1>   0.3100 
 17 C        6.3400     5.3860     0.3680 C.ar  1 <1>  -0.1500 
 18 C        3.6000     8.2770    -0.9930 C.ar  1 <1>  -0.1500 
 19 N        6.5310     8.0560     1.1620 N.ar  1 <1>  -0.6200 
 20 C        4.6270     8.6350    -0.1620 C.ar  1 <1>  -0.1440 
 21 C        7.3340     5.8190     1.1900 C.ar  1 <1>  -0.1500 
 22 C        7.3820     7.1660     1.5640 C.ar  1 <1>   0.1600 
 23 C        4.7940    10.0990     0.2360 C.3   1 <1>  -0.0970 
 24 H        0.1110    -2.0780    -0.2190 H     1 <1>   0.0800 
 25 H        0.9220    -1.3480     1.1370 H     1 <1>   0.0800 
 26 H        1.7040    -1.4060    -0.4230 H     1 <1>   0.0800 
 27 H        1.7270     2.3730    -1.5930 H     1 <1>   0.0800 
 28 H        2.4370     0.8110    -1.3450 H     1 <1>   0.0800 
 29 H       -0.0850     2.2100     1.6450 H     1 <1>   0.0800 
 30 H       -0.1210     3.0380     0.1190 H     1 <1>   0.0800 
 31 H        4.2780     2.0600    -0.9730 H     1 <1>   0.0800 
 32 H        3.6820     1.8250     0.6390 H     1 <1>   0.0800 
 33 H        2.1950     3.1250     2.1100 H     1 <1>   0.0800 
 34 H        0.9020     4.2670     2.0140 H     1 <1>   0.0800 
 35 H        4.1530     4.0150     0.6680 H     1 <1>   0.4500 
 36 H        2.3860     5.4020     0.7520 H     1 <1>   0.0800 
 37 H        1.5250     4.5290    -0.4830 H     1 <1>   0.0800 
 38 H        3.3020     4.4840    -2.0920 H     1 <1>   0.0800 
 39 H        4.9350     4.0790    -1.6200 H     1 <1>   0.0800 
 40 H        2.5910     6.7150    -2.0120 H     1 <1>   0.1500 
 41 H        6.3160     4.3570     0.0670 H     1 <1>   0.1500 
 42 H        2.9130     9.0170    -1.3710 H     1 <1>   0.1500 
 43 H        8.0950     5.1560     1.5620 H     1 <1>   0.1500 
 44 H        8.1750     7.4830     2.2210 H     1 <1>   0.1500 
 45 H        5.7590    10.4550    -0.0800 H     1 <1>   0.0800 
 46 H        4.7290    10.1980     1.3050 H     1 <1>   0.0800 
 47 H        4.0390    10.7180    -0.2120 H     1 <1>   0.0800 
@<TRIPOS>BOND
  1   1   2  2   
  2   1   3  2   
  3   1   4  am  
  4   1   5  1   
  5   4   6  1   
  6   4   7  1   
  7   5  24  1   
  8   5  25  1   
  9   5  26  1   
 10   6   8  1   
 11   6  27  1   
 12   6  28  1   
 13   7   9  1   
 14   7  29  1   
 15   7  30  1   
 16   8  10  1   
 17   8  31  1   
 18   8  32  1   
 19   9  11  1   
 20   9  33  1   
 21   9  34  1   
 22  10  11  1   
 23  10  12  1   
 24  10  35  1   
 25  11  36  1   
 26  11  37  1   
 27  12  13  1   
 28  12  38  1   
 29  12  39  1   
 30  13  14  ar  
 31  13  15  ar  
 32  14  16  ar  
 33  14  17  ar  
 34  15  18  ar  
 35  15  40  1   
 36  16  19  ar  
 37  16  20  ar  
 38  17  21  ar  
 39  17  41  1   
 40  18  20  ar  
 41  18  42  1   
 42  19  22  ar  
 43  20  23  1   
 44  21  22  ar  
 45  21  43  1   
 46  22  44  1   
 47  23  45  1   
 48  23  46  1   
 49  23  47  1   
@<TRIPOS>SUBSTRUCTURE
  1 ****  10 GROUP 4 **** **** 0

# MOE 2024.06 (io_trps.svl 2023.06)
