@<TRIPOS>MOLECULE
NONAME
45 46 1 0 0 
SMALL
USER_CHARGES


@<TRIPOS>ATOM
  1 S       -0.4840     0.2830     1.6440 S.o2  1 <1>   1.4470 
  2 O       -0.3930    -0.9620     2.3720 O.2   1 <1>  -0.6500 
  3 O       -1.1270     1.4160     2.2610 O.2   1 <1>  -0.6500 
  4 N       -1.4220     0.0090     0.2750 N.am  1 <1>  -0.9140 
  5 C        1.1310     0.7680     0.9750 C.ar  1 <1>  -0.0090 
  6 C       -1.4550    -1.3140    -0.3560 C.3   1 <1>   0.2760 
  7 C        2.3030     0.1620     1.4100 C.ar  1 <1>  -0.1500 
  8 C        1.2350     1.7580     0.0050 C.ar  1 <1>  -0.1500 
  9 C       -2.2470    -2.3590     0.4370 C.3   1 <1>  -0.0800 
 10 C       -0.1030    -1.9860    -0.6290 C.3   1 <1>   0.1200 
 11 C        3.5340     0.5230     0.8900 C.ar  1 <1>  -0.1500 
 12 C        2.4620     2.1250    -0.5180 C.ar  1 <1>  -0.1500 
 13 C       -1.2350    -3.4980     0.6000 C.3   1 <1>   0.1200 
 14 C       -3.4920    -2.8150    -0.3480 C.3   1 <1>  -0.0550 
 15 O       -0.3480    -3.3430    -0.4580 O.3   1 <1>  -0.5600 
 16 C        3.6200     1.5060    -0.0800 C.ar  1 <1>  -0.1430 
 17 S       -4.6530    -3.7660     0.6320 S.o2  1 <1>   1.3330 
 18 C        4.9690     1.9050    -0.6500 C.3   1 <1>  -0.0960 
 19 O       -4.0610    -5.0260     1.0180 O.2   1 <1>  -0.6500 
 20 O       -5.1840    -2.8790     1.6420 O.2   1 <1>  -0.6500 
 21 N       -5.8890    -4.0930    -0.4850 N.am  1 <1>  -0.8490 
 22 C       -5.6150    -5.2640    -1.3270 C.3   1 <1>   0.1160 
 23 C       -7.1960    -4.2440     0.1630 C.3   1 <1>   0.1160 
 24 H       -2.3620     0.2520     0.5840 H     1 <1>   0.4200 
 25 H       -1.9230    -1.1850    -1.3170 H     1 <1>   0.0800 
 26 H        2.2550    -0.6050     2.1660 H     1 <1>   0.1500 
 27 H        0.3420     2.2490    -0.3430 H     1 <1>   0.1500 
 28 H       -2.5460    -1.9960     1.4050 H     1 <1>   0.0800 
 29 H        0.6590    -1.7100     0.0740 H     1 <1>   0.0800 
 30 H        0.2390    -1.8180    -1.6350 H     1 <1>   0.0800 
 31 H        4.4250     0.0360     1.2460 H     1 <1>   0.1500 
 32 H        2.5120     2.8960    -1.2680 H     1 <1>   0.1500 
 33 H       -1.6680    -4.4820     0.5530 H     1 <1>   0.0800 
 34 H       -0.6800    -3.3950     1.5180 H     1 <1>   0.0800 
 35 H       -3.1830    -3.3880    -1.2000 H     1 <1>   0.0800 
 36 H       -4.0090    -1.9470    -0.7090 H     1 <1>   0.0800 
 37 H        5.6360     1.0620    -0.6620 H     1 <1>   0.0800 
 38 H        5.4020     2.6830    -0.0480 H     1 <1>   0.0800 
 39 H        4.8610     2.2650    -1.6580 H     1 <1>   0.0800 
 40 H       -6.3820    -5.3680    -2.0750 H     1 <1>   0.0800 
 41 H       -5.5850    -6.1600    -0.7290 H     1 <1>   0.0800 
 42 H       -4.6680    -5.1510    -1.8260 H     1 <1>   0.0800 
 43 H       -7.9580    -4.4350    -0.5730 H     1 <1>   0.0800 
 44 H       -7.4550    -3.3390     0.6860 H     1 <1>   0.0800 
 45 H       -7.1720    -5.0570     0.8700 H     1 <1>   0.0800 
@<TRIPOS>BOND
  1   1   2  2   
  2   1   3  2   
  3   1   4  am  
  4   1   5  1   
  5   4   6  1   
  6   4  24  1   
  7   5   7  ar  
  8   5   8  ar  
  9   6   9  1   
 10   6  10  1   
 11   6  25  1   
 12   7  11  ar  
 13   7  26  1   
 14   8  12  ar  
 15   8  27  1   
 16   9  13  1   
 17   9  14  1   
 18   9  28  1   
 19  10  15  1   
 20  10  29  1   
 21  10  30  1   
 22  11  16  ar  
 23  11  31  1   
 24  12  16  ar  
 25  12  32  1   
 26  13  15  1   
 27  13  33  1   
 28  13  34  1   
 29  14  17  1   
 30  14  35  1   
 31  14  36  1   
 32  16  18  1   
 33  17  19  2   
 34  17  20  2   
 35  17  21  am  
 36  18  37  1   
 37  18  38  1   
 38  18  39  1   
 39  21  22  1   
 40  21  23  1   
 41  22  40  1   
 42  22  41  1   
 43  22  42  1   
 44  23  43  1   
 45  23  44  1   
 46  23  45  1   
@<TRIPOS>SUBSTRUCTURE
  1 ****   6 GROUP 4 **** **** 0

# MOE 2024.06 (io_trps.svl 2023.06)
