@<TRIPOS>MOLECULE
NONAME
46 48 1 0 0 
SMALL
USER_CHARGES


@<TRIPOS>ATOM
  1 O       -0.7250     1.2660    -0.8960 O.2   1 <1>  -0.5700 
  2 C        0.3590     1.7250    -0.6370 C.2   1 <1>   0.5690 
  3 N        1.4170     1.0520    -0.1340 N.am  1 <1>  -0.6600 
  4 C        0.6930     3.1750    -0.8350 C.3   1 <1>  -0.0990 
  5 C        2.5780     1.9300     0.1000 C.3   1 <1>   0.1400 
  6 C        1.4150    -0.3650     0.2840 C.3   1 <1>   0.1400 
  7 C        2.2290     3.2070    -0.6840 C.3   1 <1>  -0.0190 
  8 C        2.2550    -1.1870    -0.6890 C.3   1 <1>  -0.2400 
  9 C        2.7800     4.4780    -0.0530 C.2   1 <1>   0.5690 
 10 O        3.6840     4.3910     0.7420 O.2   1 <1>  -0.5700 
 11 N        2.2370     5.6750    -0.4320 N.am  1 <1>  -0.4940 
 12 C        2.4790     6.9760     0.0670 C.2   1 <1>  -0.0880 
 13 N        3.6880     7.5780     0.2840 N.pl3 1 <1>   0.3140 
 14 C        1.5320     7.8830     0.4090 C.2   1 <1>  -0.1810 
 15 N        3.5180     8.8420     0.7560 N.2   1 <1>  -0.7070 
 16 C        5.0460     7.0320    -0.0200 C.3   1 <1>   0.1760 
 17 C        2.2360     9.0040     0.8270 C.2   1 <1>   0.1390 
 18 C        0.0190     7.7600     0.3790 C.3   1 <1>  -0.0590 
 19 C        5.9080     6.8390     1.2380 C.3   1 <1>  -0.1600 
 20 C        5.8690     7.9340    -0.9480 C.3   1 <1>  -0.1600 
 21 C        7.3050     7.3780     0.9030 C.3   1 <1>  -0.1600 
 22 C        7.3180     7.6020    -0.6070 C.3   1 <1>  -0.1600 
 23 H        0.2040     3.7370    -0.0600 H     1 <1>   0.0800 
 24 H        0.3710     3.5090    -1.8030 H     1 <1>   0.0800 
 25 H        3.4890     1.4850    -0.2620 H     1 <1>   0.0800 
 26 H        2.6630     2.1250     1.1570 H     1 <1>   0.0800 
 27 H        0.4020    -0.7350     0.2870 H     1 <1>   0.0800 
 28 H        1.8070    -0.4480     1.2840 H     1 <1>   0.0800 
 29 H        2.6700     3.1090    -1.6600 H     1 <1>   0.0800 
 30 H        1.8630    -1.0890    -1.6860 H     1 <1>   0.0800 
 31 H        2.2170    -2.2240    -0.4100 H     1 <1>   0.0800 
 32 H        3.2810    -0.8680    -0.6720 H     1 <1>   0.0800 
 33 H        1.4330     5.6150    -1.0570 H     1 <1>   0.3700 
 34 H        4.9380     6.0830    -0.5080 H     1 <1>   0.0800 
 35 H        1.7790     9.9160     1.1740 H     1 <1>   0.1500 
 36 H       -0.2790     6.7520     0.1600 H     1 <1>   0.0800 
 37 H       -0.3860     8.4160    -0.3700 H     1 <1>   0.0800 
 38 H       -0.3860     8.0350     1.3370 H     1 <1>   0.0800 
 39 H        5.9570     5.7920     1.4820 H     1 <1>   0.0800 
 40 H        5.4990     7.3750     2.0780 H     1 <1>   0.0800 
 41 H        5.6880     8.9700    -0.7190 H     1 <1>   0.0800 
 42 H        5.6480     7.7500    -1.9840 H     1 <1>   0.0800 
 43 H        8.0830     6.7010     1.2140 H     1 <1>   0.0800 
 44 H        7.4450     8.3220     1.4020 H     1 <1>   0.0800 
 45 H        7.9920     8.3910    -0.8920 H     1 <1>   0.0800 
 46 H        7.6070     6.6910    -1.1040 H     1 <1>   0.0800 
@<TRIPOS>BOND
  1   1   2  2   
  2   2   3  am  
  3   2   4  1   
  4   3   5  1   
  5   3   6  1   
  6   4   7  1   
  7   4  23  1   
  8   4  24  1   
  9   5   7  1   
 10   5  25  1   
 11   5  26  1   
 12   6   8  1   
 13   6  27  1   
 14   6  28  1   
 15   7   9  1   
 16   7  29  1   
 17   8  30  1   
 18   8  31  1   
 19   8  32  1   
 20   9  10  2   
 21   9  11  am  
 22  11  12  1   
 23  11  33  1   
 24  12  13  1   
 25  12  14  2   
 26  13  15  1   
 27  13  16  1   
 28  14  17  1   
 29  14  18  1   
 30  15  17  2   
 31  16  19  1   
 32  16  20  1   
 33  16  34  1   
 34  17  35  1   
 35  18  36  1   
 36  18  37  1   
 37  18  38  1   
 38  19  21  1   
 39  19  39  1   
 40  19  40  1   
 41  20  22  1   
 42  20  41  1   
 43  20  42  1   
 44  21  22  1   
 45  21  43  1   
 46  21  44  1   
 47  22  45  1   
 48  22  46  1   
@<TRIPOS>SUBSTRUCTURE
  1 ****   9 GROUP 4 **** **** 0

# MOE 2024.06 (io_trps.svl 2023.06)
