@<TRIPOS>MOLECULE
NONAME
42 44 1 0 0 
SMALL
USER_CHARGES


@<TRIPOS>ATOM
  1 O        5.0170    -2.1380    -0.3780 O.2   1 <1>  -0.5700 
  2 C        3.9260    -1.8260     0.0610 C.2   1 <1>   0.5440 
  3 N        3.7890    -0.5230     0.4660 N.am  1 <1>  -0.6600 
  4 C        2.8180    -2.7610     0.0730 C.ar  1 <1>   0.0860 
  5 C        4.9140     0.1440     1.2270 C.3   1 <1>   0.2200 
  6 C        2.7900     0.3550    -0.2190 C.3   1 <1>   0.1400 
  7 C        1.7140    -2.5690     0.9030 C.ar  1 <1>   0.1600 
  8 C        2.8000    -3.8890    -0.7370 C.ar  1 <1>  -0.1500 
  9 C        4.4330     1.2480     2.1970 C.3   1 <1>   0.1200 
 10 C        6.0350     0.6670     0.2900 C.3   1 <1>   0.3430 
 11 C        3.4120     1.6800    -0.7110 C.3   1 <1>  -0.0800 
 12 N        0.6470    -3.3460     0.9680 N.ar  1 <1>  -0.6200 
 13 C        1.6990    -4.7160    -0.6780 C.ar  1 <1>  -0.1500 
 14 O        3.4740     2.1220     1.6700 O.3   1 <1>  -0.5600 
 15 N        5.6730     0.5400    -1.1590 N.4   1 <1>  -0.9590 
 16 C        3.7000     2.6920     0.4210 C.3   1 <1>   0.1200 
 17 C        4.6260     1.4950    -1.6470 C.3   1 <1>   0.3430 
 18 C        0.6560    -4.4060     0.1790 C.ar  1 <1>   0.1670 
 19 C        6.8760     0.5130    -2.0400 C.3   1 <1>   0.2630 
 20 C       -0.5640    -5.3000     0.2570 C.3   1 <1>  -0.0970 
 21 H        5.3760    -0.6080     1.8440 H     1 <1>   0.0800 
 22 H        2.3730    -0.1720    -1.0620 H     1 <1>   0.0800 
 23 H        1.9780     0.5630     0.4590 H     1 <1>   0.0800 
 24 H        1.7130    -1.7150     1.5580 H     1 <1>   0.1500 
 25 H        3.6250    -4.1110    -1.3920 H     1 <1>   0.1500 
 26 H        5.2630     1.8370     2.5480 H     1 <1>   0.0800 
 27 H        3.9820     0.7830     3.0560 H     1 <1>   0.0800 
 28 H        6.9160     0.0790     0.4840 H     1 <1>   0.0800 
 29 H        6.2710     1.6900     0.5290 H     1 <1>   0.0800 
 30 H        2.6610     2.1540    -1.3170 H     1 <1>   0.0800 
 31 H        1.6530    -5.5970    -1.2930 H     1 <1>   0.1500 
 32 H        5.2500    -0.4150    -1.1810 H     1 <1>   0.4500 
 33 H        3.0150     3.5200     0.3400 H     1 <1>   0.0800 
 34 H        4.6990     3.0910     0.3920 H     1 <1>   0.0800 
 35 H        5.0750     2.4590    -1.8190 H     1 <1>   0.0800 
 36 H        4.2630     1.1380    -2.5980 H     1 <1>   0.0800 
 37 H        7.3860     1.4620    -2.0100 H     1 <1>   0.0800 
 38 H        6.5880     0.3040    -3.0580 H     1 <1>   0.0800 
 39 H        7.5560    -0.2590    -1.7150 H     1 <1>   0.0800 
 40 H       -0.4790    -6.1350    -0.4130 H     1 <1>   0.0800 
 41 H       -1.4400    -4.7330    -0.0020 H     1 <1>   0.0800 
 42 H       -0.6750    -5.6670     1.2600 H     1 <1>   0.0800 
@<TRIPOS>BOND
  1   1   2  2   
  2   2   3  am  
  3   2   4  1   
  4   3   5  1   
  5   3   6  1   
  6   4   7  ar  
  7   4   8  ar  
  8   5   9  1   
  9   5  10  1   
 10   5  21  1   
 11   6  11  1   
 12   6  22  1   
 13   6  23  1   
 14   7  12  ar  
 15   7  24  1   
 16   8  13  ar  
 17   8  25  1   
 18   9  14  1   
 19   9  26  1   
 20   9  27  1   
 21  10  15  1   
 22  10  28  1   
 23  10  29  1   
 24  11  16  1   
 25  11  17  1   
 26  11  30  1   
 27  12  18  ar  
 28  13  18  ar  
 29  13  31  1   
 30  14  16  1   
 31  15  17  1   
 32  15  19  1   
 33  15  32  1   
 34  16  33  1   
 35  16  34  1   
 36  17  35  1   
 37  17  36  1   
 38  18  20  1   
 39  19  37  1   
 40  19  38  1   
 41  19  39  1   
 42  20  40  1   
 43  20  41  1   
 44  20  42  1   
@<TRIPOS>SUBSTRUCTURE
  1 ****   3 GROUP 4 **** **** 0

# MOE 2024.06 (io_trps.svl 2023.06)
