@<TRIPOS>MOLECULE
NONAME
48 50 1 0 0 
SMALL
USER_CHARGES


@<TRIPOS>ATOM
  1 O        2.1060    -0.5540     1.8400 O.3   1 <1>  -0.6800 
  2 C        1.9450    -1.4590     0.8140 C.3   1 <1>   0.2000 
  3 C        2.8460    -2.6630     1.0470 C.3   1 <1>  -0.1600 
  4 C        2.4430    -0.8450    -0.4840 C.3   1 <1>  -0.1600 
  5 C        3.1960    -3.1840    -0.3560 C.3   1 <1>  -0.0800 
  6 C        2.9030    -2.0350    -1.3380 C.3   1 <1>  -0.0800 
  7 C        4.6850    -3.5220    -0.5190 C.3   1 <1>  -0.1600 
  8 C        4.2140    -1.7590    -2.0830 C.3   1 <1>  -0.1600 
  9 C        5.2820    -2.2530    -1.1200 C.3   1 <1>   0.4230 
 10 N        6.6100    -2.4370    -1.7660 N.4   1 <1>  -0.9590 
 11 C        7.6740    -2.5760    -0.7360 C.3   1 <1>   0.5240 
 12 C        6.7130    -3.4570    -2.8500 C.3   1 <1>   0.2630 
 13 C        7.7920    -1.2210    -0.0550 C.2   1 <1>   0.0460 
 14 N        7.8070    -0.1080    -0.8190 N.2   1 <1>  -0.5650 
 15 C        7.8380    -0.9090     1.2600 C.2   1 <1>  -0.3320 
 16 C        7.8680     0.8570     0.0390 C.2   1 <1>   0.0060 
 17 N        7.8940     0.4350     1.3210 N.pl3 1 <1>   0.0330 
 18 C        7.8260    -1.7800     2.5060 C.3   1 <1>  -0.0600 
 19 C        7.9030     2.3280    -0.3370 C.3   1 <1>   0.0200 
 20 C        6.5850     3.0240     0.0190 C.3   1 <1>  -0.2400 
 21 H        1.7190    -0.9050     2.6650 H     1 <1>   0.4000 
 22 H        0.9080    -1.7430     0.7370 H     1 <1>   0.0800 
 23 H        3.7360    -2.3420     1.5620 H     1 <1>   0.0800 
 24 H        2.3450    -3.4160     1.6290 H     1 <1>   0.0800 
 25 H        1.6630    -0.2870    -0.9720 H     1 <1>   0.0800 
 26 H        3.2690    -0.1880    -0.2700 H     1 <1>   0.0800 
 27 H        2.5810    -4.0390    -0.5880 H     1 <1>   0.0800 
 28 H        2.1180    -2.3140    -2.0220 H     1 <1>   0.0800 
 29 H        4.7670    -4.3450    -1.2040 H     1 <1>   0.0800 
 30 H        5.1440    -3.7850     0.4160 H     1 <1>   0.0800 
 31 H        4.3350    -0.7150    -2.3170 H     1 <1>   0.0800 
 32 H        4.2150    -2.3340    -2.9910 H     1 <1>   0.0800 
 33 H        5.3650    -1.5170    -0.3330 H     1 <1>   0.0800 
 34 H        6.8380    -1.4970    -2.1420 H     1 <1>   0.4500 
 35 H        7.4300    -3.3430    -0.0220 H     1 <1>   0.0800 
 36 H        8.6160    -2.8070    -1.2040 H     1 <1>   0.0800 
 37 H        6.5290    -4.4430    -2.4590 H     1 <1>   0.0800 
 38 H        7.6980    -3.4360    -3.2880 H     1 <1>   0.0800 
 39 H        5.9930    -3.2530    -3.6260 H     1 <1>   0.0800 
 40 H        7.9370     1.0270     2.1570 H     1 <1>   0.2700 
 41 H        7.7840    -2.8220     2.2480 H     1 <1>   0.0800 
 42 H        6.9710    -1.5430     3.1150 H     1 <1>   0.0800 
 43 H        8.7180    -1.6100     3.0840 H     1 <1>   0.0800 
 44 H        8.7220     2.8090     0.1690 H     1 <1>   0.0800 
 45 H        8.0750     2.4150    -1.3960 H     1 <1>   0.0800 
 46 H        6.4080     2.9840     1.0790 H     1 <1>   0.0800 
 47 H        5.7670     2.5430    -0.4870 H     1 <1>   0.0800 
 48 H        6.6190     4.0550    -0.2860 H     1 <1>   0.0800 
@<TRIPOS>BOND
  1   1   2  1   
  2   1  21  1   
  3   2   3  1   
  4   2   4  1   
  5   2  22  1   
  6   3   5  1   
  7   3  23  1   
  8   3  24  1   
  9   4   6  1   
 10   4  25  1   
 11   4  26  1   
 12   5   6  1   
 13   5   7  1   
 14   5  27  1   
 15   6   8  1   
 16   6  28  1   
 17   7   9  1   
 18   7  29  1   
 19   7  30  1   
 20   8   9  1   
 21   8  31  1   
 22   8  32  1   
 23   9  10  1   
 24   9  33  1   
 25  10  11  1   
 26  10  12  1   
 27  10  34  1   
 28  11  13  1   
 29  11  35  1   
 30  11  36  1   
 31  12  37  1   
 32  12  38  1   
 33  12  39  1   
 34  13  14  1   
 35  13  15  2   
 36  14  16  2   
 37  15  17  1   
 38  15  18  1   
 39  16  17  1   
 40  16  19  1   
 41  17  40  1   
 42  18  41  1   
 43  18  42  1   
 44  18  43  1   
 45  19  20  1   
 46  19  44  1   
 47  19  45  1   
 48  20  46  1   
 49  20  47  1   
 50  20  48  1   
@<TRIPOS>SUBSTRUCTURE
  1 ****   9 GROUP 4 **** **** 0

# MOE 2024.06 (io_trps.svl 2023.06)
