@<TRIPOS>MOLECULE
NONAME
53 55 1 0 0 
SMALL
USER_CHARGES


@<TRIPOS>ATOM
  1 S        1.2710     1.6850    -0.1590 S.o2  1 <1>   1.3330 
  2 O        2.4340     2.4180     0.2970 O.2   1 <1>  -0.6500 
  3 O        0.4660     2.2740    -1.2020 O.2   1 <1>  -0.6500 
  4 N        1.7250     0.1160    -0.6010 N.am  1 <1>  -0.8490 
  5 C        0.2220     1.4540     1.2820 C.3   1 <1>  -0.0550 
  6 C        3.0250     0.0780    -1.2810 C.3   1 <1>   0.1160 
  7 C        0.7220    -0.5750    -1.4200 C.3   1 <1>   0.1160 
  8 C       -0.3020     2.7460     1.9660 C.3   1 <1>  -0.0800 
  9 C       -1.1460     3.6340     1.0430 C.3   1 <1>   0.2000 
 10 C        0.8110     3.6850     2.4410 C.3   1 <1>   0.3430 
 11 O       -2.1310     4.2380     1.8140 O.3   1 <1>  -0.6800 
 12 C       -0.1930     4.7080     0.4950 C.3   1 <1>   0.3430 
 13 N        1.0650     4.6080     1.3070 N.4   1 <1>  -0.9590 
 14 C        1.6450     5.9230     1.6890 C.3   1 <1>   0.4860 
 15 C        1.8700     6.7460     0.4370 C.ar  1 <1>  -0.1440 
 16 C        0.9990     7.7750     0.1670 C.ar  1 <1>   0.0820 
 17 C        2.9480     6.4440    -0.4310 C.ar  1 <1>   0.0000 
 18 O       -0.0170     7.9980     1.0410 O.3   1 <1>  -0.3620 
 19 C        1.1690     8.5470    -0.9950 C.ar  1 <1>  -0.1500 
 20 C        3.0970     7.2180    -1.6040 C.ar  1 <1>   0.0000 
 21 C        3.8890     5.4100    -0.2040 C.ar  1 <1>  -0.1500 
 22 C       -0.8520     9.1350     0.9360 C.3   1 <1>   0.0400 
 23 C        2.1930     8.2680    -1.8540 C.ar  1 <1>  -0.1500 
 24 C        4.1460     6.9240    -2.4980 C.ar  1 <1>  -0.1500 
 25 C        4.8970     5.1470    -1.0880 C.ar  1 <1>  -0.1500 
 26 C        5.0280     5.9110    -2.2510 C.ar  1 <1>  -0.1500 
 27 H       -0.6250     0.8590     0.9960 H     1 <1>   0.0800 
 28 H        0.7700     0.8840     2.0070 H     1 <1>   0.0800 
 29 H        3.2920    -0.9380    -1.5200 H     1 <1>   0.0800 
 30 H        3.7910     0.4820    -0.6400 H     1 <1>   0.0800 
 31 H        2.9920     0.6570    -2.1890 H     1 <1>   0.0800 
 32 H        1.0290    -1.5910    -1.6030 H     1 <1>   0.0800 
 33 H        0.5960    -0.0730    -2.3670 H     1 <1>   0.0800 
 34 H       -0.2270    -0.5960    -0.9120 H     1 <1>   0.0800 
 35 H       -0.8870     2.4300     2.8140 H     1 <1>   0.0800 
 36 H       -1.6400     3.0870     0.2560 H     1 <1>   0.0800 
 37 H        1.7030     3.1430     2.7160 H     1 <1>   0.0800 
 38 H        0.4590     4.2460     3.2920 H     1 <1>   0.0800 
 39 H       -1.7790     4.9030     2.4370 H     1 <1>   0.4000 
 40 H       -0.6450     5.6830     0.5770 H     1 <1>   0.0800 
 41 H        0.0300     4.5140    -0.5420 H     1 <1>   0.0800 
 42 H        1.7710     4.1510     0.6930 H     1 <1>   0.4500 
 43 H        0.9750     6.4420     2.3530 H     1 <1>   0.0800 
 44 H        2.5840     5.7840     2.2000 H     1 <1>   0.0800 
 45 H        0.5010     9.3560    -1.2250 H     1 <1>   0.1500 
 46 H        3.8300     4.8050     0.6800 H     1 <1>   0.1500 
 47 H       -1.5240     9.1400     1.7760 H     1 <1>   0.0800 
 48 H       -1.4150     9.0770     0.0210 H     1 <1>   0.0800 
 49 H       -0.2420    10.0220     0.9550 H     1 <1>   0.0800 
 50 H        2.3250     8.8530    -2.7470 H     1 <1>   0.1500 
 51 H        4.2430     7.5170    -3.3900 H     1 <1>   0.1500 
 52 H        5.6030     4.3550    -0.9060 H     1 <1>   0.1500 
 53 H        5.8270     5.6910    -2.9380 H     1 <1>   0.1500 
@<TRIPOS>BOND
  1   1   2  2   
  2   1   3  2   
  3   1   4  am  
  4   1   5  1   
  5   4   6  1   
  6   4   7  1   
  7   5   8  1   
  8   5  27  1   
  9   5  28  1   
 10   6  29  1   
 11   6  30  1   
 12   6  31  1   
 13   7  32  1   
 14   7  33  1   
 15   7  34  1   
 16   8   9  1   
 17   8  10  1   
 18   8  35  1   
 19   9  11  1   
 20   9  12  1   
 21   9  36  1   
 22  10  13  1   
 23  10  37  1   
 24  10  38  1   
 25  11  39  1   
 26  12  13  1   
 27  12  40  1   
 28  12  41  1   
 29  13  14  1   
 30  13  42  1   
 31  14  15  1   
 32  14  43  1   
 33  14  44  1   
 34  15  16  ar  
 35  15  17  ar  
 36  16  18  1   
 37  16  19  ar  
 38  17  20  ar  
 39  17  21  ar  
 40  18  22  1   
 41  19  23  ar  
 42  19  45  1   
 43  20  23  ar  
 44  20  24  ar  
 45  21  25  ar  
 46  21  46  1   
 47  22  47  1   
 48  22  48  1   
 49  22  49  1   
 50  23  50  1   
 51  24  26  ar  
 52  24  51  1   
 53  25  26  ar  
 54  25  52  1   
 55  26  53  1   
@<TRIPOS>SUBSTRUCTURE
  1 ****  13 GROUP 4 **** **** 0

# MOE 2024.06 (io_trps.svl 2023.06)
