@<TRIPOS>MOLECULE
NONAME
36 38 1 0 0 
SMALL
USER_CHARGES


@<TRIPOS>ATOM
  1 S        1.5590     0.3580    -2.9920 S.3   1 <1>  -0.0800 
  2 C        0.9580    -0.3910    -1.5330 C.2   1 <1>   0.1980 
  3 C        2.0100     1.7530    -2.0600 C.2   1 <1>  -0.1100 
  4 N        1.0850     0.3350    -0.4930 N.2   1 <1>  -0.5650 
  5 C        0.3590    -1.7890    -1.7000 C.3   1 <1>   0.5230 
  6 C        1.6870     1.5660    -0.7630 C.2   1 <1>   0.1730 
  7 N        0.0290    -2.4770    -0.4180 N.4   1 <1>  -0.9590 
  8 C        1.9060     2.5000     0.3260 C.ar  1 <1>   0.0540 
  9 C       -0.5260    -3.8390    -0.5190 C.3   1 <1>   0.3430 
 10 C       -0.7830    -1.7450     0.5810 C.3   1 <1>   0.3430 
 11 C        2.1320     2.0570     1.6280 C.ar  1 <1>  -0.1500 
 12 C        1.9000     3.8770     0.1070 C.ar  1 <1>  -0.1500 
 13 C       -0.8110    -4.1630     0.9260 C.3   1 <1>  -0.1860 
 14 C       -1.3180    -2.8330     1.5110 C.3   1 <1>  -0.1600 
 15 C        2.3430     2.9460     2.6660 C.ar  1 <1>  -0.1500 
 16 C        2.1110     4.7720     1.1400 C.ar  1 <1>  -0.1500 
 17 C        0.5150    -4.6040     1.5070 C.2   1 <1>   0.9060 
 18 C        2.3330     4.3070     2.4240 C.ar  1 <1>  -0.1500 
 19 O        1.4960    -3.8650     1.3310 O.co2 1 <1>  -0.9000 
 20 O        0.5790    -5.6970     2.0560 O.co2 1 <1>  -0.9000 
 21 H        2.4770     2.5740    -2.5710 H     1 <1>   0.1500 
 22 H        1.0630    -2.3930    -2.2460 H     1 <1>   0.0800 
 23 H       -0.5350    -1.7030    -2.2940 H     1 <1>   0.0800 
 24 H        0.9260    -2.6600     0.1060 H     1 <1>   0.4500 
 25 H        0.1870    -4.5330    -0.9380 H     1 <1>   0.0800 
 26 H       -1.4370    -3.8390    -1.0930 H     1 <1>   0.0800 
 27 H       -1.5960    -1.2250     0.1040 H     1 <1>   0.0800 
 28 H       -0.1710    -1.0410     1.1240 H     1 <1>   0.0800 
 29 H        2.1470     1.0000     1.8290 H     1 <1>   0.1500 
 30 H        1.7220     4.2570    -0.8830 H     1 <1>   0.1500 
 31 H       -1.5210    -4.9620     1.0300 H     1 <1>   0.0800 
 32 H       -2.3930    -2.8020     1.5190 H     1 <1>   0.0800 
 33 H       -0.9600    -2.6890     2.5160 H     1 <1>   0.0800 
 34 H        2.5170     2.5770     3.6630 H     1 <1>   0.1500 
 35 H        2.1010     5.8320     0.9490 H     1 <1>   0.1500 
 36 H        2.4970     5.0010     3.2300 H     1 <1>   0.1500 
@<TRIPOS>BOND
  1   1   2  1   
  2   1   3  1   
  3   2   4  2   
  4   2   5  1   
  5   3   6  2   
  6   3  21  1   
  7   4   6  1   
  8   5   7  1   
  9   5  22  1   
 10   5  23  1   
 11   6   8  1   
 12   7   9  1   
 13   7  10  1   
 14   7  24  1   
 15   8  11  ar  
 16   8  12  ar  
 17   9  13  1   
 18   9  25  1   
 19   9  26  1   
 20  10  14  1   
 21  10  27  1   
 22  10  28  1   
 23  11  15  ar  
 24  11  29  1   
 25  12  16  ar  
 26  12  30  1   
 27  13  14  1   
 28  13  17  1   
 29  13  31  1   
 30  14  32  1   
 31  14  33  1   
 32  15  18  ar  
 33  15  34  1   
 34  16  18  ar  
 35  16  35  1   
 36  17  19  ar  
 37  17  20  ar  
 38  18  36  1   
@<TRIPOS>SUBSTRUCTURE
  1 ****   4 GROUP 4 **** **** 0

# MOE 2024.06 (io_trps.svl 2023.06)
