@<TRIPOS>MOLECULE
NONAME
52 54 1 0 0 
SMALL
USER_CHARGES


@<TRIPOS>ATOM
  1 O       -2.7560     0.0370    -2.6070 O.2   1 <1>  -0.5700 
  2 C       -2.6050    -0.5330    -1.5560 C.2   1 <1>   0.5690 
  3 N       -2.2530     0.1260    -0.4130 N.am  1 <1>  -0.6600 
  4 C       -2.8580    -2.0190    -1.5320 C.3   1 <1>  -0.0190 
  5 C       -2.1110    -0.5570     0.9040 C.3   1 <1>   0.2200 
  6 C       -1.9320     1.5880    -0.4270 C.3   1 <1>   0.0600 
  7 C       -1.6040    -2.8180    -1.1170 C.3   1 <1>   0.1200 
  8 C       -4.1460    -2.2890    -0.7480 C.3   1 <1>   0.3430 
  9 C       -0.9860    -1.6200     0.8570 C.3   1 <1>   0.1200 
 10 C       -3.4810    -1.0990     1.4000 C.3   1 <1>   0.3430 
 11 O       -1.3920    -2.8290     0.2690 O.3   1 <1>  -0.5600 
 12 N       -3.9480    -2.3650     0.7380 N.4   1 <1>  -0.9590 
 13 C       -5.1190    -2.9760     1.4200 C.3   1 <1>   0.4860 
 14 C       -5.2270    -4.4240     0.9810 C.ar  1 <1>  -0.1430 
 15 C       -6.1390    -4.7810    -0.0060 C.ar  1 <1>   0.0820 
 16 C       -4.4080    -5.3790     1.5580 C.ar  1 <1>  -0.1500 
 17 O       -6.8910    -3.7460    -0.4910 O.3   1 <1>  -0.3620 
 18 C       -6.2090    -6.1160    -0.4380 C.ar  1 <1>   0.0820 
 19 C       -4.4750    -6.6940     1.1400 C.ar  1 <1>  -0.1500 
 20 C       -8.1760    -3.9380    -1.0480 C.3   1 <1>   0.0400 
 21 O       -7.0660    -6.4560    -1.4470 O.3   1 <1>  -0.3630 
 22 C       -5.3590    -7.0740     0.1350 C.ar  1 <1>   0.0820 
 23 C       -7.9890    -7.5040    -1.2310 C.3   1 <1>   0.0400 
 24 O       -5.4000    -8.3590    -0.3230 O.3   1 <1>  -0.3630 
 25 C       -4.5060    -9.3550     0.1260 C.3   1 <1>   0.0400 
 26 H       -3.0640    -2.2940    -2.5510 H     1 <1>   0.0800 
 27 H       -1.7980     0.1890     1.6140 H     1 <1>   0.0800 
 28 H       -2.6000     2.1200     0.2270 H     1 <1>   0.0800 
 29 H       -2.0340     1.9970    -1.4180 H     1 <1>   0.0800 
 30 H       -0.9170     1.7440    -0.1030 H     1 <1>   0.0800 
 31 H       -0.7230    -2.4300    -1.6010 H     1 <1>   0.0800 
 32 H       -1.7220    -3.8450    -1.4190 H     1 <1>   0.0800 
 33 H       -4.5370    -3.2320    -1.0950 H     1 <1>   0.0800 
 34 H       -4.8780    -1.5340    -0.9850 H     1 <1>   0.0800 
 35 H       -0.6820    -1.8560     1.8610 H     1 <1>   0.0800 
 36 H       -0.1240    -1.2440     0.3310 H     1 <1>   0.0800 
 37 H       -4.2210    -0.3260     1.2720 H     1 <1>   0.0800 
 38 H       -3.3870    -1.2870     2.4560 H     1 <1>   0.0800 
 39 H       -3.1550    -3.0300     0.8360 H     1 <1>   0.4500 
 40 H       -4.9860    -2.9440     2.4880 H     1 <1>   0.0800 
 41 H       -6.0190    -2.4380     1.1720 H     1 <1>   0.0800 
 42 H       -3.7070    -5.1160     2.3330 H     1 <1>   0.1500 
 43 H       -3.8230    -7.4070     1.6090 H     1 <1>   0.1500 
 44 H       -8.6840    -2.9910    -1.0650 H     1 <1>   0.0800 
 45 H       -8.7240    -4.6370    -0.4400 H     1 <1>   0.0800 
 46 H       -8.0700    -4.3070    -2.0530 H     1 <1>   0.0800 
 47 H       -8.8500    -7.3260    -1.8490 H     1 <1>   0.0800 
 48 H       -8.2750    -7.5210    -0.1940 H     1 <1>   0.0800 
 49 H       -7.5330    -8.4360    -1.5130 H     1 <1>   0.0800 
 50 H       -4.7170   -10.2590    -0.4160 H     1 <1>   0.0800 
 51 H       -4.6600    -9.5170     1.1780 H     1 <1>   0.0800 
 52 H       -3.4980    -9.0380    -0.0760 H     1 <1>   0.0800 
@<TRIPOS>BOND
  1   1   2  2   
  2   2   3  am  
  3   2   4  1   
  4   3   5  1   
  5   3   6  1   
  6   4   7  1   
  7   4   8  1   
  8   4  26  1   
  9   5   9  1   
 10   5  10  1   
 11   5  27  1   
 12   6  28  1   
 13   6  29  1   
 14   6  30  1   
 15   7  11  1   
 16   7  31  1   
 17   7  32  1   
 18   8  12  1   
 19   8  33  1   
 20   8  34  1   
 21   9  11  1   
 22   9  35  1   
 23   9  36  1   
 24  10  12  1   
 25  10  37  1   
 26  10  38  1   
 27  12  13  1   
 28  12  39  1   
 29  13  14  1   
 30  13  40  1   
 31  13  41  1   
 32  14  15  ar  
 33  14  16  ar  
 34  15  17  1   
 35  15  18  ar  
 36  16  19  ar  
 37  16  42  1   
 38  17  20  1   
 39  18  21  1   
 40  18  22  ar  
 41  19  22  ar  
 42  19  43  1   
 43  20  44  1   
 44  20  45  1   
 45  20  46  1   
 46  21  23  1   
 47  22  24  1   
 48  23  47  1   
 49  23  48  1   
 50  23  49  1   
 51  24  25  1   
 52  25  50  1   
 53  25  51  1   
 54  25  52  1   
@<TRIPOS>SUBSTRUCTURE
  1 ****   8 GROUP 4 **** **** 0

# MOE 2024.06 (io_trps.svl 2023.06)
