@<TRIPOS>MOLECULE
NONAME
48 49 1 0 0 
SMALL
USER_CHARGES


@<TRIPOS>ATOM
  1 O        0.4890     0.3590     0.2010 O.2   1 <1>  -0.5700 
  2 C        1.3510    -0.2960     0.7540 C.2   1 <1>   0.5440 
  3 N        2.2190     0.3550     1.5780 N.am  1 <1>  -0.7300 
  4 C        1.4700    -1.7230     0.5270 C.ar  1 <1>   0.0860 
  5 C        2.2670     1.8080     1.7930 C.3   1 <1>   0.4000 
  6 C        0.3520    -2.4980     0.2270 C.ar  1 <1>  -0.1500 
  7 C        2.6990    -2.3820     0.5870 C.ar  1 <1>  -0.1500 
  8 C        3.5510     2.3440     1.1640 C.2   1 <1>   0.0060 
  9 C        2.1920     2.0560     3.2990 C.3   1 <1>  -0.2400 
 10 C        0.4270    -3.8610     0.0060 C.ar  1 <1>   0.0830 
 11 C        2.8000    -3.7440     0.3770 C.ar  1 <1>  -0.1500 
 12 N        4.6390     2.6270     1.7970 N.2   1 <1>  -0.5650 
 13 N        3.6860     2.5730    -0.1530 N.pl3 1 <1>   0.3140 
 14 O       -0.7700    -4.4500    -0.2790 O.3   1 <1>  -0.3630 
 15 C        1.6720    -4.5100     0.0910 C.ar  1 <1>   0.0830 
 16 C        5.4300     3.0450     0.8030 C.2   1 <1>   0.3660 
 17 N        4.9110     3.0330    -0.3770 N.2   1 <1>  -0.7070 
 18 C        2.7220     2.3830    -1.2640 C.3   1 <1>   0.0960 
 19 C       -0.8680    -5.6670    -0.9800 C.3   1 <1>   0.1200 
 20 O        1.7600    -5.8550    -0.0910 O.3   1 <1>  -0.3630 
 21 C        3.0660     1.1390    -2.0950 C.3   1 <1>  -0.2400 
 22 C       -2.3070    -5.8190    -1.4630 C.3   1 <1>  -0.2400 
 23 C        2.9620    -6.5760     0.0510 C.3   1 <1>   0.1200 
 24 C        2.6550    -8.0510    -0.1900 C.3   1 <1>  -0.2400 
 25 H        2.9630    -0.1520     2.0560 H     1 <1>   0.3700 
 26 H        1.4180     2.2830     1.3320 H     1 <1>   0.0800 
 27 H       -0.6090    -2.0190     0.1620 H     1 <1>   0.1500 
 28 H        3.5930    -1.8200     0.7950 H     1 <1>   0.1500 
 29 H        3.0160     1.5840     3.8020 H     1 <1>   0.0800 
 30 H        1.2650     1.6780     3.6890 H     1 <1>   0.0800 
 31 H        2.2400     3.1130     3.4900 H     1 <1>   0.0800 
 32 H        3.7740    -4.1910     0.4400 H     1 <1>   0.1500 
 33 H        6.4400     3.3680     1.0020 H     1 <1>   0.1500 
 34 H        2.7630     3.2560    -1.8890 H     1 <1>   0.0800 
 35 H        1.7280     2.3000    -0.8690 H     1 <1>   0.0800 
 36 H       -0.6070    -6.4670    -0.3100 H     1 <1>   0.0800 
 37 H       -0.1860    -5.6410    -1.8130 H     1 <1>   0.0800 
 38 H        4.0400     1.2490    -2.5380 H     1 <1>   0.0800 
 39 H        2.3430     1.0170    -2.8810 H     1 <1>   0.0800 
 40 H        3.0520     0.2580    -1.4800 H     1 <1>   0.0800 
 41 H       -2.9780    -5.8270    -0.6230 H     1 <1>   0.0800 
 42 H       -2.4150    -6.7440    -2.0000 H     1 <1>   0.0800 
 43 H       -2.5630    -5.0070    -2.1200 H     1 <1>   0.0800 
 44 H        3.3360    -6.4240     1.0490 H     1 <1>   0.0800 
 45 H        3.6680    -6.2120    -0.6750 H     1 <1>   0.0800 
 46 H        1.9360    -8.4000     0.5290 H     1 <1>   0.0800 
 47 H        3.5530    -8.6320    -0.0870 H     1 <1>   0.0800 
 48 H        2.2680    -8.1900    -1.1830 H     1 <1>   0.0800 
@<TRIPOS>BOND
  1   1   2  2   
  2   2   3  am  
  3   2   4  1   
  4   3   5  1   
  5   3  25  1   
  6   4   6  ar  
  7   4   7  ar  
  8   5   8  1   
  9   5   9  1   
 10   5  26  1   
 11   6  10  ar  
 12   6  27  1   
 13   7  11  ar  
 14   7  28  1   
 15   8  12  2   
 16   8  13  1   
 17   9  29  1   
 18   9  30  1   
 19   9  31  1   
 20  10  14  1   
 21  10  15  ar  
 22  11  15  ar  
 23  11  32  1   
 24  12  16  1   
 25  13  17  1   
 26  13  18  1   
 27  14  19  1   
 28  15  20  1   
 29  16  17  2   
 30  16  33  1   
 31  18  21  1   
 32  18  34  1   
 33  18  35  1   
 34  19  22  1   
 35  19  36  1   
 36  19  37  1   
 37  20  23  1   
 38  21  38  1   
 39  21  39  1   
 40  21  40  1   
 41  22  41  1   
 42  22  42  1   
 43  22  43  1   
 44  23  24  1   
 45  23  44  1   
 46  23  45  1   
 47  24  46  1   
 48  24  47  1   
 49  24  48  1   
@<TRIPOS>SUBSTRUCTURE
  1 ****   4 GROUP 4 **** **** 0

# MOE 2024.06 (io_trps.svl 2023.06)
