@<TRIPOS>MOLECULE
NONAME
50 52 1 0 0 
SMALL
USER_CHARGES


@<TRIPOS>ATOM
  1 O       -1.1130     0.0730    -0.3930 O.3   1 <1>  -0.3630 
  2 C       -0.8630     1.3280     0.0670 C.ar  1 <1>   0.0830 
  3 C       -1.9020    -0.8400     0.3290 C.3   1 <1>   0.1200 
  4 C       -0.0020     2.1270    -0.6800 C.ar  1 <1>  -0.1440 
  5 C       -1.4270     1.8310     1.2380 C.ar  1 <1>  -0.1500 
  6 C       -1.9210    -2.1710    -0.4360 C.3   1 <1>  -0.0800 
  7 C        0.2870     3.4120    -0.2500 C.ar  1 <1>  -0.1500 
  8 C        0.6270     1.6040    -1.9640 C.3   1 <1>  -0.0960 
  9 C       -1.1320     3.1150     1.6570 C.ar  1 <1>  -0.1500 
 10 C       -2.8710    -3.1660     0.2590 C.3   1 <1>   0.3430 
 11 C       -0.5050    -2.7560    -0.6130 C.3   1 <1>  -0.1600 
 12 C       -0.2750     3.9060     0.9140 C.ar  1 <1>  -0.1500 
 13 N       -2.4170    -4.5970     0.1340 N.4   1 <1>  -0.9590 
 14 C       -0.5500    -4.0830    -1.3930 C.3   1 <1>  -0.1600 
 15 C       -1.8630    -4.8570    -1.2290 C.3   1 <1>   0.3430 
 16 C       -3.5270    -5.5300     0.5230 C.3   1 <1>   0.3430 
 17 C       -3.0680    -6.9860     0.6800 C.3   1 <1>   0.0960 
 18 N       -4.2120    -7.7760     1.1560 N.pl3 1 <1>   0.0480 
 19 C       -5.1890    -8.3700     0.4610 C.2   1 <1>   0.0060 
 20 C       -4.5700    -8.0030     2.4220 C.2   1 <1>   0.0360 
 21 N       -6.0640    -8.8960     1.2430 N.2   1 <1>  -0.3380 
 22 C       -5.2810    -8.4350    -1.0520 C.3   1 <1>  -0.0600 
 23 N       -5.6700    -8.6620     2.4940 N.2   1 <1>  -0.3380 
 24 H       -2.8920    -0.4250     0.4110 H     1 <1>   0.0800 
 25 H       -1.4650    -0.9590     1.3060 H     1 <1>   0.0800 
 26 H       -2.0970     1.2470     1.8380 H     1 <1>   0.1500 
 27 H       -2.3280    -1.9640    -1.4120 H     1 <1>   0.0800 
 28 H        0.9510     4.0390    -0.8190 H     1 <1>   0.1500 
 29 H        1.2250     0.7370    -1.7490 H     1 <1>   0.0800 
 30 H        1.2540     2.3480    -2.4210 H     1 <1>   0.0800 
 31 H       -0.1440     1.3300    -2.6610 H     1 <1>   0.0800 
 32 H       -1.5680     3.5020     2.5620 H     1 <1>   0.1500 
 33 H       -3.8550    -3.0520    -0.1670 H     1 <1>   0.0800 
 34 H       -2.9380    -2.9140     1.3060 H     1 <1>   0.0800 
 35 H       -0.0640    -2.9190     0.3560 H     1 <1>   0.0800 
 36 H        0.1300    -2.0580    -1.1360 H     1 <1>   0.0800 
 37 H       -0.0450     4.9060     1.2400 H     1 <1>   0.1500 
 38 H       -1.6280    -4.7040     0.7880 H     1 <1>   0.4500 
 39 H        0.2770    -4.7010    -1.0920 H     1 <1>   0.0800 
 40 H       -0.4180    -3.8800    -2.4430 H     1 <1>   0.0800 
 41 H       -2.5710    -4.5250    -1.9730 H     1 <1>   0.0800 
 42 H       -1.6780    -5.9080    -1.3810 H     1 <1>   0.0800 
 43 H       -4.3100    -5.4860    -0.2180 H     1 <1>   0.0800 
 44 H       -3.9430    -5.2070     1.4640 H     1 <1>   0.0800 
 45 H       -2.2770    -7.0590     1.4050 H     1 <1>   0.0800 
 46 H       -2.7350    -7.3940    -0.2570 H     1 <1>   0.0800 
 47 H       -4.0080    -7.6720     3.2760 H     1 <1>   0.1500 
 48 H       -4.4230    -8.9400    -1.4570 H     1 <1>   0.0800 
 49 H       -5.3560    -7.4500    -1.4710 H     1 <1>   0.0800 
 50 H       -6.1590    -8.9900    -1.3340 H     1 <1>   0.0800 
@<TRIPOS>BOND
  1   1   2  1   
  2   1   3  1   
  3   2   4  ar  
  4   2   5  ar  
  5   3   6  1   
  6   3  24  1   
  7   3  25  1   
  8   4   7  ar  
  9   4   8  1   
 10   5   9  ar  
 11   5  26  1   
 12   6  10  1   
 13   6  11  1   
 14   6  27  1   
 15   7  12  ar  
 16   7  28  1   
 17   8  29  1   
 18   8  30  1   
 19   8  31  1   
 20   9  12  ar  
 21   9  32  1   
 22  10  13  1   
 23  10  33  1   
 24  10  34  1   
 25  11  14  1   
 26  11  35  1   
 27  11  36  1   
 28  12  37  1   
 29  13  15  1   
 30  13  16  1   
 31  13  38  1   
 32  14  15  1   
 33  14  39  1   
 34  14  40  1   
 35  15  41  1   
 36  15  42  1   
 37  16  17  1   
 38  16  43  1   
 39  16  44  1   
 40  17  18  1   
 41  17  45  1   
 42  17  46  1   
 43  18  19  1   
 44  18  20  1   
 45  19  21  2   
 46  19  22  1   
 47  20  23  2   
 48  20  47  1   
 49  21  23  1   
 50  22  48  1   
 51  22  49  1   
 52  22  50  1   
@<TRIPOS>SUBSTRUCTURE
  1 ****  10 GROUP 4 **** **** 0

# MOE 2024.06 (io_trps.svl 2023.06)
