@<TRIPOS>MOLECULE
NONAME
45 47 1 0 0 
SMALL
USER_CHARGES


@<TRIPOS>ATOM
  1 CL      -0.4560    -0.0370    -1.8180 Cl    1 <1>  -0.1770 
  2 C       -1.9480     0.7310    -1.3230 C.ar  1 <1>   0.1770 
  3 C       -2.0880     2.1070    -1.3730 C.ar  1 <1>   0.1900 
  4 C       -2.9980    -0.0510    -0.8810 C.ar  1 <1>  -0.1500 
  5 F       -1.0970     2.8540    -1.7920 F     1 <1>  -0.1900 
  6 C       -3.2640     2.7240    -0.9900 C.ar  1 <1>  -0.1500 
  7 C       -4.1960     0.5450    -0.4850 C.ar  1 <1>   0.1170 
  8 C       -4.3130     1.9330    -0.5490 C.ar  1 <1>  -0.1500 
  9 N       -5.2970    -0.2000    -0.0440 N.am  1 <1>  -0.5470 
 10 C       -5.3830    -1.4380     0.5250 C.2   1 <1>   0.6900 
 11 O       -4.3850    -2.0710     0.8150 O.2   1 <1>  -0.5700 
 12 N       -6.6230    -1.9540     0.7810 N.am  1 <1>  -0.6600 
 13 C       -7.9120    -1.3580     0.3600 C.3   1 <1>   0.1400 
 14 C       -6.8090    -3.3580     1.2030 C.3   1 <1>   0.1400 
 15 C       -8.9910    -2.3760     0.7630 C.3   1 <1>  -0.0800 
 16 C       -8.2450    -3.7220     0.8180 C.3   1 <1>  -0.0800 
 17 C      -10.2930    -2.3770    -0.0980 C.3   1 <1>   0.2800 
 18 C       -8.3260    -4.4470    -0.5350 C.3   1 <1>  -0.1600 
 19 O      -10.0310    -1.8950    -1.3670 O.3   1 <1>  -0.6800 
 20 C      -10.8120    -3.8160    -0.2770 C.3   1 <1>  -0.1600 
 21 C      -11.4040    -1.4870     0.5000 C.3   1 <1>  -0.1600 
 22 C       -9.7820    -4.7700    -0.9200 C.3   1 <1>  -0.1600 
 23 C      -11.0530     0.0040     0.6500 C.3   1 <1>  -0.2400 
 24 H       -2.8800    -1.1180    -0.8520 H     1 <1>   0.1500 
 25 H       -3.3510     3.7950    -1.0380 H     1 <1>   0.1500 
 26 H       -5.2330     2.4010    -0.2450 H     1 <1>   0.1500 
 27 H       -6.2000     0.2540    -0.1140 H     1 <1>   0.3700 
 28 H       -8.0720    -0.4130     0.8480 H     1 <1>   0.0800 
 29 H       -7.8760    -1.2130    -0.7050 H     1 <1>   0.0800 
 30 H       -6.0900    -4.0030     0.7260 H     1 <1>   0.0800 
 31 H       -6.6810    -3.4160     2.2700 H     1 <1>   0.0800 
 32 H       -9.2670    -2.1540     1.7780 H     1 <1>   0.0800 
 33 H       -8.6650    -4.3620     1.5750 H     1 <1>   0.0800 
 34 H       -7.8970    -3.8120    -1.2930 H     1 <1>   0.0800 
 35 H       -7.7490    -5.3550    -0.5090 H     1 <1>   0.0800 
 36 H      -10.8220    -2.0100    -1.9230 H     1 <1>   0.4000 
 37 H      -11.0610    -4.2000     0.6970 H     1 <1>   0.0800 
 38 H      -11.7200    -3.8230    -0.8530 H     1 <1>   0.0800 
 39 H      -12.2850    -1.5700    -0.1120 H     1 <1>   0.0800 
 40 H      -11.6670    -1.8700     1.4710 H     1 <1>   0.0800 
 41 H      -10.0160    -5.7790    -0.6250 H     1 <1>   0.0800 
 42 H       -9.8670    -4.7200    -1.9920 H     1 <1>   0.0800 
 43 H      -10.7450     0.4210    -0.2930 H     1 <1>   0.0800 
 44 H      -10.2660     0.1430     1.3680 H     1 <1>   0.0800 
 45 H      -11.9160     0.5480     0.9930 H     1 <1>   0.0800 
@<TRIPOS>BOND
  1   1   2  1   
  2   2   3  ar  
  3   2   4  ar  
  4   3   5  1   
  5   3   6  ar  
  6   4   7  ar  
  7   4  24  1   
  8   6   8  ar  
  9   6  25  1   
 10   7   8  ar  
 11   7   9  1   
 12   8  26  1   
 13   9  10  am  
 14   9  27  1   
 15  10  11  2   
 16  10  12  am  
 17  12  13  1   
 18  12  14  1   
 19  13  15  1   
 20  13  28  1   
 21  13  29  1   
 22  14  16  1   
 23  14  30  1   
 24  14  31  1   
 25  15  16  1   
 26  15  17  1   
 27  15  32  1   
 28  16  18  1   
 29  16  33  1   
 30  17  19  1   
 31  17  20  1   
 32  17  21  1   
 33  18  22  1   
 34  18  34  1   
 35  18  35  1   
 36  19  36  1   
 37  20  22  1   
 38  20  37  1   
 39  20  38  1   
 40  21  23  1   
 41  21  39  1   
 42  21  40  1   
 43  22  41  1   
 44  22  42  1   
 45  23  43  1   
 46  23  44  1   
 47  23  45  1   
@<TRIPOS>SUBSTRUCTURE
  1 ****  10 GROUP 4 **** **** 0

# MOE 2024.06 (io_trps.svl 2023.06)
