@<TRIPOS>MOLECULE
NONAME
31 31 1 0 0 
SMALL
USER_CHARGES


@<TRIPOS>ATOM
  1 O        0.3660     0.2510    -0.6500 O.3   1 <1>  -0.6800 
  2 C       -0.0200     1.5360    -0.3150 C.3   1 <1>   0.1200 
  3 C        1.2410     2.3910    -0.1860 C.3   1 <1>  -0.1600 
  4 C        0.9520     3.8220     0.3060 C.3   1 <1>  -0.0800 
  5 C        0.0830     4.6140    -0.6880 C.3   1 <1>  -0.1600 
  6 C        2.2780     4.5580     0.5630 C.3   1 <1>  -0.1600 
  7 C       -0.1420     6.0610    -0.2190 C.3   1 <1>  -0.1600 
  8 C        2.0470     6.0030     1.0330 C.3   1 <1>  -0.1600 
  9 C        1.1670     6.8250     0.0690 C.3   1 <1>   0.0000 
 10 C        1.9210     7.1260    -1.2380 C.3   1 <1>  -0.2400 
 11 C        0.8230     8.1680     0.7320 C.3   1 <1>  -0.2400 
 12 H       -0.4120    -0.3310    -0.7420 H     1 <1>   0.4000 
 13 H       -0.5540     1.4960     0.6190 H     1 <1>   0.0800 
 14 H       -0.6660     1.9050    -1.0930 H     1 <1>   0.0800 
 15 H        1.7370     2.4320    -1.1410 H     1 <1>   0.0800 
 16 H        1.9010     1.9110     0.5150 H     1 <1>   0.0800 
 17 H        0.4240     3.7580     1.2430 H     1 <1>   0.0800 
 18 H       -0.8780     4.1440    -0.7930 H     1 <1>   0.0800 
 19 H        0.5500     4.6150    -1.6570 H     1 <1>   0.0800 
 20 H        2.8720     4.5590    -0.3340 H     1 <1>   0.0800 
 21 H        2.8380     4.0340     1.3180 H     1 <1>   0.0800 
 22 H       -0.7320     6.0310     0.6810 H     1 <1>   0.0800 
 23 H       -0.7160     6.5900    -0.9590 H     1 <1>   0.0800 
 24 H        2.9970     6.4900     1.1640 H     1 <1>   0.0800 
 25 H        1.5700     5.9670     1.9970 H     1 <1>   0.0800 
 26 H        2.1910     6.2260    -1.7580 H     1 <1>   0.0800 
 27 H        2.8240     7.6740    -1.0320 H     1 <1>   0.0800 
 28 H        1.3100     7.7180    -1.8960 H     1 <1>   0.0800 
 29 H        0.2930     8.0120     1.6550 H     1 <1>   0.0800 
 30 H        0.2050     8.7620     0.0830 H     1 <1>   0.0800 
 31 H        1.7200     8.7220     0.9480 H     1 <1>   0.0800 
@<TRIPOS>BOND
  1   1   2  1   
  2   1  12  1   
  3   2   3  1   
  4   2  13  1   
  5   2  14  1   
  6   3   4  1   
  7   3  15  1   
  8   3  16  1   
  9   4   5  1   
 10   4   6  1   
 11   4  17  1   
 12   5   7  1   
 13   5  18  1   
 14   5  19  1   
 15   6   8  1   
 16   6  20  1   
 17   6  21  1   
 18   7   9  1   
 19   7  22  1   
 20   7  23  1   
 21   8   9  1   
 22   8  24  1   
 23   8  25  1   
 24   9  10  1   
 25   9  11  1   
 26  10  26  1   
 27  10  27  1   
 28  10  28  1   
 29  11  29  1   
 30  11  30  1   
 31  11  31  1   
@<TRIPOS>SUBSTRUCTURE
  1 ****   4 GROUP 4 **** **** 0

# MOE 2024.06 (io_trps.svl 2023.06)
