@<TRIPOS>MOLECULE
NONAME
46 48 1 0 0 
SMALL
USER_CHARGES


@<TRIPOS>ATOM
  1 CL      -1.8380     1.0960     1.8090 Cl    1 <1>  -0.1230 
  2 C       -1.9160     0.2730     0.2610 C.2   1 <1>   0.1230 
  3 C       -3.0300    -0.3850    -0.2340 C.2   1 <1>   0.1080 
  4 C       -0.9490     0.1530    -0.6680 C.2   1 <1>  -0.3320 
  5 N       -2.7890    -0.9070    -1.4110 N.2   1 <1>  -0.7070 
  6 C       -4.3650    -0.4740     0.4960 C.3   1 <1>   0.5240 
  7 N       -1.5000    -0.5610    -1.6770 N.pl3 1 <1>   0.3000 
  8 C        0.4780     0.6790    -0.6700 C.3   1 <1>  -0.0600 
  9 N       -5.2280    -1.4390    -0.2430 N.4   1 <1>  -0.9590 
 10 C       -4.8010    -2.8510     0.0800 C.3   1 <1>   0.3430 
 11 C       -6.6760    -1.1560     0.0020 C.3   1 <1>   0.3430 
 12 C       -5.7140    -3.9350    -0.5720 C.3   1 <1>   0.4230 
 13 C       -7.5480    -2.2480    -0.6350 C.3   1 <1>  -0.1600 
 14 N       -5.3220    -5.3560    -0.2520 N.4   1 <1>  -0.9590 
 15 C       -7.1630    -3.6640    -0.1250 C.3   1 <1>  -0.1060 
 16 C       -6.2050    -6.3590    -0.9070 C.3   1 <1>   0.3430 
 17 C       -3.8800    -5.6960    -0.4180 C.3   1 <1>   0.2630 
 18 C       -7.1680    -3.7020     1.4150 C.2   1 <1>   0.9060 
 19 C       -8.1300    -4.7040    -0.7380 C.3   1 <1>  -0.1600 
 20 C       -7.6560    -6.1400    -0.4770 C.3   1 <1>  -0.1600 
 21 O       -6.3970    -4.4860     1.9840 O.co2 1 <1>  -0.9000 
 22 O       -7.7950    -2.8470     2.0320 O.co2 1 <1>  -0.9000 
 23 H       -4.8190     0.5030     0.5010 H     1 <1>   0.0800 
 24 H       -4.2210    -0.7930     1.5160 H     1 <1>   0.0800 
 25 H       -1.0230    -0.8170    -2.5540 H     1 <1>   0.2700 
 26 H        0.6800     1.2170     0.2400 H     1 <1>   0.0800 
 27 H        0.6290     1.3490    -1.4980 H     1 <1>   0.0800 
 28 H        1.1780    -0.1330    -0.7450 H     1 <1>   0.0800 
 29 H       -4.9790    -1.2540    -1.2300 H     1 <1>   0.4500 
 30 H       -3.7900    -2.9950    -0.2590 H     1 <1>   0.0800 
 31 H       -4.8210    -2.9880     1.1500 H     1 <1>   0.0800 
 32 H       -6.8660    -1.1220     1.0640 H     1 <1>   0.0800 
 33 H       -6.9430    -0.1960    -0.4090 H     1 <1>   0.0800 
 34 H       -5.6580    -3.8110    -1.6400 H     1 <1>   0.0800 
 35 H       -8.5710    -2.0450    -0.3660 H     1 <1>   0.0800 
 36 H       -7.4810    -2.1870    -1.7070 H     1 <1>   0.0800 
 37 H       -5.5660    -5.4080     0.7770 H     1 <1>   0.4500 
 38 H       -6.1270    -6.2710    -1.9780 H     1 <1>   0.0800 
 39 H       -5.9020    -7.3540    -0.6230 H     1 <1>   0.0800 
 40 H       -3.5860    -5.5970    -1.4500 H     1 <1>   0.0800 
 41 H       -3.7040    -6.7120    -0.1040 H     1 <1>   0.0800 
 42 H       -3.2680    -5.0480     0.1880 H     1 <1>   0.0800 
 43 H       -9.1130    -4.5720    -0.3150 H     1 <1>   0.0800 
 44 H       -8.2090    -4.5510    -1.8020 H     1 <1>   0.0800 
 45 H       -8.2890    -6.8280    -1.0100 H     1 <1>   0.0800 
 46 H       -7.7510    -6.3720     0.5720 H     1 <1>   0.0800 
@<TRIPOS>BOND
  1   1   2  1   
  2   2   3  1   
  3   2   4  2   
  4   3   5  2   
  5   3   6  1   
  6   4   7  1   
  7   4   8  1   
  8   5   7  1   
  9   6   9  1   
 10   6  23  1   
 11   6  24  1   
 12   7  25  1   
 13   8  26  1   
 14   8  27  1   
 15   8  28  1   
 16   9  10  1   
 17   9  11  1   
 18   9  29  1   
 19  10  12  1   
 20  10  30  1   
 21  10  31  1   
 22  11  13  1   
 23  11  32  1   
 24  11  33  1   
 25  12  14  1   
 26  12  15  1   
 27  12  34  1   
 28  13  15  1   
 29  13  35  1   
 30  13  36  1   
 31  14  16  1   
 32  14  17  1   
 33  14  37  1   
 34  15  18  1   
 35  15  19  1   
 36  16  20  1   
 37  16  38  1   
 38  16  39  1   
 39  17  40  1   
 40  17  41  1   
 41  17  42  1   
 42  18  21  ar  
 43  18  22  ar  
 44  19  20  1   
 45  19  43  1   
 46  19  44  1   
 47  20  45  1   
 48  20  46  1   
@<TRIPOS>SUBSTRUCTURE
  1 ****  10 GROUP 4 **** **** 0

# MOE 2024.06 (io_trps.svl 2023.06)
