@<TRIPOS>MOLECULE
NONAME
52 54 1 0 0 
SMALL
USER_CHARGES


@<TRIPOS>ATOM
  1 S        0.7660    -0.5200     3.0710 S.o2  1 <1>   1.4470 
  2 O        1.6540    -1.6510     3.2300 O.2   1 <1>  -0.6500 
  3 O        0.3810     0.2580     4.2230 O.2   1 <1>  -0.6500 
  4 N       -0.6820    -1.1260     2.4820 N.am  1 <1>  -0.9140 
  5 C        1.3290     0.5570     1.7240 C.ar  1 <1>  -0.0090 
  6 C       -0.5580    -2.3360     1.6820 C.3   1 <1>   0.2760 
  7 C        0.5770     1.6570     1.3300 C.ar  1 <1>  -0.1500 
  8 C        2.5140     0.3050     1.0420 C.ar  1 <1>  -0.1500 
  9 C       -1.8300    -2.4960     0.8670 C.3   1 <1>  -0.0800 
 10 C       -0.6130    -3.5820     2.5690 C.3   1 <1>   0.1200 
 11 C        0.9890     2.4760     0.2930 C.ar  1 <1>  -0.1500 
 12 C        2.9310     1.1190     0.0040 C.ar  1 <1>  -0.1500 
 13 C       -2.7710    -3.1780     1.8660 C.3   1 <1>   0.1200 
 14 C       -1.5940    -3.3530    -0.3920 C.3   1 <1>  -0.0170 
 15 O       -1.9660    -3.8280     2.8080 O.3   1 <1>  -0.5600 
 16 C        2.1690     2.2100    -0.3790 C.ar  1 <1>  -0.1430 
 17 C       -2.8610    -3.4800    -1.2230 C.ar  1 <1>  -0.1430 
 18 C        2.6280     3.1090    -1.5170 C.3   1 <1>  -0.0170 
 19 C       -3.6100    -4.6390    -1.2460 C.ar  1 <1>  -0.1500 
 20 C       -3.3270    -2.4380    -1.9990 C.ar  1 <1>  -0.1500 
 21 C        3.5120     4.2420    -0.9840 C.3   1 <1>  -0.1600 
 22 C       -4.7590    -4.6970    -2.0170 C.ar  1 <1>   0.1600 
 23 C       -4.4890    -2.5990    -2.7350 C.ar  1 <1>   0.1600 
 24 C        3.9870     5.1660    -2.1130 C.3   1 <1>  -0.1600 
 25 N       -5.2170    -3.7030    -2.7610 N.ar  1 <1>  -0.6200 
 26 C        4.8690     6.2920    -1.5670 C.3   1 <1>  -0.2400 
 27 H       -1.2080    -1.3840     3.3180 H     1 <1>   0.4200 
 28 H        0.3240    -2.2990     1.0640 H     1 <1>   0.0800 
 29 H       -0.3440     1.8750     1.8450 H     1 <1>   0.1500 
 30 H        3.1210    -0.5370     1.3280 H     1 <1>   0.1500 
 31 H       -2.2210    -1.5400     0.5640 H     1 <1>   0.0800 
 32 H       -0.0990    -3.4640     3.5070 H     1 <1>   0.0800 
 33 H       -0.2140    -4.4350     2.0500 H     1 <1>   0.0800 
 34 H        0.3870     3.3240     0.0130 H     1 <1>   0.1500 
 35 H        3.8550     0.9020    -0.5050 H     1 <1>   0.1500 
 36 H       -3.4270    -3.8980     1.4100 H     1 <1>   0.0800 
 37 H       -3.3580    -2.4460     2.3930 H     1 <1>   0.0800 
 38 H       -1.2440    -4.3340    -0.1190 H     1 <1>   0.0800 
 39 H       -0.8320    -2.8960    -1.0000 H     1 <1>   0.0800 
 40 H        3.1770     2.5280    -2.2370 H     1 <1>   0.0800 
 41 H        1.7700     3.5230    -2.0170 H     1 <1>   0.0800 
 42 H       -3.3140    -5.4990    -0.6710 H     1 <1>   0.1500 
 43 H       -2.7990    -1.5030    -2.0390 H     1 <1>   0.1500 
 44 H        2.9550     4.8140    -0.2610 H     1 <1>   0.0800 
 45 H        4.3650     3.8180    -0.4830 H     1 <1>   0.0800 
 46 H       -5.3320    -5.6090    -2.0220 H     1 <1>   0.1500 
 47 H       -4.8380    -1.7760    -3.3360 H     1 <1>   0.1500 
 48 H        4.5480     4.5970    -2.8360 H     1 <1>   0.0800 
 49 H        3.1360     5.5950    -2.6140 H     1 <1>   0.0800 
 50 H        5.7390     5.8870    -1.0810 H     1 <1>   0.0800 
 51 H        4.3220     6.8880    -0.8570 H     1 <1>   0.0800 
 52 H        5.1920     6.9290    -2.3710 H     1 <1>   0.0800 
@<TRIPOS>BOND
  1   1   2  2   
  2   1   3  2   
  3   1   4  am  
  4   1   5  1   
  5   4   6  1   
  6   4  27  1   
  7   5   7  ar  
  8   5   8  ar  
  9   6   9  1   
 10   6  10  1   
 11   6  28  1   
 12   7  11  ar  
 13   7  29  1   
 14   8  12  ar  
 15   8  30  1   
 16   9  13  1   
 17   9  14  1   
 18   9  31  1   
 19  10  15  1   
 20  10  32  1   
 21  10  33  1   
 22  11  16  ar  
 23  11  34  1   
 24  12  16  ar  
 25  12  35  1   
 26  13  15  1   
 27  13  36  1   
 28  13  37  1   
 29  14  17  1   
 30  14  38  1   
 31  14  39  1   
 32  16  18  1   
 33  17  19  ar  
 34  17  20  ar  
 35  18  21  1   
 36  18  40  1   
 37  18  41  1   
 38  19  22  ar  
 39  19  42  1   
 40  20  23  ar  
 41  20  43  1   
 42  21  24  1   
 43  21  44  1   
 44  21  45  1   
 45  22  25  ar  
 46  22  46  1   
 47  23  25  ar  
 48  23  47  1   
 49  24  26  1   
 50  24  48  1   
 51  24  49  1   
 52  26  50  1   
 53  26  51  1   
 54  26  52  1   
@<TRIPOS>SUBSTRUCTURE
  1 ****   6 GROUP 4 **** **** 0

# MOE 2024.06 (io_trps.svl 2023.06)
