@<TRIPOS>MOLECULE
NONAME
50 54 1 0 0 
SMALL
USER_CHARGES


@<TRIPOS>ATOM
  1 S       -3.1630     0.9750    -1.1440 S.3   1 <1>  -0.0800 
  2 C       -2.8400     0.9270     0.5750 C.2   1 <1>   0.1980 
  3 C       -2.8630    -0.7350    -1.2160 C.2   1 <1>  -0.1100 
  4 N       -2.5510    -0.2270     1.0240 N.2   1 <1>  -0.5650 
  5 C       -2.9330     2.2290     1.3350 C.3   1 <1>  -0.0600 
  6 C       -2.5600    -1.1780     0.0150 C.2   1 <1>   0.0460 
  7 C       -2.2310    -2.6040     0.4210 C.3   1 <1>   0.0820 
  8 C       -2.6560    -3.6260    -0.6210 C.2   1 <1>   0.5690 
  9 O       -1.7770    -4.2020    -1.2190 O.2   1 <1>  -0.5700 
 10 N       -3.9840    -3.8960    -0.8620 N.am  1 <1>  -0.6600 
 11 C       -4.4020    -4.8940    -1.8870 C.3   1 <1>   0.1400 
 12 C       -5.1380    -3.2440    -0.1770 C.3   1 <1>   0.1400 
 13 C       -5.2290    -5.9880    -1.2120 C.3   1 <1>  -0.1600 
 14 C       -5.9660    -4.3190     0.5280 C.3   1 <1>  -0.1600 
 15 C       -6.4260    -5.4060    -0.4540 C.3   1 <1>   0.4600 
 16 O       -7.2650    -4.8220    -1.4280 O.3   1 <1>  -0.5600 
 17 C       -7.1850    -6.5130     0.2670 C.2   1 <1>  -0.3320 
 18 C       -8.6190    -4.6130    -1.1010 C.3   1 <1>   0.1200 
 19 N       -6.6670    -7.3990     1.1720 N.pl3 1 <1>   0.0330 
 20 C       -8.4980    -6.7680     0.0970 C.2   1 <1>  -0.1810 
 21 C       -9.3420    -5.9450    -0.8430 C.3   1 <1>   0.0210 
 22 C       -7.6810    -8.2330     1.5760 C.ar  1 <1>  -0.1520 
 23 C       -8.8490    -7.8630     0.9140 C.ar  1 <1>   0.0000 
 24 C       -7.6770    -9.3000     2.4790 C.ar  1 <1>  -0.1500 
 25 C      -10.0330    -8.5660     1.1530 C.ar  1 <1>  -0.1500 
 26 C       -8.8500    -9.9830     2.7050 C.ar  1 <1>  -0.1500 
 27 C      -10.0280    -9.6170     2.0420 C.ar  1 <1>  -0.1500 
 28 H       -2.9450    -1.2260    -2.1700 H     1 <1>   0.1500 
 29 H       -2.2270     2.9340     0.9370 H     1 <1>   0.0800 
 30 H       -2.7120     2.0590     2.3730 H     1 <1>   0.0800 
 31 H       -3.9250     2.6310     1.2480 H     1 <1>   0.0800 
 32 H       -2.7150    -2.8360     1.3500 H     1 <1>   0.0800 
 33 H       -1.1720    -2.6790     0.5810 H     1 <1>   0.0800 
 34 H       -3.5450    -5.3330    -2.3690 H     1 <1>   0.0800 
 35 H       -4.9910    -4.4000    -2.6420 H     1 <1>   0.0800 
 36 H       -5.7430    -2.7400    -0.9120 H     1 <1>   0.0800 
 37 H       -4.8150    -2.5120     0.5400 H     1 <1>   0.0800 
 38 H       -4.5920    -6.5250    -0.5350 H     1 <1>   0.0800 
 39 H       -5.5850    -6.6860    -1.9480 H     1 <1>   0.0800 
 40 H       -6.8150    -3.8760     1.0110 H     1 <1>   0.0800 
 41 H       -5.3620    -4.7670     1.2950 H     1 <1>   0.0800 
 42 H       -9.0780    -4.0950    -1.9240 H     1 <1>   0.0800 
 43 H       -8.6680    -3.9870    -0.2290 H     1 <1>   0.0800 
 44 H       -5.6960    -7.4560     1.4900 H     1 <1>   0.2700 
 45 H       -9.4780    -6.4760    -1.7680 H     1 <1>   0.0800 
 46 H      -10.3060    -5.7570    -0.4070 H     1 <1>   0.0800 
 47 H       -6.7690    -9.5760     2.9830 H     1 <1>   0.1500 
 48 H      -10.9280    -8.2750     0.6370 H     1 <1>   0.1500 
 49 H       -8.8740   -10.8080     3.3950 H     1 <1>   0.1500 
 50 H      -10.9310   -10.1680     2.2370 H     1 <1>   0.1500 
@<TRIPOS>BOND
  1   1   2  1   
  2   1   3  1   
  3   2   4  2   
  4   2   5  1   
  5   3   6  2   
  6   3  28  1   
  7   4   6  1   
  8   5  29  1   
  9   5  30  1   
 10   5  31  1   
 11   6   7  1   
 12   7   8  1   
 13   7  32  1   
 14   7  33  1   
 15   8   9  2   
 16   8  10  am  
 17  10  11  1   
 18  10  12  1   
 19  11  13  1   
 20  11  34  1   
 21  11  35  1   
 22  12  14  1   
 23  12  36  1   
 24  12  37  1   
 25  13  15  1   
 26  13  38  1   
 27  13  39  1   
 28  14  15  1   
 29  14  40  1   
 30  14  41  1   
 31  15  16  1   
 32  15  17  1   
 33  16  18  1   
 34  17  19  1   
 35  17  20  2   
 36  18  21  1   
 37  18  42  1   
 38  18  43  1   
 39  19  22  1   
 40  19  44  1   
 41  20  21  1   
 42  20  23  1   
 43  21  45  1   
 44  21  46  1   
 45  22  23  ar  
 46  22  24  ar  
 47  23  25  ar  
 48  24  26  ar  
 49  24  47  1   
 50  25  27  ar  
 51  25  48  1   
 52  26  27  ar  
 53  26  49  1   
 54  27  50  1   
@<TRIPOS>SUBSTRUCTURE
  1 ****  14 GROUP 4 **** **** 0

# MOE 2024.06 (io_trps.svl 2023.06)
