@<TRIPOS>MOLECULE
NONAME
50 52 1 0 0 
SMALL
USER_CHARGES


@<TRIPOS>ATOM
  1 O       -2.0990     0.4230     2.5050 O.2   1 <1>  -0.5700 
  2 C       -2.2210     0.9030     1.3950 C.2   1 <1>   0.5440 
  3 N       -2.6740     0.1180     0.3590 N.am  1 <1>  -0.6600 
  4 C       -1.9020     2.2880     1.1870 C.ar  1 <1>   0.0860 
  5 C       -2.6710    -1.3790     0.5050 C.3   1 <1>   0.3640 
  6 C       -3.3180     0.7280    -0.8470 C.3   1 <1>   0.1400 
  7 C       -0.7910     2.7260     0.4820 C.ar  1 <1>   0.1660 
  8 C       -2.7220     3.2830     1.6800 C.ar  1 <1>   0.1600 
  9 C       -1.2570    -1.8960     0.2250 C.ar  1 <1>  -0.1440 
 10 C       -3.7050    -2.1400    -0.3800 C.3   1 <1>   0.2000 
 11 C       -3.9510    -0.2970    -1.7980 C.3   1 <1>   0.1200 
 12 N       -0.5660     3.9950     0.2500 N.ar  1 <1>  -0.6200 
 13 C        0.2410     1.7560    -0.0700 C.3   1 <1>  -0.0970 
 14 N       -2.5170     4.5590     1.4680 N.ar  1 <1>  -0.6200 
 15 C       -0.6130    -2.6660     1.1820 C.ar  1 <1>  -0.1500 
 16 C       -0.5970    -1.6170    -0.9660 C.ar  1 <1>  -0.1500 
 17 O       -4.5890    -1.2930    -1.0660 O.3   1 <1>  -0.5600 
 18 C       -4.5630    -3.1140     0.4400 C.3   1 <1>   0.1200 
 19 C       -1.4370     4.8730     0.7510 C.ar  1 <1>   0.7200 
 20 C        0.6620    -3.1520     0.9560 C.ar  1 <1>  -0.1500 
 21 C        0.6790    -2.1030    -1.1950 C.ar  1 <1>  -0.1500 
 22 O       -3.7680    -4.0670     1.0720 O.3   1 <1>  -0.6800 
 23 N       -1.2040     6.2070     0.5080 N.pl3 1 <1>  -0.8380 
 24 C        1.3090    -2.8720    -0.2340 C.ar  1 <1>  -0.1500 
 25 C       -2.2090     7.2620     0.8170 C.3   1 <1>   0.1290 
 26 C        0.0960     6.7050    -0.0240 C.3   1 <1>   0.1290 
 27 H       -2.9050    -1.6080     1.5300 H     1 <1>   0.0800 
 28 H       -4.0920     1.4000    -0.5170 H     1 <1>   0.0800 
 29 H       -2.5930     1.3090    -1.3900 H     1 <1>   0.0800 
 30 H       -3.5810     3.0000     2.2640 H     1 <1>   0.1500 
 31 H       -3.1830    -2.7100    -1.1270 H     1 <1>   0.0800 
 32 H       -3.2130    -0.7480    -2.4370 H     1 <1>   0.0800 
 33 H       -4.6880     0.1830    -2.4170 H     1 <1>   0.0800 
 34 H        0.2850     0.8540     0.5140 H     1 <1>   0.0800 
 35 H        1.2160     2.2110    -0.0500 H     1 <1>   0.0800 
 36 H        0.0000     1.5070    -1.0860 H     1 <1>   0.0800 
 37 H       -1.1050    -2.8890     2.1150 H     1 <1>   0.1500 
 38 H       -1.0680    -1.0170    -1.7200 H     1 <1>   0.1500 
 39 H       -5.2610    -3.6290    -0.1970 H     1 <1>   0.0800 
 40 H       -5.1020    -2.5790     1.2040 H     1 <1>   0.0800 
 41 H        1.1500    -3.7480     1.7080 H     1 <1>   0.1500 
 42 H        1.1830    -1.8820    -2.1200 H     1 <1>   0.1500 
 43 H       -3.3330    -4.6530     0.4210 H     1 <1>   0.4000 
 44 H        2.3010    -3.2510    -0.4100 H     1 <1>   0.1500 
 45 H       -2.1200     8.0740     0.1160 H     1 <1>   0.0800 
 46 H       -2.0470     7.6330     1.8140 H     1 <1>   0.0800 
 47 H       -3.2080     6.8670     0.7490 H     1 <1>   0.0800 
 48 H        0.3260     7.6660     0.4010 H     1 <1>   0.0800 
 49 H        0.0360     6.7950    -1.0940 H     1 <1>   0.0800 
 50 H        0.8950     6.0280     0.2260 H     1 <1>   0.0800 
@<TRIPOS>BOND
  1   1   2  2   
  2   2   3  am  
  3   2   4  1   
  4   3   5  1   
  5   3   6  1   
  6   4   7  ar  
  7   4   8  ar  
  8   5   9  1   
  9   5  10  1   
 10   5  27  1   
 11   6  11  1   
 12   6  28  1   
 13   6  29  1   
 14   7  12  ar  
 15   7  13  1   
 16   8  14  ar  
 17   8  30  1   
 18   9  15  ar  
 19   9  16  ar  
 20  10  17  1   
 21  10  18  1   
 22  10  31  1   
 23  11  17  1   
 24  11  32  1   
 25  11  33  1   
 26  12  19  ar  
 27  13  34  1   
 28  13  35  1   
 29  13  36  1   
 30  14  19  ar  
 31  15  20  ar  
 32  15  37  1   
 33  16  21  ar  
 34  16  38  1   
 35  18  22  1   
 36  18  39  1   
 37  18  40  1   
 38  19  23  1   
 39  20  24  ar  
 40  20  41  1   
 41  21  24  ar  
 42  21  42  1   
 43  22  43  1   
 44  23  25  1   
 45  23  26  1   
 46  24  44  1   
 47  25  45  1   
 48  25  46  1   
 49  25  47  1   
 50  26  48  1   
 51  26  49  1   
 52  26  50  1   
@<TRIPOS>SUBSTRUCTURE
  1 ****   3 GROUP 4 **** **** 0

# MOE 2024.06 (io_trps.svl 2023.06)
