@<TRIPOS>MOLECULE
NONAME
46 49 1 0 0 
SMALL
USER_CHARGES


@<TRIPOS>ATOM
  1 S        0.7710    -1.0040    -2.4530 S.3   1 <1>  -0.0800 
  2 C        1.0290     0.5710    -1.7700 C.2   1 <1>  -0.1400 
  3 C        0.5680    -1.6250    -0.8270 C.2   1 <1>   0.1980 
  4 C        0.9330     0.4970    -0.4390 C.2   1 <1>   0.0460 
  5 C        1.3130     1.7890    -2.6210 C.3   1 <1>   0.0200 
  6 N        0.6750    -0.7530     0.1010 N.2   1 <1>  -0.5650 
  7 C        0.2880    -3.1130    -0.6850 C.3   1 <1>   0.5230 
  8 C        1.1020     1.7140     0.4500 C.3   1 <1>   0.0210 
  9 C        1.8170     2.9230    -1.7060 C.3   1 <1>  -0.1600 
 10 N       -0.0670    -3.4350     0.7390 N.4   1 <1>  -0.9590 
 11 C        1.0220     3.0130    -0.3830 C.3   1 <1>  -0.1600 
 12 C       -1.4230    -2.9080     1.1080 C.3   1 <1>   0.3430 
 13 C       -0.0590    -4.9000     1.0030 C.3   1 <1>   0.3430 
 14 C       -2.2000    -4.1000     1.6890 C.3   1 <1>   0.2000 
 15 C       -1.5310    -5.3230     1.0650 C.3   1 <1>  -0.0800 
 16 O       -2.0310    -4.1540     3.0670 O.3   1 <1>  -0.6800 
 17 C       -2.1510    -5.6310    -0.3190 C.3   1 <1>  -0.0170 
 18 C       -1.2710    -6.5110    -1.1940 C.ar  1 <1>   0.1670 
 19 N       -0.3140    -5.8900    -1.8720 N.ar  1 <1>  -0.6200 
 20 C       -1.4970    -7.8850    -1.2570 C.ar  1 <1>   0.1600 
 21 C        0.3810    -6.7320    -2.6260 C.ar  1 <1>   0.1600 
 22 N       -0.7890    -8.7220    -1.9930 N.ar  1 <1>  -0.6200 
 23 C        0.1520    -8.1020    -2.6820 C.ar  1 <1>   0.1600 
 24 H        2.0550     1.5610    -3.3650 H     1 <1>   0.0800 
 25 H        0.4070     2.0880    -3.1180 H     1 <1>   0.0800 
 26 H        1.1700    -3.6580    -0.9760 H     1 <1>   0.0800 
 27 H       -0.5140    -3.3970    -1.3450 H     1 <1>   0.0800 
 28 H        0.3360     1.7220     1.2050 H     1 <1>   0.0800 
 29 H        2.0580     1.6490     0.9390 H     1 <1>   0.0800 
 30 H        2.8530     2.7450    -1.4720 H     1 <1>   0.0800 
 31 H        1.7570     3.8590    -2.2330 H     1 <1>   0.0800 
 32 H        0.6370    -2.9310     1.3030 H     1 <1>   0.4500 
 33 H       -0.0100     3.2110    -0.6150 H     1 <1>   0.0800 
 34 H        1.3870     3.8360     0.2060 H     1 <1>   0.0800 
 35 H       -1.3600    -2.1010     1.8210 H     1 <1>   0.0800 
 36 H       -1.9270    -2.5500     0.2260 H     1 <1>   0.0800 
 37 H        0.5000    -5.4460     0.2610 H     1 <1>   0.0800 
 38 H        0.3930    -5.0830     1.9650 H     1 <1>   0.0800 
 39 H       -3.2580    -4.0400     1.4910 H     1 <1>   0.0800 
 40 H       -1.6410    -6.1950     1.6880 H     1 <1>   0.0800 
 41 H       -1.0980    -4.0950     3.3480 H     1 <1>   0.4000 
 42 H       -2.3460    -4.7240    -0.8630 H     1 <1>   0.0800 
 43 H       -3.1030    -6.1120    -0.1750 H     1 <1>   0.0800 
 44 H       -2.2960    -8.3150    -0.6770 H     1 <1>   0.1500 
 45 H        1.1710    -6.3250    -3.2320 H     1 <1>   0.1500 
 46 H        0.7710    -8.7070    -3.3230 H     1 <1>   0.1500 
@<TRIPOS>BOND
  1   1   2  1   
  2   1   3  1   
  3   2   4  2   
  4   2   5  1   
  5   3   6  2   
  6   3   7  1   
  7   4   6  1   
  8   4   8  1   
  9   5   9  1   
 10   5  24  1   
 11   5  25  1   
 12   7  10  1   
 13   7  26  1   
 14   7  27  1   
 15   8  11  1   
 16   8  28  1   
 17   8  29  1   
 18   9  11  1   
 19   9  30  1   
 20   9  31  1   
 21  10  12  1   
 22  10  13  1   
 23  10  32  1   
 24  11  33  1   
 25  11  34  1   
 26  12  14  1   
 27  12  35  1   
 28  12  36  1   
 29  13  15  1   
 30  13  37  1   
 31  13  38  1   
 32  14  15  1   
 33  14  16  1   
 34  14  39  1   
 35  15  17  1   
 36  15  40  1   
 37  16  41  1   
 38  17  18  1   
 39  17  42  1   
 40  17  43  1   
 41  18  19  ar  
 42  18  20  ar  
 43  19  21  ar  
 44  20  22  ar  
 45  20  44  1   
 46  21  23  ar  
 47  21  45  1   
 48  22  23  ar  
 49  23  46  1   
@<TRIPOS>SUBSTRUCTURE
  1 ****   7 GROUP 4 **** **** 0

# MOE 2024.06 (io_trps.svl 2023.06)
