@<TRIPOS>MOLECULE
NONAME
41 43 1 0 0 
SMALL
USER_CHARGES


@<TRIPOS>ATOM
  1 O       -0.1100    -0.2020    -1.8800 O.co2 1 <1>  -0.9000 
  2 C       -0.0200     0.0650    -0.6720 C.2   1 <1>   0.9060 
  3 O        1.0070    -0.2330    -0.0390 O.co2 1 <1>  -0.9000 
  4 C       -1.2390     0.7160     0.0450 C.3   1 <1>   0.0840 
  5 N       -1.5550     2.1710    -0.2560 N.3   1 <1>  -0.8100 
  6 C       -1.0630     0.5230     1.5660 C.3   1 <1>   0.1200 
  7 C       -2.6640     2.6470     0.5820 C.3   1 <1>   0.1100 
  8 C       -1.8360     2.4050    -1.6880 C.3   1 <1>   0.2900 
  9 O       -2.1620     1.0240     2.2870 O.3   1 <1>  -0.5600 
 10 C       -2.3730     2.3870     2.0670 C.3   1 <1>   0.1200 
 11 C       -1.6830     3.8800    -2.0450 C.2   1 <1>   0.0060 
 12 N       -2.6250     4.5990    -2.5780 N.2   1 <1>  -0.5650 
 13 N       -0.5150     4.5560    -1.8280 N.pl3 1 <1>   0.3260 
 14 C       -2.0570     5.8090    -2.7240 C.2   1 <1>   0.0770 
 15 C        0.6830     4.1300    -1.1920 C.ar  1 <1>  -0.0230 
 16 C       -0.7850     5.8030    -2.2770 C.2   1 <1>  -0.3020 
 17 C        1.3300     2.9700    -1.6020 C.ar  1 <1>  -0.1500 
 18 C        1.2020     4.8370    -0.1100 C.ar  1 <1>  -0.1500 
 19 C        2.4210     2.4870    -0.9090 C.ar  1 <1>  -0.1500 
 20 C        2.3070     4.3640     0.5760 C.ar  1 <1>  -0.1500 
 21 C        2.9020     3.1720     0.1990 C.ar  1 <1>   0.0820 
 22 O        3.9190     2.6970     0.9590 O.3   1 <1>  -0.3630 
 23 C        4.0020     1.2950     1.1280 C.3   1 <1>   0.0400 
 24 H       -2.0840     0.1250    -0.2510 H     1 <1>   0.0800 
 25 H       -0.1700     1.0250     1.8980 H     1 <1>   0.0800 
 26 H       -0.9660    -0.5230     1.7930 H     1 <1>   0.0800 
 27 H       -2.8010     3.7040     0.4300 H     1 <1>   0.0800 
 28 H       -3.5760     2.1450     0.3100 H     1 <1>   0.0800 
 29 H       -1.1570     1.8500    -2.3040 H     1 <1>   0.0800 
 30 H       -2.8290     2.0700    -1.9270 H     1 <1>   0.0800 
 31 H       -3.2090     2.6920     2.6700 H     1 <1>   0.0800 
 32 H       -1.4970     2.9290     2.3780 H     1 <1>   0.0800 
 33 H       -2.6050     6.6320    -3.1510 H     1 <1>   0.1500 
 34 H       -0.0590     6.5920    -2.2470 H     1 <1>   0.1500 
 35 H        0.9690     2.4040    -2.4440 H     1 <1>   0.1500 
 36 H        0.7250     5.7460     0.2100 H     1 <1>   0.1500 
 37 H        2.8600     1.5590    -1.2290 H     1 <1>   0.1500 
 38 H        2.7000     4.8980     1.4210 H     1 <1>   0.1500 
 39 H        4.6510     1.0910     1.9580 H     1 <1>   0.0800 
 40 H        4.4000     0.8550     0.2310 H     1 <1>   0.0800 
 41 H        3.0160     0.9040     1.3240 H     1 <1>   0.0800 
@<TRIPOS>BOND
  1   1   2  ar  
  2   2   3  ar  
  3   2   4  1   
  4   4   5  1   
  5   4   6  1   
  6   4  24  1   
  7   5   7  1   
  8   5   8  1   
  9   6   9  1   
 10   6  25  1   
 11   6  26  1   
 12   7  10  1   
 13   7  27  1   
 14   7  28  1   
 15   8  11  1   
 16   8  29  1   
 17   8  30  1   
 18   9  10  1   
 19  10  31  1   
 20  10  32  1   
 21  11  12  2   
 22  11  13  1   
 23  12  14  1   
 24  13  15  1   
 25  13  16  1   
 26  14  16  2   
 27  14  33  1   
 28  15  17  ar  
 29  15  18  ar  
 30  16  34  1   
 31  17  19  ar  
 32  17  35  1   
 33  18  20  ar  
 34  18  36  1   
 35  19  21  ar  
 36  19  37  1   
 37  20  21  ar  
 38  20  38  1   
 39  21  22  1   
 40  22  23  1   
 41  23  39  1   
 42  23  40  1   
 43  23  41  1   
@<TRIPOS>SUBSTRUCTURE
  1 ****   5 GROUP 4 **** **** 0

# MOE 2024.06 (io_trps.svl 2023.06)
