@<TRIPOS>MOLECULE
NONAME
42 43 1 0 0 
SMALL
USER_CHARGES


@<TRIPOS>ATOM
  1 S       -0.4860    -0.4110    -1.0260 S.o2  1 <1>   1.0900 
  2 O       -0.7160     0.5600    -2.0690 O.2   1 <1>  -0.6500 
  3 O        0.3040    -1.5890    -1.2910 O.2   1 <1>  -0.6500 
  4 C       -2.0750    -0.9320    -0.3800 C.3   1 <1>  -0.0550 
  5 C        0.2730     0.4370     0.3470 C.3   1 <1>  -0.1350 
  6 C       -3.0810     0.2240    -0.2120 C.3   1 <1>  -0.0990 
  7 C       -4.4070    -0.2180     0.3850 C.2   1 <1>   0.5690 
  8 O       -4.4610    -1.3190     0.8810 O.2   1 <1>  -0.5700 
  9 N       -5.4930     0.6180     0.3630 N.am  1 <1>  -0.6600 
 10 C       -6.8320     0.1590     0.8470 C.3   1 <1>   0.1400 
 11 C       -5.5190     2.0080    -0.1740 C.3   1 <1>   0.1400 
 12 C       -7.8730     0.1840    -0.3010 C.3   1 <1>   0.0000 
 13 C       -6.5160     2.0880    -1.3360 C.3   1 <1>  -0.1600 
 14 C       -9.2710    -0.2650     0.1690 C.3   1 <1>   0.2000 
 15 C       -7.9150     1.5990    -0.9210 C.3   1 <1>  -0.1600 
 16 C       -7.5410    -0.8960    -1.3470 C.3   1 <1>  -0.1600 
 17 O       -9.5800     0.1650     1.4480 O.3   1 <1>  -0.6800 
 18 C       -9.2910    -1.7940     0.1080 C.3   1 <1>  -0.1600 
 19 C       -8.1060    -2.2000    -0.7790 C.3   1 <1>  -0.1600 
 20 H       -2.5040    -1.6490    -1.0540 H     1 <1>   0.0800 
 21 H       -1.9350    -1.4290     0.5620 H     1 <1>   0.0800 
 22 H       -0.3010     1.2970     0.6300 H     1 <1>   0.0800 
 23 H        1.2560     0.7670     0.0700 H     1 <1>   0.0800 
 24 H        0.3630    -0.2180     1.1920 H     1 <1>   0.0800 
 25 H       -2.6670     0.9830     0.4240 H     1 <1>   0.0800 
 26 H       -3.2640     0.6500    -1.1820 H     1 <1>   0.0800 
 27 H       -6.7650    -0.8310     1.2620 H     1 <1>   0.0800 
 28 H       -7.1440     0.8210     1.6350 H     1 <1>   0.0800 
 29 H       -5.8300     2.6760     0.6110 H     1 <1>   0.0800 
 30 H       -4.5470     2.3240    -0.5070 H     1 <1>   0.0800 
 31 H       -6.5810     3.1070    -1.6750 H     1 <1>   0.0800 
 32 H       -6.1470     1.4970    -2.1560 H     1 <1>   0.0800 
 33 H      -10.0200     0.1280    -0.4980 H     1 <1>   0.0800 
 34 H       -8.5690     1.6130    -1.7750 H     1 <1>   0.0800 
 35 H       -8.3200     2.2810    -0.1930 H     1 <1>   0.0800 
 36 H       -8.0490    -0.6740    -2.2700 H     1 <1>   0.0800 
 37 H       -6.4880    -0.9790    -1.5510 H     1 <1>   0.0800 
 38 H       -9.0840    -0.3590     2.1050 H     1 <1>   0.4000 
 39 H       -9.1820    -2.2360     1.0830 H     1 <1>   0.0800 
 40 H      -10.2160    -2.1250    -0.3300 H     1 <1>   0.0800 
 41 H       -7.3540    -2.6830    -0.1780 H     1 <1>   0.0800 
 42 H       -8.4050    -2.8730    -1.5640 H     1 <1>   0.0800 
@<TRIPOS>BOND
  1   1   2  2   
  2   1   3  2   
  3   1   4  1   
  4   1   5  1   
  5   4   6  1   
  6   4  20  1   
  7   4  21  1   
  8   5  22  1   
  9   5  23  1   
 10   5  24  1   
 11   6   7  1   
 12   6  25  1   
 13   6  26  1   
 14   7   8  2   
 15   7   9  am  
 16   9  10  1   
 17   9  11  1   
 18  10  12  1   
 19  10  27  1   
 20  10  28  1   
 21  11  13  1   
 22  11  29  1   
 23  11  30  1   
 24  12  14  1   
 25  12  15  1   
 26  12  16  1   
 27  13  15  1   
 28  13  31  1   
 29  13  32  1   
 30  14  17  1   
 31  14  18  1   
 32  14  33  1   
 33  15  34  1   
 34  15  35  1   
 35  16  19  1   
 36  16  36  1   
 37  16  37  1   
 38  17  38  1   
 39  18  19  1   
 40  18  39  1   
 41  18  40  1   
 42  19  41  1   
 43  19  42  1   
@<TRIPOS>SUBSTRUCTURE
  1 ****   9 GROUP 4 **** **** 0

# MOE 2024.06 (io_trps.svl 2023.06)
