@<TRIPOS>MOLECULE
NONAME
55 58 1 0 0 
SMALL
USER_CHARGES


@<TRIPOS>ATOM
  1 F       -2.5600     1.5720    -0.7050 F     1 <1>  -0.1900 
  2 C       -3.4810     1.2090     0.1510 C.ar  1 <1>   0.1900 
  3 C       -3.7380     1.9400     1.3150 C.ar  1 <1>   0.0830 
  4 C       -4.1930     0.0680    -0.1710 C.ar  1 <1>  -0.1500 
  5 O       -3.1070     3.0730     1.7320 O.3   1 <1>  -0.3630 
  6 C       -4.7420     1.4780     2.1510 C.ar  1 <1>  -0.1500 
  7 C       -5.2010    -0.3720     0.6750 C.ar  1 <1>  -0.1430 
  8 C       -1.9650     3.6000     1.0910 C.3   1 <1>   0.0400 
  9 C       -5.4650     0.3370     1.8400 C.ar  1 <1>  -0.1500 
 10 C       -6.0160    -1.6030     0.3230 C.3   1 <1>   0.4870 
 11 N       -6.9810    -1.2310    -0.7460 N.4   1 <1>  -0.9590 
 12 C       -7.9790    -0.2230    -0.2420 C.3   1 <1>   0.3430 
 13 C       -7.6640    -2.4240    -1.3210 C.3   1 <1>   0.3430 
 14 C       -8.9150     0.2710    -1.3560 C.3   1 <1>   0.1430 
 15 C       -8.5640    -1.9940    -2.4840 C.3   1 <1>  -0.1600 
 16 C       -9.9520     1.1630    -0.7200 C.ar  1 <1>   0.1670 
 17 C       -9.5880    -0.9240    -2.0620 C.3   1 <1>  -0.1600 
 18 C       -8.2140     1.2300    -2.3580 C.3   1 <1>  -0.1600 
 19 N      -10.6210     0.8540     0.3590 N.ar  1 <1>  -0.6200 
 20 C      -10.0900     2.3400    -1.3860 C.ar  1 <1>  -0.1430 
 21 C       -9.1760     2.4140    -2.5840 C.3   1 <1>  -0.0170 
 22 C      -11.4750     1.7950     0.7750 C.ar  1 <1>   0.7200 
 23 C      -10.9910     3.2450    -0.8860 C.ar  1 <1>   0.1600 
 24 N      -11.6850     2.9810     0.1960 N.ar  1 <1>  -0.6200 
 25 N      -12.1980     1.5140     1.9150 N.pl3 1 <1>  -0.8380 
 26 C      -12.9020     2.5870     2.6730 C.3   1 <1>   0.1290 
 27 C      -12.5410     0.1240     2.3180 C.3   1 <1>   0.1290 
 28 H       -3.9430    -0.4550    -1.0780 H     1 <1>   0.1500 
 29 H       -4.9530     2.0240     3.0550 H     1 <1>   0.1500 
 30 H       -1.6200     4.4420     1.6630 H     1 <1>   0.0800 
 31 H       -2.2350     3.9200     0.1010 H     1 <1>   0.0800 
 32 H       -1.2000     2.8450     1.0580 H     1 <1>   0.0800 
 33 H       -6.2350     0.0160     2.5230 H     1 <1>   0.1500 
 34 H       -6.5410    -1.9620     1.1940 H     1 <1>   0.0800 
 35 H       -5.3550    -2.3810    -0.0240 H     1 <1>   0.0800 
 36 H       -6.4390    -0.7740    -1.4890 H     1 <1>   0.4500 
 37 H       -7.4740     0.6290     0.1830 H     1 <1>   0.0800 
 38 H       -8.5820    -0.6670     0.5340 H     1 <1>   0.0800 
 39 H       -8.2650    -2.9010    -0.5620 H     1 <1>   0.0800 
 40 H       -6.9360    -3.1370    -1.6750 H     1 <1>   0.0800 
 41 H       -9.0920    -2.8580    -2.8510 H     1 <1>   0.0800 
 42 H       -7.9540    -1.6320    -3.2930 H     1 <1>   0.0800 
 43 H      -10.1450    -0.5830    -2.9190 H     1 <1>   0.0800 
 44 H      -10.2950    -1.3730    -1.3840 H     1 <1>   0.0800 
 45 H       -7.9640     0.7560    -3.2910 H     1 <1>   0.0800 
 46 H       -7.3110     1.6180    -1.9190 H     1 <1>   0.0800 
 47 H       -9.7510     2.2770    -3.4840 H     1 <1>   0.0800 
 48 H       -8.6510     3.3530    -2.6260 H     1 <1>   0.0800 
 49 H      -11.1440     4.1940    -1.3720 H     1 <1>   0.1500 
 50 H      -12.3600     3.5140     2.6020 H     1 <1>   0.0800 
 51 H      -12.9780     2.3170     3.7110 H     1 <1>   0.0800 
 52 H      -13.8880     2.7270     2.2660 H     1 <1>   0.0800 
 53 H      -12.3510    -0.5670     1.5150 H     1 <1>   0.0800 
 54 H      -13.5840     0.0630     2.5740 H     1 <1>   0.0800 
 55 H      -11.9510    -0.1590     3.1720 H     1 <1>   0.0800 
@<TRIPOS>BOND
  1   1   2  1   
  2   2   3  ar  
  3   2   4  ar  
  4   3   5  1   
  5   3   6  ar  
  6   4   7  ar  
  7   4  28  1   
  8   5   8  1   
  9   6   9  ar  
 10   6  29  1   
 11   7   9  ar  
 12   7  10  1   
 13   8  30  1   
 14   8  31  1   
 15   8  32  1   
 16   9  33  1   
 17  10  11  1   
 18  10  34  1   
 19  10  35  1   
 20  11  12  1   
 21  11  13  1   
 22  11  36  1   
 23  12  14  1   
 24  12  37  1   
 25  12  38  1   
 26  13  15  1   
 27  13  39  1   
 28  13  40  1   
 29  14  16  1   
 30  14  17  1   
 31  14  18  1   
 32  15  17  1   
 33  15  41  1   
 34  15  42  1   
 35  16  19  ar  
 36  16  20  ar  
 37  17  43  1   
 38  17  44  1   
 39  18  21  1   
 40  18  45  1   
 41  18  46  1   
 42  19  22  ar  
 43  20  21  1   
 44  20  23  ar  
 45  21  47  1   
 46  21  48  1   
 47  22  24  ar  
 48  22  25  1   
 49  23  24  ar  
 50  23  49  1   
 51  25  26  1   
 52  25  27  1   
 53  26  50  1   
 54  26  51  1   
 55  26  52  1   
 56  27  53  1   
 57  27  54  1   
 58  27  55  1   
@<TRIPOS>SUBSTRUCTURE
  1 ****  12 GROUP 4 **** **** 0

# MOE 2024.06 (io_trps.svl 2023.06)
