@<TRIPOS>MOLECULE
NONAME
42 43 1 0 0 
SMALL
USER_CHARGES


@<TRIPOS>ATOM
  1 F       -0.2080    -0.5250    -0.8670 F     1 <1>  -0.1900 
  2 C       -0.7630    -1.6670    -0.5470 C.ar  1 <1>   0.1900 
  3 C       -0.0070    -2.8260    -0.3370 C.ar  1 <1>   0.0820 
  4 C       -2.1380    -1.6680    -0.4190 C.ar  1 <1>  -0.1500 
  5 O        1.3480    -2.9500    -0.4350 O.3   1 <1>  -0.3630 
  6 C       -0.6880    -3.9820     0.0070 C.ar  1 <1>  -0.1500 
  7 C       -2.7840    -2.8400    -0.0730 C.ar  1 <1>  -0.1500 
  8 C        2.1860    -1.9060    -0.8780 C.3   1 <1>   0.0400 
  9 C       -2.0780    -4.0250     0.1460 C.ar  1 <1>   0.0530 
 10 C       -2.7420    -5.2510     0.5210 C.2   1 <1>   0.0870 
 11 O       -2.1020    -6.1230     1.2670 O.3   1 <1>  -0.0190 
 12 C       -3.9780    -5.7720     0.2900 C.2   1 <1>  -0.2330 
 13 N       -2.8210    -7.1750     1.5570 N.2   1 <1>  -0.4100 
 14 C       -3.9510    -6.9840     0.9770 C.2   1 <1>   0.3720 
 15 C       -5.1020    -5.3090    -0.4630 C.2   1 <1>   1.0330 
 16 N       -5.0190    -7.8690     1.0410 N.pl3 1 <1>  -0.8520 
 17 O       -4.9670    -4.5010    -1.3940 O.co2 1 <1>  -0.9000 
 18 O       -6.2450    -5.7340    -0.2090 O.co2 1 <1>  -0.9000 
 19 C       -5.0960    -8.8700    -0.0640 C.3   1 <1>   0.2890 
 20 C       -6.4930    -9.5810    -0.0260 C.3   1 <1>   0.2800 
 21 C       -3.9130    -9.8440     0.0670 C.3   1 <1>  -0.2400 
 22 O       -6.6710   -10.0870     1.2410 O.3   1 <1>  -0.6800 
 23 C       -7.6470    -8.5980    -0.2520 C.3   1 <1>  -0.2400 
 24 C       -6.6350   -10.7600    -0.9950 C.3   1 <1>  -0.2400 
 25 H       -2.6990    -0.7670    -0.5910 H     1 <1>   0.1500 
 26 H       -0.1200    -4.8800     0.1680 H     1 <1>   0.1500 
 27 H       -3.8560    -2.8390     0.0240 H     1 <1>   0.1500 
 28 H        3.1920    -2.2800    -0.9200 H     1 <1>   0.0800 
 29 H        2.1300    -1.0910    -0.1780 H     1 <1>   0.0800 
 30 H        1.8700    -1.5960    -1.8590 H     1 <1>   0.0800 
 31 H       -5.8410    -7.2520     0.8660 H     1 <1>   0.4000 
 32 H       -5.0090    -8.3500    -1.0040 H     1 <1>   0.0800 
 33 H       -3.9590   -10.3610     1.0080 H     1 <1>   0.0800 
 34 H       -2.9800    -9.3180     0.0010 H     1 <1>   0.0800 
 35 H       -3.9230   -10.5640    -0.7290 H     1 <1>   0.0800 
 36 H       -6.2200    -9.4470     1.8380 H     1 <1>   0.4000 
 37 H       -7.6670    -7.8390     0.5090 H     1 <1>   0.0800 
 38 H       -8.5910    -9.1100    -0.2450 H     1 <1>   0.0800 
 39 H       -7.5320    -8.1060    -1.2010 H     1 <1>   0.0800 
 40 H       -5.9550   -11.5520    -0.7410 H     1 <1>   0.0800 
 41 H       -6.4340   -10.4360    -2.0000 H     1 <1>   0.0800 
 42 H       -7.6350   -11.1520    -0.9580 H     1 <1>   0.0800 
@<TRIPOS>BOND
  1   1   2  1   
  2   2   3  ar  
  3   2   4  ar  
  4   3   5  1   
  5   3   6  ar  
  6   4   7  ar  
  7   4  25  1   
  8   5   8  1   
  9   6   9  ar  
 10   6  26  1   
 11   7   9  ar  
 12   7  27  1   
 13   8  28  1   
 14   8  29  1   
 15   8  30  1   
 16   9  10  1   
 17  10  11  1   
 18  10  12  2   
 19  11  13  1   
 20  12  14  1   
 21  12  15  1   
 22  13  14  2   
 23  14  16  1   
 24  15  17  ar  
 25  15  18  ar  
 26  16  19  1   
 27  16  31  1   
 28  19  20  1   
 29  19  21  1   
 30  19  32  1   
 31  20  22  1   
 32  20  23  1   
 33  20  24  1   
 34  21  33  1   
 35  21  34  1   
 36  21  35  1   
 37  22  36  1   
 38  23  37  1   
 39  23  38  1   
 40  23  39  1   
 41  24  40  1   
 42  24  41  1   
 43  24  42  1   
@<TRIPOS>SUBSTRUCTURE
  1 ****  12 GROUP 4 **** **** 0

# MOE 2024.06 (io_trps.svl 2023.06)
