@<TRIPOS>MOLECULE
NONAME
51 54 1 0 0 
SMALL
USER_CHARGES


@<TRIPOS>ATOM
  1 O        1.9690    -0.0750     2.2070 O.2   1 <1>  -0.5700 
  2 C        1.7770    -0.9760     1.4120 C.2   1 <1>   0.5440 
  3 N        1.9800    -0.7380     0.0680 N.am  1 <1>  -0.6600 
  4 C        1.3500    -2.2680     1.9120 C.ar  1 <1>   0.0860 
  5 C        2.1010     0.6450    -0.4700 C.3   1 <1>   0.1400 
  6 C        2.2480    -1.8050    -0.9370 C.3   1 <1>   0.1400 
  7 C        0.3030    -2.9810     1.3610 C.ar  1 <1>  -0.1500 
  8 C        1.9640    -2.8770     2.9970 C.ar  1 <1>  -0.1500 
  9 C        1.1400     0.8210    -1.6510 C.3   1 <1>  -0.1600 
 10 C        1.2810    -1.6570    -2.1160 C.3   1 <1>  -0.1600 
 11 C       -0.0630    -4.2220     1.8620 C.ar  1 <1>   0.4100 
 12 C        1.5340    -4.1140     3.4330 C.ar  1 <1>   0.1600 
 13 C        1.3570    -0.2510    -2.7300 C.3   1 <1>  -0.1600 
 14 N        0.5450    -4.8010     2.8900 N.ar  1 <1>  -0.6200 
 15 N       -1.1130    -4.9010     1.2790 N.pl3 1 <1>  -0.8380 
 16 C       -2.4720    -4.3540     1.5120 C.3   1 <1>   0.2090 
 17 C       -1.0470    -6.3830     1.2300 C.3   1 <1>   0.2090 
 18 C       -3.4090    -4.8460     0.4100 C.3   1 <1>  -0.1600 
 19 C       -1.9760    -6.8970     0.1290 C.3   1 <1>  -0.1600 
 20 C       -3.4110    -6.3810     0.3210 C.3   1 <1>   0.1000 
 21 C       -4.3160    -6.8890    -0.7980 C.2   1 <1>   0.0060 
 22 N       -4.8260    -6.1880    -1.7510 N.2   1 <1>  -0.3380 
 23 N       -4.6830    -8.1720    -0.9050 N.pl3 1 <1>   0.0330 
 24 N       -5.5470    -7.0180    -2.5200 N.2   1 <1>  -0.3380 
 25 C       -5.4470    -8.1920    -1.9940 C.2   1 <1>   0.2700 
 26 N       -6.0550    -9.3170    -2.5010 N.pl3 1 <1>  -0.8840 
 27 H        3.1150     0.8100    -0.7890 H     1 <1>   0.0800 
 28 H        1.8670     1.3700     0.2920 H     1 <1>   0.0800 
 29 H        2.1520    -2.7850    -0.5030 H     1 <1>   0.0800 
 30 H        3.2600    -1.7010    -1.2870 H     1 <1>   0.0800 
 31 H       -0.2430    -2.5810     0.5300 H     1 <1>   0.1500 
 32 H        2.7740    -2.3750     3.4940 H     1 <1>   0.1500 
 33 H        1.2800     1.7980    -2.0780 H     1 <1>   0.0800 
 34 H        0.1300     0.7670    -1.2840 H     1 <1>   0.0800 
 35 H        0.2790    -1.8510    -1.7770 H     1 <1>   0.0800 
 36 H        1.5190    -2.3910    -2.8660 H     1 <1>   0.0800 
 37 H        2.0290    -4.5640     4.2760 H     1 <1>   0.1500 
 38 H        2.3250    -0.1100    -3.1810 H     1 <1>   0.0800 
 39 H        0.6120    -0.1490    -3.5000 H     1 <1>   0.0800 
 40 H       -2.4430    -3.2770     1.5120 H     1 <1>   0.0800 
 41 H       -2.8240    -4.6810     2.4760 H     1 <1>   0.0800 
 42 H       -1.3370    -6.7830     2.1870 H     1 <1>   0.0800 
 43 H       -0.0350    -6.6910     1.0280 H     1 <1>   0.0800 
 44 H       -3.0890    -4.4260    -0.5270 H     1 <1>   0.0800 
 45 H       -4.4060    -4.4930     0.6040 H     1 <1>   0.0800 
 46 H       -1.9620    -7.9710     0.1340 H     1 <1>   0.0800 
 47 H       -1.5990    -6.5650    -0.8230 H     1 <1>   0.0800 
 48 H       -3.7900    -6.7640     1.2530 H     1 <1>   0.0800 
 49 H       -4.4310    -8.9760    -0.3330 H     1 <1>   0.2700 
 50 H       -6.3250    -9.1470    -3.4750 H     1 <1>   0.4000 
 51 H       -6.9040    -9.5700    -1.9920 H     1 <1>   0.4000 
@<TRIPOS>BOND
  1   1   2  2   
  2   2   3  am  
  3   2   4  1   
  4   3   5  1   
  5   3   6  1   
  6   4   7  ar  
  7   4   8  ar  
  8   5   9  1   
  9   5  27  1   
 10   5  28  1   
 11   6  10  1   
 12   6  29  1   
 13   6  30  1   
 14   7  11  ar  
 15   7  31  1   
 16   8  12  ar  
 17   8  32  1   
 18   9  13  1   
 19   9  33  1   
 20   9  34  1   
 21  10  13  1   
 22  10  35  1   
 23  10  36  1   
 24  11  14  ar  
 25  11  15  1   
 26  12  14  ar  
 27  12  37  1   
 28  13  38  1   
 29  13  39  1   
 30  15  16  1   
 31  15  17  1   
 32  16  18  1   
 33  16  40  1   
 34  16  41  1   
 35  17  19  1   
 36  17  42  1   
 37  17  43  1   
 38  18  20  1   
 39  18  44  1   
 40  18  45  1   
 41  19  20  1   
 42  19  46  1   
 43  19  47  1   
 44  20  21  1   
 45  20  48  1   
 46  21  22  2   
 47  21  23  1   
 48  22  24  1   
 49  23  25  1   
 50  23  49  1   
 51  24  25  2   
 52  25  26  1   
 53  26  50  1   
 54  26  51  1   
@<TRIPOS>SUBSTRUCTURE
  1 ****  15 GROUP 4 **** **** 0

# MOE 2024.06 (io_trps.svl 2023.06)
