@<TRIPOS>MOLECULE
NONAME
44 45 1 0 0 
SMALL
USER_CHARGES


@<TRIPOS>ATOM
  1 O        0.2990    -0.2320     0.4020 O.2   1 <1>  -0.5700 
  2 C        1.4130    -0.5050     0.0270 C.2   1 <1>   0.5690 
  3 N        2.3900     0.4220    -0.2110 N.am  1 <1>  -0.4940 
  4 C        1.7420    -1.9680    -0.1860 C.3   1 <1>  -0.0990 
  5 C        2.3220     1.8340    -0.0730 C.2   1 <1>  -0.0880 
  6 C        0.4560    -2.7980    -0.1130 C.3   1 <1>   0.3430 
  7 N        3.3280     2.7040    -0.3710 N.pl3 1 <1>   0.3140 
  8 C        1.2950     2.5980     0.3670 C.2   1 <1>  -0.1500 
  9 N        0.7140    -4.2550    -0.3200 N.4   1 <1>  -0.9590 
 10 N        2.9680     3.9830    -0.1330 N.2   1 <1>  -0.7070 
 11 C        4.6690     2.3900    -0.9070 C.3   1 <1>   0.0960 
 12 C        1.7540     3.9060     0.3070 C.2   1 <1>   0.1080 
 13 C       -0.5490    -5.0220    -0.4600 C.3   1 <1>   0.3430 
 14 C        1.4520    -4.9100     0.7910 C.3   1 <1>   0.3430 
 15 C        5.6130     1.9190     0.2100 C.3   1 <1>  -0.1600 
 16 C        0.9590     5.1280     0.7020 C.3   1 <1>  -0.0590 
 17 C       -0.1480    -6.4650    -0.1860 C.3   1 <1>  -0.1600 
 18 C        1.1450    -6.3920     0.6300 C.3   1 <1>  -0.1600 
 19 C        6.9970     1.5620    -0.3440 C.3   1 <1>  -0.2400 
 20 H        3.2950     0.0610    -0.5110 H     1 <1>   0.3700 
 21 H        2.4290    -2.2700     0.5820 H     1 <1>   0.0800 
 22 H        2.1980    -2.0840    -1.1510 H     1 <1>   0.0800 
 23 H       -0.2250    -2.4380    -0.8680 H     1 <1>   0.0800 
 24 H       -0.0140    -2.6410     0.8460 H     1 <1>   0.0800 
 25 H        0.3220     2.2850     0.6990 H     1 <1>   0.1500 
 26 H        1.2490    -4.3980    -1.1870 H     1 <1>   0.4500 
 27 H        5.0600     3.2820    -1.3630 H     1 <1>   0.0800 
 28 H        4.5680     1.6380    -1.6660 H     1 <1>   0.0800 
 29 H       -0.9850    -4.9070    -1.4400 H     1 <1>   0.0800 
 30 H       -1.2580    -4.7000     0.2870 H     1 <1>   0.0800 
 31 H        1.0660    -4.5650     1.7380 H     1 <1>   0.0800 
 32 H        2.5110    -4.7140     0.7420 H     1 <1>   0.0800 
 33 H        5.1970     1.0610     0.7070 H     1 <1>   0.0800 
 34 H        5.7170     2.7110     0.9340 H     1 <1>   0.0800 
 35 H       -0.0220     4.8460     1.0360 H     1 <1>   0.0800 
 36 H        0.8700     5.7850    -0.1430 H     1 <1>   0.0800 
 37 H        1.4670     5.6450     1.4940 H     1 <1>   0.0800 
 38 H        0.0220    -6.9790    -1.1170 H     1 <1>   0.0800 
 39 H       -0.9310    -6.9780     0.3470 H     1 <1>   0.0800 
 40 H        1.0360    -6.8590     1.5940 H     1 <1>   0.0800 
 41 H        1.9490    -6.8780     0.1050 H     1 <1>   0.0800 
 42 H        6.9280     0.7630    -1.0620 H     1 <1>   0.0800 
 43 H        7.6430     1.2470     0.4570 H     1 <1>   0.0800 
 44 H        7.4430     2.4180    -0.8200 H     1 <1>   0.0800 
@<TRIPOS>BOND
  1   1   2  2   
  2   2   3  am  
  3   2   4  1   
  4   3   5  1   
  5   3  20  1   
  6   4   6  1   
  7   4  21  1   
  8   4  22  1   
  9   5   7  1   
 10   5   8  2   
 11   6   9  1   
 12   6  23  1   
 13   6  24  1   
 14   7  10  1   
 15   7  11  1   
 16   8  12  1   
 17   8  25  1   
 18   9  13  1   
 19   9  14  1   
 20   9  26  1   
 21  10  12  2   
 22  11  15  1   
 23  11  27  1   
 24  11  28  1   
 25  12  16  1   
 26  13  17  1   
 27  13  29  1   
 28  13  30  1   
 29  14  18  1   
 30  14  31  1   
 31  14  32  1   
 32  15  19  1   
 33  15  33  1   
 34  15  34  1   
 35  16  35  1   
 36  16  36  1   
 37  16  37  1   
 38  17  18  1   
 39  17  38  1   
 40  17  39  1   
 41  18  40  1   
 42  18  41  1   
 43  19  42  1   
 44  19  43  1   
 45  19  44  1   
@<TRIPOS>SUBSTRUCTURE
  1 ****   2 GROUP 4 **** **** 0

# MOE 2024.06 (io_trps.svl 2023.06)
