@<TRIPOS>MOLECULE
NONAME
52 53 1 0 0 
SMALL
USER_CHARGES


@<TRIPOS>ATOM
  1 N        0.1070    -0.2050     0.1510 N.ar  1 <1>  -0.6200 
  2 C        0.3650    -1.4860     0.2450 C.ar  1 <1>   0.7710 
  3 C        1.1230     0.6180    -0.0350 C.ar  1 <1>   0.4100 
  4 N        1.6050    -2.0000     0.1430 N.ar  1 <1>  -0.1790 
  5 N       -0.7220    -2.2410     0.4630 N.pl3 1 <1>  -0.8690 
  6 N        0.8210     1.9390    -0.0640 N.pl3 1 <1>  -0.8380 
  7 C        2.4510     0.1440    -0.1930 C.ar  1 <1>  -0.1430 
  8 C        2.6680    -1.1910    -0.0890 C.ar  1 <1>   0.2110 
  9 C       -0.9670    -3.7210     0.5860 C.3   1 <1>   0.2090 
 10 C        1.4320     2.9280     0.8690 C.3   1 <1>   0.1290 
 11 C       -0.3620     2.4640    -0.8040 C.3   1 <1>   0.1290 
 12 C        3.6120     1.0880    -0.5080 C.3   1 <1>  -0.0970 
 13 C       -2.0870    -4.2490    -0.3610 C.3   1 <1>   0.5660 
 14 N       -3.3330    -3.3950    -0.3790 N.4   1 <1>  -0.9590 
 15 C       -2.4160    -5.7120    -0.0800 C.ar  1 <1>  -0.1430 
 16 C       -4.0430    -3.3040     0.9390 C.3   1 <1>   0.2630 
 17 C       -4.3000    -3.8960    -1.4120 C.3   1 <1>   0.2630 
 18 C       -2.4180    -6.6040    -1.1450 C.ar  1 <1>  -0.1500 
 19 C       -2.7050    -6.1920     1.1940 C.ar  1 <1>  -0.1500 
 20 C       -2.7100    -7.9410    -0.9440 C.ar  1 <1>  -0.1500 
 21 C       -2.9960    -7.5300     1.3900 C.ar  1 <1>  -0.1500 
 22 C       -3.0030    -8.4100     0.3230 C.ar  1 <1>  -0.1430 
 23 C       -3.3200    -9.8790     0.5420 C.3   1 <1>  -0.0970 
 24 H        1.7220    -3.0000     0.2630 H     1 <1>   0.4570 
 25 H       -1.5260    -1.6430     0.6890 H     1 <1>   0.4000 
 26 H        3.6480    -1.6300    -0.1910 H     1 <1>   0.1500 
 27 H       -1.2310    -3.9370     1.6070 H     1 <1>   0.0800 
 28 H       -0.0660    -4.2690     0.3730 H     1 <1>   0.0800 
 29 H        2.0690     2.4330     1.5810 H     1 <1>   0.0800 
 30 H        0.6600     3.4470     1.4120 H     1 <1>   0.0800 
 31 H        2.0110     3.6460     0.3140 H     1 <1>   0.0800 
 32 H       -0.7160     1.7340    -1.5110 H     1 <1>   0.0800 
 33 H       -0.0910     3.3570    -1.3400 H     1 <1>   0.0800 
 34 H       -1.1540     2.6940    -0.1120 H     1 <1>   0.0800 
 35 H        3.3160     1.7970    -1.2630 H     1 <1>   0.0800 
 36 H        4.4670     0.5500    -0.8760 H     1 <1>   0.0800 
 37 H        3.9080     1.6290     0.3730 H     1 <1>   0.0800 
 38 H       -1.6700    -4.2200    -1.3540 H     1 <1>   0.0800 
 39 H       -3.0430    -2.4490    -0.6660 H     1 <1>   0.4500 
 40 H       -4.4190    -4.2720     1.2290 H     1 <1>   0.0800 
 41 H       -4.8790    -2.6260     0.8660 H     1 <1>   0.0800 
 42 H       -3.3790    -2.9440     1.7080 H     1 <1>   0.0800 
 43 H       -4.6370    -4.8900    -1.1590 H     1 <1>   0.0800 
 44 H       -3.8340    -3.9300    -2.3830 H     1 <1>   0.0800 
 45 H       -5.1600    -3.2480    -1.4680 H     1 <1>   0.0800 
 46 H       -2.1920    -6.2810    -2.1480 H     1 <1>   0.1500 
 47 H       -2.7120    -5.5530     2.0590 H     1 <1>   0.1500 
 48 H       -2.7060    -8.6220    -1.7790 H     1 <1>   0.1500 
 49 H       -3.2180    -7.8910     2.3810 H     1 <1>   0.1500 
 50 H       -3.7890   -10.2980    -0.3290 H     1 <1>   0.0800 
 51 H       -3.9870   -10.0020     1.3760 H     1 <1>   0.0800 
 52 H       -2.4130   -10.4220     0.7420 H     1 <1>   0.0800 
@<TRIPOS>BOND
  1   1   2  ar  
  2   1   3  ar  
  3   2   4  ar  
  4   2   5  1   
  5   3   6  1   
  6   3   7  ar  
  7   4   8  ar  
  8   4  24  1   
  9   5   9  1   
 10   5  25  1   
 11   6  10  1   
 12   6  11  1   
 13   7   8  ar  
 14   7  12  1   
 15   8  26  1   
 16   9  13  1   
 17   9  27  1   
 18   9  28  1   
 19  10  29  1   
 20  10  30  1   
 21  10  31  1   
 22  11  32  1   
 23  11  33  1   
 24  11  34  1   
 25  12  35  1   
 26  12  36  1   
 27  12  37  1   
 28  13  14  1   
 29  13  15  1   
 30  13  38  1   
 31  14  16  1   
 32  14  17  1   
 33  14  39  1   
 34  15  18  ar  
 35  15  19  ar  
 36  16  40  1   
 37  16  41  1   
 38  16  42  1   
 39  17  43  1   
 40  17  44  1   
 41  17  45  1   
 42  18  20  ar  
 43  18  46  1   
 44  19  21  ar  
 45  19  47  1   
 46  20  22  ar  
 47  20  48  1   
 48  21  22  ar  
 49  21  49  1   
 50  22  23  1   
 51  23  50  1   
 52  23  51  1   
 53  23  52  1   
@<TRIPOS>SUBSTRUCTURE
  1 ****   5 GROUP 4 **** **** 0

# MOE 2024.06 (io_trps.svl 2023.06)
