@<TRIPOS>MOLECULE
NONAME
48 51 1 0 0 
SMALL
USER_CHARGES


@<TRIPOS>ATOM
  1 O        0.2760     0.1060     0.3130 O.2   1 <1>  -0.5700 
  2 C        1.3220    -0.5000     0.4750 C.2   1 <1>   0.7150 
  3 N        2.4510     0.2160     0.8260 N.am  1 <1>  -0.6600 
  4 C        1.3200    -1.9310     0.2820 C.2   1 <1>   0.0550 
  5 C        3.6480    -0.3770     1.4870 C.3   1 <1>   0.1400 
  6 C        2.5850     1.6620     0.5040 C.3   1 <1>   0.1400 
  7 O        2.4050    -2.6040    -0.0330 O.3   1 <1>  -0.0190 
  8 C        0.3220    -2.8410     0.3320 C.2   1 <1>  -0.1500 
  9 C        4.8750    -0.3710     0.5650 C.3   1 <1>   0.1100 
 10 C        3.3300     1.8010    -0.8260 C.3   1 <1>  -0.1600 
 11 N        2.1950    -3.8770    -0.1730 N.2   1 <1>  -0.4100 
 12 C        0.9370    -4.0480     0.0380 C.2   1 <1>   0.2030 
 13 N        5.4070     1.0000     0.4150 N.3   1 <1>  -0.8100 
 14 C        4.8640     1.7330    -0.7470 C.3   1 <1>   0.1100 
 15 C        0.2380    -5.3940    -0.0260 C.3   1 <1>  -0.0140 
 16 C        6.8940     1.0120     0.4130 C.3   1 <1>   0.2900 
 17 C        0.1500    -6.1250    -1.3310 C.3   1 <1>  -0.2000 
 18 C       -1.0840    -5.5380    -0.7200 C.3   1 <1>  -0.2000 
 19 C        7.5420     2.3960     0.5020 C.2   1 <1>   0.2980 
 20 O        8.7140     2.5710    -0.0200 O.3   1 <1>  -0.2800 
 21 N        7.0970     3.4680     1.0460 N.2   1 <1>  -0.3380 
 22 C        8.9820     3.8130     0.2200 C.2   1 <1>   0.2980 
 23 N        8.0390     4.3940     0.8580 N.2   1 <1>  -0.3380 
 24 C       10.3050     4.3930    -0.2570 C.3   1 <1>   0.0200 
 25 C       10.4860     5.8770     0.0940 C.3   1 <1>  -0.2400 
 26 H        3.4390    -1.3840     1.8000 H     1 <1>   0.0800 
 27 H        3.8770     0.1860     2.3750 H     1 <1>   0.0800 
 28 H        3.1130     2.1760     1.2900 H     1 <1>   0.0800 
 29 H        1.6100     2.1080     0.4150 H     1 <1>   0.0800 
 30 H       -0.7180    -2.6810     0.5450 H     1 <1>   0.1500 
 31 H        4.6300    -0.8000    -0.3930 H     1 <1>   0.0800 
 32 H        5.6170    -1.0000     1.0250 H     1 <1>   0.0800 
 33 H        3.0760     2.7540    -1.2530 H     1 <1>   0.0800 
 34 H        2.9720     1.0560    -1.5150 H     1 <1>   0.0800 
 35 H        5.2220     2.7480    -0.7000 H     1 <1>   0.0800 
 36 H        5.2430     1.3010    -1.6590 H     1 <1>   0.0800 
 37 H        0.4130    -5.9840     0.8560 H     1 <1>   0.1000 
 38 H        7.2450     0.5290    -0.4820 H     1 <1>   0.0800 
 39 H        7.2510     0.4470     1.2550 H     1 <1>   0.0800 
 40 H        0.2800    -7.1930    -1.3290 H     1 <1>   0.1000 
 41 H        0.5780    -5.6590    -2.2020 H     1 <1>   0.1000 
 42 H       -1.5260    -4.6790    -1.1950 H     1 <1>   0.1000 
 43 H       -1.8190    -6.2010    -0.2980 H     1 <1>   0.1000 
 44 H       10.3630     4.2710    -1.3230 H     1 <1>   0.0800 
 45 H       11.1030     3.8250     0.1870 H     1 <1>   0.0800 
 46 H        9.7030     6.4630    -0.3560 H     1 <1>   0.0800 
 47 H       11.4350     6.2320    -0.2650 H     1 <1>   0.0800 
 48 H       10.4460     6.0130     1.1610 H     1 <1>   0.0800 
@<TRIPOS>BOND
  1   1   2  2   
  2   2   3  am  
  3   2   4  1   
  4   3   5  1   
  5   3   6  1   
  6   4   7  1   
  7   4   8  2   
  8   5   9  1   
  9   5  26  1   
 10   5  27  1   
 11   6  10  1   
 12   6  28  1   
 13   6  29  1   
 14   7  11  1   
 15   8  12  1   
 16   8  30  1   
 17   9  13  1   
 18   9  31  1   
 19   9  32  1   
 20  10  14  1   
 21  10  33  1   
 22  10  34  1   
 23  11  12  2   
 24  12  15  1   
 25  13  14  1   
 26  13  16  1   
 27  14  35  1   
 28  14  36  1   
 29  15  17  1   
 30  15  18  1   
 31  15  37  1   
 32  16  19  1   
 33  16  38  1   
 34  16  39  1   
 35  17  18  1   
 36  17  40  1   
 37  17  41  1   
 38  18  42  1   
 39  18  43  1   
 40  19  20  1   
 41  19  21  2   
 42  20  22  1   
 43  21  23  1   
 44  22  23  2   
 45  22  24  1   
 46  24  25  1   
 47  24  44  1   
 48  24  45  1   
 49  25  46  1   
 50  25  47  1   
 51  25  48  1   
@<TRIPOS>SUBSTRUCTURE
  1 ****   9 GROUP 4 **** **** 0

# MOE 2024.06 (io_trps.svl 2023.06)
