@<TRIPOS>MOLECULE
NONAME
56 59 1 0 0 
SMALL
USER_CHARGES


@<TRIPOS>ATOM
  1 O       -0.7220     0.4580     0.8250 O.2   1 <1>  -0.5700 
  2 C       -1.3970     0.7100    -0.1420 C.2   1 <1>   0.5690 
  3 N       -2.3130    -0.1790    -0.6130 N.am  1 <1>  -0.7300 
  4 C       -1.1530     2.0450    -0.8600 C.3   1 <1>   0.0610 
  5 C       -2.5150    -1.5400    -0.0500 C.3   1 <1>   0.1400 
  6 C       -0.8160     3.1570     0.1730 C.3   1 <1>   0.4230 
  7 C       -2.4030     2.6690    -1.5560 C.3   1 <1>  -0.1600 
  8 C        0.0010     1.7820    -1.8770 C.3   1 <1>  -0.1600 
  9 C       -3.5210    -1.5010     1.1030 C.3   1 <1>   0.0200 
 10 N       -1.1390     4.3580    -0.6340 N.4   1 <1>  -0.9590 
 11 C       -1.8730     3.2490     1.2930 C.3   1 <1>  -0.1600 
 12 C       -2.5570     4.0320    -0.8620 C.3   1 <1>   0.4230 
 13 C        0.5760     2.9530    -2.6970 C.3   1 <1>  -0.2400 
 14 C       -3.8290    -2.8910     1.6420 C.2   1 <1>  -0.3320 
 15 C       -0.6860     5.7380    -0.2290 C.3   1 <1>   0.4230 
 16 C       -3.1090     3.7670     0.5470 C.3   1 <1>  -0.1600 
 17 N       -4.6490    -3.1000     2.6900 N.pl3 1 <1>   0.0330 
 18 C       -3.4060    -4.1170     1.2520 C.2   1 <1>   0.0770 
 19 C        0.7080     5.6980     0.4020 C.3   1 <1>  -0.1600 
 20 C       -1.6470     6.5590     0.6380 C.3   1 <1>  -0.1600 
 21 C       -4.6730    -4.4370     2.8640 C.2   1 <1>   0.0360 
 22 N       -3.9410    -5.0850     2.0200 N.2   1 <1>  -0.5650 
 23 C        1.1750     7.1210     0.7160 C.3   1 <1>   0.1200 
 24 C       -1.0290     7.9290     0.9230 C.3   1 <1>   0.1200 
 25 O        0.2150     7.7360     1.5130 O.3   1 <1>  -0.5600 
 26 H       -2.8190     0.0010    -1.4820 H     1 <1>   0.3700 
 27 H       -2.8730    -2.1950    -0.8260 H     1 <1>   0.0800 
 28 H       -1.5760    -1.9260     0.3110 H     1 <1>   0.0800 
 29 H        0.2000     3.1090     0.5290 H     1 <1>   0.0800 
 30 H       -3.2970     2.0840    -1.4330 H     1 <1>   0.0800 
 31 H       -2.2560     2.8080    -2.6110 H     1 <1>   0.0800 
 32 H        0.8230     1.3360    -1.3400 H     1 <1>   0.0800 
 33 H       -0.3370     1.0330    -2.5740 H     1 <1>   0.0800 
 34 H       -4.4360    -1.0510     0.7610 H     1 <1>   0.0800 
 35 H       -3.1130    -0.9000     1.8980 H     1 <1>   0.0800 
 36 H       -0.6670     4.1840    -1.5270 H     1 <1>   0.4500 
 37 H       -2.0660     2.3160     1.7910 H     1 <1>   0.0800 
 38 H       -1.5440     3.9420     2.0450 H     1 <1>   0.0800 
 39 H       -3.1060     4.7630    -1.4360 H     1 <1>   0.0800 
 40 H        1.0870     3.6600    -2.0700 H     1 <1>   0.0800 
 41 H       -0.1770     3.4500    -3.2830 H     1 <1>   0.0800 
 42 H        1.3070     2.5640    -3.3870 H     1 <1>   0.0800 
 43 H       -0.5830     6.3050    -1.1410 H     1 <1>   0.0800 
 44 H       -3.5050     4.6570     0.9980 H     1 <1>   0.0800 
 45 H       -3.8990     3.0360     0.5330 H     1 <1>   0.0800 
 46 H       -5.1500    -2.4010     3.2470 H     1 <1>   0.2700 
 47 H       -2.7340    -4.3690     0.4480 H     1 <1>   0.1500 
 48 H        1.4160     5.2440    -0.2660 H     1 <1>   0.0800 
 49 H        0.6950     5.1480     1.3260 H     1 <1>   0.0800 
 50 H       -1.8200     6.0920     1.5870 H     1 <1>   0.0800 
 51 H       -2.5830     6.7080     0.1320 H     1 <1>   0.0800 
 52 H       -5.2540    -4.9030     3.6410 H     1 <1>   0.1500 
 53 H        1.3140     7.7090    -0.1760 H     1 <1>   0.0800 
 54 H        2.0990     7.1050     1.2700 H     1 <1>   0.0800 
 55 H       -1.6380     8.4840     1.6180 H     1 <1>   0.0800 
 56 H       -0.9030     8.5140     0.0260 H     1 <1>   0.0800 
@<TRIPOS>BOND
  1   1   2  2   
  2   2   3  am  
  3   2   4  1   
  4   3   5  1   
  5   3  26  1   
  6   4   6  1   
  7   4   7  1   
  8   4   8  1   
  9   5   9  1   
 10   5  27  1   
 11   5  28  1   
 12   6  10  1   
 13   6  11  1   
 14   6  29  1   
 15   7  12  1   
 16   7  30  1   
 17   7  31  1   
 18   8  13  1   
 19   8  32  1   
 20   8  33  1   
 21   9  14  1   
 22   9  34  1   
 23   9  35  1   
 24  10  12  1   
 25  10  15  1   
 26  10  36  1   
 27  11  16  1   
 28  11  37  1   
 29  11  38  1   
 30  12  16  1   
 31  12  39  1   
 32  13  40  1   
 33  13  41  1   
 34  13  42  1   
 35  14  17  1   
 36  14  18  2   
 37  15  19  1   
 38  15  20  1   
 39  15  43  1   
 40  16  44  1   
 41  16  45  1   
 42  17  21  1   
 43  17  46  1   
 44  18  22  1   
 45  18  47  1   
 46  19  23  1   
 47  19  48  1   
 48  19  49  1   
 49  20  24  1   
 50  20  50  1   
 51  20  51  1   
 52  21  22  2   
 53  21  52  1   
 54  23  25  1   
 55  23  53  1   
 56  23  54  1   
 57  24  25  1   
 58  24  55  1   
 59  24  56  1   
@<TRIPOS>SUBSTRUCTURE
  1 ****   2 GROUP 4 **** **** 0

# MOE 2024.06 (io_trps.svl 2023.06)
