@<TRIPOS>MOLECULE
NONAME
44 45 1 0 0 
SMALL
USER_CHARGES


@<TRIPOS>ATOM
  1 O        1.7070    -0.5460     4.3870 O.3   1 <1>  -0.6800 
  2 C        1.7330    -0.8080     3.0290 C.3   1 <1>   0.1200 
  3 C        3.1810    -0.6380     2.5460 C.3   1 <1>   0.3430 
  4 N        3.3550    -1.0690     1.1250 N.4   1 <1>  -0.9590 
  5 C        3.2760    -2.5440     0.9470 C.3   1 <1>   0.5240 
  6 C        4.5530    -0.5110     0.4480 C.3   1 <1>   0.3430 
  7 C        2.5480    -2.7700    -0.3680 C.2   1 <1>   0.0460 
  8 C        4.3640     0.9830     0.1890 C.3   1 <1>  -0.1600 
  9 N        1.5270    -1.9540    -0.7120 N.2   1 <1>  -0.5650 
 10 C        2.7660    -3.6970    -1.3270 C.2   1 <1>  -0.3020 
 11 C        5.5320     1.5540    -0.6220 C.3   1 <1>  -0.0170 
 12 C        1.1410    -2.4050    -1.8610 C.2   1 <1>   0.0060 
 13 N        1.8560    -3.4670    -2.2920 N.pl3 1 <1>   0.0330 
 14 C        5.3260     3.0420    -0.8400 C.ar  1 <1>  -0.1440 
 15 C       -0.0020    -1.8140    -2.6600 C.3   1 <1>  -0.0600 
 16 C        4.6220     3.4970    -1.9440 C.ar  1 <1>  -0.1500 
 17 C        5.8350     3.9600     0.0670 C.ar  1 <1>  -0.1500 
 18 C        4.4280     4.8530    -2.1400 C.ar  1 <1>  -0.1500 
 19 C        5.6420     5.3160    -0.1280 C.ar  1 <1>  -0.1500 
 20 C        4.9380     5.7640    -1.2320 C.ar  1 <1>  -0.1500 
 21 H        0.7950    -0.5870     4.7450 H     1 <1>   0.4000 
 22 H        1.0810    -0.1060     2.5360 H     1 <1>   0.0800 
 23 H        1.3760    -1.8120     2.8820 H     1 <1>   0.0800 
 24 H        3.8350    -1.2120     3.1820 H     1 <1>   0.0800 
 25 H        3.4400     0.4020     2.6470 H     1 <1>   0.0800 
 26 H        2.5320    -0.7610     0.5680 H     1 <1>   0.4500 
 27 H        2.6960    -2.9870     1.7390 H     1 <1>   0.0800 
 28 H        4.2550    -2.9930     0.9310 H     1 <1>   0.0800 
 29 H        4.6900    -1.0060    -0.5010 H     1 <1>   0.0800 
 30 H        5.4330    -0.6760     1.0490 H     1 <1>   0.0800 
 31 H        4.3030     1.5210     1.1180 H     1 <1>   0.0800 
 32 H        3.4540     1.1430    -0.3630 H     1 <1>   0.0800 
 33 H        3.4900    -4.4910    -1.3870 H     1 <1>   0.1500 
 34 H        5.6010     1.0610    -1.5770 H     1 <1>   0.0800 
 35 H        6.4620     1.3970    -0.1030 H     1 <1>   0.0800 
 36 H        1.7200    -3.9850    -3.1680 H     1 <1>   0.2700 
 37 H       -0.4290    -0.9800    -2.1320 H     1 <1>   0.0800 
 38 H       -0.7690    -2.5520    -2.8110 H     1 <1>   0.0800 
 39 H        0.3510    -1.4710    -3.6160 H     1 <1>   0.0800 
 40 H        4.2200     2.8010    -2.6600 H     1 <1>   0.1500 
 41 H        6.3860     3.6280     0.9280 H     1 <1>   0.1500 
 42 H        3.8820     5.2010    -3.0000 H     1 <1>   0.1500 
 43 H        6.0390     6.0240     0.5780 H     1 <1>   0.1500 
 44 H        4.7880     6.8180    -1.3840 H     1 <1>   0.1500 
@<TRIPOS>BOND
  1   1   2  1   
  2   1  21  1   
  3   2   3  1   
  4   2  22  1   
  5   2  23  1   
  6   3   4  1   
  7   3  24  1   
  8   3  25  1   
  9   4   5  1   
 10   4   6  1   
 11   4  26  1   
 12   5   7  1   
 13   5  27  1   
 14   5  28  1   
 15   6   8  1   
 16   6  29  1   
 17   6  30  1   
 18   7   9  1   
 19   7  10  2   
 20   8  11  1   
 21   8  31  1   
 22   8  32  1   
 23   9  12  2   
 24  10  13  1   
 25  10  33  1   
 26  11  14  1   
 27  11  34  1   
 28  11  35  1   
 29  12  13  1   
 30  12  15  1   
 31  13  36  1   
 32  14  16  ar  
 33  14  17  ar  
 34  15  37  1   
 35  15  38  1   
 36  15  39  1   
 37  16  18  ar  
 38  16  40  1   
 39  17  19  ar  
 40  17  41  1   
 41  18  20  ar  
 42  18  42  1   
 43  19  20  ar  
 44  19  43  1   
 45  20  44  1   
@<TRIPOS>SUBSTRUCTURE
  1 ****   8 GROUP 4 **** **** 0

# MOE 2024.06 (io_trps.svl 2023.06)
