@<TRIPOS>MOLECULE
NONAME
34 35 1 0 0 
SMALL
USER_CHARGES


@<TRIPOS>ATOM
  1 O        0.4540    -0.4290     1.2450 O.2   1 <1>  -0.5700 
  2 C        1.3110    -0.7460     0.4430 C.2   1 <1>   0.7160 
  3 N        2.2130     0.1760    -0.0060 N.am  1 <1>  -0.4930 
  4 C        1.3800    -2.0890    -0.0710 C.2   1 <1>  -0.0860 
  5 C        2.3850     1.5310     0.3710 C.2   1 <1>   0.0630 
  6 C        2.4260    -2.8910    -0.3700 C.2   1 <1>  -0.0400 
  7 C        0.3120    -2.9090    -0.4030 C.2   1 <1>   0.1080 
  8 C        1.7300     2.2750     1.3540 C.2   1 <1>   0.1390 
  9 C        3.2630     2.3970    -0.1750 C.2   1 <1>  -0.3020 
 10 O        2.0410    -4.0480    -0.8530 O.3   1 <1>  -0.0190 
 11 C        3.9200    -2.6700    -0.2140 C.3   1 <1>  -0.0600 
 12 N        0.7290    -4.0290    -0.8580 N.2   1 <1>  -0.4100 
 13 C       -1.1560    -2.5610    -0.2630 C.3   1 <1>  -0.0590 
 14 N        2.1610     3.4990     1.4160 N.2   1 <1>  -0.7070 
 15 N        3.1130     3.5800     0.4670 N.pl3 1 <1>   0.3140 
 16 C        3.8580     4.8450     0.2170 C.3   1 <1>   0.1760 
 17 C        3.6100     5.3500    -1.2110 C.3   1 <1>  -0.2400 
 18 C        5.3580     4.6550     0.4810 C.3   1 <1>  -0.2400 
 19 H        2.8160    -0.1410    -0.7610 H     1 <1>   0.3700 
 20 H        0.9540     1.8870     1.9920 H     1 <1>   0.1500 
 21 H        3.9720     2.2520    -0.9670 H     1 <1>   0.1500 
 22 H        4.1290    -1.7520     0.3040 H     1 <1>   0.0800 
 23 H        4.3890    -2.6480    -1.1810 H     1 <1>   0.0800 
 24 H        4.3430    -3.4800     0.3530 H     1 <1>   0.0800 
 25 H       -1.3670    -1.6390    -0.7730 H     1 <1>   0.0800 
 26 H       -1.4070    -2.4510     0.7760 H     1 <1>   0.0800 
 27 H       -1.7640    -3.3400    -0.6870 H     1 <1>   0.0800 
 28 H        3.4790     5.5760     0.9100 H     1 <1>   0.0800 
 29 H        3.9910     4.6550    -1.9370 H     1 <1>   0.0800 
 30 H        4.0980     6.2970    -1.3550 H     1 <1>   0.0800 
 31 H        2.5550     5.4870    -1.3710 H     1 <1>   0.0800 
 32 H        5.7820     3.9430    -0.2040 H     1 <1>   0.0800 
 33 H        5.5110     4.3110     1.4890 H     1 <1>   0.0800 
 34 H        5.8730     5.5910     0.3630 H     1 <1>   0.0800 
@<TRIPOS>BOND
  1   1   2  2   
  2   2   3  am  
  3   2   4  1   
  4   3   5  1   
  5   3  19  1   
  6   4   6  2   
  7   4   7  1   
  8   5   8  1   
  9   5   9  2   
 10   6  10  1   
 11   6  11  1   
 12   7  12  2   
 13   7  13  1   
 14   8  14  2   
 15   8  20  1   
 16   9  15  1   
 17   9  21  1   
 18  10  12  1   
 19  11  22  1   
 20  11  23  1   
 21  11  24  1   
 22  13  25  1   
 23  13  26  1   
 24  13  27  1   
 25  14  15  1   
 26  15  16  1   
 27  16  17  1   
 28  16  18  1   
 29  16  28  1   
 30  17  29  1   
 31  17  30  1   
 32  17  31  1   
 33  18  32  1   
 34  18  33  1   
 35  18  34  1   
@<TRIPOS>SUBSTRUCTURE
  1 ****   3 GROUP 4 **** **** 0

# MOE 2024.06 (io_trps.svl 2023.06)
