@<TRIPOS>MOLECULE
NONAME
52 54 1 0 0 
SMALL
USER_CHARGES


@<TRIPOS>ATOM
  1 O       -1.9040     0.1350     2.5270 O.2   1 <1>  -0.5700 
  2 C       -1.8970     0.9370     1.6240 C.2   1 <1>   0.5690 
  3 N       -2.0810     0.5580     0.3190 N.am  1 <1>  -0.6600 
  4 C       -1.6760     2.3980     1.9970 C.3   1 <1>   0.0440 
  5 C       -2.1870    -0.9000    -0.0350 C.3   1 <1>   0.3640 
  6 C       -2.1740     1.5250    -0.8220 C.3   1 <1>   0.1400 
  7 C       -0.3980     2.9820     1.3990 C.ar  1 <1>  -0.1440 
  8 C       -0.8250    -1.4970    -0.4320 C.ar  1 <1>  -0.1440 
  9 C       -3.2550    -1.1640    -1.1450 C.3   1 <1>   0.2000 
 10 C       -2.4970     0.8360    -2.1550 C.3   1 <1>   0.1200 
 11 C       -0.4240     4.2030     0.7410 C.ar  1 <1>  -0.1500 
 12 C        0.8010     2.2900     1.5010 C.ar  1 <1>  -0.1500 
 13 C        0.3030    -0.7370    -0.7250 C.ar  1 <1>  -0.1500 
 14 C       -0.7180    -2.8810    -0.4890 C.ar  1 <1>  -0.1500 
 15 O       -3.5490    -0.0540    -1.9650 O.3   1 <1>  -0.5600 
 16 C       -4.5860    -1.6260    -0.5400 C.3   1 <1>   0.1200 
 17 C        0.7260     4.7280     0.1760 C.ar  1 <1>   0.0830 
 18 C        1.9600     2.8150     0.9550 C.ar  1 <1>  -0.1500 
 19 C        1.4940    -1.3440    -1.0840 C.ar  1 <1>  -0.1500 
 20 C        0.4710    -3.4910    -0.8480 C.ar  1 <1>  -0.1500 
 21 O       -4.4640    -2.9220    -0.0460 O.3   1 <1>  -0.6800 
 22 O        0.6030     5.9060    -0.4870 O.3   1 <1>  -0.3630 
 23 C        1.9360     4.0370     0.3070 C.ar  1 <1>   0.0830 
 24 C        1.5790    -2.7220    -1.1490 C.ar  1 <1>  -0.1500 
 25 C        0.9900     5.9290    -1.8440 C.3   1 <1>   0.0400 
 26 O        3.1110     4.5170    -0.1670 O.3   1 <1>  -0.3630 
 27 C        3.6390     5.6320     0.5180 C.3   1 <1>   0.0400 
 28 H       -2.5330     2.9630     1.6860 H     1 <1>   0.0800 
 29 H       -1.6150     2.4720     3.0670 H     1 <1>   0.0800 
 30 H       -2.4960    -1.4440     0.8420 H     1 <1>   0.0800 
 31 H       -2.9480     2.2430    -0.6130 H     1 <1>   0.0800 
 32 H       -1.2450     2.0570    -0.9270 H     1 <1>   0.0800 
 33 H       -2.9010    -1.9360    -1.8030 H     1 <1>   0.0800 
 34 H       -1.6460     0.2970    -2.5360 H     1 <1>   0.0800 
 35 H       -2.8020     1.5620    -2.8860 H     1 <1>   0.0800 
 36 H       -1.3390     4.7610     0.6520 H     1 <1>   0.1500 
 37 H        0.8380     1.3380     2.0060 H     1 <1>   0.1500 
 38 H        0.2800     0.3350    -0.6710 H     1 <1>   0.1500 
 39 H       -1.5670    -3.4980    -0.2460 H     1 <1>   0.1500 
 40 H       -5.3630    -1.6240    -1.2840 H     1 <1>   0.0800 
 41 H       -4.8650    -0.9830     0.2760 H     1 <1>   0.0800 
 42 H        2.8880     2.2800     1.0390 H     1 <1>   0.1500 
 43 H        2.3560    -0.7400    -1.3090 H     1 <1>   0.1500 
 44 H        0.5350    -4.5650    -0.8890 H     1 <1>   0.1500 
 45 H       -4.5260    -3.5750    -0.7710 H     1 <1>   0.4000 
 46 H        2.5050    -3.1930    -1.4290 H     1 <1>   0.1500 
 47 H        0.6100     6.8330    -2.2860 H     1 <1>   0.0800 
 48 H        0.5730     5.0720    -2.3420 H     1 <1>   0.0800 
 49 H        2.0620     5.9170    -1.9110 H     1 <1>   0.0800 
 50 H        4.5820     5.8870     0.0710 H     1 <1>   0.0800 
 51 H        3.7780     5.3690     1.5520 H     1 <1>   0.0800 
 52 H        2.9550     6.4580     0.4320 H     1 <1>   0.0800 
@<TRIPOS>BOND
  1   1   2  2   
  2   2   3  am  
  3   2   4  1   
  4   3   5  1   
  5   3   6  1   
  6   4   7  1   
  7   4  28  1   
  8   4  29  1   
  9   5   8  1   
 10   5   9  1   
 11   5  30  1   
 12   6  10  1   
 13   6  31  1   
 14   6  32  1   
 15   7  11  ar  
 16   7  12  ar  
 17   8  13  ar  
 18   8  14  ar  
 19   9  15  1   
 20   9  16  1   
 21   9  33  1   
 22  10  15  1   
 23  10  34  1   
 24  10  35  1   
 25  11  17  ar  
 26  11  36  1   
 27  12  18  ar  
 28  12  37  1   
 29  13  19  ar  
 30  13  38  1   
 31  14  20  ar  
 32  14  39  1   
 33  16  21  1   
 34  16  40  1   
 35  16  41  1   
 36  17  22  1   
 37  17  23  ar  
 38  18  23  ar  
 39  18  42  1   
 40  19  24  ar  
 41  19  43  1   
 42  20  24  ar  
 43  20  44  1   
 44  21  45  1   
 45  22  25  1   
 46  23  26  1   
 47  24  46  1   
 48  25  47  1   
 49  25  48  1   
 50  25  49  1   
 51  26  27  1   
 52  27  50  1   
 53  27  51  1   
 54  27  52  1   
@<TRIPOS>SUBSTRUCTURE
  1 ****   3 GROUP 4 **** **** 0

# MOE 2024.06 (io_trps.svl 2023.06)
