@<TRIPOS>MOLECULE
NONAME
45 46 1 0 0 
SMALL
USER_CHARGES


@<TRIPOS>ATOM
  1 S        0.4160     0.3350     0.3730 S.o2  1 <1>   1.3330 
  2 O        0.4980    -0.9080     1.1090 O.2   1 <1>  -0.6500 
  3 O        0.0900     1.5580     1.0700 O.2   1 <1>  -0.6500 
  4 N       -0.7090     0.1170    -0.8810 N.am  1 <1>  -0.8490 
  5 C        1.9560     0.5920    -0.5040 C.3   1 <1>  -0.0550 
  6 C       -0.7480    -1.2530    -1.4010 C.3   1 <1>   0.1160 
  7 C       -2.0570     0.5450    -0.4980 C.3   1 <1>   0.1160 
  8 C        3.1440     0.8570     0.4360 C.3   1 <1>  -0.0800 
  9 C        4.4190     1.1990    -0.3280 C.3   1 <1>   0.2200 
 10 C        3.5510    -0.3360     1.3000 C.3   1 <1>   0.1200 
 11 N        4.7390     2.6250    -0.1110 N.am  1 <1>  -0.7300 
 12 C        5.4770     0.2780     0.2810 C.3   1 <1>   0.1200 
 13 O        4.9250    -0.2070     1.4620 O.3   1 <1>  -0.5600 
 14 C        4.2200     3.6390    -0.8630 C.2   1 <1>   0.5440 
 15 O        3.5870     3.3570    -1.8610 O.2   1 <1>  -0.5700 
 16 C        4.3640     5.0160    -0.4340 C.ar  1 <1>   0.0860 
 17 C        5.6070     5.6390    -0.2450 C.ar  1 <1>  -0.1440 
 18 C        3.2110     5.7560    -0.1800 C.ar  1 <1>  -0.1500 
 19 C        5.6710     6.9480     0.2060 C.ar  1 <1>  -0.1500 
 20 C        6.9110     4.9070    -0.5420 C.3   1 <1>  -0.0970 
 21 C        3.2870     7.0610     0.2660 C.ar  1 <1>   0.0820 
 22 C        4.5150     7.6610     0.4650 C.ar  1 <1>  -0.1500 
 23 O        2.1690     7.7590     0.5130 O.3   1 <1>  -0.5330 
 24 H        2.1690    -0.2600    -1.1180 H     1 <1>   0.0800 
 25 H        1.8390     1.4400    -1.1510 H     1 <1>   0.0800 
 26 H       -1.4100    -1.3070    -2.2490 H     1 <1>   0.0800 
 27 H       -1.0960    -1.9350    -0.6410 H     1 <1>   0.0800 
 28 H        0.2330    -1.5600    -1.7170 H     1 <1>   0.0800 
 29 H       -2.7400     0.4090    -1.3200 H     1 <1>   0.0800 
 30 H       -2.0520     1.5900    -0.2350 H     1 <1>   0.0800 
 31 H       -2.4040    -0.0230     0.3500 H     1 <1>   0.0800 
 32 H        2.8830     1.6630     1.1010 H     1 <1>   0.0800 
 33 H        4.3320     1.0020    -1.3840 H     1 <1>   0.0800 
 34 H        3.3600    -1.2750     0.8070 H     1 <1>   0.0800 
 35 H        3.0770    -0.3280     2.2670 H     1 <1>   0.0800 
 36 H        5.1180     2.8450     0.8120 H     1 <1>   0.3700 
 37 H        6.4000     0.7850     0.4990 H     1 <1>   0.0800 
 38 H        5.6610    -0.5640    -0.3630 H     1 <1>   0.0800 
 39 H        2.2540     5.2910    -0.3370 H     1 <1>   0.1500 
 40 H        6.6220     7.4280     0.3580 H     1 <1>   0.1500 
 41 H        7.7280     5.6010    -0.6330 H     1 <1>   0.0800 
 42 H        6.8340     4.3640    -1.4670 H     1 <1>   0.0800 
 43 H        7.1370     4.2170     0.2510 H     1 <1>   0.0800 
 44 H        4.5580     8.6770     0.8160 H     1 <1>   0.1500 
 45 H        1.3550     7.2520     0.3380 H     1 <1>   0.4500 
@<TRIPOS>BOND
  1   1   2  2   
  2   1   3  2   
  3   1   4  am  
  4   1   5  1   
  5   4   6  1   
  6   4   7  1   
  7   5   8  1   
  8   5  24  1   
  9   5  25  1   
 10   6  26  1   
 11   6  27  1   
 12   6  28  1   
 13   7  29  1   
 14   7  30  1   
 15   7  31  1   
 16   8   9  1   
 17   8  10  1   
 18   8  32  1   
 19   9  11  1   
 20   9  12  1   
 21   9  33  1   
 22  10  13  1   
 23  10  34  1   
 24  10  35  1   
 25  11  14  am  
 26  11  36  1   
 27  12  13  1   
 28  12  37  1   
 29  12  38  1   
 30  14  15  2   
 31  14  16  1   
 32  16  17  ar  
 33  16  18  ar  
 34  17  19  ar  
 35  17  20  1   
 36  18  21  ar  
 37  18  39  1   
 38  19  22  ar  
 39  19  40  1   
 40  20  41  1   
 41  20  42  1   
 42  20  43  1   
 43  21  22  ar  
 44  21  23  1   
 45  22  44  1   
 46  23  45  1   
@<TRIPOS>SUBSTRUCTURE
  1 ****  14 GROUP 4 **** **** 0

# MOE 2024.06 (io_trps.svl 2023.06)
