@<TRIPOS>MOLECULE
NONAME
47 48 1 0 0 
SMALL
USER_CHARGES


@<TRIPOS>ATOM
  1 O       -0.9130    -1.5470    -0.5500 O.2   1 <1>  -0.5700 
  2 C       -1.6960    -0.7600    -0.0880 C.2   1 <1>   0.4230 
  3 C       -3.1160    -0.9800    -0.1130 C.ar  1 <1>   0.0860 
  4 C       -1.1080     0.4590     0.5960 C.3   1 <1>  -0.1790 
  5 C       -4.0940    -0.0330    -0.4050 C.ar  1 <1>   0.1660 
  6 C       -3.6020    -2.2420     0.1790 C.ar  1 <1>   0.1600 
  7 N       -5.3720    -0.3040    -0.3430 N.ar  1 <1>  -0.6200 
  8 C       -3.7640     1.3840    -0.8470 C.3   1 <1>  -0.0960 
  9 N       -4.8750    -2.5380     0.2380 N.ar  1 <1>  -0.6200 
 10 C       -5.7270    -1.5480    -0.0190 C.ar  1 <1>   0.7200 
 11 N       -7.0710    -1.8250     0.0510 N.pl3 1 <1>  -0.8380 
 12 C       -7.5960    -3.1210     0.5580 C.3   1 <1>   0.2090 
 13 C       -8.1030    -0.8250    -0.3470 C.3   1 <1>   0.1290 
 14 C       -7.8600    -4.0630    -0.6160 C.3   1 <1>  -0.1600 
 15 C       -8.3660    -5.4140    -0.1160 C.3   1 <1>   0.1200 
 16 O       -8.6620    -6.2170    -1.2350 O.3   1 <1>  -0.3630 
 17 C       -8.6690    -7.5760    -1.1290 C.ar  1 <1>   0.0830 
 18 C       -9.1340    -8.3000    -0.0180 C.ar  1 <1>   0.0830 
 19 C       -8.1770    -8.2540    -2.2320 C.ar  1 <1>  -0.1500 
 20 O       -9.6600    -7.6370     1.0540 O.3   1 <1>  -0.3630 
 21 C       -9.0610    -9.6920    -0.0460 C.ar  1 <1>  -0.1500 
 22 C       -8.1180    -9.6350    -2.2490 C.ar  1 <1>  -0.1500 
 23 C      -10.3300    -8.3140     2.0950 C.3   1 <1>   0.0400 
 24 C       -8.5580   -10.3540    -1.1530 C.ar  1 <1>  -0.1500 
 25 H       -1.8130     0.8930     1.2800 H     1 <1>   0.0800 
 26 H       -0.8180     1.1860    -0.1390 H     1 <1>   0.0800 
 27 H       -0.2340     0.1670     1.1490 H     1 <1>   0.0800 
 28 H       -2.8970    -3.0320     0.3770 H     1 <1>   0.1500 
 29 H       -2.8760     1.4020    -1.4500 H     1 <1>   0.0800 
 30 H       -3.6370     2.0170     0.0120 H     1 <1>   0.0800 
 31 H       -4.5700     1.7790    -1.4400 H     1 <1>   0.0800 
 32 H       -8.5070    -2.9480     1.1070 H     1 <1>   0.0800 
 33 H       -6.8900    -3.5700     1.2360 H     1 <1>   0.0800 
 34 H       -7.7760    -0.2800    -1.2170 H     1 <1>   0.0800 
 35 H       -8.2620    -0.1320     0.4600 H     1 <1>   0.0800 
 36 H       -9.0320    -1.3130    -0.5840 H     1 <1>   0.0800 
 37 H       -6.9440    -4.2100    -1.1590 H     1 <1>   0.0800 
 38 H       -8.5960    -3.6280    -1.2670 H     1 <1>   0.0800 
 39 H       -9.2690    -5.2930     0.4550 H     1 <1>   0.0800 
 40 H       -7.6150    -5.9100     0.4750 H     1 <1>   0.0800 
 41 H       -7.8360    -7.6880    -3.0800 H     1 <1>   0.1500 
 42 H       -9.3920   -10.2860     0.7840 H     1 <1>   0.1500 
 43 H       -7.7290   -10.1460    -3.1120 H     1 <1>   0.1500 
 44 H      -10.7290    -7.5780     2.7690 H     1 <1>   0.0800 
 45 H       -9.6270    -8.9400     2.6140 H     1 <1>   0.0800 
 46 H      -11.1310    -8.8950     1.6740 H     1 <1>   0.0800 
 47 H       -8.5090   -11.4290    -1.1620 H     1 <1>   0.1500 
@<TRIPOS>BOND
  1   1   2  2   
  2   2   3  1   
  3   2   4  1   
  4   3   5  ar  
  5   3   6  ar  
  6   4  25  1   
  7   4  26  1   
  8   4  27  1   
  9   5   7  ar  
 10   5   8  1   
 11   6   9  ar  
 12   6  28  1   
 13   7  10  ar  
 14   8  29  1   
 15   8  30  1   
 16   8  31  1   
 17   9  10  ar  
 18  10  11  1   
 19  11  12  1   
 20  11  13  1   
 21  12  14  1   
 22  12  32  1   
 23  12  33  1   
 24  13  34  1   
 25  13  35  1   
 26  13  36  1   
 27  14  15  1   
 28  14  37  1   
 29  14  38  1   
 30  15  16  1   
 31  15  39  1   
 32  15  40  1   
 33  16  17  1   
 34  17  18  ar  
 35  17  19  ar  
 36  18  20  1   
 37  18  21  ar  
 38  19  22  ar  
 39  19  41  1   
 40  20  23  1   
 41  21  24  ar  
 42  21  42  1   
 43  22  24  ar  
 44  22  43  1   
 45  23  44  1   
 46  23  45  1   
 47  23  46  1   
 48  24  47  1   
@<TRIPOS>SUBSTRUCTURE
  1 ****  14 GROUP 4 **** **** 0

# MOE 2024.06 (io_trps.svl 2023.06)
