@<TRIPOS>MOLECULE
NONAME
34 35 1 0 0 
SMALL
USER_CHARGES


@<TRIPOS>ATOM
  1 N        0.0180    -0.1170    -0.2560 N.ar  1 <1>  -0.6200 
  2 C        1.2260    -0.6150    -0.0820 C.ar  1 <1>   0.4100 
  3 C       -0.9830    -0.9530    -0.0700 C.ar  1 <1>   0.4760 
  4 N        2.2840     0.2380    -0.2960 N.pl3 1 <1>  -0.8380 
  5 C        1.4140    -1.9400     0.2940 C.ar  1 <1>  -0.1440 
  6 N       -0.9280    -2.2240     0.2780 N.ar  1 <1>  -0.6200 
  7 C       -2.3680    -0.3900    -0.2730 C.3   1 <1>  -0.0970 
  8 C        2.1710     1.6280     0.2160 C.3   1 <1>   0.3900 
  9 C        3.0590     0.1000    -1.5580 C.3   1 <1>   0.1290 
 10 C        0.2870    -2.7020     0.4580 C.ar  1 <1>   0.1600 
 11 C        2.8000    -2.5280     0.5320 C.3   1 <1>  -0.0960 
 12 C        3.5530     2.2070     0.4640 C.2   1 <1>  -0.1810 
 13 C        4.1510     3.3230    -0.0150 C.2   1 <1>  -0.3320 
 14 C        4.5040     1.6240     1.2930 C.2   1 <1>   0.1390 
 15 N        5.3860     3.3580     0.5320 N.pl3 1 <1>   0.3000 
 16 C        3.6340     4.3840    -0.9720 C.3   1 <1>  -0.0600 
 17 N        5.6070     2.3070     1.3420 N.2   1 <1>  -0.7070 
 18 H       -2.3190     0.5660    -0.7600 H     1 <1>   0.0800 
 19 H       -2.8470    -0.2760     0.6810 H     1 <1>   0.0800 
 20 H       -2.9450    -1.0620    -0.8800 H     1 <1>   0.0800 
 21 H        1.6160     1.6250     1.1390 H     1 <1>   0.0800 
 22 H        1.6330     2.2260    -0.4970 H     1 <1>   0.0800 
 23 H        2.8220    -0.8320    -2.0420 H     1 <1>   0.0800 
 24 H        4.1130     0.1240    -1.3410 H     1 <1>   0.0800 
 25 H        2.8180     0.9060    -2.2290 H     1 <1>   0.0800 
 26 H        0.3710    -3.7350     0.7480 H     1 <1>   0.1500 
 27 H        3.3840    -1.8560     1.1360 H     1 <1>   0.0800 
 28 H        3.3030    -2.6720    -0.4070 H     1 <1>   0.0800 
 29 H        2.7370    -3.4730     1.0390 H     1 <1>   0.0800 
 30 H        4.3460     0.7050     1.8330 H     1 <1>   0.1500 
 31 H        6.0980     4.0810     0.3750 H     1 <1>   0.2700 
 32 H        2.6330     4.1560    -1.2880 H     1 <1>   0.0800 
 33 H        4.2620     4.4340    -1.8430 H     1 <1>   0.0800 
 34 H        3.6280     5.3460    -0.4900 H     1 <1>   0.0800 
@<TRIPOS>BOND
  1   1   2  ar  
  2   1   3  ar  
  3   2   4  1   
  4   2   5  ar  
  5   3   6  ar  
  6   3   7  1   
  7   4   8  1   
  8   4   9  1   
  9   5  10  ar  
 10   5  11  1   
 11   6  10  ar  
 12   7  18  1   
 13   7  19  1   
 14   7  20  1   
 15   8  12  1   
 16   8  21  1   
 17   8  22  1   
 18   9  23  1   
 19   9  24  1   
 20   9  25  1   
 21  10  26  1   
 22  11  27  1   
 23  11  28  1   
 24  11  29  1   
 25  12  13  2   
 26  12  14  1   
 27  13  15  1   
 28  13  16  1   
 29  14  17  2   
 30  14  30  1   
 31  15  17  1   
 32  15  31  1   
 33  16  32  1   
 34  16  33  1   
 35  16  34  1   
@<TRIPOS>SUBSTRUCTURE
  1 ****   4 GROUP 4 **** **** 0

# MOE 2024.06 (io_trps.svl 2023.06)
