@<TRIPOS>MOLECULE
NONAME
50 52 1 0 0 
SMALL
USER_CHARGES


@<TRIPOS>ATOM
  1 N        0.2990    -0.4930    -0.8760 N.ar  1 <1>  -0.6200 
  2 C        1.1610     0.3450    -0.3200 C.ar  1 <1>   0.7710 
  3 C        0.5820    -1.7810    -0.8880 C.ar  1 <1>   0.4100 
  4 N        2.3150    -0.0920     0.2120 N.ar  1 <1>  -0.1790 
  5 N        0.8740     1.6740    -0.2710 N.pl3 1 <1>  -0.8380 
  6 N       -0.3430    -2.6190    -1.4190 N.pl3 1 <1>  -0.8380 
  7 C        1.7920    -2.2670    -0.3600 C.ar  1 <1>  -0.1500 
  8 C        2.6670    -1.3990     0.2010 C.ar  1 <1>   0.2180 
  9 C       -0.4870     2.1960    -0.6290 C.3   1 <1>   0.2090 
 10 C        1.7790     2.7820     0.1650 C.3   1 <1>   0.2090 
 11 C       -0.7190    -3.9180    -0.7870 C.3   1 <1>   0.3900 
 12 C       -1.3150    -2.1560    -2.4580 C.3   1 <1>   0.1290 
 13 C        4.0020    -1.8140     0.8070 C.3   1 <1>  -0.0170 
 14 C       -1.1130     2.8460     0.6090 C.3   1 <1>  -0.1600 
 15 C        1.2070     3.4270     1.4310 C.3   1 <1>  -0.1600 
 16 C       -2.0200    -3.7670    -0.0210 C.2   1 <1>  -0.1810 
 17 C        5.1930    -1.2020     0.0580 C.3   1 <1>  -0.2400 
 18 C       -0.2180     3.9480     1.1940 C.3   1 <1>  -0.1600 
 19 C       -2.3730    -2.6880     0.7820 C.2   1 <1>   0.1390 
 20 C       -3.0780    -4.6040     0.0560 C.2   1 <1>  -0.3020 
 21 N       -3.5440    -2.8370     1.3200 N.2   1 <1>  -0.7070 
 22 N       -3.9820    -4.0230     0.8690 N.pl3 1 <1>   0.3140 
 23 C       -5.2920    -4.5540     1.2610 C.3   1 <1>   0.0160 
 24 H        2.8960     0.6170     0.6340 H     1 <1>   0.4570 
 25 H        2.0010    -3.3180    -0.4270 H     1 <1>   0.1500 
 26 H       -1.1440     1.4200    -0.9850 H     1 <1>   0.0800 
 27 H       -0.3940     2.9260    -1.4160 H     1 <1>   0.0800 
 28 H        1.8300     3.5220    -0.6180 H     1 <1>   0.0800 
 29 H        2.7810     2.4400     0.3490 H     1 <1>   0.0800 
 30 H        0.0410    -4.2450    -0.1020 H     1 <1>   0.0800 
 31 H       -0.8300    -4.6710    -1.5480 H     1 <1>   0.0800 
 32 H       -0.9020    -1.3360    -3.0210 H     1 <1>   0.0800 
 33 H       -2.2270    -1.8280    -1.9890 H     1 <1>   0.0800 
 34 H       -1.5400    -2.9570    -3.1410 H     1 <1>   0.0800 
 35 H        4.0900    -2.8870     0.7740 H     1 <1>   0.0800 
 36 H        4.0370    -1.5240     1.8430 H     1 <1>   0.0800 
 37 H       -1.2870     2.0840     1.3490 H     1 <1>   0.0800 
 38 H       -2.0690     3.2620     0.3440 H     1 <1>   0.0800 
 39 H        1.8370     4.2450     1.7330 H     1 <1>   0.0800 
 40 H        1.1990     2.7060     2.2290 H     1 <1>   0.0800 
 41 H        5.1710    -1.4870    -0.9810 H     1 <1>   0.0800 
 42 H        6.1150    -1.5640     0.4820 H     1 <1>   0.0800 
 43 H        5.1950    -0.1290     0.1250 H     1 <1>   0.0800 
 44 H       -0.6370     4.3040     2.1200 H     1 <1>   0.0800 
 45 H       -0.1850     4.7780     0.5080 H     1 <1>   0.0800 
 46 H       -1.7550    -1.8200     0.9390 H     1 <1>   0.1500 
 47 H       -3.2370    -5.5590    -0.4080 H     1 <1>   0.1500 
 48 H       -5.5790    -5.3410     0.5900 H     1 <1>   0.0800 
 49 H       -6.0140    -3.7610     1.2230 H     1 <1>   0.0800 
 50 H       -5.2270    -4.9320     2.2640 H     1 <1>   0.0800 
@<TRIPOS>BOND
  1   1   2  ar  
  2   1   3  ar  
  3   2   4  ar  
  4   2   5  1   
  5   3   6  1   
  6   3   7  ar  
  7   4   8  ar  
  8   4  24  1   
  9   5   9  1   
 10   5  10  1   
 11   6  11  1   
 12   6  12  1   
 13   7   8  ar  
 14   7  25  1   
 15   8  13  1   
 16   9  14  1   
 17   9  26  1   
 18   9  27  1   
 19  10  15  1   
 20  10  28  1   
 21  10  29  1   
 22  11  16  1   
 23  11  30  1   
 24  11  31  1   
 25  12  32  1   
 26  12  33  1   
 27  12  34  1   
 28  13  17  1   
 29  13  35  1   
 30  13  36  1   
 31  14  18  1   
 32  14  37  1   
 33  14  38  1   
 34  15  18  1   
 35  15  39  1   
 36  15  40  1   
 37  16  19  1   
 38  16  20  2   
 39  17  41  1   
 40  17  42  1   
 41  17  43  1   
 42  18  44  1   
 43  18  45  1   
 44  19  21  2   
 45  19  46  1   
 46  20  22  1   
 47  20  47  1   
 48  21  22  1   
 49  22  23  1   
 50  23  48  1   
 51  23  49  1   
 52  23  50  1   
@<TRIPOS>SUBSTRUCTURE
  1 ****   1 GROUP 4 **** **** 0

# MOE 2024.06 (io_trps.svl 2023.06)
