@<TRIPOS>MOLECULE
NONAME
47 50 1 0 0 
SMALL
USER_CHARGES


@<TRIPOS>ATOM
  1 O        0.2010     0.1660    -0.2320 O.3   1 <1>  -0.5600 
  2 C        1.3870    -0.4500    -0.6510 C.3   1 <1>   0.3440 
  3 C        0.1340     1.5440    -0.4490 C.3   1 <1>   0.2950 
  4 C        1.3230    -1.9420    -0.3590 C.ar  1 <1>  -0.1440 
  5 C        2.5890     0.1610     0.1080 C.3   1 <1>   0.3430 
  6 C       -1.2380     2.0180     0.0310 C.3   1 <1>  -0.1950 
  7 C        1.2660     2.2550     0.3260 C.3   1 <1>   0.3430 
  8 C        1.9380    -2.8370    -1.2240 C.ar  1 <1>  -0.1500 
  9 C        0.6790    -2.4290     0.7710 C.ar  1 <1>  -0.1500 
 10 N        2.6370     1.6730     0.0410 N.4   1 <1>  -0.9590 
 11 C       -2.4450     1.8990    -0.8450 C.3   1 <1>  -0.2000 
 12 C       -1.8700     3.2530    -0.5330 C.3   1 <1>  -0.2000 
 13 C        1.9180    -4.1950    -0.9570 C.ar  1 <1>  -0.1500 
 14 C        0.6590    -3.7860     1.0370 C.ar  1 <1>  -0.1500 
 15 C        3.6840     2.2250     0.9500 C.3   1 <1>   0.4860 
 16 C        1.2810    -4.6700     0.1740 C.ar  1 <1>  -0.1500 
 17 C        3.7610     3.7220     0.7650 C.ar  1 <1>  -0.1430 
 18 C        3.1990     4.5870     1.6770 C.ar  1 <1>   0.1600 
 19 C        4.3840     4.2830    -0.3250 C.ar  1 <1>   0.1600 
 20 N        3.2210     5.8860     1.5050 N.ar  1 <1>  -0.6200 
 21 N        4.4170     5.5790    -0.5150 N.ar  1 <1>  -0.6200 
 22 C        3.8340     6.3170     0.4150 C.ar  1 <1>   0.4770 
 23 C        3.8750     7.8130     0.2150 C.3   1 <1>  -0.0970 
 24 H        1.4870    -0.2980    -1.7120 H     1 <1>   0.0800 
 25 H        0.2260     1.7270    -1.5070 H     1 <1>   0.0800 
 26 H        3.4980    -0.2580    -0.2910 H     1 <1>   0.0800 
 27 H        2.5110    -0.1540     1.1350 H     1 <1>   0.0800 
 28 H       -1.3900     1.8280     1.0800 H     1 <1>   0.1000 
 29 H        1.0460     2.1660     1.3770 H     1 <1>   0.0800 
 30 H        1.2490     3.3040     0.0780 H     1 <1>   0.0800 
 31 H        2.4360    -2.4960    -2.1150 H     1 <1>   0.1500 
 32 H        0.1790    -1.7590     1.4500 H     1 <1>   0.1500 
 33 H        2.8830     1.9460    -0.9200 H     1 <1>   0.4500 
 34 H       -2.3360     1.5020    -1.8400 H     1 <1>   0.1000 
 35 H       -3.3810     1.6160    -0.3950 H     1 <1>   0.1000 
 36 H       -2.4330     3.9010     0.1190 H     1 <1>   0.1000 
 37 H       -1.4060     3.7920    -1.3410 H     1 <1>   0.1000 
 38 H        2.3950    -4.8870    -1.6310 H     1 <1>   0.1500 
 39 H        0.1550    -4.1580     1.9130 H     1 <1>   0.1500 
 40 H        3.4440     1.9950     1.9760 H     1 <1>   0.0800 
 41 H        4.6430     1.7880     0.7220 H     1 <1>   0.0800 
 42 H        1.2630    -5.7270     0.3810 H     1 <1>   0.1500 
 43 H        2.7140     4.2210     2.5680 H     1 <1>   0.1500 
 44 H        4.8680     3.6710    -1.0680 H     1 <1>   0.1500 
 45 H        2.9860     8.2640     0.6150 H     1 <1>   0.0800 
 46 H        3.9420     8.0470    -0.8320 H     1 <1>   0.0800 
 47 H        4.7320     8.2150     0.7200 H     1 <1>   0.0800 
@<TRIPOS>BOND
  1   1   2  1   
  2   1   3  1   
  3   2   4  1   
  4   2   5  1   
  5   2  24  1   
  6   3   6  1   
  7   3   7  1   
  8   3  25  1   
  9   4   8  ar  
 10   4   9  ar  
 11   5  10  1   
 12   5  26  1   
 13   5  27  1   
 14   6  11  1   
 15   6  12  1   
 16   6  28  1   
 17   7  10  1   
 18   7  29  1   
 19   7  30  1   
 20   8  13  ar  
 21   8  31  1   
 22   9  14  ar  
 23   9  32  1   
 24  10  15  1   
 25  10  33  1   
 26  11  12  1   
 27  11  34  1   
 28  11  35  1   
 29  12  36  1   
 30  12  37  1   
 31  13  16  ar  
 32  13  38  1   
 33  14  16  ar  
 34  14  39  1   
 35  15  17  1   
 36  15  40  1   
 37  15  41  1   
 38  16  42  1   
 39  17  18  ar  
 40  17  19  ar  
 41  18  20  ar  
 42  18  43  1   
 43  19  21  ar  
 44  19  44  1   
 45  20  22  ar  
 46  21  22  ar  
 47  22  23  1   
 48  23  45  1   
 49  23  46  1   
 50  23  47  1   
@<TRIPOS>SUBSTRUCTURE
  1 ****  10 GROUP 4 **** **** 0

# MOE 2024.06 (io_trps.svl 2023.06)
