@<TRIPOS>MOLECULE
NONAME
46 49 1 0 0 
SMALL
USER_CHARGES


@<TRIPOS>ATOM
  1 O       -0.5010     0.8970    -1.8620 O.2   1 <1>  -0.5700 
  2 C       -0.4690     1.8990    -1.1850 C.2   1 <1>   0.5690 
  3 N       -1.5300     2.3270    -0.4290 N.am  1 <1>  -0.5090 
  4 C        0.8150     2.7300    -1.2200 C.3   1 <1>   0.1810 
  5 C       -1.5070     3.6520     0.2700 C.3   1 <1>   0.3640 
  6 C       -2.7610     1.5180    -0.2460 C.3   1 <1>   0.0490 
  7 O        0.9010     3.6660    -0.1740 O.3   1 <1>  -0.5600 
  8 C       -2.7470     4.4730    -0.0960 C.ar  1 <1>  -0.1440 
  9 C       -0.2430     4.4870    -0.0490 C.3   1 <1>   0.2610 
 10 C       -3.1670     1.1330     1.1440 C.3   1 <1>  -0.2000 
 11 C       -2.6520     0.0940     0.2010 C.3   1 <1>  -0.2000 
 12 C       -3.4590     5.1250     0.9010 C.ar  1 <1>  -0.1500 
 13 C       -3.1710     4.5940    -1.4140 C.ar  1 <1>  -0.1500 
 14 C       -0.0110     5.5840     0.9980 C.2   1 <1>   0.5690 
 15 C       -4.5730     5.8860     0.5930 C.ar  1 <1>  -0.1500 
 16 C       -4.2850     5.3530    -1.7240 C.ar  1 <1>  -0.1500 
 17 O       -0.4600     5.4650     2.1180 O.2   1 <1>  -0.5700 
 18 N        0.6980     6.6920     0.6410 N.am  1 <1>  -0.5100 
 19 C       -4.9930     6.0040    -0.7280 C.ar  1 <1>   0.0820 
 20 C        1.8550     6.7670    -0.3050 C.3   1 <1>   0.2250 
 21 C        1.3830     7.6340     1.5800 C.3   1 <1>   0.2250 
 22 O       -6.0700     6.7300    -1.1180 O.3   1 <1>  -0.3630 
 23 C        2.2630     8.0820     0.3940 C.3   1 <1>   0.0000 
 24 C       -6.8450     7.4490    -0.1840 C.3   1 <1>   0.0400 
 25 H        0.8770     3.2560    -2.1550 H     1 <1>   0.0800 
 26 H        1.6620     2.0720    -1.1370 H     1 <1>   0.0800 
 27 H       -1.5230     3.4480     1.3260 H     1 <1>   0.0800 
 28 H       -3.5320     1.7700    -0.9550 H     1 <1>   0.1000 
 29 H       -0.3880     4.9750    -0.9950 H     1 <1>   0.0800 
 30 H       -2.5470     1.4000     1.9800 H     1 <1>   0.1000 
 31 H       -4.2140     1.1220     1.3890 H     1 <1>   0.1000 
 32 H       -3.3420    -0.6220    -0.2070 H     1 <1>   0.1000 
 33 H       -1.6710    -0.3200     0.3560 H     1 <1>   0.1000 
 34 H       -3.1440     5.0490     1.9300 H     1 <1>   0.1500 
 35 H       -2.6430     4.0930    -2.2070 H     1 <1>   0.1500 
 36 H       -5.0960     6.3760     1.3910 H     1 <1>   0.1500 
 37 H       -4.6160     5.4450    -2.7430 H     1 <1>   0.1500 
 38 H        2.5460     5.9580    -0.1460 H     1 <1>   0.0000 
 39 H        1.5380     6.8940    -1.3240 H     1 <1>   0.0000 
 40 H        0.7200     8.3980     1.9450 H     1 <1>   0.0000 
 41 H        1.9220     7.1030     2.3460 H     1 <1>   0.0000 
 42 H        1.8840     8.9570    -0.1040 H     1 <1>   0.0000 
 43 H        3.3110     8.1460     0.6260 H     1 <1>   0.0000 
 44 H       -7.6310     7.9500    -0.7190 H     1 <1>   0.0800 
 45 H       -6.2170     8.1710     0.3070 H     1 <1>   0.0800 
 46 H       -7.2670     6.7580     0.5240 H     1 <1>   0.0800 
@<TRIPOS>BOND
  1   1   2  2   
  2   2   3  am  
  3   2   4  1   
  4   3   5  1   
  5   3   6  1   
  6   4   7  1   
  7   4  25  1   
  8   4  26  1   
  9   5   8  1   
 10   5   9  1   
 11   5  27  1   
 12   6  10  1   
 13   6  11  1   
 14   6  28  1   
 15   7   9  1   
 16   8  12  ar  
 17   8  13  ar  
 18   9  14  1   
 19   9  29  1   
 20  10  11  1   
 21  10  30  1   
 22  10  31  1   
 23  11  32  1   
 24  11  33  1   
 25  12  15  ar  
 26  12  34  1   
 27  13  16  ar  
 28  13  35  1   
 29  14  17  2   
 30  14  18  am  
 31  15  19  ar  
 32  15  36  1   
 33  16  19  ar  
 34  16  37  1   
 35  18  20  1   
 36  18  21  1   
 37  19  22  1   
 38  20  23  1   
 39  20  38  1   
 40  20  39  1   
 41  21  23  1   
 42  21  40  1   
 43  21  41  1   
 44  22  24  1   
 45  23  42  1   
 46  23  43  1   
 47  24  44  1   
 48  24  45  1   
 49  24  46  1   
@<TRIPOS>SUBSTRUCTURE
  1 ****   5 GROUP 4 **** **** 0

# MOE 2024.06 (io_trps.svl 2023.06)
