@<TRIPOS>MOLECULE
NONAME
39 41 1 0 0 
SMALL
USER_CHARGES


@<TRIPOS>ATOM
  1 O       -0.2440    -0.5660    -1.3870 O.co2 1 <1>  -0.9000 
  2 C       -0.5780    -1.6490    -0.8840 C.2   1 <1>   1.0330 
  3 O       -1.7950    -1.9160    -0.8130 O.co2 1 <1>  -0.9000 
  4 C        0.3940    -2.5750    -0.3830 C.2   1 <1>  -0.2330 
  5 C        0.1220    -3.9170    -0.1270 C.2   1 <1>   0.3720 
  6 C        1.7080    -2.4550    -0.0470 C.2   1 <1>   0.0870 
  7 N        1.1570    -4.5400     0.3140 N.2   1 <1>  -0.4100 
  8 N       -1.1130    -4.5150    -0.3150 N.pl3 1 <1>  -0.8520 
  9 O        2.1050    -3.6430     0.3500 O.3   1 <1>  -0.0190 
 10 C        2.6570    -1.3660    -0.0220 C.ar  1 <1>   0.0530 
 11 C       -1.7130    -5.1380     0.9110 C.3   1 <1>   0.2700 
 12 C        4.0170    -1.6050    -0.2320 C.ar  1 <1>  -0.1500 
 13 C        2.2780    -0.0490     0.2330 C.ar  1 <1>  -0.1500 
 14 C       -2.3130    -6.5450     0.7310 C.2   1 <1>   0.5690 
 15 C        4.9500    -0.5850    -0.1890 C.ar  1 <1>  -0.1500 
 16 C        3.2030     0.9780     0.2760 C.ar  1 <1>  -0.1500 
 17 O       -3.4590    -6.7190     1.0840 O.2   1 <1>  -0.5700 
 18 N       -1.5680    -7.5910     0.2440 N.am  1 <1>  -0.6600 
 19 C        4.5440     0.7120     0.0660 C.ar  1 <1>  -0.1500 
 20 C       -0.1720    -7.5030    -0.2400 C.3   1 <1>   0.1400 
 21 C       -2.0870    -8.9670     0.1330 C.3   1 <1>   0.1400 
 22 C        0.1490    -8.8970    -0.7710 C.3   1 <1>  -0.1600 
 23 C       -0.8450    -9.8250    -0.0770 C.3   1 <1>  -0.1600 
 24 H       -1.7470    -3.7510    -0.6410 H     1 <1>   0.4000 
 25 H       -2.4950    -4.4890     1.2620 H     1 <1>   0.0800 
 26 H       -0.9750    -5.1980     1.6890 H     1 <1>   0.0800 
 27 H        4.3430    -2.6090    -0.4360 H     1 <1>   0.1500 
 28 H        1.2380     0.1740     0.3970 H     1 <1>   0.1500 
 29 H        5.9910    -0.8000    -0.3560 H     1 <1>   0.1500 
 30 H        2.8720     1.9830     0.4680 H     1 <1>   0.1500 
 31 H        5.2640     1.5100     0.0980 H     1 <1>   0.1500 
 32 H        0.4760    -7.2470     0.5810 H     1 <1>   0.0800 
 33 H       -0.0780    -6.7650    -1.0190 H     1 <1>   0.0800 
 34 H       -2.7400    -9.0240    -0.7210 H     1 <1>   0.0800 
 35 H       -2.6260    -9.2490     1.0220 H     1 <1>   0.0800 
 36 H        1.1720    -9.1690    -0.5780 H     1 <1>   0.0800 
 37 H       -0.0210    -8.9080    -1.8330 H     1 <1>   0.0800 
 38 H       -1.0610   -10.7050    -0.6570 H     1 <1>   0.0800 
 39 H       -0.4610   -10.1210     0.8830 H     1 <1>   0.0800 
@<TRIPOS>BOND
  1   1   2  ar  
  2   2   3  ar  
  3   2   4  1   
  4   4   5  1   
  5   4   6  2   
  6   5   7  2   
  7   5   8  1   
  8   6   9  1   
  9   6  10  1   
 10   7   9  1   
 11   8  11  1   
 12   8  24  1   
 13  10  12  ar  
 14  10  13  ar  
 15  11  14  1   
 16  11  25  1   
 17  11  26  1   
 18  12  15  ar  
 19  12  27  1   
 20  13  16  ar  
 21  13  28  1   
 22  14  17  2   
 23  14  18  am  
 24  15  19  ar  
 25  15  29  1   
 26  16  19  ar  
 27  16  30  1   
 28  18  20  1   
 29  18  21  1   
 30  19  31  1   
 31  20  22  1   
 32  20  32  1   
 33  20  33  1   
 34  21  23  1   
 35  21  34  1   
 36  21  35  1   
 37  22  23  1   
 38  22  36  1   
 39  22  37  1   
 40  23  38  1   
 41  23  39  1   
@<TRIPOS>SUBSTRUCTURE
  1 ****   5 GROUP 4 **** **** 0

# MOE 2024.06 (io_trps.svl 2023.06)
