@<TRIPOS>MOLECULE
NONAME
50 53 1 0 0 
SMALL
USER_CHARGES


@<TRIPOS>ATOM
  1 O       -0.2850     0.0200     1.7000 O.2   1 <1>  -0.5700 
  2 C       -1.1430     0.6720     1.1510 C.2   1 <1>   0.5690 
  3 N       -2.1790     0.0680     0.4770 N.am  1 <1>  -0.6600 
  4 C       -1.0370     2.1910     1.2790 C.3   1 <1>   0.1810 
  5 C       -3.3040     0.7820    -0.2060 C.3   1 <1>   0.1400 
  6 C       -2.2340    -1.4160     0.2980 C.3   1 <1>   0.1400 
  7 O       -1.0250     2.8290     0.0090 O.3   1 <1>  -0.3620 
  8 C       -4.6670     0.1680     0.1710 C.3   1 <1>   0.1900 
  9 C       -3.6220    -1.9710     0.6550 C.3   1 <1>   0.1100 
 10 C       -0.9400     4.1770    -0.0990 C.ar  1 <1>   0.0820 
 11 N       -4.6910    -1.2890    -0.1080 N.3   1 <1>  -0.8100 
 12 C       -5.8050     0.8820    -0.5850 C.3   1 <1>   0.1200 
 13 C       -0.8310     5.0390     0.9900 C.ar  1 <1>  -0.1500 
 14 C       -0.9650     4.7010    -1.3820 C.ar  1 <1>  -0.1500 
 15 C       -6.0320    -1.8420     0.2010 C.3   1 <1>   0.3330 
 16 O       -7.0430     0.3300    -0.2400 O.3   1 <1>  -0.5600 
 17 C       -0.7520     6.4060     0.7860 C.ar  1 <1>  -0.1500 
 18 C       -0.8860     6.0680    -1.5840 C.ar  1 <1>  -0.1500 
 19 C       -6.1280    -3.3130    -0.2040 C.ar  1 <1>  -0.1440 
 20 C       -7.1340    -1.0410    -0.5240 C.3   1 <1>   0.1200 
 21 C       -0.7800     6.9210    -0.4990 C.ar  1 <1>  -0.1500 
 22 C       -5.6860    -3.7400    -1.4480 C.ar  1 <1>  -0.1500 
 23 C       -6.6680    -4.2420     0.6750 C.ar  1 <1>  -0.1500 
 24 C       -5.7820    -5.0720    -1.8110 C.ar  1 <1>  -0.1500 
 25 C       -6.7650    -5.5750     0.3140 C.ar  1 <1>  -0.1500 
 26 C       -6.3220    -5.9910    -0.9290 C.ar  1 <1>  -0.1500 
 27 H       -0.1210     2.4380     1.7830 H     1 <1>   0.0800 
 28 H       -1.8740     2.5620     1.8400 H     1 <1>   0.0800 
 29 H       -3.3120     1.8230     0.0570 H     1 <1>   0.0800 
 30 H       -3.1650     0.7100    -1.2700 H     1 <1>   0.0800 
 31 H       -2.0150    -1.6530    -0.7290 H     1 <1>   0.0800 
 32 H       -1.4950    -1.9000     0.9120 H     1 <1>   0.0800 
 33 H       -4.8220     0.3320     1.2240 H     1 <1>   0.0800 
 34 H       -3.7880    -1.8520     1.7120 H     1 <1>   0.0800 
 35 H       -3.6300    -3.0240     0.4330 H     1 <1>   0.0800 
 36 H       -5.6710     0.7890    -1.6490 H     1 <1>   0.0800 
 37 H       -5.8310     1.9250    -0.3270 H     1 <1>   0.0800 
 38 H       -0.8040     4.6710     1.9980 H     1 <1>   0.1500 
 39 H       -1.0430     4.0320    -2.2200 H     1 <1>   0.1500 
 40 H       -6.2080    -1.7600     1.2600 H     1 <1>   0.0800 
 41 H       -0.6670     7.0730     1.6270 H     1 <1>   0.1500 
 42 H       -0.9050     6.4660    -2.5840 H     1 <1>   0.1500 
 43 H       -8.1030    -1.3800    -0.2060 H     1 <1>   0.0800 
 44 H       -7.0550    -1.1770    -1.5880 H     1 <1>   0.0800 
 45 H       -0.7170     7.9840    -0.6550 H     1 <1>   0.1500 
 46 H       -5.2590    -3.0290    -2.1350 H     1 <1>   0.1500 
 47 H       -7.0170    -3.9340     1.6440 H     1 <1>   0.1500 
 48 H       -5.4360    -5.3920    -2.7780 H     1 <1>   0.1500 
 49 H       -7.1850    -6.2890     1.0000 H     1 <1>   0.1500 
 50 H       -6.3980    -7.0270    -1.2100 H     1 <1>   0.1500 
@<TRIPOS>BOND
  1   1   2  2   
  2   2   3  am  
  3   2   4  1   
  4   3   5  1   
  5   3   6  1   
  6   4   7  1   
  7   4  27  1   
  8   4  28  1   
  9   5   8  1   
 10   5  29  1   
 11   5  30  1   
 12   6   9  1   
 13   6  31  1   
 14   6  32  1   
 15   7  10  1   
 16   8  11  1   
 17   8  12  1   
 18   8  33  1   
 19   9  11  1   
 20   9  34  1   
 21   9  35  1   
 22  10  13  ar  
 23  10  14  ar  
 24  11  15  1   
 25  12  16  1   
 26  12  36  1   
 27  12  37  1   
 28  13  17  ar  
 29  13  38  1   
 30  14  18  ar  
 31  14  39  1   
 32  15  19  1   
 33  15  20  1   
 34  15  40  1   
 35  16  20  1   
 36  17  21  ar  
 37  17  41  1   
 38  18  21  ar  
 39  18  42  1   
 40  19  22  ar  
 41  19  23  ar  
 42  20  43  1   
 43  20  44  1   
 44  21  45  1   
 45  22  24  ar  
 46  22  46  1   
 47  23  25  ar  
 48  23  47  1   
 49  24  26  ar  
 50  24  48  1   
 51  25  26  ar  
 52  25  49  1   
 53  26  50  1   
@<TRIPOS>SUBSTRUCTURE
  1 ****   5 GROUP 4 **** **** 0

# MOE 2024.06 (io_trps.svl 2023.06)
