@<TRIPOS>MOLECULE
NONAME
41 44 1 0 0 
SMALL
USER_CHARGES


@<TRIPOS>ATOM
  1 O       -2.8160     0.8590    -2.3220 O.2   1 <1>  -0.5700 
  2 C       -2.5270     0.9350    -1.1410 C.2   1 <1>   0.7160 
  3 N       -2.2810    -0.2140    -0.4520 N.am  1 <1>  -0.7300 
  4 C       -2.4600     2.2140    -0.4500 C.2   1 <1>   0.1410 
  5 C       -2.3400    -1.5930    -0.9830 C.3   1 <1>   0.2200 
  6 N       -2.2100     2.3210     0.8840 N.2   1 <1>  -0.5650 
  7 C       -2.6290     3.4590    -0.9850 C.2   1 <1>  -0.3020 
  8 C       -3.5830    -2.3210    -0.4890 C.3   1 <1>  -0.0800 
  9 C       -1.2450    -2.4300    -0.3340 C.3   1 <1>   0.1200 
 10 C       -2.2320     3.6010     1.1230 C.2   1 <1>   0.3120 
 11 N       -2.4870     4.3550    -0.0020 N.pl3 1 <1>   0.3340 
 12 C       -3.1520    -2.8280     0.8890 C.3   1 <1>   0.1200 
 13 C       -4.8870    -1.5020    -0.4820 C.3   1 <1>  -0.0170 
 14 O       -1.7540    -2.8350     0.9010 O.3   1 <1>  -0.5600 
 15 N       -2.0280     4.1700     2.3580 N.2   1 <1>  -0.5760 
 16 C       -2.5450     5.7340     0.0810 C.2   1 <1>  -0.1810 
 17 C       -6.0620    -2.3590    -0.0370 C.ar  1 <1>  -0.1440 
 18 C       -2.0840     5.4560     2.4230 C.2   1 <1>   0.3760 
 19 C       -2.3420     6.2940     1.3000 C.2   1 <1>  -0.1360 
 20 C       -6.7020    -3.2220    -0.9020 C.ar  1 <1>  -0.1500 
 21 C       -6.5480    -2.3190     1.2550 C.ar  1 <1>  -0.1500 
 22 C       -7.7640    -3.9860    -0.4460 C.ar  1 <1>   0.1600 
 23 C       -7.6160    -3.1260     1.6090 C.ar  1 <1>   0.1600 
 24 N       -8.2350    -3.9610     0.7900 N.ar  1 <1>  -0.6200 
 25 H       -2.0530    -0.1170     0.5430 H     1 <1>   0.3700 
 26 H       -2.2630    -1.5880    -2.0570 H     1 <1>   0.0800 
 27 H       -2.8400     3.7240    -2.0040 H     1 <1>   0.1500 
 28 H       -3.7290    -3.1830    -1.1160 H     1 <1>   0.0800 
 29 H       -0.3320    -1.8800    -0.1880 H     1 <1>   0.0800 
 30 H       -1.0510    -3.3150    -0.9140 H     1 <1>   0.0800 
 31 H       -3.5130    -3.8240     1.0830 H     1 <1>   0.0800 
 32 H       -3.4780    -2.1650     1.6720 H     1 <1>   0.0800 
 33 H       -5.0760    -1.1220    -1.4710 H     1 <1>   0.0800 
 34 H       -4.7970    -0.6560     0.1760 H     1 <1>   0.0800 
 35 H       -2.7460     6.2770    -0.8240 H     1 <1>   0.1500 
 36 H       -1.9290     5.9370     3.3730 H     1 <1>   0.0600 
 37 H       -2.3680     7.3560     1.4600 H     1 <1>   0.1500 
 38 H       -6.3870    -3.3070    -1.9260 H     1 <1>   0.1500 
 39 H       -6.1070    -1.6680     1.9880 H     1 <1>   0.1500 
 40 H       -8.2510    -4.6550    -1.1350 H     1 <1>   0.1500 
 41 H       -7.9820    -3.0810     2.6210 H     1 <1>   0.1500 
@<TRIPOS>BOND
  1   1   2  2   
  2   2   3  am  
  3   2   4  1   
  4   3   5  1   
  5   3  25  1   
  6   4   6  1   
  7   4   7  2   
  8   5   8  1   
  9   5   9  1   
 10   5  26  1   
 11   6  10  2   
 12   7  11  1   
 13   7  27  1   
 14   8  12  1   
 15   8  13  1   
 16   8  28  1   
 17   9  14  1   
 18   9  29  1   
 19   9  30  1   
 20  10  11  1   
 21  10  15  1   
 22  11  16  1   
 23  12  14  1   
 24  12  31  1   
 25  12  32  1   
 26  13  17  1   
 27  13  33  1   
 28  13  34  1   
 29  15  18  2   
 30  16  19  2   
 31  16  35  1   
 32  17  20  ar  
 33  17  21  ar  
 34  18  19  1   
 35  18  36  1   
 36  19  37  1   
 37  20  22  ar  
 38  20  38  1   
 39  21  23  ar  
 40  21  39  1   
 41  22  24  ar  
 42  22  40  1   
 43  23  24  ar  
 44  23  41  1   
@<TRIPOS>SUBSTRUCTURE
  1 ****   3 GROUP 4 **** **** 0

# MOE 2024.06 (io_trps.svl 2023.06)
