@<TRIPOS>MOLECULE
NONAME
52 55 1 0 0 
SMALL
USER_CHARGES


@<TRIPOS>ATOM
  1 O       -3.7370     1.4640    -3.1820 O.2   1 <1>  -0.5700 
  2 C       -2.7910     1.5790    -2.4420 C.2   1 <1>   0.5690 
  3 N       -1.9740     0.5340    -2.1630 N.am  1 <1>  -0.7300 
  4 C       -2.5230     2.9210    -1.7810 C.3   1 <1>   0.0440 
  5 C       -2.1420    -0.8570    -2.6400 C.3   1 <1>   0.2200 
  6 C       -1.7910     2.7650    -0.4510 C.ar  1 <1>  -0.1440 
  7 C       -2.7420    -1.7430    -1.5530 C.3   1 <1>  -0.0800 
  8 C       -0.7660    -1.4920    -2.7850 C.3   1 <1>   0.1200 
  9 C       -0.4220     2.9620    -0.3740 C.ar  1 <1>  -0.1500 
 10 C       -2.4890     2.3970     0.6880 C.ar  1 <1>  -0.1500 
 11 C       -1.5170    -2.0790    -0.6930 C.3   1 <1>   0.1200 
 12 C       -3.9180    -1.1170    -0.7740 C.3   1 <1>  -0.0160 
 13 O       -0.3890    -1.8620    -1.4920 O.3   1 <1>  -0.5600 
 14 C        0.2410     2.7870     0.8280 C.ar  1 <1>  -0.1500 
 15 C       -1.8240     2.2190     1.8890 C.ar  1 <1>  -0.1500 
 16 C       -4.6170    -2.0090     0.2590 C.ar  1 <1>  -0.1440 
 17 C       -0.4540     2.4120     1.9670 C.ar  1 <1>  -0.1440 
 18 C       -5.5750    -1.4400     1.1350 C.ar  1 <1>   0.0000 
 19 C       -4.3760    -3.3480     0.3910 C.ar  1 <1>  -0.1500 
 20 C        0.2810     2.2210     3.2820 C.3   1 <1>   0.2630 
 21 C       -6.1790    -2.2840     2.1000 C.ar  1 <1>   0.3100 
 22 C       -5.9780    -0.0830     1.1050 C.ar  1 <1>  -0.1500 
 23 C       -5.0370    -4.0950     1.3730 C.ar  1 <1>   0.1600 
 24 O        1.1820     1.1870     3.1210 O.3   1 <1>  -0.6800 
 25 N       -5.8990    -3.6060     2.2060 N.ar  1 <1>  -0.6200 
 26 C       -7.1170    -1.7390     2.9910 C.ar  1 <1>  -0.1500 
 27 C       -6.8980     0.4160     1.9860 C.ar  1 <1>  -0.1500 
 28 C       -7.4750    -0.4200     2.9450 C.ar  1 <1>  -0.1500 
 29 H       -1.2360     0.6550    -1.4610 H     1 <1>   0.3700 
 30 H       -1.9470     3.5230    -2.4580 H     1 <1>   0.0800 
 31 H       -3.4620     3.4180    -1.6190 H     1 <1>   0.0800 
 32 H       -2.7060    -0.8780    -3.5580 H     1 <1>   0.0800 
 33 H       -3.0820    -2.6450    -2.0300 H     1 <1>   0.0800 
 34 H       -0.0370    -0.8170    -3.1980 H     1 <1>   0.0800 
 35 H       -0.8190    -2.3860    -3.3810 H     1 <1>   0.0800 
 36 H        0.1400     3.2500    -1.2470 H     1 <1>   0.1500 
 37 H       -3.5530     2.2440     0.6470 H     1 <1>   0.1500 
 38 H       -1.5160    -3.1030    -0.3630 H     1 <1>   0.0800 
 39 H       -1.4430    -1.4230     0.1570 H     1 <1>   0.0800 
 40 H       -4.6550    -0.7830    -1.4840 H     1 <1>   0.0800 
 41 H       -3.5500    -0.2510    -0.2550 H     1 <1>   0.0800 
 42 H        1.3070     2.9400     0.8780 H     1 <1>   0.1500 
 43 H       -2.3830     1.9290     2.7630 H     1 <1>   0.1500 
 44 H       -3.6880    -3.8800    -0.2350 H     1 <1>   0.1500 
 45 H       -0.3960     1.9560     4.0750 H     1 <1>   0.0800 
 46 H        0.8280     3.1060     3.5570 H     1 <1>   0.0800 
 47 H       -5.5600     0.5770     0.3690 H     1 <1>   0.1500 
 48 H       -4.8120    -5.1460     1.4410 H     1 <1>   0.1500 
 49 H        0.7820     0.5130     2.5380 H     1 <1>   0.4000 
 50 H       -7.5510    -2.4030     3.7160 H     1 <1>   0.1500 
 51 H       -7.1920     1.4510     1.9510 H     1 <1>   0.1500 
 52 H       -8.1970    -0.0170     3.6340 H     1 <1>   0.1500 
@<TRIPOS>BOND
  1   1   2  2   
  2   2   3  am  
  3   2   4  1   
  4   3   5  1   
  5   3  29  1   
  6   4   6  1   
  7   4  30  1   
  8   4  31  1   
  9   5   7  1   
 10   5   8  1   
 11   5  32  1   
 12   6   9  ar  
 13   6  10  ar  
 14   7  11  1   
 15   7  12  1   
 16   7  33  1   
 17   8  13  1   
 18   8  34  1   
 19   8  35  1   
 20   9  14  ar  
 21   9  36  1   
 22  10  15  ar  
 23  10  37  1   
 24  11  13  1   
 25  11  38  1   
 26  11  39  1   
 27  12  16  1   
 28  12  40  1   
 29  12  41  1   
 30  14  17  ar  
 31  14  42  1   
 32  15  17  ar  
 33  15  43  1   
 34  16  18  ar  
 35  16  19  ar  
 36  17  20  1   
 37  18  21  ar  
 38  18  22  ar  
 39  19  23  ar  
 40  19  44  1   
 41  20  24  1   
 42  20  45  1   
 43  20  46  1   
 44  21  25  ar  
 45  21  26  ar  
 46  22  27  ar  
 47  22  47  1   
 48  23  25  ar  
 49  23  48  1   
 50  24  49  1   
 51  26  28  ar  
 52  26  50  1   
 53  27  28  ar  
 54  27  51  1   
 55  28  52  1   
@<TRIPOS>SUBSTRUCTURE
  1 ****  12 GROUP 4 **** **** 0

# MOE 2024.06 (io_trps.svl 2023.06)
