@<TRIPOS>MOLECULE
NONAME
46 49 1 0 0 
SMALL
USER_CHARGES


@<TRIPOS>ATOM
  1 O        0.7690    -0.3520    -1.0840 O.3   1 <1>  -0.5600 
  2 C        1.8810    -0.8230    -0.3500 C.3   1 <1>   0.4240 
  3 C       -0.5000    -0.7100    -0.6450 C.3   1 <1>   0.1200 
  4 C        1.6620    -2.2860     0.1380 C.ar  1 <1>  -0.1440 
  5 C        2.0990     0.1630     0.8130 C.3   1 <1>  -0.1600 
  6 C        3.0490    -0.7280    -1.3430 C.3   1 <1>  -0.1600 
  7 C       -0.6600    -2.2080    -0.8490 C.3   1 <1>  -0.0160 
  8 C        2.6460    -2.9960     0.8390 C.ar  1 <1>   0.0820 
  9 C        0.4540    -2.9330    -0.1230 C.ar  1 <1>  -0.1440 
 10 C        2.3220     1.5900     0.3130 C.3   1 <1>   0.2090 
 11 C        3.2890     0.7080    -1.8140 C.3   1 <1>   0.2090 
 12 O        3.8210    -2.3820     1.1310 O.3   1 <1>  -0.3630 
 13 C        2.4180    -4.3100     1.2390 C.ar  1 <1>  -0.1500 
 14 C        0.2390    -4.2420     0.2750 C.ar  1 <1>  -0.1500 
 15 N        3.4610     1.6150    -0.6430 N.pl3 1 <1>  -0.8380 
 16 C        4.9860    -3.0990     1.4710 C.3   1 <1>   0.0400 
 17 C        1.2200    -4.9330     0.9550 C.ar  1 <1>  -0.1500 
 18 C        4.7240     1.9730    -0.2090 C.ar  1 <1>   0.4100 
 19 N        5.7110     1.1060    -0.3970 N.ar  1 <1>  -0.6200 
 20 C        4.9150     3.2090     0.3970 C.ar  1 <1>  -0.1500 
 21 C        6.9020     1.4690     0.0370 C.ar  1 <1>   0.1600 
 22 C        6.1590     3.5900     0.8520 C.ar  1 <1>   0.0730 
 23 C        7.1780     2.6720     0.6570 C.ar  1 <1>  -0.1500 
 24 C        6.3870     4.8560     1.4840 C.1   1 <1>   0.4840 
 25 N        6.5720     5.8610     1.9910 N.1   1 <1>  -0.5570 
 26 H       -1.2180    -0.1680    -1.2340 H     1 <1>   0.0800 
 27 H       -0.6100    -0.4410     0.3900 H     1 <1>   0.0800 
 28 H        2.9660    -0.1170     1.3770 H     1 <1>   0.0800 
 29 H        1.2640     0.1320     1.4840 H     1 <1>   0.0800 
 30 H        2.8460    -1.3600    -2.1870 H     1 <1>   0.0800 
 31 H        3.9590    -1.0740    -0.8970 H     1 <1>   0.0800 
 32 H       -0.6210    -2.4350    -1.8990 H     1 <1>   0.0800 
 33 H       -1.6170    -2.5150    -0.4680 H     1 <1>   0.0800 
 34 H        2.5240     2.2330     1.1510 H     1 <1>   0.0800 
 35 H        1.4380     1.9520    -0.1840 H     1 <1>   0.0800 
 36 H        2.4510     1.0470    -2.3980 H     1 <1>   0.0800 
 37 H        4.1640     0.7440    -2.4410 H     1 <1>   0.0800 
 38 H        3.1590    -4.8640     1.7810 H     1 <1>   0.1500 
 39 H       -0.6960    -4.7300     0.0580 H     1 <1>   0.1500 
 40 H        5.8090    -2.4070     1.4810 H     1 <1>   0.0800 
 41 H        5.1560    -3.8600     0.7300 H     1 <1>   0.0800 
 42 H        4.8590    -3.5300     2.4480 H     1 <1>   0.0800 
 43 H        1.0500    -5.9490     1.2640 H     1 <1>   0.1500 
 44 H        4.0740     3.8680     0.4970 H     1 <1>   0.1500 
 45 H        7.7040     0.7660    -0.1110 H     1 <1>   0.1500 
 46 H        8.1780     2.8920     0.9830 H     1 <1>   0.1500 
@<TRIPOS>BOND
  1   1   2  1   
  2   1   3  1   
  3   2   4  1   
  4   2   5  1   
  5   2   6  1   
  6   3   7  1   
  7   3  26  1   
  8   3  27  1   
  9   4   8  ar  
 10   4   9  ar  
 11   5  10  1   
 12   5  28  1   
 13   5  29  1   
 14   6  11  1   
 15   6  30  1   
 16   6  31  1   
 17   7   9  1   
 18   7  32  1   
 19   7  33  1   
 20   8  12  1   
 21   8  13  ar  
 22   9  14  ar  
 23  10  15  1   
 24  10  34  1   
 25  10  35  1   
 26  11  15  1   
 27  11  36  1   
 28  11  37  1   
 29  12  16  1   
 30  13  17  ar  
 31  13  38  1   
 32  14  17  ar  
 33  14  39  1   
 34  15  18  1   
 35  16  40  1   
 36  16  41  1   
 37  16  42  1   
 38  17  43  1   
 39  18  19  ar  
 40  18  20  ar  
 41  19  21  ar  
 42  20  22  ar  
 43  20  44  1   
 44  21  23  ar  
 45  21  45  1   
 46  22  23  ar  
 47  22  24  1   
 48  23  46  1   
 49  24  25  3   
@<TRIPOS>SUBSTRUCTURE
  1 ****   5 GROUP 4 **** **** 0

# MOE 2024.06 (io_trps.svl 2023.06)
