@<TRIPOS>MOLECULE
NONAME
51 54 1 0 0 
SMALL
USER_CHARGES


@<TRIPOS>ATOM
  1 O        0.9900    -0.6930     1.8010 O.3   1 <1>  -0.0190 
  2 N        1.1930     0.5860     1.6650 N.2   1 <1>  -0.4100 
  3 C        1.3150    -1.3540     0.7230 C.2   1 <1>  -0.0400 
  4 C        1.6560     0.7540     0.4750 C.2   1 <1>   0.1080 
  5 C        1.7580    -0.4690    -0.1840 C.2   1 <1>  -0.1500 
  6 C        1.1600    -2.8640     0.6750 C.3   1 <1>   0.2900 
  7 C        2.0390     2.0990    -0.1340 C.3   1 <1>   0.1010 
  8 N       -0.2540    -3.2640     0.7640 N.3   1 <1>  -0.8100 
  9 C        3.1600     2.7640     0.6740 C.3   1 <1>  -0.2400 
 10 C        0.8180     3.0240    -0.2170 C.3   1 <1>  -0.2400 
 11 C       -1.1050    -2.7090    -0.2920 C.3   1 <1>   0.1100 
 12 C       -0.4570    -4.7180     0.7380 C.3   1 <1>   0.1100 
 13 C       -2.3670    -3.5600    -0.2220 C.3   1 <1>   0.2000 
 14 C       -1.8320    -4.9600     0.0860 C.3   1 <1>  -0.0800 
 15 O       -3.0950    -3.1350     0.8710 O.3   1 <1>  -0.6800 
 16 C       -1.7350    -5.8100    -1.1970 C.3   1 <1>  -0.0170 
 17 C       -1.1750    -7.2040    -0.9260 C.ar  1 <1>  -0.1430 
 18 C       -1.9320    -8.2180    -0.2900 C.ar  1 <1>   0.0000 
 19 C        0.1000    -7.5140    -1.3010 C.ar  1 <1>  -0.1500 
 20 C       -1.2990    -9.4640    -0.0590 C.ar  1 <1>   0.3100 
 21 C       -3.2770    -8.0730     0.1250 C.ar  1 <1>  -0.1500 
 22 C        0.6260    -8.7840    -1.0360 C.ar  1 <1>   0.1600 
 23 N       -0.0240    -9.7300    -0.4370 N.ar  1 <1>  -0.6200 
 24 C       -2.0180   -10.4830     0.5880 C.ar  1 <1>  -0.1500 
 25 C       -3.9500    -9.0870     0.7500 C.ar  1 <1>  -0.1500 
 26 C       -3.3140   -10.3070     0.9890 C.ar  1 <1>  -0.1500 
 27 H        2.1140    -0.6270    -1.1850 H     1 <1>   0.1500 
 28 H        1.7000    -3.2920     1.5020 H     1 <1>   0.0800 
 29 H        1.5860    -3.2360    -0.2400 H     1 <1>   0.0800 
 30 H        2.4000     1.9270    -1.1320 H     1 <1>   0.0800 
 31 H        2.8280     2.9600     1.6790 H     1 <1>   0.0800 
 32 H        3.4550     3.6920     0.2180 H     1 <1>   0.0800 
 33 H        4.0150     2.1140     0.7200 H     1 <1>   0.0800 
 34 H        0.4360     3.2250     0.7680 H     1 <1>   0.0800 
 35 H        0.0410     2.5560    -0.7940 H     1 <1>   0.0800 
 36 H        1.0820     3.9560    -0.6850 H     1 <1>   0.0800 
 37 H       -1.3170    -1.6650    -0.1250 H     1 <1>   0.0800 
 38 H       -0.6350    -2.8330    -1.2520 H     1 <1>   0.0800 
 39 H        0.3230    -5.1960     0.1720 H     1 <1>   0.0800 
 40 H       -0.4400    -5.1040     1.7440 H     1 <1>   0.0800 
 41 H       -2.9890    -3.4980    -1.0980 H     1 <1>   0.0800 
 42 H       -2.4780    -5.4580     0.7860 H     1 <1>   0.0800 
 43 H       -2.4440    -2.9670     1.5880 H     1 <1>   0.4000 
 44 H       -1.1080    -5.3040    -1.9100 H     1 <1>   0.0800 
 45 H       -2.7080    -5.9010    -1.6480 H     1 <1>   0.0800 
 46 H        0.7310    -6.8020    -1.8000 H     1 <1>   0.1500 
 47 H       -3.7900    -7.1470    -0.0530 H     1 <1>   0.1500 
 48 H        1.6370    -8.9860    -1.3490 H     1 <1>   0.1500 
 49 H       -1.5090   -11.4140     0.7560 H     1 <1>   0.1500 
 50 H       -4.9720    -8.9600     1.0640 H     1 <1>   0.1500 
 51 H       -3.8520   -11.0970     1.4830 H     1 <1>   0.1500 
@<TRIPOS>BOND
  1   1   2  1   
  2   1   3  1   
  3   2   4  2   
  4   3   5  2   
  5   3   6  1   
  6   4   5  1   
  7   4   7  1   
  8   5  27  1   
  9   6   8  1   
 10   6  28  1   
 11   6  29  1   
 12   7   9  1   
 13   7  10  1   
 14   7  30  1   
 15   8  11  1   
 16   8  12  1   
 17   9  31  1   
 18   9  32  1   
 19   9  33  1   
 20  10  34  1   
 21  10  35  1   
 22  10  36  1   
 23  11  13  1   
 24  11  37  1   
 25  11  38  1   
 26  12  14  1   
 27  12  39  1   
 28  12  40  1   
 29  13  14  1   
 30  13  15  1   
 31  13  41  1   
 32  14  16  1   
 33  14  42  1   
 34  15  43  1   
 35  16  17  1   
 36  16  44  1   
 37  16  45  1   
 38  17  18  ar  
 39  17  19  ar  
 40  18  20  ar  
 41  18  21  ar  
 42  19  22  ar  
 43  19  46  1   
 44  20  23  ar  
 45  20  24  ar  
 46  21  25  ar  
 47  21  47  1   
 48  22  23  ar  
 49  22  48  1   
 50  24  26  ar  
 51  24  49  1   
 52  25  26  ar  
 53  25  50  1   
 54  26  51  1   
@<TRIPOS>SUBSTRUCTURE
  1 ****  12 GROUP 4 **** **** 0

# MOE 2024.06 (io_trps.svl 2023.06)
