@<TRIPOS>MOLECULE
NONAME
55 59 1 0 0 
SMALL
USER_CHARGES


@<TRIPOS>ATOM
  1 O       -0.9480    -0.2200    -0.2090 O.3   1 <1>  -0.6800 
  2 C       -1.7060    -1.2660     0.2940 C.3   1 <1>   0.2000 
  3 C       -2.0830    -2.2300    -0.8450 C.3   1 <1>   0.2090 
  4 C       -2.9550    -0.6650     0.9460 C.3   1 <1>  -0.1600 
  5 N       -3.0160    -3.2980    -0.3480 N.pl3 1 <1>  -0.8380 
  6 C       -3.9240    -1.7750     1.3840 C.3   1 <1>  -0.1600 
  7 C       -2.8430    -4.6320    -0.5440 C.ar  1 <1>   0.4100 
  8 C       -4.2720    -2.7290     0.2340 C.3   1 <1>   0.2090 
  9 N       -3.9220    -5.3810    -0.6760 N.ar  1 <1>  -0.6200 
 10 C       -1.5560    -5.2000    -0.6030 C.ar  1 <1>  -0.1500 
 11 C       -3.7810    -6.6810    -0.8860 C.ar  1 <1>   0.7710 
 12 C       -1.4300    -6.5280    -0.8280 C.ar  1 <1>   0.2110 
 13 N       -2.5660    -7.2510    -0.9740 N.ar  1 <1>  -0.1790 
 14 N       -4.8860    -7.4610    -1.0230 N.pl3 1 <1>  -0.8380 
 15 C       -4.9800    -8.9630    -0.9020 C.3   1 <1>   0.2090 
 16 C       -6.2620    -6.8620    -1.2260 C.3   1 <1>   0.2090 
 17 C       -5.9400    -9.3880     0.2300 C.3   1 <1>   0.2090 
 18 C       -7.2410    -7.2740    -0.1100 C.3   1 <1>   0.2090 
 19 N       -7.2790    -8.7600     0.0620 N.pl3 1 <1>  -0.8380 
 20 C       -8.2870    -9.4940    -0.5150 C.ar  1 <1>   0.4100 
 21 N       -8.6070    -9.1890    -1.7400 N.ar  1 <1>  -0.6200 
 22 C       -8.9110   -10.5560     0.1870 C.ar  1 <1>   0.0000 
 23 C       -9.5400    -9.9570    -2.3160 C.ar  1 <1>   0.4700 
 24 C       -9.8540   -11.2940    -0.5340 C.ar  1 <1>   0.3100 
 25 C       -8.6630   -10.9060     1.5300 C.ar  1 <1>  -0.1500 
 26 N      -10.1600   -10.9730    -1.8070 N.ar  1 <1>  -0.6200 
 27 C      -10.4920   -12.3790     0.0830 C.ar  1 <1>  -0.1500 
 28 C       -9.3020   -11.9670     2.1170 C.ar  1 <1>  -0.1500 
 29 C      -10.2240   -12.7170     1.3840 C.ar  1 <1>  -0.1500 
 30 H       -0.0410    -0.5120    -0.4220 H     1 <1>   0.4000 
 31 H       -1.1160    -1.7810     1.0320 H     1 <1>   0.0800 
 32 H       -1.1970    -2.6580    -1.2730 H     1 <1>   0.0800 
 33 H       -2.5880    -1.6730    -1.6160 H     1 <1>   0.0800 
 34 H       -3.4510    -0.0240     0.2370 H     1 <1>   0.0800 
 35 H       -2.6680    -0.0760     1.7990 H     1 <1>   0.0800 
 36 H       -4.8290    -1.3320     1.7600 H     1 <1>   0.0800 
 37 H       -3.4850    -2.3460     2.1840 H     1 <1>   0.0800 
 38 H       -4.9110    -3.5090     0.6100 H     1 <1>   0.0800 
 39 H       -4.8090    -2.1980    -0.5340 H     1 <1>   0.0800 
 40 H       -0.6970    -4.5740    -0.4560 H     1 <1>   0.1500 
 41 H       -0.4750    -7.0240    -0.8910 H     1 <1>   0.1500 
 42 H       -2.5620    -8.2390    -1.1930 H     1 <1>   0.4570 
 43 H       -4.0210    -9.4060    -0.7130 H     1 <1>   0.0800 
 44 H       -5.3550    -9.3670    -1.8290 H     1 <1>   0.0800 
 45 H       -6.6600    -7.2090    -2.1650 H     1 <1>   0.0800 
 46 H       -6.2310    -5.7880    -1.2780 H     1 <1>   0.0800 
 47 H       -5.5320    -9.0980     1.1830 H     1 <1>   0.0800 
 48 H       -6.0420   -10.4600     0.2250 H     1 <1>   0.0800 
 49 H       -8.2260    -6.9120    -0.3500 H     1 <1>   0.0800 
 50 H       -6.9400    -6.8150     0.8160 H     1 <1>   0.0800 
 51 H       -9.7920    -9.6870    -3.3280 H     1 <1>   0.1500 
 52 H       -7.9630   -10.3180     2.0960 H     1 <1>   0.1500 
 53 H      -11.2030   -12.9370    -0.4980 H     1 <1>   0.1500 
 54 H       -9.1070   -12.2320     3.1430 H     1 <1>   0.1500 
 55 H      -10.7200   -13.5510     1.8510 H     1 <1>   0.1500 
@<TRIPOS>BOND
  1   1   2  1   
  2   1  30  1   
  3   2   3  1   
  4   2   4  1   
  5   2  31  1   
  6   3   5  1   
  7   3  32  1   
  8   3  33  1   
  9   4   6  1   
 10   4  34  1   
 11   4  35  1   
 12   5   7  1   
 13   5   8  1   
 14   6   8  1   
 15   6  36  1   
 16   6  37  1   
 17   7   9  ar  
 18   7  10  ar  
 19   8  38  1   
 20   8  39  1   
 21   9  11  ar  
 22  10  12  ar  
 23  10  40  1   
 24  11  13  ar  
 25  11  14  1   
 26  12  13  ar  
 27  12  41  1   
 28  13  42  1   
 29  14  15  1   
 30  14  16  1   
 31  15  17  1   
 32  15  43  1   
 33  15  44  1   
 34  16  18  1   
 35  16  45  1   
 36  16  46  1   
 37  17  19  1   
 38  17  47  1   
 39  17  48  1   
 40  18  19  1   
 41  18  49  1   
 42  18  50  1   
 43  19  20  1   
 44  20  21  ar  
 45  20  22  ar  
 46  21  23  ar  
 47  22  24  ar  
 48  22  25  ar  
 49  23  26  ar  
 50  23  51  1   
 51  24  26  ar  
 52  24  27  ar  
 53  25  28  ar  
 54  25  52  1   
 55  27  29  ar  
 56  27  53  1   
 57  28  29  ar  
 58  28  54  1   
 59  29  55  1   
@<TRIPOS>SUBSTRUCTURE
  1 ****  16 GROUP 4 **** **** 0

# MOE 2024.06 (io_trps.svl 2023.06)
