@<TRIPOS>MOLECULE
NONAME
50 52 1 0 0 
SMALL
USER_CHARGES


@<TRIPOS>ATOM
  1 CL      -0.4830     1.3750    -2.3530 Cl    1 <1>  -0.1770 
  2 C       -1.3890     2.2060    -1.1050 C.ar  1 <1>   0.1770 
  3 C       -1.0090     3.4780    -0.6910 C.ar  1 <1>   0.0820 
  4 C       -2.4820     1.5630    -0.5550 C.ar  1 <1>  -0.1500 
  5 O        0.0760     4.0540    -1.2770 O.3   1 <1>  -0.3630 
  6 C       -1.7610     4.1020     0.3030 C.ar  1 <1>  -0.1500 
  7 C       -3.2240     2.1890     0.4340 C.ar  1 <1>  -0.1430 
  8 C        0.4720     5.3640    -0.9300 C.3   1 <1>   0.1200 
  9 C       -2.8570     3.4580     0.8560 C.ar  1 <1>  -0.1500 
 10 C       -4.4280     1.4980     1.0490 C.3   1 <1>  -0.0960 
 11 C        1.6950     5.7640    -1.7540 C.3   1 <1>   0.2090 
 12 N        2.0270     7.1940    -1.5000 N.pl3 1 <1>  -0.8380 
 13 C        2.7220     7.5250    -0.3530 C.ar  1 <1>   0.4100 
 14 C        1.3280     8.2040    -2.3360 C.3   1 <1>   0.1290 
 15 N        3.9840     7.1030    -0.3460 N.ar  1 <1>  -0.6200 
 16 C        2.1350     8.2350     0.7140 C.ar  1 <1>   0.0860 
 17 C        4.7010     7.3870     0.7220 C.ar  1 <1>   0.1600 
 18 C        0.7590     8.6590     0.6840 C.2   1 <1>   0.5440 
 19 C        2.9230     8.5170     1.8210 C.ar  1 <1>  -0.1500 
 20 C        4.2280     8.0840     1.8190 C.ar  1 <1>  -0.1500 
 21 O       -0.1430     7.8560     0.8540 O.2   1 <1>  -0.5700 
 22 N        0.4330     9.9820     0.4930 N.am  1 <1>  -0.6600 
 23 C       -0.9630    10.4610     0.4020 C.3   1 <1>   0.1400 
 24 C        1.3940    11.0710     0.2140 C.3   1 <1>   0.1400 
 25 C       -0.8460    11.9680     0.2000 C.3   1 <1>  -0.1600 
 26 C        0.5440    12.1780    -0.3970 C.3   1 <1>  -0.1600 
 27 H       -2.7430     0.5810    -0.9040 H     1 <1>   0.1500 
 28 H       -1.5130     5.0860     0.6620 H     1 <1>   0.1500 
 29 H        0.7150     5.3810     0.1180 H     1 <1>   0.0800 
 30 H       -0.3470     6.0290    -1.1360 H     1 <1>   0.0800 
 31 H       -3.4260     3.9560     1.6220 H     1 <1>   0.1500 
 32 H       -4.3510     0.4320     0.9390 H     1 <1>   0.0800 
 33 H       -5.3270     1.8330     0.5630 H     1 <1>   0.0800 
 34 H       -4.4940     1.7270     2.0980 H     1 <1>   0.0800 
 35 H        1.4950     5.6220    -2.8010 H     1 <1>   0.0800 
 36 H        2.5320     5.1480    -1.4740 H     1 <1>   0.0800 
 37 H        1.4920     7.9900    -3.3770 H     1 <1>   0.0800 
 38 H        1.7100     9.1870    -2.1240 H     1 <1>   0.0800 
 39 H        0.2710     8.1860    -2.1300 H     1 <1>   0.0800 
 40 H        5.7230     7.0460     0.7250 H     1 <1>   0.1500 
 41 H        2.5120     9.0550     2.6570 H     1 <1>   0.1500 
 42 H        4.8760     8.2770     2.6560 H     1 <1>   0.1500 
 43 H       -1.5070    10.2170     1.2980 H     1 <1>   0.0800 
 44 H       -1.4380     9.9960    -0.4460 H     1 <1>   0.0800 
 45 H        2.1720    10.7510    -0.4580 H     1 <1>   0.0800 
 46 H        1.8280    11.4020     1.1420 H     1 <1>   0.0800 
 47 H       -0.9100    12.4530     1.1590 H     1 <1>   0.0800 
 48 H       -1.6280    12.3470    -0.4350 H     1 <1>   0.0800 
 49 H        0.5080    12.0430    -1.4640 H     1 <1>   0.0800 
 50 H        0.9410    13.1540    -0.1800 H     1 <1>   0.0800 
@<TRIPOS>BOND
  1   1   2  1   
  2   2   3  ar  
  3   2   4  ar  
  4   3   5  1   
  5   3   6  ar  
  6   4   7  ar  
  7   4  27  1   
  8   5   8  1   
  9   6   9  ar  
 10   6  28  1   
 11   7   9  ar  
 12   7  10  1   
 13   8  11  1   
 14   8  29  1   
 15   8  30  1   
 16   9  31  1   
 17  10  32  1   
 18  10  33  1   
 19  10  34  1   
 20  11  12  1   
 21  11  35  1   
 22  11  36  1   
 23  12  13  1   
 24  12  14  1   
 25  13  15  ar  
 26  13  16  ar  
 27  14  37  1   
 28  14  38  1   
 29  14  39  1   
 30  15  17  ar  
 31  16  18  1   
 32  16  19  ar  
 33  17  20  ar  
 34  17  40  1   
 35  18  21  2   
 36  18  22  am  
 37  19  20  ar  
 38  19  41  1   
 39  20  42  1   
 40  22  23  1   
 41  22  24  1   
 42  23  25  1   
 43  23  43  1   
 44  23  44  1   
 45  24  26  1   
 46  24  45  1   
 47  24  46  1   
 48  25  26  1   
 49  25  47  1   
 50  25  48  1   
 51  26  49  1   
 52  26  50  1   
@<TRIPOS>SUBSTRUCTURE
  1 ****   8 GROUP 4 **** **** 0

# MOE 2024.06 (io_trps.svl 2023.06)
