@<TRIPOS>MOLECULE
NONAME
46 47 1 0 0 
SMALL
USER_CHARGES


@<TRIPOS>ATOM
  1 F       -2.3520     0.4000     0.0510 F     1 <1>  -0.1900 
  2 C       -2.8280    -0.8240     0.1110 C.ar  1 <1>   0.1900 
  3 C       -3.7550    -1.2420     1.0620 C.ar  1 <1>   0.3920 
  4 C       -2.3900    -1.7330    -0.8160 C.ar  1 <1>   0.1600 
  5 O       -4.2880    -0.4720     2.0390 O.3   1 <1>  -0.3630 
  6 N       -4.1910    -2.4840     1.0660 N.ar  1 <1>  -0.6200 
  7 N       -2.8230    -2.9760    -0.8230 N.ar  1 <1>  -0.6200 
  8 C       -3.9480     0.8750     2.2780 C.3   1 <1>   0.0400 
  9 C       -3.6990    -3.2800     0.1320 C.ar  1 <1>   0.7200 
 10 N       -4.1650    -4.5420     0.1880 N.pl3 1 <1>  -0.8690 
 11 C       -4.3980    -5.3470    -1.0100 C.3   1 <1>   0.4330 
 12 C       -5.7830    -5.9770    -0.9000 C.ar  1 <1>  -0.1430 
 13 C       -3.3020    -6.4030    -1.1050 C.3   1 <1>  -0.2400 
 14 C       -6.1110    -6.8090     0.1630 C.ar  1 <1>  -0.1500 
 15 C       -6.7400    -5.7220    -1.8720 C.ar  1 <1>  -0.1500 
 16 C       -7.3650    -7.3860     0.2630 C.ar  1 <1>   0.0830 
 17 C       -8.0030    -6.2810    -1.7790 C.ar  1 <1>  -0.1500 
 18 O       -7.5680    -8.2010     1.3330 O.3   1 <1>  -0.3630 
 19 C       -8.3310    -7.1020    -0.7100 C.ar  1 <1>   0.0830 
 20 C       -8.2320    -9.4290     1.1420 C.3   1 <1>   0.1200 
 21 O       -9.5900    -7.6040    -0.6420 O.3   1 <1>  -0.3620 
 22 C       -7.8230   -10.3660     2.2730 C.3   1 <1>  -0.2400 
 23 C      -10.6290    -6.6990    -0.3350 C.3   1 <1>   0.1200 
 24 C      -10.6680    -6.4650     1.1760 C.3   1 <1>  -0.2400 
 25 H       -1.6750    -1.4340    -1.5630 H     1 <1>   0.1500 
 26 H       -4.5100     1.2150     3.1290 H     1 <1>   0.0800 
 27 H       -4.2070     1.4620     1.4140 H     1 <1>   0.0800 
 28 H       -2.8950     0.9400     2.4890 H     1 <1>   0.0800 
 29 H       -4.9300    -4.6210     0.8550 H     1 <1>   0.4000 
 30 H       -4.3600    -4.7210    -1.8860 H     1 <1>   0.0800 
 31 H       -3.2800    -7.0100    -0.2200 H     1 <1>   0.0800 
 32 H       -2.3490    -5.9220    -1.2280 H     1 <1>   0.0800 
 33 H       -3.4820    -7.0340    -1.9550 H     1 <1>   0.0800 
 34 H       -5.3880    -7.0230     0.9310 H     1 <1>   0.1500 
 35 H       -6.5090    -5.0830    -2.7070 H     1 <1>   0.1500 
 36 H       -8.7370    -6.0810    -2.5370 H     1 <1>   0.1500 
 37 H       -7.9450    -9.8310     0.1850 H     1 <1>   0.0800 
 38 H       -9.2920    -9.2510     1.1620 H     1 <1>   0.0800 
 39 H       -6.7600   -10.5240     2.2540 H     1 <1>   0.0800 
 40 H       -8.3140   -11.3150     2.1540 H     1 <1>   0.0800 
 41 H       -8.1080    -9.9470     3.2210 H     1 <1>   0.0800 
 42 H      -11.5510    -7.1410    -0.6680 H     1 <1>   0.0800 
 43 H      -10.4670    -5.7770    -0.8670 H     1 <1>   0.0800 
 44 H      -10.8250    -7.3950     1.6910 H     1 <1>   0.0800 
 45 H      -11.4740    -5.7980     1.4190 H     1 <1>   0.0800 
 46 H       -9.7470    -6.0220     1.5110 H     1 <1>   0.0800 
@<TRIPOS>BOND
  1   1   2  1   
  2   2   3  ar  
  3   2   4  ar  
  4   3   5  1   
  5   3   6  ar  
  6   4   7  ar  
  7   4  25  1   
  8   5   8  1   
  9   6   9  ar  
 10   7   9  ar  
 11   8  26  1   
 12   8  27  1   
 13   8  28  1   
 14   9  10  1   
 15  10  11  1   
 16  10  29  1   
 17  11  12  1   
 18  11  13  1   
 19  11  30  1   
 20  12  14  ar  
 21  12  15  ar  
 22  13  31  1   
 23  13  32  1   
 24  13  33  1   
 25  14  16  ar  
 26  14  34  1   
 27  15  17  ar  
 28  15  35  1   
 29  16  18  1   
 30  16  19  ar  
 31  17  19  ar  
 32  17  36  1   
 33  18  20  1   
 34  19  21  1   
 35  20  22  1   
 36  20  37  1   
 37  20  38  1   
 38  21  23  1   
 39  22  39  1   
 40  22  40  1   
 41  22  41  1   
 42  23  24  1   
 43  23  42  1   
 44  23  43  1   
 45  24  44  1   
 46  24  45  1   
 47  24  46  1   
@<TRIPOS>SUBSTRUCTURE
  1 ****  12 GROUP 4 **** **** 0

# MOE 2024.06 (io_trps.svl 2023.06)
