@<TRIPOS>MOLECULE
Untitled Document
49 52 1 0 0 
SMALL
USER_CHARGES


@<TRIPOS>ATOM
  1 S        1.4780     7.6690     0.0680 S.3   1 <1>  -0.0800 
  2 C        1.3330     5.9620     0.3060 C.2   1 <1>   0.1980 
  3 C        3.1080     7.3730    -0.4230 C.2   1 <1>   0.1980 
  4 N        2.4060     5.3310     0.0360 N.2   1 <1>  -0.3380 
  5 C        0.0050     5.4090     0.7990 C.3   1 <1>   0.2900 
  6 N        3.4260     6.1430    -0.3830 N.2   1 <1>  -0.3380 
  7 C        3.9540     8.5570    -0.8310 C.3   1 <1>  -0.0600 
  8 N       -1.0650     5.6100    -0.1900 N.3   1 <1>  -0.9000 
  9 C       -2.3170     4.9670     0.2190 C.3   1 <1>   0.1100 
 10 C       -3.4340     5.3100    -0.7690 C.3   1 <1>   0.1400 
 11 N       -4.6830     4.5620    -0.4210 N.am  1 <1>  -0.4200 
 12 C       -4.8820     3.2980    -0.9470 C.2   1 <1>   0.5440 
 13 C       -5.6050     5.1350     0.4350 C.2   1 <1>   0.5440 
 14 O       -3.9930     2.7850    -1.6040 O.2   1 <1>  -0.5700 
 15 C       -6.1200     2.6000    -0.7070 C.ar  1 <1>   0.0860 
 16 O       -5.3460     6.2030     0.9580 O.2   1 <1>  -0.5700 
 17 C       -6.8540     4.4600     0.7150 C.ar  1 <1>   0.0860 
 18 C       -7.1020     3.1950     0.1230 C.ar  1 <1>   0.0000 
 19 C       -6.3830     1.3600    -1.2630 C.ar  1 <1>  -0.1500 
 20 C       -7.8090     5.0100     1.5470 C.ar  1 <1>  -0.1500 
 21 C       -8.3230     2.5230     0.3730 C.ar  1 <1>   0.0000 
 22 C       -7.5830     0.7070    -1.0360 C.ar  1 <1>  -0.1500 
 23 C       -9.0020     4.3470     1.8180 C.ar  1 <1>  -0.1500 
 24 C       -8.5640     1.2630    -0.2440 C.ar  1 <1>   0.1000 
 25 C       -9.2460     3.1300     1.2450 C.ar  1 <1>  -0.1500 
 26 N       -9.7640     0.5940    -0.0790 N.pl3 1 <1>  -0.8380 
 27 C       -9.7980    -0.8270     0.3540 C.3   1 <1>   0.1290 
 28 C      -10.9920     1.1010    -0.7450 C.3   1 <1>   0.1290 
 29 H       -0.2590     5.9010     1.7190 H     1 <1>   0.0800 
 30 H        0.1250     4.3580     0.9950 H     1 <1>   0.0800 
 31 H        3.5030     9.0560    -1.6690 H     1 <1>   0.0800 
 32 H        4.9360     8.2220    -1.1110 H     1 <1>   0.0800 
 33 H        4.0400     9.2450    -0.0110 H     1 <1>   0.0800 
 34 H       -0.7470     5.1900    -1.0760 H     1 <1>   0.3600 
 35 H       -2.6010     5.3190     1.1970 H     1 <1>   0.0800 
 36 H       -2.1800     3.8990     0.2490 H     1 <1>   0.0800 
 37 H       -3.1270     5.0530    -1.7680 H     1 <1>   0.0800 
 38 H       -3.6200     6.3700    -0.7450 H     1 <1>   0.0800 
 39 H       -5.6460     0.8890    -1.8910 H     1 <1>   0.1500 
 40 H       -7.6360     5.9700     2.0050 H     1 <1>   0.1500 
 41 H       -7.7570    -0.2480    -1.4970 H     1 <1>   0.1500 
 42 H       -9.7220     4.7990     2.4790 H     1 <1>   0.1500 
 43 H      -10.1620     2.6120     1.4650 H     1 <1>   0.1500 
 44 H       -8.8560    -1.0980     0.8000 H     1 <1>   0.0800 
 45 H       -9.9840    -1.4660    -0.4910 H     1 <1>   0.0800 
 46 H      -10.5760    -0.9650     1.0840 H     1 <1>   0.0800 
 47 H      -10.8240     2.0940    -1.1250 H     1 <1>   0.0800 
 48 H      -11.8040     1.1310    -0.0390 H     1 <1>   0.0800 
 49 H      -11.2570     0.4560    -1.5650 H     1 <1>   0.0800 
@<TRIPOS>BOND
  1   1   2  1   
  2   1   3  1   
  3   2   4  2   
  4   2   5  1   
  5   3   6  2   
  6   3   7  1   
  7   4   6  1   
  8   5   8  1   
  9   5  29  1   
 10   5  30  1   
 11   7  31  1   
 12   7  32  1   
 13   7  33  1   
 14   8   9  1   
 15   8  34  1   
 16   9  10  1   
 17   9  35  1   
 18   9  36  1   
 19  10  11  1   
 20  10  37  1   
 21  10  38  1   
 22  11  12  am  
 23  11  13  am  
 24  12  14  2   
 25  12  15  1   
 26  13  16  2   
 27  13  17  1   
 28  15  18  ar  
 29  15  19  ar  
 30  17  18  ar  
 31  17  20  ar  
 32  18  21  ar  
 33  19  22  ar  
 34  19  39  1   
 35  20  23  ar  
 36  20  40  1   
 37  21  24  ar  
 38  21  25  ar  
 39  22  24  ar  
 40  22  41  1   
 41  23  25  ar  
 42  23  42  1   
 43  24  26  1   
 44  25  43  1   
 45  26  27  1   
 46  26  28  1   
 47  27  44  1   
 48  27  45  1   
 49  27  46  1   
 50  28  47  1   
 51  28  48  1   
 52  28  49  1   
@<TRIPOS>SUBSTRUCTURE
  1 ****  11 GROUP 4 **** **** 0

# MOE 2024.06 (io_trps.svl 2023.06)
