@<TRIPOS>MOLECULE
NONAME
54 57 1 0 0 
SMALL
USER_CHARGES


@<TRIPOS>ATOM
  1 O       -2.1480    -2.1510    -1.1210 O.2   1 <1>  -0.5700 
  2 C       -0.9770    -2.3390    -0.8230 C.2   1 <1>   0.7670 
  3 N       -0.0350    -2.0590    -1.7740 N.2   1 <1>  -0.6610 
  4 C       -0.6040    -2.8200     0.4730 C.2   1 <1>  -0.1240 
  5 C        1.1900    -2.2530    -1.4690 C.2   1 <1>   0.4390 
  6 C        0.7140    -3.0210     0.7360 C.2   1 <1>  -0.0380 
  7 C       -1.7290    -3.0930     1.4770 C.3   1 <1>   0.0390 
  8 N        1.6010    -2.7170    -0.2580 N.pl3 1 <1>  -0.5500 
  9 C        2.2690    -1.9640    -2.4830 C.3   1 <1>  -0.1790 
 10 C        1.3260    -3.5710     2.0150 C.3   1 <1>  -0.1020 
 11 C       -2.2900    -4.5020     1.3210 C.2   1 <1>   0.5690 
 12 O       -1.4860    -5.4040     1.2650 O.2   1 <1>  -0.5700 
 13 N       -3.6400    -4.7570     1.2710 N.am  1 <1>  -0.6600 
 14 C       -4.1370    -6.1460     1.0040 C.3   1 <1>   0.1400 
 15 C       -4.7320    -3.7510     1.4160 C.3   1 <1>   0.1400 
 16 C       -4.5410    -6.3310    -0.4670 C.3   1 <1>   0.1400 
 17 C       -5.1020    -3.0830     0.0830 C.3   1 <1>  -0.1600 
 18 N       -5.5560    -5.3190    -0.9030 N.am  1 <1>  -0.6600 
 19 C       -4.9770    -3.9710    -1.1620 C.3   1 <1>   0.1400 
 20 C       -6.9040    -5.5720    -1.0830 C.2   1 <1>   0.7150 
 21 O       -7.5670    -4.7560    -1.7010 O.2   1 <1>  -0.5700 
 22 C       -7.5750    -6.7450    -0.5740 C.2   1 <1>   0.0550 
 23 O       -7.1210    -7.4440     0.4420 O.3   1 <1>  -0.0190 
 24 C       -8.7320    -7.3390    -0.9420 C.2   1 <1>  -0.1500 
 25 N       -7.8800    -8.4500     0.7520 N.2   1 <1>  -0.4100 
 26 C       -8.8690    -8.4100    -0.0710 C.2   1 <1>   0.2030 
 27 C      -10.0110    -9.4140    -0.0600 C.3   1 <1>  -0.0140 
 28 C      -10.6590    -9.8550    -1.3380 C.3   1 <1>  -0.2000 
 29 C      -11.4120    -8.9850    -0.3800 C.3   1 <1>  -0.2000 
 30 H       -2.4940    -2.3540     1.3540 H     1 <1>   0.0800 
 31 H       -1.3700    -2.9900     2.4810 H     1 <1>   0.0800 
 32 H        2.6010    -2.8620    -0.1120 H     1 <1>   0.4000 
 33 H        2.9370    -1.2140    -2.1040 H     1 <1>   0.0800 
 34 H        1.8280    -1.6030    -3.3950 H     1 <1>   0.0800 
 35 H        2.8180    -2.8620    -2.6990 H     1 <1>   0.0800 
 36 H        2.0130    -4.3640     1.7760 H     1 <1>   0.0800 
 37 H        0.5850    -3.9820     2.6730 H     1 <1>   0.0800 
 38 H        1.8580    -2.7940     2.5330 H     1 <1>   0.0800 
 39 H       -4.9780    -6.3600     1.6400 H     1 <1>   0.0800 
 40 H       -3.3740    -6.8660     1.2430 H     1 <1>   0.0800 
 41 H       -4.4590    -3.0040     2.1400 H     1 <1>   0.0800 
 42 H       -5.6070    -4.2490     1.8000 H     1 <1>   0.0800 
 43 H       -4.9160    -7.3270    -0.6160 H     1 <1>   0.0800 
 44 H       -3.6600    -6.2380    -1.0790 H     1 <1>   0.0800 
 45 H       -4.4880    -2.2140    -0.0610 H     1 <1>   0.0800 
 46 H       -6.1150    -2.7280     0.1480 H     1 <1>   0.0800 
 47 H       -3.9380    -4.0680    -1.4290 H     1 <1>   0.0800 
 48 H       -5.4760    -3.5020    -1.9930 H     1 <1>   0.0800 
 49 H       -9.4040    -7.0520    -1.7290 H     1 <1>   0.1500 
 50 H       -9.8880   -10.1550     0.7110 H     1 <1>   0.1000 
 51 H      -10.9440   -10.8880    -1.4360 H     1 <1>   0.1000 
 52 H      -10.3220    -9.4330    -2.2690 H     1 <1>   0.1000 
 53 H      -11.5960    -7.9580    -0.6430 H     1 <1>   0.1000 
 54 H      -12.2200    -9.4140     0.1880 H     1 <1>   0.1000 
@<TRIPOS>BOND
  1   1   2  2   
  2   2   3  1   
  3   2   4  1   
  4   3   5  2   
  5   4   6  2   
  6   4   7  1   
  7   5   8  1   
  8   5   9  1   
  9   6   8  1   
 10   6  10  1   
 11   7  11  1   
 12   7  30  1   
 13   7  31  1   
 14   8  32  1   
 15   9  33  1   
 16   9  34  1   
 17   9  35  1   
 18  10  36  1   
 19  10  37  1   
 20  10  38  1   
 21  11  12  2   
 22  11  13  am  
 23  13  14  1   
 24  13  15  1   
 25  14  16  1   
 26  14  39  1   
 27  14  40  1   
 28  15  17  1   
 29  15  41  1   
 30  15  42  1   
 31  16  18  1   
 32  16  43  1   
 33  16  44  1   
 34  17  19  1   
 35  17  45  1   
 36  17  46  1   
 37  18  19  1   
 38  18  20  am  
 39  19  47  1   
 40  19  48  1   
 41  20  21  2   
 42  20  22  1   
 43  22  23  1   
 44  22  24  2   
 45  23  25  1   
 46  24  26  1   
 47  24  49  1   
 48  25  26  2   
 49  26  27  1   
 50  27  28  1   
 51  27  29  1   
 52  27  50  1   
 53  28  29  1   
 54  28  51  1   
 55  28  52  1   
 56  29  53  1   
 57  29  54  1   
@<TRIPOS>SUBSTRUCTURE
  1 ****  16 GROUP 4 **** **** 0

# MOE 2024.06 (io_trps.svl 2023.06)
