@<TRIPOS>MOLECULE
NONAME
45 47 1 0 0 
SMALL
USER_CHARGES


@<TRIPOS>ATOM
  1 S       -0.2420     0.3750    -1.8260 S.o2  1 <1>   1.5010 
  2 O        0.4370     1.4090    -2.5850 O.2   1 <1>  -0.6500 
  3 O       -1.0950    -0.5420    -2.5570 O.2   1 <1>  -0.6500 
  4 N       -1.2620     1.1880    -0.7330 N.am  1 <1>  -0.8490 
  5 C        1.0020    -0.5050    -0.7900 C.2   1 <1>   0.1640 
  6 C       -2.0920     2.1730    -1.4280 C.3   1 <1>   0.1960 
  7 C       -2.0810     0.2500     0.0430 C.3   1 <1>   0.1960 
  8 N        0.7510    -1.6190    -0.0410 N.2   1 <1>  -0.5650 
  9 C        2.3050    -0.1580    -0.6210 C.2   1 <1>  -0.3020 
 10 C       -2.9050     2.9920    -0.4250 C.3   1 <1>  -0.1600 
 11 C       -2.9090     1.0000     1.0870 C.3   1 <1>  -0.1600 
 12 C        1.8740    -1.8990     0.5310 C.2   1 <1>   0.0070 
 13 N        2.8690    -1.0410     0.2170 N.pl3 1 <1>   0.0480 
 14 C       -3.7720     2.0940     0.4600 C.3   1 <1>   0.4180 
 15 C        2.0510    -3.0790     1.4650 C.3   1 <1>  -0.0600 
 16 C        4.2700    -1.0470     0.6730 C.3   1 <1>   0.0160 
 17 O       -4.2590     2.8520     1.5370 O.3   1 <1>  -0.5600 
 18 C       -4.9410     1.4880    -0.3230 C.2   1 <1>  -0.2880 
 19 C       -5.3570     3.6850     1.2930 C.3   1 <1>   0.1200 
 20 C       -6.2210     1.8090    -0.1220 C.2   1 <1>  -0.2760 
 21 C       -6.5900     2.8520     0.9170 C.3   1 <1>  -0.0220 
 22 C       -7.3900     1.1890    -0.8660 C.3   1 <1>  -0.1020 
 23 H       -2.7450     1.6760    -2.1270 H     1 <1>   0.0800 
 24 H       -1.4640     2.8490    -1.9850 H     1 <1>   0.0800 
 25 H       -1.4470    -0.4500     0.5580 H     1 <1>   0.0800 
 26 H       -2.7260    -0.3120    -0.6120 H     1 <1>   0.0800 
 27 H        2.8340     0.6700    -1.0580 H     1 <1>   0.1500 
 28 H       -3.5260     3.6790    -0.9680 H     1 <1>   0.0800 
 29 H       -2.2250     3.5530     0.1890 H     1 <1>   0.0800 
 30 H       -2.2340     1.4420     1.7980 H     1 <1>   0.0800 
 31 H       -3.5400     0.3050     1.6090 H     1 <1>   0.0800 
 32 H        1.1230    -3.6140     1.5550 H     1 <1>   0.0800 
 33 H        2.3470    -2.7390     2.4400 H     1 <1>   0.0800 
 34 H        2.7960    -3.7490     1.0770 H     1 <1>   0.0800 
 35 H        4.7990    -0.2250     0.2250 H     1 <1>   0.0800 
 36 H        4.7350    -1.9710     0.3830 H     1 <1>   0.0800 
 37 H        4.2970    -0.9480     1.7430 H     1 <1>   0.0800 
 38 H       -4.6370     0.7650    -1.0570 H     1 <1>   0.1500 
 39 H       -5.1040     4.3660     0.5000 H     1 <1>   0.0800 
 40 H       -5.5460     4.2510     2.1880 H     1 <1>   0.0800 
 41 H       -7.3450     3.5130     0.5320 H     1 <1>   0.0800 
 42 H       -6.9810     2.3690     1.7950 H     1 <1>   0.0800 
 43 H       -8.0570     0.7090    -0.1720 H     1 <1>   0.0800 
 44 H       -7.0420     0.4520    -1.5680 H     1 <1>   0.0800 
 45 H       -7.9320     1.9450    -1.4060 H     1 <1>   0.0800 
@<TRIPOS>BOND
  1   1   2  2   
  2   1   3  2   
  3   1   4  am  
  4   1   5  1   
  5   4   6  1   
  6   4   7  1   
  7   5   8  1   
  8   5   9  2   
  9   6  10  1   
 10   6  23  1   
 11   6  24  1   
 12   7  11  1   
 13   7  25  1   
 14   7  26  1   
 15   8  12  2   
 16   9  13  1   
 17   9  27  1   
 18  10  14  1   
 19  10  28  1   
 20  10  29  1   
 21  11  14  1   
 22  11  30  1   
 23  11  31  1   
 24  12  13  1   
 25  12  15  1   
 26  13  16  1   
 27  14  17  1   
 28  14  18  1   
 29  15  32  1   
 30  15  33  1   
 31  15  34  1   
 32  16  35  1   
 33  16  36  1   
 34  16  37  1   
 35  17  19  1   
 36  18  20  2   
 37  18  38  1   
 38  19  21  1   
 39  19  39  1   
 40  19  40  1   
 41  20  21  1   
 42  20  22  1   
 43  21  41  1   
 44  21  42  1   
 45  22  43  1   
 46  22  44  1   
 47  22  45  1   
@<TRIPOS>SUBSTRUCTURE
  1 ****   7 GROUP 4 **** **** 0

# MOE 2024.06 (io_trps.svl 2023.06)
