@<TRIPOS>MOLECULE
NONAME
43 44 1 0 0 
SMALL
USER_CHARGES


@<TRIPOS>ATOM
  1 O        0.6940    -0.1410     1.4380 O.2   1 <1>  -0.5700 
  2 C        1.7750    -0.1330     0.8940 C.2   1 <1>   0.7150 
  3 N        2.3480    -1.3560     0.7480 N.am  1 <1>  -0.7300 
  4 C        2.3470     1.1080     0.4580 C.2   1 <1>  -0.2370 
  5 C        3.7360    -1.8170     0.4710 C.3   1 <1>   0.1400 
  6 N        3.3880     1.2670    -0.3920 N.pl3 1 <1>   0.3140 
  7 C        1.9590     2.3700     0.7770 C.2   1 <1>  -0.1500 
  8 C        4.7320    -0.7290     0.0410 C.3   1 <1>   0.2000 
  9 N        3.6770     2.5520    -0.6170 N.2   1 <1>  -0.7070 
 10 C        4.1850     0.2110    -1.0300 C.3   1 <1>   0.0960 
 11 C        2.8030     3.2420     0.0980 C.2   1 <1>   0.2030 
 12 O        5.8650    -1.3600    -0.4600 O.3   1 <1>  -0.6800 
 13 C        2.7310     4.6950     0.1690 C.2   1 <1>   0.7160 
 14 O        1.8990     5.2670     0.8520 O.2   1 <1>  -0.5700 
 15 N        3.6240     5.4400    -0.5490 N.am  1 <1>  -0.7300 
 16 C        3.7300     6.9110    -0.5850 C.3   1 <1>   0.1400 
 17 C        5.1600     7.3150    -0.2290 C.3   1 <1>  -0.1600 
 18 C        5.3240     8.8410    -0.2450 C.3   1 <1>  -0.1600 
 19 C        6.7590     9.2460     0.1130 C.3   1 <1>  -0.1600 
 20 C        6.9240    10.7700     0.0980 C.3   1 <1>  -0.1600 
 21 C        8.3570    11.1720     0.4560 C.3   1 <1>  -0.2400 
 22 H        1.7320    -2.0910     1.1060 H     1 <1>   0.3700 
 23 H        3.6790    -2.5600    -0.3060 H     1 <1>   0.0800 
 24 H        4.1190    -2.2940     1.3580 H     1 <1>   0.0800 
 25 H        1.1530     2.6660     1.4270 H     1 <1>   0.1500 
 26 H        5.0530    -0.1620     0.8990 H     1 <1>   0.0800 
 27 H        4.9990     0.6850    -1.5490 H     1 <1>   0.0800 
 28 H        3.5670    -0.3140    -1.7330 H     1 <1>   0.0800 
 29 H        5.6730    -1.8640    -1.2750 H     1 <1>   0.4000 
 30 H        4.2960     4.9020    -1.1020 H     1 <1>   0.3700 
 31 H        3.0380     7.3460     0.1170 H     1 <1>   0.0800 
 32 H        3.4780     7.2590    -1.5730 H     1 <1>   0.0800 
 33 H        5.8410     6.8770    -0.9370 H     1 <1>   0.0800 
 34 H        5.3940     6.9420     0.7530 H     1 <1>   0.0800 
 35 H        4.6420     9.2810     0.4630 H     1 <1>   0.0800 
 36 H        5.0800     9.2180    -1.2240 H     1 <1>   0.0800 
 37 H        7.4430     8.8060    -0.5930 H     1 <1>   0.0800 
 38 H        7.0030     8.8700     1.0930 H     1 <1>   0.0800 
 39 H        6.2450    11.2140     0.8060 H     1 <1>   0.0800 
 40 H        6.6830    11.1510    -0.8800 H     1 <1>   0.0800 
 41 H        8.6120    10.8210     1.4400 H     1 <1>   0.0800 
 42 H        8.4520    12.2440     0.4410 H     1 <1>   0.0800 
 43 H        9.0530    10.7580    -0.2520 H     1 <1>   0.0800 
@<TRIPOS>BOND
  1   1   2  2   
  2   2   3  am  
  3   2   4  1   
  4   3   5  1   
  5   3  22  1   
  6   4   6  1   
  7   4   7  2   
  8   5   8  1   
  9   5  23  1   
 10   5  24  1   
 11   6   9  1   
 12   6  10  1   
 13   7  11  1   
 14   7  25  1   
 15   8  10  1   
 16   8  12  1   
 17   8  26  1   
 18   9  11  2   
 19  10  27  1   
 20  10  28  1   
 21  11  13  1   
 22  12  29  1   
 23  13  14  2   
 24  13  15  am  
 25  15  16  1   
 26  15  30  1   
 27  16  17  1   
 28  16  31  1   
 29  16  32  1   
 30  17  18  1   
 31  17  33  1   
 32  17  34  1   
 33  18  19  1   
 34  18  35  1   
 35  18  36  1   
 36  19  20  1   
 37  19  37  1   
 38  19  38  1   
 39  20  21  1   
 40  20  39  1   
 41  20  40  1   
 42  21  41  1   
 43  21  42  1   
 44  21  43  1   
@<TRIPOS>SUBSTRUCTURE
  1 ****  11 GROUP 4 **** **** 0

# MOE 2024.06 (io_trps.svl 2023.06)
