@<TRIPOS>MOLECULE
NONAME
57 59 1 0 0 
SMALL
USER_CHARGES


@<TRIPOS>ATOM
  1 O       -0.2220     1.2050    -0.2360 O.2   1 <1>  -0.5700 
  2 C       -0.4000     2.3810    -0.4490 C.2   1 <1>   0.5690 
  3 N       -1.2720     3.1600     0.2740 N.am  1 <1>  -0.6600 
  4 C        0.4020     3.0060    -1.5920 C.3   1 <1>   0.1810 
  5 C       -1.4220     4.6230    -0.0390 C.3   1 <1>   0.3640 
  6 C       -1.9490     2.7150     1.5280 C.3   1 <1>   0.2200 
  7 O        0.5710     4.3920    -1.4380 O.3   1 <1>  -0.5600 
  8 C       -2.8990     4.9960    -0.1690 C.ar  1 <1>  -0.1440 
  9 C       -0.6580     5.0820    -1.3050 C.3   1 <1>   0.2610 
 10 C       -0.9120     2.3870     2.6020 C.3   1 <1>  -0.2400 
 11 C       -2.8930     1.5410     1.2650 C.3   1 <1>  -0.2400 
 12 C       -3.7590     4.2540    -0.9680 C.ar  1 <1>  -0.1500 
 13 C       -3.3950     6.0990     0.5130 C.ar  1 <1>  -0.1500 
 14 C       -0.4160     6.5870    -1.2040 C.2   1 <1>   0.5690 
 15 C       -5.0920     4.6050    -1.0810 C.ar  1 <1>  -0.1500 
 16 C       -4.7280     6.4520     0.3990 C.ar  1 <1>  -0.1500 
 17 O       -1.2200     7.3480    -1.6890 O.2   1 <1>  -0.5700 
 18 N        0.6880     7.0040    -0.5290 N.am  1 <1>  -0.7300 
 19 C       -5.5780     5.7050    -0.3970 C.ar  1 <1>  -0.1500 
 20 C        1.1740     8.3390    -0.0940 C.3   1 <1>   0.3000 
 21 C        2.4170     8.6700    -0.9410 C.3   1 <1>  -0.1600 
 22 C        1.5880     8.1980     1.3860 C.3   1 <1>  -0.1600 
 23 C        0.1320     9.4820    -0.2360 C.3   1 <1>   0.1200 
 24 C        3.5840     7.6860    -0.7350 C.3   1 <1>  -0.1600 
 25 C        2.7510     7.2140     1.6150 C.3   1 <1>  -0.1600 
 26 O       -1.0890     9.1580     0.3460 O.3   1 <1>  -0.6800 
 27 C        3.9620     7.5780     0.7470 C.3   1 <1>  -0.1600 
 28 H       -0.0930     2.8190    -2.5270 H     1 <1>   0.0800 
 29 H        1.3800     2.5600    -1.6230 H     1 <1>   0.0800 
 30 H       -1.0130     5.1630     0.7970 H     1 <1>   0.0800 
 31 H       -2.5520     3.5250     1.9050 H     1 <1>   0.0800 
 32 H       -1.2460     4.8910    -2.1840 H     1 <1>   0.0800 
 33 H       -0.3280     1.5290     2.3230 H     1 <1>   0.0800 
 34 H       -1.4090     2.1650     3.5290 H     1 <1>   0.0800 
 35 H       -0.2600     3.2260     2.7580 H     1 <1>   0.0800 
 36 H       -2.3500     0.6590     0.9780 H     1 <1>   0.0800 
 37 H       -3.5950     1.7930     0.4930 H     1 <1>   0.0800 
 38 H       -3.4450     1.3150     2.1590 H     1 <1>   0.0800 
 39 H       -3.3940     3.3940    -1.5030 H     1 <1>   0.1500 
 40 H       -2.7500     6.6980     1.1340 H     1 <1>   0.1500 
 41 H       -5.7520     4.0240    -1.7010 H     1 <1>   0.1500 
 42 H       -5.1030     7.3110     0.9280 H     1 <1>   0.1500 
 43 H        1.3720     6.2730    -0.3160 H     1 <1>   0.3700 
 44 H       -6.6140     5.9810    -0.4860 H     1 <1>   0.1500 
 45 H        2.1420     8.6900    -1.9820 H     1 <1>   0.0800 
 46 H        2.7590     9.6570    -0.6830 H     1 <1>   0.0800 
 47 H        1.8890     9.1640     1.7520 H     1 <1>   0.0800 
 48 H        0.7350     7.8950     1.9670 H     1 <1>   0.0800 
 49 H       -0.0460     9.6970    -1.2760 H     1 <1>   0.0800 
 50 H        0.4940    10.3780     0.2380 H     1 <1>   0.0800 
 51 H        3.3150     6.7140    -1.1120 H     1 <1>   0.0800 
 52 H        4.4380     8.0230    -1.2980 H     1 <1>   0.0800 
 53 H        3.0370     7.2360     2.6530 H     1 <1>   0.0800 
 54 H        2.4360     6.2090     1.3910 H     1 <1>   0.0800 
 55 H       -1.5140     8.4930    -0.2490 H     1 <1>   0.4000 
 56 H        4.3640     8.5200     1.0790 H     1 <1>   0.0800 
 57 H        4.7310     6.8340     0.8700 H     1 <1>   0.0800 
@<TRIPOS>BOND
  1   1   2  2   
  2   2   3  am  
  3   2   4  1   
  4   3   5  1   
  5   3   6  1   
  6   4   7  1   
  7   4  28  1   
  8   4  29  1   
  9   5   8  1   
 10   5   9  1   
 11   5  30  1   
 12   6  10  1   
 13   6  11  1   
 14   6  31  1   
 15   7   9  1   
 16   8  12  ar  
 17   8  13  ar  
 18   9  14  1   
 19   9  32  1   
 20  10  33  1   
 21  10  34  1   
 22  10  35  1   
 23  11  36  1   
 24  11  37  1   
 25  11  38  1   
 26  12  15  ar  
 27  12  39  1   
 28  13  16  ar  
 29  13  40  1   
 30  14  17  2   
 31  14  18  am  
 32  15  19  ar  
 33  15  41  1   
 34  16  19  ar  
 35  16  42  1   
 36  18  20  1   
 37  18  43  1   
 38  19  44  1   
 39  20  21  1   
 40  20  22  1   
 41  20  23  1   
 42  21  24  1   
 43  21  45  1   
 44  21  46  1   
 45  22  25  1   
 46  22  47  1   
 47  22  48  1   
 48  23  26  1   
 49  23  49  1   
 50  23  50  1   
 51  24  27  1   
 52  24  51  1   
 53  24  52  1   
 54  25  27  1   
 55  25  53  1   
 56  25  54  1   
 57  26  55  1   
 58  27  56  1   
 59  27  57  1   
@<TRIPOS>SUBSTRUCTURE
  1 ****   5 GROUP 4 **** **** 0

# MOE 2024.06 (io_trps.svl 2023.06)
