@<TRIPOS>MOLECULE
NONAME
42 44 1 0 0 
SMALL
USER_CHARGES


@<TRIPOS>ATOM
  1 O        3.9850     2.8840     2.7920 O.co2 1 <1>  -0.9000 
  2 C        3.1090     2.4020     2.0600 C.2   1 <1>   0.9470 
  3 O        1.9070     2.6090     2.2830 O.co2 1 <1>  -0.9000 
  4 C        3.5280     1.7320     0.7490 C.3   1 <1>  -0.2420 
  5 C        3.8600     0.2980     0.4100 C.3   1 <1>  -0.2420 
  6 C        4.4870     2.6230    -0.0190 C.3   1 <1>   0.2350 
  7 C        2.5240     0.8750     0.0200 C.3   1 <1>  -0.2000 
  8 C        3.9050    -0.9550     1.2880 C.2   1 <1>   0.9470 
  9 C        5.0150     0.3050    -0.5770 C.3   1 <1>   0.2350 
 10 N        5.1670     1.7250    -0.9970 N.am  1 <1>  -0.6600 
 11 O        2.9590    -1.7550     1.2590 O.co2 1 <1>  -0.9000 
 12 O        4.9550    -1.2260     1.8880 O.co2 1 <1>  -0.9000 
 13 C        5.9070     2.1080    -2.0770 C.2   1 <1>   0.5690 
 14 O        6.4380     1.3010    -2.8070 O.2   1 <1>  -0.5700 
 15 C        6.0800     3.5840    -2.4160 C.3   1 <1>   0.0440 
 16 C        6.9950     4.3890    -1.4890 C.ar  1 <1>  -0.1430 
 17 C        7.1530     5.7450    -1.7300 C.ar  1 <1>  -0.1500 
 18 C        7.6690     3.8200    -0.4180 C.ar  1 <1>  -0.1500 
 19 C        7.9530     6.5400    -0.9240 C.ar  1 <1>   0.0820 
 20 C        8.4570     4.5990     0.4090 C.ar  1 <1>  -0.1500 
 21 O        8.0310     7.8490    -1.2960 O.3   1 <1>  -0.3630 
 22 C        8.5940     5.9620     0.1830 C.ar  1 <1>   0.0820 
 23 C        9.1780     8.6190    -1.0140 C.3   1 <1>   0.0400 
 24 O        9.3310     6.7090     1.0510 O.3   1 <1>  -0.3630 
 25 C        9.0650     6.5640     2.4300 C.3   1 <1>   0.0400 
 26 H        5.2180     3.0400     0.6530 H     1 <1>   0.0800 
 27 H        3.9500     3.4140    -0.5090 H     1 <1>   0.0800 
 28 H        2.3120     1.0650    -1.0150 H     1 <1>   0.1000 
 29 H        1.6570     0.5390     0.5650 H     1 <1>   0.1000 
 30 H        4.8050    -0.3290    -1.4210 H     1 <1>   0.0800 
 31 H        5.9210    -0.0220    -0.0960 H     1 <1>   0.0800 
 32 H        6.4760     3.6470    -3.4130 H     1 <1>   0.0800 
 33 H        5.1080     4.0390    -2.4340 H     1 <1>   0.0800 
 34 H        6.6510     6.2090    -2.5590 H     1 <1>   0.1500 
 35 H        7.5840     2.7670    -0.2020 H     1 <1>   0.1500 
 36 H        8.9580     4.1280     1.2330 H     1 <1>   0.1500 
 37 H        9.1760     9.4740    -1.6640 H     1 <1>   0.0800 
 38 H       10.0550     8.0210    -1.1920 H     1 <1>   0.0800 
 39 H        9.1360     8.9400     0.0110 H     1 <1>   0.0800 
 40 H        9.5100     7.3950     2.9460 H     1 <1>   0.0800 
 41 H        9.4980     5.6440     2.7790 H     1 <1>   0.0800 
 42 H        7.9990     6.5630     2.5830 H     1 <1>   0.0800 
@<TRIPOS>BOND
  1   1   2  ar  
  2   2   3  ar  
  3   2   4  1   
  4   4   5  1   
  5   4   6  1   
  6   4   7  1   
  7   5   7  1   
  8   5   8  1   
  9   5   9  1   
 10   6  10  1   
 11   6  26  1   
 12   6  27  1   
 13   7  28  1   
 14   7  29  1   
 15   8  11  ar  
 16   8  12  ar  
 17   9  10  1   
 18   9  30  1   
 19   9  31  1   
 20  10  13  am  
 21  13  14  2   
 22  13  15  1   
 23  15  16  1   
 24  15  32  1   
 25  15  33  1   
 26  16  17  ar  
 27  16  18  ar  
 28  17  19  ar  
 29  17  34  1   
 30  18  20  ar  
 31  18  35  1   
 32  19  21  1   
 33  19  22  ar  
 34  20  22  ar  
 35  20  36  1   
 36  21  23  1   
 37  22  24  1   
 38  23  37  1   
 39  23  38  1   
 40  23  39  1   
 41  24  25  1   
 42  25  40  1   
 43  25  41  1   
 44  25  42  1   
@<TRIPOS>SUBSTRUCTURE
  1 ****   6 GROUP 4 **** **** 0

# MOE 2024.06 (io_trps.svl 2023.06)
