@<TRIPOS>MOLECULE
NONAME
51 54 1 0 0 
SMALL
USER_CHARGES


@<TRIPOS>ATOM
  1 F       -0.4210    -2.6040    -2.2600 F     1 <1>  -0.1900 
  2 C       -1.0570    -2.7860    -1.1310 C.ar  1 <1>   0.1900 
  3 C       -1.8740    -1.7920    -0.6200 C.ar  1 <1>   0.1900 
  4 C       -0.9000    -3.9850    -0.4620 C.ar  1 <1>  -0.1500 
  5 F       -2.0220    -0.6590    -1.2580 F     1 <1>  -0.1900 
  6 C       -2.5480    -1.9770     0.5730 C.ar  1 <1>  -0.1500 
  7 C       -1.5770    -4.1870     0.7360 C.ar  1 <1>  -0.1440 
  8 C       -2.3930    -3.1800     1.2470 C.ar  1 <1>  -0.1500 
  9 C       -1.4230    -5.5060     1.4920 C.3   1 <1>   0.0450 
 10 C       -1.4800    -6.7360     0.5930 C.2   1 <1>   0.5690 
 11 O       -0.4580    -7.3720     0.4780 O.2   1 <1>  -0.5700 
 12 N       -2.6360    -7.1070    -0.0530 N.am  1 <1>  -0.6600 
 13 C       -2.6670    -8.2830    -0.9690 C.3   1 <1>   0.1400 
 14 C       -3.9330    -6.3760     0.0050 C.3   1 <1>   0.1400 
 15 C       -3.7530    -9.2580    -0.5090 C.3   1 <1>  -0.1600 
 16 C       -5.0270    -7.3320     0.4870 C.3   1 <1>  -0.1600 
 17 C       -5.1270    -8.5820    -0.4050 C.3   1 <1>   0.4240 
 18 O       -5.4320    -8.1590    -1.7130 O.3   1 <1>  -0.5600 
 19 C       -6.1790    -9.5740     0.1380 C.ar  1 <1>  -0.1430 
 20 C       -6.7710    -7.9260    -2.0220 C.3   1 <1>   0.1200 
 21 C       -7.3170    -9.8910    -0.5960 C.ar  1 <1>  -0.1430 
 22 C       -6.0100   -10.1680     1.3850 C.ar  1 <1>  -0.1500 
 23 C       -7.5300    -9.2470    -1.9520 C.3   1 <1>  -0.0170 
 24 C       -8.2540   -10.7840    -0.1020 C.ar  1 <1>  -0.1500 
 25 C       -6.9450   -11.0580     1.8800 C.ar  1 <1>  -0.1500 
 26 C       -8.0720   -11.3740     1.1440 C.ar  1 <1>   0.0830 
 27 O       -8.9390   -12.2570     1.7000 O.3   1 <1>  -0.3630 
 28 C      -10.1070   -12.6630     1.0220 C.3   1 <1>   0.0400 
 29 H       -0.2570    -4.7430    -0.8780 H     1 <1>   0.1500 
 30 H       -3.1770    -1.1960     0.9620 H     1 <1>   0.1500 
 31 H       -2.9140    -3.3250     2.1790 H     1 <1>   0.1500 
 32 H       -2.1820    -5.6040     2.2460 H     1 <1>   0.0800 
 33 H       -0.4740    -5.4990     1.9970 H     1 <1>   0.0800 
 34 H       -1.7150    -8.7850    -0.9820 H     1 <1>   0.0800 
 35 H       -2.8760    -7.9440    -1.9700 H     1 <1>   0.0800 
 36 H       -4.1720    -6.0100    -0.9800 H     1 <1>   0.0800 
 37 H       -3.8820    -5.5330     0.6670 H     1 <1>   0.0800 
 38 H       -3.4590    -9.6570     0.4430 H     1 <1>   0.0800 
 39 H       -3.8180   -10.0810    -1.1970 H     1 <1>   0.0800 
 40 H       -5.9730    -6.8250     0.5170 H     1 <1>   0.0800 
 41 H       -4.7960    -7.6270     1.4930 H     1 <1>   0.0800 
 42 H       -6.8140    -7.5190    -3.0170 H     1 <1>   0.0800 
 43 H       -7.1770    -7.2100    -1.3290 H     1 <1>   0.0800 
 44 H       -5.1460    -9.9460     1.9850 H     1 <1>   0.1500 
 45 H       -7.1740    -9.9050    -2.7250 H     1 <1>   0.0800 
 46 H       -8.5760    -9.0630    -2.1180 H     1 <1>   0.0800 
 47 H       -9.1190   -11.0110    -0.6950 H     1 <1>   0.1500 
 48 H       -6.8070   -11.5140     2.8430 H     1 <1>   0.1500 
 49 H      -10.6280   -13.3650     1.6470 H     1 <1>   0.0800 
 50 H       -9.8280   -13.1340     0.0970 H     1 <1>   0.0800 
 51 H      -10.7260   -11.8010     0.8470 H     1 <1>   0.0800 
@<TRIPOS>BOND
  1   1   2  1   
  2   2   3  ar  
  3   2   4  ar  
  4   3   5  1   
  5   3   6  ar  
  6   4   7  ar  
  7   4  29  1   
  8   6   8  ar  
  9   6  30  1   
 10   7   8  ar  
 11   7   9  1   
 12   8  31  1   
 13   9  10  1   
 14   9  32  1   
 15   9  33  1   
 16  10  11  2   
 17  10  12  am  
 18  12  13  1   
 19  12  14  1   
 20  13  15  1   
 21  13  34  1   
 22  13  35  1   
 23  14  16  1   
 24  14  36  1   
 25  14  37  1   
 26  15  17  1   
 27  15  38  1   
 28  15  39  1   
 29  16  17  1   
 30  16  40  1   
 31  16  41  1   
 32  17  18  1   
 33  17  19  1   
 34  18  20  1   
 35  19  21  ar  
 36  19  22  ar  
 37  20  23  1   
 38  20  42  1   
 39  20  43  1   
 40  21  23  1   
 41  21  24  ar  
 42  22  25  ar  
 43  22  44  1   
 44  23  45  1   
 45  23  46  1   
 46  24  26  ar  
 47  24  47  1   
 48  25  26  ar  
 49  25  48  1   
 50  26  27  1   
 51  27  28  1   
 52  28  49  1   
 53  28  50  1   
 54  28  51  1   
@<TRIPOS>SUBSTRUCTURE
  1 ****  14 GROUP 4 **** **** 0

# MOE 2024.06 (io_trps.svl 2023.06)
