@<TRIPOS>MOLECULE
NONAME
43 44 1 0 0 
SMALL
USER_CHARGES


@<TRIPOS>ATOM
  1 S        0.1610    -0.5020     0.7450 S.3   1 <1>  -0.0800 
  2 C       -1.4020    -1.2040     0.4130 C.2   1 <1>  -0.1400 
  3 C       -0.6040     1.0370     1.0290 C.2   1 <1>   0.2280 
  4 C       -2.3340    -0.2340     0.5450 C.2   1 <1>   0.0460 
  5 C       -1.3280    -2.6840     0.0690 C.3   1 <1>   0.0200 
  6 N       -1.8670     1.0210     0.8910 N.2   1 <1>  -0.5650 
  7 C       -3.8410    -0.2770     0.3740 C.3   1 <1>  -0.0590 
  8 C       -2.6880    -3.3300    -0.2040 C.3   1 <1>   0.3430 
  9 N       -2.5770    -4.7990    -0.4880 N.4   1 <1>  -0.9590 
 10 C       -3.9320    -5.4260    -0.4130 C.3   1 <1>   0.3430 
 11 C       -1.9100    -5.0740    -1.8040 C.3   1 <1>   0.2630 
 12 C       -3.8200    -6.9460    -0.3050 C.3   1 <1>  -0.1600 
 13 C       -5.1940    -7.5780    -0.0790 C.3   1 <1>   0.3430 
 14 O       -5.7910    -6.9330     0.9810 O.3   1 <1>  -0.6800 
 15 C       -5.0920    -9.0590     0.2500 C.ar  1 <1>  -0.1440 
 16 C       -5.4850   -10.0000    -0.6930 C.ar  1 <1>  -0.1500 
 17 C       -4.6080    -9.4960     1.4770 C.ar  1 <1>  -0.1500 
 18 C       -5.3920   -11.3530    -0.4150 C.ar  1 <1>  -0.1500 
 19 C       -4.5150   -10.8490     1.7540 C.ar  1 <1>  -0.1500 
 20 C       -4.9060   -11.7780     0.8080 C.ar  1 <1>  -0.1500 
 21 H        0.0310     1.8650     1.2930 H     1 <1>   0.1500 
 22 H       -0.6980    -2.7810    -0.7970 H     1 <1>   0.0800 
 23 H       -0.8570    -3.1910     0.8920 H     1 <1>   0.0800 
 24 H       -4.2070    -1.2420     0.0940 H     1 <1>   0.0800 
 25 H       -4.1310     0.4310    -0.3820 H     1 <1>   0.0800 
 26 H       -4.3090     0.0120     1.2980 H     1 <1>   0.0800 
 27 H       -3.1560    -2.8320    -1.0380 H     1 <1>   0.0800 
 28 H       -3.3080    -3.1810     0.6650 H     1 <1>   0.0800 
 29 H       -2.0150    -5.2240     0.2660 H     1 <1>   0.4500 
 30 H       -4.4460    -5.0610     0.4630 H     1 <1>   0.0800 
 31 H       -4.5180    -5.1590    -1.2770 H     1 <1>   0.0800 
 32 H       -2.4820    -4.6460    -2.6110 H     1 <1>   0.0800 
 33 H       -1.8240    -6.1360    -1.9690 H     1 <1>   0.0800 
 34 H       -0.9190    -4.6510    -1.8220 H     1 <1>   0.0800 
 35 H       -3.1830    -7.2090     0.5210 H     1 <1>   0.0800 
 36 H       -3.4070    -7.3670    -1.2030 H     1 <1>   0.0800 
 37 H       -5.8260    -7.4320    -0.9400 H     1 <1>   0.0800 
 38 H       -6.4770    -7.5280     1.3520 H     1 <1>   0.4000 
 39 H       -5.8670    -9.6930    -1.6510 H     1 <1>   0.1500 
 40 H       -4.3000    -8.7880     2.2270 H     1 <1>   0.1500 
 41 H       -5.6980   -12.0770    -1.1510 H     1 <1>   0.1500 
 42 H       -4.1390   -11.1800     2.7070 H     1 <1>   0.1500 
 43 H       -4.8340   -12.8300     1.0230 H     1 <1>   0.1500 
@<TRIPOS>BOND
  1   1   2  1   
  2   1   3  1   
  3   2   4  2   
  4   2   5  1   
  5   3   6  2   
  6   3  21  1   
  7   4   6  1   
  8   4   7  1   
  9   5   8  1   
 10   5  22  1   
 11   5  23  1   
 12   7  24  1   
 13   7  25  1   
 14   7  26  1   
 15   8   9  1   
 16   8  27  1   
 17   8  28  1   
 18   9  10  1   
 19   9  11  1   
 20   9  29  1   
 21  10  12  1   
 22  10  30  1   
 23  10  31  1   
 24  11  32  1   
 25  11  33  1   
 26  11  34  1   
 27  12  13  1   
 28  12  35  1   
 29  12  36  1   
 30  13  14  1   
 31  13  15  1   
 32  13  37  1   
 33  14  38  1   
 34  15  16  ar  
 35  15  17  ar  
 36  16  18  ar  
 37  16  39  1   
 38  17  19  ar  
 39  17  40  1   
 40  18  20  ar  
 41  18  41  1   
 42  19  20  ar  
 43  19  42  1   
 44  20  43  1   
@<TRIPOS>SUBSTRUCTURE
  1 ****  10 GROUP 4 **** **** 0

# MOE 2024.06 (io_trps.svl 2023.06)
