@<TRIPOS>MOLECULE
NONAME
50 53 1 0 0 
SMALL
USER_CHARGES


@<TRIPOS>ATOM
  1 O        0.1860     0.8890     0.2460 O.2   1 <1>  -0.5700 
  2 C       -0.5500     1.7210     0.7470 C.2   1 <1>   0.7150 
  3 N       -1.9110     1.4970     0.7320 N.am  1 <1>  -0.6600 
  4 C        0.0130     2.9250     1.3080 C.2   1 <1>  -0.2370 
  5 C       -2.9300     2.5880     0.8400 C.3   1 <1>   0.1400 
  6 C       -2.4860     0.1750     0.3560 C.3   1 <1>   0.1400 
  7 N        1.0480     3.6230     0.7350 N.pl3 1 <1>   0.0480 
  8 C       -0.3330     3.5830     2.4620 C.2   1 <1>  -0.1500 
  9 C       -3.7010     2.7560    -0.4830 C.3   1 <1>   0.1440 
 10 C       -3.2460     0.2950    -0.9710 C.3   1 <1>  -0.1600 
 11 C        1.3160     4.6980     1.5150 C.2   1 <1>  -0.3020 
 12 C        1.7720     3.2780    -0.5040 C.3   1 <1>   0.0160 
 13 C        0.4830     4.7020     2.5880 C.2   1 <1>  -0.1500 
 14 C       -4.7520     3.8320    -0.2840 C.ar  1 <1>   0.1670 
 15 C       -4.3110     1.4050    -0.9160 C.3   1 <1>  -0.1600 
 16 C       -2.8020     3.3740    -1.5890 C.3   1 <1>  -0.1600 
 17 N       -5.8650     3.6900     0.3910 N.ar  1 <1>  -0.6200 
 18 C       -4.3900     5.0010    -0.8820 C.ar  1 <1>  -0.1430 
 19 C       -3.0530     4.8920    -1.5710 C.3   1 <1>  -0.0160 
 20 C       -6.6410     4.7750     0.4460 C.ar  1 <1>   0.7200 
 21 C       -5.2490     6.0650    -0.7710 C.ar  1 <1>   0.1600 
 22 N       -6.3780     5.9630    -0.1100 N.ar  1 <1>  -0.6200 
 23 N       -7.8280     4.6600     1.1440 N.pl3 1 <1>  -0.8380 
 24 C       -8.4020     3.3380     1.5180 C.3   1 <1>   0.1290 
 25 C       -8.6380     5.8490     1.5270 C.3   1 <1>   0.1290 
 26 H       -2.4740     3.5270     1.0920 H     1 <1>   0.0800 
 27 H       -3.6230     2.3400     1.6260 H     1 <1>   0.0800 
 28 H       -3.1600    -0.1430     1.1340 H     1 <1>   0.0800 
 29 H       -1.7120    -0.5690     0.2680 H     1 <1>   0.0800 
 30 H       -1.0980     3.2960     3.1640 H     1 <1>   0.1500 
 31 H       -3.7180    -0.6450    -1.1920 H     1 <1>   0.0800 
 32 H       -2.5390     0.4960    -1.7570 H     1 <1>   0.0800 
 33 H        2.0890     5.4070     1.2790 H     1 <1>   0.1500 
 34 H        1.0650     3.1050    -1.2940 H     1 <1>   0.0800 
 35 H        2.3450     2.3840    -0.3370 H     1 <1>   0.0800 
 36 H        2.4290     4.0820    -0.7770 H     1 <1>   0.0800 
 37 H        0.4460     5.4160     3.3920 H     1 <1>   0.1500 
 38 H       -4.7950     1.5050    -1.8710 H     1 <1>   0.0800 
 39 H       -5.0660     1.1220    -0.2020 H     1 <1>   0.0800 
 40 H       -3.1100     2.9980    -2.5490 H     1 <1>   0.0800 
 41 H       -1.7610     3.1420    -1.4560 H     1 <1>   0.0800 
 42 H       -3.0800     5.3020    -2.5650 H     1 <1>   0.0800 
 43 H       -2.3020     5.3930    -0.9850 H     1 <1>   0.0800 
 44 H       -5.0080     7.0100    -1.2270 H     1 <1>   0.1500 
 45 H       -8.0820     2.5770     0.8260 H     1 <1>   0.0800 
 46 H       -9.4760     3.3810     1.4970 H     1 <1>   0.0800 
 47 H       -8.0750     3.0710     2.5070 H     1 <1>   0.0800 
 48 H       -8.0030     6.7050     1.6760 H     1 <1>   0.0800 
 49 H       -9.1670     5.6570     2.4430 H     1 <1>   0.0800 
 50 H       -9.3440     6.0690     0.7460 H     1 <1>   0.0800 
@<TRIPOS>BOND
  1   1   2  2   
  2   2   3  am  
  3   2   4  1   
  4   3   5  1   
  5   3   6  1   
  6   4   7  1   
  7   4   8  2   
  8   5   9  1   
  9   5  26  1   
 10   5  27  1   
 11   6  10  1   
 12   6  28  1   
 13   6  29  1   
 14   7  11  1   
 15   7  12  1   
 16   8  13  1   
 17   8  30  1   
 18   9  14  1   
 19   9  15  1   
 20   9  16  1   
 21  10  15  1   
 22  10  31  1   
 23  10  32  1   
 24  11  13  2   
 25  11  33  1   
 26  12  34  1   
 27  12  35  1   
 28  12  36  1   
 29  13  37  1   
 30  14  17  ar  
 31  14  18  ar  
 32  15  38  1   
 33  15  39  1   
 34  16  19  1   
 35  16  40  1   
 36  16  41  1   
 37  17  20  ar  
 38  18  19  1   
 39  18  21  ar  
 40  19  42  1   
 41  19  43  1   
 42  20  22  ar  
 43  20  23  1   
 44  21  22  ar  
 45  21  44  1   
 46  23  24  1   
 47  23  25  1   
 48  24  45  1   
 49  24  46  1   
 50  24  47  1   
 51  25  48  1   
 52  25  49  1   
 53  25  50  1   
@<TRIPOS>SUBSTRUCTURE
  1 ****   5 GROUP 4 **** **** 0

# MOE 2024.06 (io_trps.svl 2023.06)
