@<TRIPOS>MOLECULE
NONAME
41 43 1 0 0 
SMALL
USER_CHARGES


@<TRIPOS>ATOM
  1 O        0.3800    -0.2130     1.1180 O.2   1 <1>  -0.5700 
  2 C        1.0520    -0.5650     0.1790 C.2   1 <1>   0.5690 
  3 N        1.9250     0.2540    -0.4800 N.am  1 <1>  -0.4940 
  4 C        0.9370    -1.9980    -0.2980 C.3   1 <1>  -0.0990 
  5 C        2.1990     1.6230    -0.2400 C.2   1 <1>  -0.0880 
  6 C        0.3200    -2.9090     0.7740 C.3   1 <1>   0.0960 
  7 N        3.4480     2.1650    -0.1620 N.pl3 1 <1>   0.3140 
  8 C        1.3280     2.6450    -0.0560 C.2   1 <1>  -0.1810 
  9 N        0.3140    -4.3070     0.3090 N.pl3 1 <1>   0.0480 
 10 N        3.3890     3.5030     0.0510 N.2   1 <1>  -0.7070 
 11 C        4.7410     1.4260    -0.2460 C.3   1 <1>   0.1760 
 12 C        2.1230     3.7710     0.1200 C.2   1 <1>   0.1390 
 13 C       -0.1890     2.6330    -0.0370 C.3   1 <1>  -0.0590 
 14 C       -0.6160    -4.9510    -0.3980 C.2   1 <1>   0.0360 
 15 C        1.2590    -5.2360     0.4610 C.2   1 <1>   0.0360 
 16 C        5.6470     1.6400     0.9670 C.3   1 <1>  -0.1600 
 17 C        5.6070     1.8590    -1.4310 C.3   1 <1>  -0.1600 
 18 N       -0.2660    -6.1620    -0.6580 N.2   1 <1>  -0.3380 
 19 N        0.9370    -6.3450    -0.1070 N.2   1 <1>  -0.3380 
 20 C        7.0440     1.2590     0.4740 C.3   1 <1>  -0.1600 
 21 C        7.0410     1.4790    -1.0440 C.3   1 <1>  -0.1600 
 22 H        2.4370    -0.1650    -1.2550 H     1 <1>   0.3700 
 23 H        1.9180    -2.3590    -0.5480 H     1 <1>   0.0800 
 24 H        0.3230    -2.0120    -1.1800 H     1 <1>   0.0800 
 25 H       -0.6910    -2.6050     0.9840 H     1 <1>   0.0800 
 26 H        0.8870    -2.8470     1.6860 H     1 <1>   0.0800 
 27 H        4.5390     0.3750    -0.3320 H     1 <1>   0.0800 
 28 H        1.7410     4.7630     0.2930 H     1 <1>   0.1500 
 29 H       -0.5630     1.7840    -0.5780 H     1 <1>   0.0800 
 30 H       -0.5740     3.5280    -0.4910 H     1 <1>   0.0800 
 31 H       -0.5360     2.5750     0.9790 H     1 <1>   0.0800 
 32 H       -1.5410    -4.5010    -0.7090 H     1 <1>   0.1500 
 33 H        2.1760    -5.0660     0.9950 H     1 <1>   0.1500 
 34 H        5.3390     1.0460     1.8090 H     1 <1>   0.0800 
 35 H        5.6460     2.6820     1.2420 H     1 <1>   0.0800 
 36 H        5.5490     2.9290    -1.5450 H     1 <1>   0.0800 
 37 H        5.3000     1.3850    -2.3460 H     1 <1>   0.0800 
 38 H        7.2350     0.2210     0.6870 H     1 <1>   0.0800 
 39 H        7.8000     1.8550     0.9580 H     1 <1>   0.0800 
 40 H        7.7220     2.2660    -1.3210 H     1 <1>   0.0800 
 41 H        7.3390     0.5740    -1.5460 H     1 <1>   0.0800 
@<TRIPOS>BOND
  1   1   2  2   
  2   2   3  am  
  3   2   4  1   
  4   3   5  1   
  5   3  22  1   
  6   4   6  1   
  7   4  23  1   
  8   4  24  1   
  9   5   7  1   
 10   5   8  2   
 11   6   9  1   
 12   6  25  1   
 13   6  26  1   
 14   7  10  1   
 15   7  11  1   
 16   8  12  1   
 17   8  13  1   
 18   9  14  1   
 19   9  15  1   
 20  10  12  2   
 21  11  16  1   
 22  11  17  1   
 23  11  27  1   
 24  12  28  1   
 25  13  29  1   
 26  13  30  1   
 27  13  31  1   
 28  14  18  2   
 29  14  32  1   
 30  15  19  2   
 31  15  33  1   
 32  16  20  1   
 33  16  34  1   
 34  16  35  1   
 35  17  21  1   
 36  17  36  1   
 37  17  37  1   
 38  18  19  1   
 39  20  21  1   
 40  20  38  1   
 41  20  39  1   
 42  21  40  1   
 43  21  41  1   
@<TRIPOS>SUBSTRUCTURE
  1 ****   3 GROUP 4 **** **** 0

# MOE 2024.06 (io_trps.svl 2023.06)
