@<TRIPOS>MOLECULE
NONAME
42 44 1 0 0 
SMALL
USER_CHARGES


@<TRIPOS>ATOM
  1 O       -0.1200     0.7070    -0.5390 O.2   1 <1>  -0.5700 
  2 C       -0.1750     1.8900    -0.7790 C.2   1 <1>   0.5690 
  3 N       -0.8980     2.7620    -0.0090 N.am  1 <1>  -0.6600 
  4 C        0.5850     2.4140    -2.0000 C.3   1 <1>   0.1810 
  5 C       -0.9610     4.2220    -0.3450 C.3   1 <1>   0.3640 
  6 C       -1.5590     2.3460     1.2630 C.3   1 <1>   0.0600 
  7 O        0.8660     3.7900    -1.9190 O.3   1 <1>  -0.5600 
  8 C       -2.3980     4.7600    -0.2970 C.ar  1 <1>  -0.1440 
  9 C       -0.2790     4.5890    -1.6870 C.3   1 <1>   0.2610 
 10 C       -3.4890     4.1810    -0.9560 C.ar  1 <1>  -0.1440 
 11 C       -2.6040     5.9110     0.4560 C.ar  1 <1>  -0.1500 
 12 C        0.0730     6.0800    -1.7070 C.2   1 <1>   0.5690 
 13 C       -4.7420     4.7640    -0.8380 C.ar  1 <1>  -0.1500 
 14 C       -3.3950     2.9170    -1.8050 C.3   1 <1>  -0.0960 
 15 C       -3.8570     6.4830     0.5630 C.ar  1 <1>  -0.1500 
 16 O       -0.4890     6.7940    -2.5030 O.2   1 <1>  -0.5700 
 17 N        0.9890     6.5950    -0.8330 N.am  1 <1>  -0.5100 
 18 C       -4.9300     5.9080    -0.0850 C.ar  1 <1>  -0.1500 
 19 C        1.7600     7.8680    -1.0430 C.3   1 <1>   0.2250 
 20 C        2.2420     5.9410    -0.3170 C.3   1 <1>   0.2250 
 21 C        2.7640     7.3610     0.0250 C.3   1 <1>   0.2580 
 22 O        2.4020     7.7570     1.3130 O.3   1 <1>  -0.6580 
 23 H        0.0090     2.2330    -2.8890 H     1 <1>   0.0800 
 24 H        1.5220     1.8940    -2.0840 H     1 <1>   0.0800 
 25 H       -0.4040     4.7180     0.4300 H     1 <1>   0.0800 
 26 H       -1.1800     2.9320     2.0810 H     1 <1>   0.0800 
 27 H       -1.3700     1.3070     1.4690 H     1 <1>   0.0800 
 28 H       -2.6230     2.4920     1.1920 H     1 <1>   0.0800 
 29 H       -0.9600     4.4170    -2.4980 H     1 <1>   0.0800 
 30 H       -1.7860     6.3840     0.9690 H     1 <1>   0.1500 
 31 H       -5.5920     4.3300    -1.3350 H     1 <1>   0.1500 
 32 H       -4.2760     2.7940    -2.4080 H     1 <1>   0.0800 
 33 H       -3.3040     2.0540    -1.1720 H     1 <1>   0.0800 
 34 H       -2.5540     2.9510    -2.4690 H     1 <1>   0.0800 
 35 H       -3.9980     7.3760     1.1480 H     1 <1>   0.1500 
 36 H       -5.9090     6.3480    -0.0070 H     1 <1>   0.1500 
 37 H        2.1710     7.9140    -2.0370 H     1 <1>   0.0000 
 38 H        1.2040     8.7410    -0.7500 H     1 <1>   0.0000 
 39 H        2.0610     5.3160     0.5390 H     1 <1>   0.0000 
 40 H        2.7890     5.4630    -1.1110 H     1 <1>   0.0000 
 41 H        3.8050     7.5450    -0.1670 H     1 <1>   0.0000 
 42 H        1.4340     7.6750     1.4120 H     1 <1>   0.4000 
@<TRIPOS>BOND
  1   1   2  2   
  2   2   3  am  
  3   2   4  1   
  4   3   5  1   
  5   3   6  1   
  6   4   7  1   
  7   4  23  1   
  8   4  24  1   
  9   5   8  1   
 10   5   9  1   
 11   5  25  1   
 12   6  26  1   
 13   6  27  1   
 14   6  28  1   
 15   7   9  1   
 16   8  10  ar  
 17   8  11  ar  
 18   9  12  1   
 19   9  29  1   
 20  10  13  ar  
 21  10  14  1   
 22  11  15  ar  
 23  11  30  1   
 24  12  16  2   
 25  12  17  am  
 26  13  18  ar  
 27  13  31  1   
 28  14  32  1   
 29  14  33  1   
 30  14  34  1   
 31  15  18  ar  
 32  15  35  1   
 33  17  19  1   
 34  17  20  1   
 35  18  36  1   
 36  19  21  1   
 37  19  37  1   
 38  19  38  1   
 39  20  21  1   
 40  20  39  1   
 41  20  40  1   
 42  21  22  1   
 43  21  41  1   
 44  22  42  1   
@<TRIPOS>SUBSTRUCTURE
  1 ****   5 GROUP 4 **** **** 0

# MOE 2024.06 (io_trps.svl 2023.06)
