@<TRIPOS>MOLECULE
NONAME
51 55 1 0 0 
SMALL
USER_CHARGES


@<TRIPOS>ATOM
  1 S        0.2780    -0.0770     0.2250 S.3   1 <1>  -0.0800 
  2 C       -0.4720    -1.5550    -0.3910 C.2   1 <1>   0.0410 
  3 C       -1.1380     0.8860    -0.1510 C.2   1 <1>  -0.1100 
  4 C        0.2690    -2.7920    -0.3430 C.2   1 <1>   0.2880 
  5 C       -1.7170    -1.2530    -0.8380 C.2   1 <1>  -0.1500 
  6 C       -2.0930     0.1180    -0.7030 C.2   1 <1>  -0.1500 
  7 N        1.5270    -2.9020     0.0090 N.2   1 <1>  -0.7070 
  8 C       -0.2490    -4.0420    -0.6630 C.2   1 <1>  -0.1500 
  9 N        1.8240    -4.1980    -0.1010 N.pl3 1 <1>   0.3140 
 10 C        0.7550    -4.9410    -0.4800 C.2   1 <1>  -0.2370 
 11 C        3.1900    -4.6770     0.1700 C.3   1 <1>   0.0160 
 12 C        0.7970    -6.3650    -0.6300 C.2   1 <1>   0.7150 
 13 O        1.6830    -6.8800    -1.2800 O.2   1 <1>  -0.5700 
 14 N       -0.1440    -7.1830    -0.0380 N.am  1 <1>  -0.6600 
 15 C       -1.0070    -6.7660     1.1100 C.3   1 <1>   0.1400 
 16 C       -0.1840    -8.6490    -0.3340 C.3   1 <1>   0.1400 
 17 C       -2.4620    -7.2560     0.9380 C.3   1 <1>   0.4230 
 18 C       -1.6330    -9.1400    -0.5040 C.3   1 <1>   0.3430 
 19 N       -2.5290    -8.7460     0.6500 N.4   1 <1>  -0.9590 
 20 C       -3.1830    -6.4490    -0.1650 C.3   1 <1>   0.1200 
 21 C       -3.9620    -9.1460     0.4340 C.3   1 <1>   0.5180 
 22 O       -4.5000    -6.8960    -0.3130 O.3   1 <1>  -0.5600 
 23 C       -4.0320   -10.6590     0.1450 C.3   1 <1>  -0.1950 
 24 C       -4.6380    -8.2530    -0.6390 C.3   1 <1>   0.1200 
 25 C       -3.9180   -11.2810    -1.2180 C.3   1 <1>  -0.2000 
 26 C       -5.2280   -11.3120    -0.4820 C.3   1 <1>  -0.2000 
 27 H       -1.1000     1.9350     0.0850 H     1 <1>   0.1500 
 28 H       -2.4010    -1.9590    -1.2730 H     1 <1>   0.1500 
 29 H       -3.0590     0.4640    -1.0260 H     1 <1>   0.1500 
 30 H       -1.2530    -4.2190    -0.9960 H     1 <1>   0.1500 
 31 H        3.1600    -5.4470     0.9160 H     1 <1>   0.0800 
 32 H        3.7890    -3.8570     0.5210 H     1 <1>   0.0800 
 33 H        3.6130    -5.0640    -0.7380 H     1 <1>   0.0800 
 34 H       -0.6010    -7.1820     2.0150 H     1 <1>   0.0800 
 35 H       -1.0020    -5.6970     1.2300 H     1 <1>   0.0800 
 36 H        0.3570    -8.8660    -1.2400 H     1 <1>   0.0800 
 37 H        0.2950    -9.1880     0.4660 H     1 <1>   0.0800 
 38 H       -2.9820    -7.0550     1.8600 H     1 <1>   0.0800 
 39 H       -1.6220   -10.2130    -0.6100 H     1 <1>   0.0800 
 40 H       -2.0210    -8.7280    -1.4210 H     1 <1>   0.0800 
 41 H       -2.2010    -9.2470     1.4820 H     1 <1>   0.4500 
 42 H       -2.6790    -6.5320    -1.1120 H     1 <1>   0.0800 
 43 H       -3.2270    -5.4080     0.1070 H     1 <1>   0.0800 
 44 H       -4.5030    -8.9770     1.3510 H     1 <1>   0.0800 
 45 H       -3.6190   -11.2150     0.9690 H     1 <1>   0.1000 
 46 H       -5.6920    -8.4640    -0.6830 H     1 <1>   0.0800 
 47 H       -4.2170    -8.4170    -1.6150 H     1 <1>   0.0800 
 48 H       -3.8800   -10.6880    -2.1160 H     1 <1>   0.1000 
 49 H       -3.3880   -12.2130    -1.3300 H     1 <1>   0.1000 
 50 H       -5.5680   -12.2580    -0.0940 H     1 <1>   0.1000 
 51 H       -6.0410   -10.7340    -0.8870 H     1 <1>   0.1000 
@<TRIPOS>BOND
  1   1   2  1   
  2   1   3  1   
  3   2   4  1   
  4   2   5  2   
  5   3   6  2   
  6   3  27  1   
  7   4   7  2   
  8   4   8  1   
  9   5   6  1   
 10   5  28  1   
 11   6  29  1   
 12   7   9  1   
 13   8  10  2   
 14   8  30  1   
 15   9  10  1   
 16   9  11  1   
 17  10  12  1   
 18  11  31  1   
 19  11  32  1   
 20  11  33  1   
 21  12  13  2   
 22  12  14  am  
 23  14  15  1   
 24  14  16  1   
 25  15  17  1   
 26  15  34  1   
 27  15  35  1   
 28  16  18  1   
 29  16  36  1   
 30  16  37  1   
 31  17  19  1   
 32  17  20  1   
 33  17  38  1   
 34  18  19  1   
 35  18  39  1   
 36  18  40  1   
 37  19  21  1   
 38  19  41  1   
 39  20  22  1   
 40  20  42  1   
 41  20  43  1   
 42  21  23  1   
 43  21  24  1   
 44  21  44  1   
 45  22  24  1   
 46  23  25  1   
 47  23  26  1   
 48  23  45  1   
 49  24  46  1   
 50  24  47  1   
 51  25  26  1   
 52  25  48  1   
 53  25  49  1   
 54  26  50  1   
 55  26  51  1   
@<TRIPOS>SUBSTRUCTURE
  1 ****  15 GROUP 4 **** **** 0

# MOE 2024.06 (io_trps.svl 2023.06)
