@<TRIPOS>MOLECULE
NONAME
56 59 1 0 0 
SMALL
USER_CHARGES


@<TRIPOS>ATOM
  1 O       -1.2190     0.4050     1.7520 O.2   1 <1>  -0.5700 
  2 C       -1.5630     0.6220     0.6150 C.2   1 <1>   0.5690 
  3 N       -1.9280    -0.3970    -0.2260 N.am  1 <1>  -0.6600 
  4 C       -1.5950     2.0750     0.1410 C.3   1 <1>  -0.0190 
  5 C       -1.9150    -1.8210     0.2620 C.3   1 <1>   0.3640 
  6 C       -2.4530    -0.1950    -1.6170 C.3   1 <1>   0.1400 
  7 C       -0.5360     3.0020     0.7740 C.3   1 <1>  -0.0170 
  8 C       -2.9480     2.7610     0.4060 C.3   1 <1>  -0.0170 
  9 C       -0.6620    -2.5830    -0.2100 C.ar  1 <1>  -0.1440 
 10 C       -3.2280    -2.5690    -0.1400 C.3   1 <1>   0.2000 
 11 C       -2.9740    -1.4960    -2.2460 C.3   1 <1>   0.1200 
 12 C       -1.2110     4.3510     0.7190 C.ar  1 <1>  -0.1440 
 13 C       -2.5620     4.2160     0.5150 C.ar  1 <1>  -0.1440 
 14 C       -0.4570    -3.8690     0.2770 C.ar  1 <1>  -0.1500 
 15 C        0.2860    -2.0530    -1.0820 C.ar  1 <1>  -0.1500 
 16 O       -3.8220    -2.1330    -1.3460 O.3   1 <1>  -0.5600 
 17 C       -4.3000    -2.4280     0.9470 C.3   1 <1>   0.1200 
 18 C       -0.6360     5.6020     0.8460 C.ar  1 <1>  -0.1500 
 19 C       -3.3800     5.3270     0.4330 C.ar  1 <1>  -0.1500 
 20 C        0.6350    -4.6250    -0.1120 C.ar  1 <1>   0.0830 
 21 C        1.3930    -2.7910    -1.4640 C.ar  1 <1>  -0.1500 
 22 O       -3.9540    -3.1820     2.0650 O.3   1 <1>  -0.6800 
 23 C       -1.4480     6.7230     0.7630 C.ar  1 <1>  -0.1500 
 24 C       -2.8140     6.5860     0.5580 C.ar  1 <1>  -0.1500 
 25 O        0.7230    -5.8880     0.3750 O.3   1 <1>  -0.3630 
 26 C        1.5850    -4.0710    -0.9760 C.ar  1 <1>   0.0830 
 27 C        0.6720    -6.9350    -0.5690 C.3   1 <1>   0.0400 
 28 O        2.7080    -4.7250    -1.3570 O.3   1 <1>  -0.3630 
 29 C        3.6600    -4.9640    -0.3430 C.3   1 <1>   0.0400 
 30 H       -1.4170     2.1110    -0.9160 H     1 <1>   0.0800 
 31 H       -1.8650    -1.8250     1.3380 H     1 <1>   0.0800 
 32 H       -3.2630     0.5130    -1.5890 H     1 <1>   0.0800 
 33 H       -1.6760     0.2090    -2.2420 H     1 <1>   0.0800 
 34 H        0.3860     2.9880     0.2200 H     1 <1>   0.0800 
 35 H       -0.3480     2.7510     1.8030 H     1 <1>   0.0800 
 36 H       -3.3650     2.4330     1.3430 H     1 <1>   0.0800 
 37 H       -3.6490     2.5910    -0.3900 H     1 <1>   0.0800 
 38 H       -3.0240    -3.6150    -0.2710 H     1 <1>   0.0800 
 39 H       -2.1690    -2.1630    -2.5030 H     1 <1>   0.0800 
 40 H       -3.5370    -1.2800    -3.1360 H     1 <1>   0.0800 
 41 H       -1.1510    -4.3080     0.9730 H     1 <1>   0.1500 
 42 H        0.1870    -1.0570    -1.4690 H     1 <1>   0.1500 
 43 H       -5.2530    -2.7780     0.5910 H     1 <1>   0.0800 
 44 H       -4.3840    -1.3990     1.2540 H     1 <1>   0.0800 
 45 H        0.4220     5.7040     1.0070 H     1 <1>   0.1500 
 46 H       -4.4380     5.2170     0.2760 H     1 <1>   0.1500 
 47 H        2.1210    -2.3730    -2.1350 H     1 <1>   0.1500 
 48 H       -4.1550    -4.1280     1.9230 H     1 <1>   0.4000 
 49 H       -1.0160     7.7030     0.8600 H     1 <1>   0.1500 
 50 H       -3.4360     7.4610     0.4960 H     1 <1>   0.1500 
 51 H        0.5970    -7.8650    -0.0360 H     1 <1>   0.0800 
 52 H        1.5670    -6.9260    -1.1630 H     1 <1>   0.0800 
 53 H       -0.1930    -6.7970    -1.1950 H     1 <1>   0.0800 
 54 H        4.5280    -5.4100    -0.7940 H     1 <1>   0.0800 
 55 H        3.2420    -5.6320     0.3880 H     1 <1>   0.0800 
 56 H        3.9210    -4.0260     0.1150 H     1 <1>   0.0800 
@<TRIPOS>BOND
  1   1   2  2   
  2   2   3  am  
  3   2   4  1   
  4   3   5  1   
  5   3   6  1   
  6   4   7  1   
  7   4   8  1   
  8   4  30  1   
  9   5   9  1   
 10   5  10  1   
 11   5  31  1   
 12   6  11  1   
 13   6  32  1   
 14   6  33  1   
 15   7  12  1   
 16   7  34  1   
 17   7  35  1   
 18   8  13  1   
 19   8  36  1   
 20   8  37  1   
 21   9  14  ar  
 22   9  15  ar  
 23  10  16  1   
 24  10  17  1   
 25  10  38  1   
 26  11  16  1   
 27  11  39  1   
 28  11  40  1   
 29  12  13  ar  
 30  12  18  ar  
 31  13  19  ar  
 32  14  20  ar  
 33  14  41  1   
 34  15  21  ar  
 35  15  42  1   
 36  17  22  1   
 37  17  43  1   
 38  17  44  1   
 39  18  23  ar  
 40  18  45  1   
 41  19  24  ar  
 42  19  46  1   
 43  20  25  1   
 44  20  26  ar  
 45  21  26  ar  
 46  21  47  1   
 47  22  48  1   
 48  23  24  ar  
 49  23  49  1   
 50  24  50  1   
 51  25  27  1   
 52  26  28  1   
 53  27  51  1   
 54  27  52  1   
 55  27  53  1   
 56  28  29  1   
 57  29  54  1   
 58  29  55  1   
 59  29  56  1   
@<TRIPOS>SUBSTRUCTURE
  1 ****   3 GROUP 4 **** **** 0

# MOE 2024.06 (io_trps.svl 2023.06)
