@<TRIPOS>MOLECULE
NONAME
48 50 1 0 0 
SMALL
USER_CHARGES


@<TRIPOS>ATOM
  1 O        0.7950    -0.3730     0.8590 O.2   1 <1>  -0.5700 
  2 C        1.4780    -1.1210     0.1870 C.2   1 <1>   0.5440 
  3 N        2.5320    -0.5980    -0.5330 N.am  1 <1>  -0.6600 
  4 C        1.1730    -2.5390     0.1800 C.ar  1 <1>   0.0860 
  5 C        2.7370     0.8750    -0.6860 C.3   1 <1>   0.1400 
  6 C        3.6990    -1.4010    -1.0100 C.3   1 <1>   0.1400 
  7 C        1.0360    -3.2590    -1.0070 C.ar  1 <1>  -0.1500 
  8 C        1.0020    -3.2420     1.3720 C.ar  1 <1>  -0.1500 
  9 C        4.1030     1.2930    -0.1180 C.3   1 <1>   0.1200 
 10 C        5.0100    -0.8480    -0.4250 C.3   1 <1>   0.1200 
 11 C        0.7660    -4.6140    -1.0000 C.ar  1 <1>  -0.1500 
 12 C        0.7330    -4.5970     1.3780 C.ar  1 <1>  -0.1500 
 13 O        5.1280     0.5220    -0.6810 O.3   1 <1>  -0.5600 
 14 C        0.6080    -5.3190     0.1920 C.ar  1 <1>   0.0860 
 15 C        0.3440    -6.7460     0.1870 C.2   1 <1>   0.5440 
 16 O        1.0020    -7.4740    -0.5350 O.2   1 <1>  -0.5700 
 17 N       -0.6450    -7.3140     0.9570 N.am  1 <1>  -0.6600 
 18 C       -0.6690    -8.7900     1.1870 C.3   1 <1>   0.3200 
 19 C       -1.9140    -6.6040     1.3070 C.3   1 <1>   0.1400 
 20 C       -1.4260    -9.4860     0.0710 C.2   1 <1>   0.0060 
 21 C       -2.8140    -6.4390     0.0760 C.3   1 <1>   0.1200 
 22 N       -2.5560   -10.1060     0.2030 N.2   1 <1>  -0.5650 
 23 N       -0.9510    -9.4880    -1.1920 N.pl3 1 <1>   0.0330 
 24 O       -4.0450    -5.9420     0.4760 O.3   1 <1>  -0.6800 
 25 C       -2.8280   -10.5410    -1.0440 C.2   1 <1>   0.0770 
 26 C       -1.8600   -10.1700    -1.9100 C.2   1 <1>  -0.3020 
 27 H        1.9610     1.4250    -0.1840 H     1 <1>   0.0800 
 28 H        2.6970     1.1300    -1.7300 H     1 <1>   0.0800 
 29 H        3.7460    -1.3570    -2.0840 H     1 <1>   0.0800 
 30 H        3.6010    -2.4310    -0.7200 H     1 <1>   0.0800 
 31 H        1.1440    -2.7390    -1.9440 H     1 <1>   0.1500 
 32 H        1.0860    -2.7040     2.3010 H     1 <1>   0.1500 
 33 H        4.1200     1.1680     0.9510 H     1 <1>   0.0800 
 34 H        4.3010     2.3240    -0.3490 H     1 <1>   0.0800 
 35 H        5.8540    -1.3400    -0.8760 H     1 <1>   0.0800 
 36 H        5.0460    -1.0050     0.6390 H     1 <1>   0.0800 
 37 H        0.6770    -5.1470    -1.9320 H     1 <1>   0.1500 
 38 H        0.6210    -5.1110     2.3180 H     1 <1>   0.1500 
 39 H       -1.1390    -9.0070     2.1300 H     1 <1>   0.0800 
 40 H        0.3380    -9.1690     1.2250 H     1 <1>   0.0800 
 41 H       -1.6940    -5.6330     1.7140 H     1 <1>   0.0800 
 42 H       -2.4410    -7.1700     2.0560 H     1 <1>   0.0800 
 43 H       -2.9820    -7.3780    -0.4210 H     1 <1>   0.0800 
 44 H       -2.3820    -5.7340    -0.6130 H     1 <1>   0.0800 
 45 H       -0.0840    -9.0180    -1.4900 H     1 <1>   0.2700 
 46 H       -4.5910    -6.6580     0.8590 H     1 <1>   0.4000 
 47 H       -3.7210   -11.1060    -1.2560 H     1 <1>   0.1500 
 48 H       -1.7690   -10.3480    -2.9660 H     1 <1>   0.1500 
@<TRIPOS>BOND
  1   1   2  2   
  2   2   3  am  
  3   2   4  1   
  4   3   5  1   
  5   3   6  1   
  6   4   7  ar  
  7   4   8  ar  
  8   5   9  1   
  9   5  27  1   
 10   5  28  1   
 11   6  10  1   
 12   6  29  1   
 13   6  30  1   
 14   7  11  ar  
 15   7  31  1   
 16   8  12  ar  
 17   8  32  1   
 18   9  13  1   
 19   9  33  1   
 20   9  34  1   
 21  10  13  1   
 22  10  35  1   
 23  10  36  1   
 24  11  14  ar  
 25  11  37  1   
 26  12  14  ar  
 27  12  38  1   
 28  14  15  1   
 29  15  16  2   
 30  15  17  am  
 31  17  18  1   
 32  17  19  1   
 33  18  20  1   
 34  18  39  1   
 35  18  40  1   
 36  19  21  1   
 37  19  41  1   
 38  19  42  1   
 39  20  22  2   
 40  20  23  1   
 41  21  24  1   
 42  21  43  1   
 43  21  44  1   
 44  22  25  1   
 45  23  26  1   
 46  23  45  1   
 47  24  46  1   
 48  25  26  2   
 49  25  47  1   
 50  26  48  1   
@<TRIPOS>SUBSTRUCTURE
  1 ****  14 GROUP 4 **** **** 0

# MOE 2024.06 (io_trps.svl 2023.06)
