@<TRIPOS>MOLECULE
NONAME
61 64 1 0 0 
SMALL
USER_CHARGES


@<TRIPOS>ATOM
  1 O        0.2090    -0.1350     0.2960 O.2   1 <1>  -0.5700 
  2 C       -0.3680     0.8370    -0.1300 C.2   1 <1>   0.5690 
  3 N       -1.7270     0.9890     0.0020 N.am  1 <1>  -0.6600 
  4 C        0.4820     1.8800    -0.8320 C.3   1 <1>  -0.0990 
  5 C       -2.4960     2.2290    -0.3390 C.3   1 <1>   0.1400 
  6 C       -2.5860    -0.1550     0.4280 C.3   1 <1>   0.1400 
  7 C        0.9310     2.9850     0.1270 C.3   1 <1>   0.0210 
  8 C       -3.3900     2.6770     0.8340 C.3   1 <1>   0.1440 
  9 C       -3.5150     0.2540     1.5790 C.3   1 <1>  -0.1600 
 10 C        1.7540     4.0240    -0.6120 C.2   1 <1>  -0.1810 
 11 C       -4.1450     3.9170     0.3970 C.ar  1 <1>   0.1660 
 12 C       -4.3230     1.5190     1.2400 C.3   1 <1>  -0.1600 
 13 C       -2.5660     3.1970     2.0450 C.3   1 <1>  -0.1600 
 14 C        1.2700     5.0950    -1.3620 C.2   1 <1>   0.1080 
 15 C        3.0990     4.1250    -0.7020 C.2   1 <1>  -0.3320 
 16 N       -5.1190     3.9390    -0.4790 N.ar  1 <1>  -0.6200 
 17 C       -3.6710     5.0380     1.0080 C.ar  1 <1>  -0.1440 
 18 C       -2.5380     4.7330     1.9550 C.3   1 <1>  -0.0170 
 19 N        2.2230     5.8060    -1.8700 N.2   1 <1>  -0.7070 
 20 C       -0.1850     5.4380    -1.5990 C.3   1 <1>  -0.0590 
 21 N        3.3540     5.2120    -1.4640 N.pl3 1 <1>   0.3140 
 22 C        4.1820     3.2360    -0.1080 C.3   1 <1>  -0.0600 
 23 C       -5.6380     5.1440    -0.7250 C.ar  1 <1>   0.7200 
 24 C       -4.2580     6.2350     0.6860 C.ar  1 <1>   0.1600 
 25 C        4.6670     5.7400    -1.8530 C.3   1 <1>   0.0160 
 26 N       -5.2420     6.2990    -0.1790 N.ar  1 <1>  -0.6200 
 27 N       -6.6790     5.2030    -1.6310 N.pl3 1 <1>  -0.8380 
 28 C       -7.0610     4.0420    -2.4810 C.3   1 <1>   0.1290 
 29 C       -7.5490     6.4070    -1.7550 C.3   1 <1>   0.1290 
 30 H       -0.0530     2.2920    -1.6660 H     1 <1>   0.0800 
 31 H        1.3550     1.3950    -1.2290 H     1 <1>   0.0800 
 32 H       -3.1180     2.0230    -1.1930 H     1 <1>   0.0800 
 33 H       -1.8410     3.0370    -0.6050 H     1 <1>   0.0800 
 34 H       -1.9810    -0.9910     0.7390 H     1 <1>   0.0800 
 35 H       -3.1760    -0.4740    -0.4140 H     1 <1>   0.0800 
 36 H        1.5130     2.5520     0.9210 H     1 <1>   0.0800 
 37 H        0.0840     3.4650     0.5750 H     1 <1>   0.0800 
 38 H       -2.9220     0.4150     2.4610 H     1 <1>   0.0800 
 39 H       -4.1900    -0.5570     1.7880 H     1 <1>   0.0800 
 40 H       -4.9870     1.3020     0.4200 H     1 <1>   0.0800 
 41 H       -4.9330     1.8090     2.0780 H     1 <1>   0.0800 
 42 H       -1.5780     2.7750     2.0850 H     1 <1>   0.0800 
 43 H       -3.0710     2.9340     2.9570 H     1 <1>   0.0800 
 44 H       -1.6080     5.0780     1.5400 H     1 <1>   0.0800 
 45 H       -2.6960     5.1860     2.9190 H     1 <1>   0.0800 
 46 H       -0.7120     5.4870    -0.6670 H     1 <1>   0.0800 
 47 H       -0.6350     4.6980    -2.2320 H     1 <1>   0.0800 
 48 H       -0.2560     6.3940    -2.0850 H     1 <1>   0.0800 
 49 H        3.7520     2.3970     0.4070 H     1 <1>   0.0800 
 50 H        4.7770     3.7960     0.5910 H     1 <1>   0.0800 
 51 H        4.8190     2.8580    -0.8870 H     1 <1>   0.0800 
 52 H       -3.9190     7.1490     1.1420 H     1 <1>   0.1500 
 53 H        5.2300     5.9680    -0.9680 H     1 <1>   0.0800 
 54 H        4.5280     6.6330    -2.4320 H     1 <1>   0.0800 
 55 H        5.1810     5.0040    -2.4410 H     1 <1>   0.0800 
 56 H       -6.1970     3.4430    -2.7120 H     1 <1>   0.0800 
 57 H       -7.4910     4.3850    -3.4060 H     1 <1>   0.0800 
 58 H       -7.7790     3.4340    -1.9580 H     1 <1>   0.0800 
 59 H       -7.5930     6.9400    -0.8210 H     1 <1>   0.0800 
 60 H       -8.5490     6.1170    -2.0240 H     1 <1>   0.0800 
 61 H       -7.1510     7.0600    -2.5120 H     1 <1>   0.0800 
@<TRIPOS>BOND
  1   1   2  2   
  2   2   3  am  
  3   2   4  1   
  4   3   5  1   
  5   3   6  1   
  6   4   7  1   
  7   4  30  1   
  8   4  31  1   
  9   5   8  1   
 10   5  32  1   
 11   5  33  1   
 12   6   9  1   
 13   6  34  1   
 14   6  35  1   
 15   7  10  1   
 16   7  36  1   
 17   7  37  1   
 18   8  11  1   
 19   8  12  1   
 20   8  13  1   
 21   9  12  1   
 22   9  38  1   
 23   9  39  1   
 24  10  14  1   
 25  10  15  2   
 26  11  16  ar  
 27  11  17  ar  
 28  12  40  1   
 29  12  41  1   
 30  13  18  1   
 31  13  42  1   
 32  13  43  1   
 33  14  19  2   
 34  14  20  1   
 35  15  21  1   
 36  15  22  1   
 37  16  23  ar  
 38  17  18  1   
 39  17  24  ar  
 40  18  44  1   
 41  18  45  1   
 42  19  21  1   
 43  20  46  1   
 44  20  47  1   
 45  20  48  1   
 46  21  25  1   
 47  22  49  1   
 48  22  50  1   
 49  22  51  1   
 50  23  26  ar  
 51  23  27  1   
 52  24  26  ar  
 53  24  52  1   
 54  25  53  1   
 55  25  54  1   
 56  25  55  1   
 57  27  28  1   
 58  27  29  1   
 59  28  56  1   
 60  28  57  1   
 61  28  58  1   
 62  29  59  1   
 63  29  60  1   
 64  29  61  1   
@<TRIPOS>SUBSTRUCTURE
  1 ****   5 GROUP 4 **** **** 0

# MOE 2024.06 (io_trps.svl 2023.06)
