@<TRIPOS>MOLECULE
Untitled Document
49 52 1 0 0 
SMALL
USER_CHARGES


@<TRIPOS>ATOM
  1 S       -0.1110     0.3130    -0.0060 S.o2  1 <1>   1.6220 
  2 O       -0.4150     1.3540     0.9490 O.2   1 <1>  -0.6500 
  3 O       -0.4320     0.4580    -1.4070 O.2   1 <1>  -0.6500 
  4 O        1.4100    -0.2660     0.2080 O.3   1 <1>  -0.2660 
  5 N       -1.0530    -0.9480     0.5080 N.am  1 <1>  -0.9780 
  6 C        2.5320     0.4460    -0.0600 C.ar  1 <1>   0.0830 
  7 C        3.7430    -0.1730     0.1920 C.ar  1 <1>  -0.1500 
  8 C        2.5250     1.7400    -0.5650 C.ar  1 <1>  -0.1500 
  9 C        4.9440     0.4750    -0.0480 C.ar  1 <1>  -0.1430 
 10 C        3.7210     2.3890    -0.8060 C.ar  1 <1>  -0.1500 
 11 C        4.9440     1.7780    -0.5470 C.ar  1 <1>  -0.1430 
 12 C        6.2260    -0.2910     0.2670 C.3   1 <1>  -0.0170 
 13 C        6.2710     2.5010    -0.8410 C.3   1 <1>   0.0630 
 14 C        7.4910     0.3790    -0.2770 C.3   1 <1>  -0.1600 
 15 C        7.4290     1.8880    -0.0140 C.3   1 <1>  -0.0800 
 16 C        6.2140     4.0440    -0.6810 C.3   1 <1>  -0.1600 
 17 C        8.7380     2.6080    -0.3860 C.3   1 <1>  -0.0800 
 18 C        7.5760     4.7400    -0.9190 C.3   1 <1>  -0.1600 
 19 C        8.6980     4.1110    -0.0750 C.3   1 <1>   0.0000 
 20 C       10.0700     2.1360     0.2010 C.3   1 <1>  -0.1600 
 21 C       10.1320     4.4970    -0.4940 C.3   1 <1>   0.2000 
 22 C        8.4580     4.4300     1.4310 C.3   1 <1>  -0.2400 
 23 C       11.0180     3.3310    -0.0240 C.3   1 <1>  -0.1600 
 24 O       10.5560     5.6840     0.0720 O.3   1 <1>  -0.6800 
 25 H       -1.8540    -0.8970    -0.1130 H     1 <1>   0.4200 
 26 H       -1.3710    -0.6280     1.4180 H     1 <1>   0.4200 
 27 H        3.7400    -1.1750     0.5810 H     1 <1>   0.1500 
 28 H        1.6120     2.2640    -0.7830 H     1 <1>   0.1500 
 29 H        3.6730     3.3830    -1.2070 H     1 <1>   0.1500 
 30 H        6.3090    -0.3680     1.3380 H     1 <1>   0.0800 
 31 H        6.1590    -1.2890    -0.1290 H     1 <1>   0.0800 
 32 H        6.4830     2.3110    -1.8790 H     1 <1>   0.0800 
 33 H        7.5680     0.1960    -1.3340 H     1 <1>   0.0800 
 34 H        8.3480    -0.0570     0.2040 H     1 <1>   0.0800 
 35 H        7.2280     2.0240     1.0330 H     1 <1>   0.0800 
 36 H        5.5210     4.4550    -1.3910 H     1 <1>   0.0800 
 37 H        5.8450     4.2810     0.3010 H     1 <1>   0.0800 
 38 H        8.8430     2.5010    -1.4540 H     1 <1>   0.0800 
 39 H        7.4950     5.7890    -0.6960 H     1 <1>   0.0800 
 40 H        7.8270     4.6540    -1.9630 H     1 <1>   0.0800 
 41 H        9.9650     1.9330     1.2520 H     1 <1>   0.0800 
 42 H       10.4280     1.2490    -0.2940 H     1 <1>   0.0800 
 43 H       10.1970     4.5970    -1.5650 H     1 <1>   0.0800 
 44 H        7.5240     4.0420     1.7870 H     1 <1>   0.0800 
 45 H        8.4290     5.4950     1.5830 H     1 <1>   0.0800 
 46 H        9.2360     4.0250     2.0530 H     1 <1>   0.0800 
 47 H       11.7400     3.1000    -0.7870 H     1 <1>   0.0800 
 48 H       11.5330     3.5680     0.8910 H     1 <1>   0.0800 
 49 H       10.3900     5.6520     1.0320 H     1 <1>   0.4000 
@<TRIPOS>BOND
  1   1   2  2   
  2   1   3  2   
  3   1   4  1   
  4   1   5  am  
  5   4   6  1   
  6   5  25  1   
  7   5  26  1   
  8   6   7  ar  
  9   6   8  ar  
 10   7   9  ar  
 11   7  27  1   
 12   8  10  ar  
 13   8  28  1   
 14   9  11  ar  
 15   9  12  1   
 16  10  11  ar  
 17  10  29  1   
 18  11  13  1   
 19  12  14  1   
 20  12  30  1   
 21  12  31  1   
 22  13  15  1   
 23  13  16  1   
 24  13  32  1   
 25  14  15  1   
 26  14  33  1   
 27  14  34  1   
 28  15  17  1   
 29  15  35  1   
 30  16  18  1   
 31  16  36  1   
 32  16  37  1   
 33  17  19  1   
 34  17  20  1   
 35  17  38  1   
 36  18  19  1   
 37  18  39  1   
 38  18  40  1   
 39  19  21  1   
 40  19  22  1   
 41  20  23  1   
 42  20  41  1   
 43  20  42  1   
 44  21  23  1   
 45  21  24  1   
 46  21  43  1   
 47  22  44  1   
 48  22  45  1   
 49  22  46  1   
 50  23  47  1   
 51  23  48  1   
 52  24  49  1   
@<TRIPOS>SUBSTRUCTURE
  1 ****  11 GROUP 4 **** **** 0

# MOE 2024.06 (io_trps.svl 2023.06)
