@<TRIPOS>MOLECULE
NONAME
57 59 1 0 0 
SMALL
USER_CHARGES


@<TRIPOS>ATOM
  1 S       -0.4770    -0.0990     1.4830 S.3   1 <1>  -0.0800 
  2 C        0.5290    -1.2860     0.6920 C.2   1 <1>  -0.0450 
  3 C        0.4980     1.1790     0.7970 C.2   1 <1>   0.1980 
  4 C        1.4910    -0.6140     0.0200 C.2   1 <1>   0.0460 
  5 C        0.2140    -2.6810     0.8360 C.2   1 <1>   0.7150 
  6 N        1.4590     0.7610     0.0720 N.2   1 <1>  -0.5650 
  7 C        0.0940     2.6120     1.1360 C.3   1 <1>   0.1000 
  8 C        2.6170    -1.2330    -0.7820 C.3   1 <1>  -0.0590 
  9 O        0.2680    -3.2070     1.9310 O.2   1 <1>  -0.5700 
 10 N       -0.1500    -3.4230    -0.2630 N.am  1 <1>  -0.6600 
 11 C       -1.1000     3.0520     0.2770 C.3   1 <1>  -0.2400 
 12 C        1.2610     3.5920     0.9490 C.3   1 <1>  -0.2400 
 13 C       -0.2270    -4.9210    -0.1650 C.3   1 <1>   0.3640 
 14 C       -0.6990    -2.7510    -1.4830 C.3   1 <1>   0.1400 
 15 C        1.1530    -5.5190    -0.4590 C.ar  1 <1>  -0.1430 
 16 C       -1.3020    -5.5910    -1.0750 C.3   1 <1>   0.2000 
 17 C       -1.3300    -3.7230    -2.4870 C.3   1 <1>   0.1200 
 18 C        1.6550    -6.4990     0.3860 C.ar  1 <1>  -0.1500 
 19 C        1.9150    -5.1220    -1.5510 C.ar  1 <1>  -0.1500 
 20 O       -2.0780    -4.6760    -1.8060 O.3   1 <1>  -0.5600 
 21 C       -2.2790    -6.4580    -0.2700 C.3   1 <1>   0.1200 
 22 C        2.8880    -7.0820     0.1490 C.ar  1 <1>   0.0830 
 23 C        3.1570    -5.6870    -1.7880 C.ar  1 <1>  -0.1500 
 24 O       -1.6070    -7.5070     0.3510 O.3   1 <1>  -0.6800 
 25 O        3.2900    -8.0610     0.9960 O.3   1 <1>  -0.3630 
 26 C        3.6590    -6.6550    -0.9370 C.ar  1 <1>   0.0830 
 27 C        3.3850    -9.3590     0.4520 C.3   1 <1>   0.0400 
 28 O        4.8960    -7.1420    -1.2050 O.3   1 <1>  -0.3630 
 29 C        5.8950    -6.8830    -0.2430 C.3   1 <1>   0.0400 
 30 H       -0.1980     2.6370     2.1710 H     1 <1>   0.0800 
 31 H        2.5850    -2.3050    -0.7270 H     1 <1>   0.0800 
 32 H        3.5600    -0.8970    -0.3890 H     1 <1>   0.0800 
 33 H        2.5430    -0.9270    -1.8090 H     1 <1>   0.0800 
 34 H       -0.8370     3.0180    -0.7650 H     1 <1>   0.0800 
 35 H       -1.3950     4.0540     0.5300 H     1 <1>   0.0800 
 36 H       -1.9370     2.3970     0.4410 H     1 <1>   0.0800 
 37 H        1.5770     3.6050    -0.0790 H     1 <1>   0.0800 
 38 H        2.0950     3.2860     1.5560 H     1 <1>   0.0800 
 39 H        0.9710     4.5850     1.2380 H     1 <1>   0.0800 
 40 H       -0.4730    -5.1770     0.8510 H     1 <1>   0.0800 
 41 H       -1.4540    -2.0470    -1.1770 H     1 <1>   0.0800 
 42 H        0.0810    -2.1970    -1.9730 H     1 <1>   0.0800 
 43 H       -0.8140    -6.2230    -1.7960 H     1 <1>   0.0800 
 44 H       -0.5820    -4.2210    -3.0790 H     1 <1>   0.0800 
 45 H       -1.9920    -3.1920    -3.1480 H     1 <1>   0.0800 
 46 H        1.0880    -6.8270     1.2410 H     1 <1>   0.1500 
 47 H        1.5540    -4.3670    -2.2230 H     1 <1>   0.1500 
 48 H       -3.0330    -6.8770    -0.9140 H     1 <1>   0.0800 
 49 H       -2.7510    -5.8680     0.4980 H     1 <1>   0.0800 
 50 H        3.7470    -5.3750    -2.6300 H     1 <1>   0.1500 
 51 H       -1.3080    -8.1700    -0.3030 H     1 <1>   0.4000 
 52 H        3.6280   -10.0390     1.2480 H     1 <1>   0.0800 
 53 H        4.1580    -9.3770    -0.2950 H     1 <1>   0.0800 
 54 H        2.4380    -9.6220     0.0170 H     1 <1>   0.0800 
 55 H        6.8390    -7.2050    -0.6440 H     1 <1>   0.0800 
 56 H        5.6750    -7.4280     0.6570 H     1 <1>   0.0800 
 57 H        5.9190    -5.8260    -0.0430 H     1 <1>   0.0800 
@<TRIPOS>BOND
  1   1   2  1   
  2   1   3  1   
  3   2   4  2   
  4   2   5  1   
  5   3   6  2   
  6   3   7  1   
  7   4   6  1   
  8   4   8  1   
  9   5   9  2   
 10   5  10  am  
 11   7  11  1   
 12   7  12  1   
 13   7  30  1   
 14   8  31  1   
 15   8  32  1   
 16   8  33  1   
 17  10  13  1   
 18  10  14  1   
 19  11  34  1   
 20  11  35  1   
 21  11  36  1   
 22  12  37  1   
 23  12  38  1   
 24  12  39  1   
 25  13  15  1   
 26  13  16  1   
 27  13  40  1   
 28  14  17  1   
 29  14  41  1   
 30  14  42  1   
 31  15  18  ar  
 32  15  19  ar  
 33  16  20  1   
 34  16  21  1   
 35  16  43  1   
 36  17  20  1   
 37  17  44  1   
 38  17  45  1   
 39  18  22  ar  
 40  18  46  1   
 41  19  23  ar  
 42  19  47  1   
 43  21  24  1   
 44  21  48  1   
 45  21  49  1   
 46  22  25  1   
 47  22  26  ar  
 48  23  26  ar  
 49  23  50  1   
 50  24  51  1   
 51  25  27  1   
 52  26  28  1   
 53  27  52  1   
 54  27  53  1   
 55  27  54  1   
 56  28  29  1   
 57  29  55  1   
 58  29  56  1   
 59  29  57  1   
@<TRIPOS>SUBSTRUCTURE
  1 ****  10 GROUP 4 **** **** 0

# MOE 2024.06 (io_trps.svl 2023.06)
