@<TRIPOS>MOLECULE
NONAME
47 50 1 0 0 
SMALL
USER_CHARGES


@<TRIPOS>ATOM
  1 CL       0.0660     1.7400    -1.0590 Cl    1 <1>  -0.1770 
  2 C        1.4840     1.9430    -0.0630 C.ar  1 <1>   0.1770 
  3 C        1.6360     1.1940     1.0900 C.ar  1 <1>   0.1600 
  4 C        2.4460     2.8540    -0.4330 C.ar  1 <1>  -0.1500 
  5 N        2.6850     1.2910     1.8950 N.ar  1 <1>  -0.6200 
  6 C        3.5560     2.9870     0.3930 C.ar  1 <1>   0.0860 
  7 C        3.6070     2.1680     1.5250 C.ar  1 <1>   0.1600 
  8 C        4.6280     3.9230     0.1140 C.2   1 <1>   0.5440 
  9 O        5.7210     3.8040     0.6360 O.2   1 <1>  -0.5700 
 10 N        4.4530     5.0240    -0.6900 N.am  1 <1>  -0.6600 
 11 C        5.5100     5.4320    -1.6750 C.3   1 <1>   0.1400 
 12 C        3.4980     6.0930    -0.3020 C.3   1 <1>   0.1400 
 13 C        6.7320     6.1200    -1.0260 C.3   1 <1>   0.3430 
 14 C        4.0750     6.9300     0.8490 C.3   1 <1>  -0.1600 
 15 N        6.4820     6.5060     0.3980 N.4   1 <1>  -0.9590 
 16 C        5.4460     7.5600     0.5790 C.3   1 <1>   0.3430 
 17 C        7.7480     6.7760     1.1400 C.3   1 <1>   0.5230 
 18 C        8.4960     8.0070     0.6420 C.2   1 <1>  -0.0400 
 19 O        9.6640     8.2390     1.2310 O.3   1 <1>  -0.2800 
 20 C        8.2380     8.9500    -0.2910 C.2   1 <1>  -0.1500 
 21 C       10.1840     9.3390     0.6850 C.ar  1 <1>   0.1400 
 22 C        9.3330     9.8380    -0.2830 C.ar  1 <1>   0.0000 
 23 C       11.3910     9.9520     0.9900 C.ar  1 <1>  -0.1500 
 24 C        9.6890    10.9920    -0.9820 C.ar  1 <1>  -0.1500 
 25 C       11.7380    11.0930     0.2960 C.ar  1 <1>  -0.1500 
 26 C       10.8880    11.6100    -0.6870 C.ar  1 <1>  -0.1500 
 27 H        0.8660     0.4900     1.3550 H     1 <1>   0.1500 
 28 H        2.3320     3.4310    -1.3330 H     1 <1>   0.1500 
 29 H        4.4690     2.2480     2.1670 H     1 <1>   0.1500 
 30 H        5.0810     6.0900    -2.4100 H     1 <1>   0.0800 
 31 H        5.8520     4.5580    -2.2030 H     1 <1>   0.0800 
 32 H        2.5670     5.6510     0.0120 H     1 <1>   0.0800 
 33 H        3.2880     6.7210    -1.1530 H     1 <1>   0.0800 
 34 H        7.0210     6.9780    -1.6100 H     1 <1>   0.0800 
 35 H        7.5530     5.4210    -1.0570 H     1 <1>   0.0800 
 36 H        4.1220     6.3330     1.7430 H     1 <1>   0.0800 
 37 H        3.3810     7.7270     1.0520 H     1 <1>   0.0800 
 38 H        6.0920     5.6270     0.7960 H     1 <1>   0.4500 
 39 H        5.7090     8.1820     1.4200 H     1 <1>   0.0800 
 40 H        5.3990     8.1890    -0.2950 H     1 <1>   0.0800 
 41 H        8.4010     5.9230     1.0520 H     1 <1>   0.0800 
 42 H        7.5310     6.9090     2.1870 H     1 <1>   0.0800 
 43 H        7.4010     9.0790    -0.9500 H     1 <1>   0.1500 
 44 H       12.0270     9.5350     1.7500 H     1 <1>   0.1500 
 45 H        9.0340    11.3880    -1.7370 H     1 <1>   0.1500 
 46 H       12.6680    11.5940     0.5070 H     1 <1>   0.1500 
 47 H       11.1800    12.5010    -1.2150 H     1 <1>   0.1500 
@<TRIPOS>BOND
  1   1   2  1   
  2   2   3  ar  
  3   2   4  ar  
  4   3   5  ar  
  5   3  27  1   
  6   4   6  ar  
  7   4  28  1   
  8   5   7  ar  
  9   6   7  ar  
 10   6   8  1   
 11   7  29  1   
 12   8   9  2   
 13   8  10  am  
 14  10  11  1   
 15  10  12  1   
 16  11  13  1   
 17  11  30  1   
 18  11  31  1   
 19  12  14  1   
 20  12  32  1   
 21  12  33  1   
 22  13  15  1   
 23  13  34  1   
 24  13  35  1   
 25  14  16  1   
 26  14  36  1   
 27  14  37  1   
 28  15  16  1   
 29  15  17  1   
 30  15  38  1   
 31  16  39  1   
 32  16  40  1   
 33  17  18  1   
 34  17  41  1   
 35  17  42  1   
 36  18  19  1   
 37  18  20  2   
 38  19  21  1   
 39  20  22  1   
 40  20  43  1   
 41  21  22  ar  
 42  21  23  ar  
 43  22  24  ar  
 44  23  25  ar  
 45  23  44  1   
 46  24  26  ar  
 47  24  45  1   
 48  25  26  ar  
 49  25  46  1   
 50  26  47  1   
@<TRIPOS>SUBSTRUCTURE
  1 ****  15 GROUP 4 **** **** 0

# MOE 2024.06 (io_trps.svl 2023.06)
