@<TRIPOS>MOLECULE
NONAME
62 66 1 0 0 
SMALL
USER_CHARGES


@<TRIPOS>ATOM
  1 N        0.7020     0.3460     0.1830 N.ar  1 <1>  -0.6200 
  2 C       -0.1960     1.1340     0.7970 C.ar  1 <1>   0.6200 
  3 C        1.3380     0.8950    -0.8210 C.ar  1 <1>   0.1660 
  4 N       -0.4520     2.4080     0.4670 N.ar  1 <1>  -0.6200 
  5 C       -0.9480     0.5630     1.9050 C.ar  1 <1>   0.0000 
  6 C        1.1440     2.1780    -1.2230 C.ar  1 <1>  -0.1440 
  7 C        2.3760     0.1920    -1.6630 C.3   1 <1>   0.1440 
  8 C        0.2190     2.9230    -0.5380 C.ar  1 <1>   0.1600 
  9 C       -0.3990    -0.4140     2.7420 C.ar  1 <1>  -0.1500 
 10 C       -2.2580     0.9650     2.1820 C.ar  1 <1>  -0.1500 
 11 C        2.0270     2.5390    -2.3910 C.3   1 <1>  -0.0160 
 12 C        3.3620    -0.5270    -0.7270 C.3   1 <1>   0.3430 
 13 C        1.6950    -0.8220    -2.6070 C.3   1 <1>  -0.1600 
 14 C        3.0290     1.3680    -2.4400 C.3   1 <1>  -0.1600 
 15 C       -1.1150    -0.9590     3.7920 C.ar  1 <1>  -0.1500 
 16 C       -2.9800     0.4250     3.2300 C.ar  1 <1>  -0.1500 
 17 N        4.3490    -1.3750    -1.4850 N.4   1 <1>  -0.9590 
 18 C        2.7150    -1.7420    -3.3010 C.3   1 <1>  -0.1600 
 19 C       -2.4090    -0.5400     4.0390 C.ar  1 <1>  -0.1500 
 20 C        3.6590    -2.4140    -2.3000 C.3   1 <1>   0.3430 
 21 C        5.3550    -1.9740    -0.5680 C.3   1 <1>   0.4860 
 22 C        6.2110    -0.8570     0.0040 C.ar  1 <1>  -0.1440 
 23 C        7.2100    -0.2760    -0.7620 C.ar  1 <1>  -0.1500 
 24 C        6.0010    -0.4020     1.2980 C.ar  1 <1>  -0.1500 
 25 C        7.9790     0.7530    -0.2460 C.ar  1 <1>  -0.1500 
 26 C        6.7700     0.6270     1.8120 C.ar  1 <1>  -0.1500 
 27 C        7.7650     1.2110     1.0440 C.ar  1 <1>  -0.1440 
 28 C        8.6150     2.3360     1.6130 C.3   1 <1>  -0.0170 
 29 C        9.8490     1.7470     2.3020 C.3   1 <1>   0.3430 
 30 N       10.7060     2.8200     2.8780 N.4   1 <1>  -0.8530 
 31 H        0.0240     3.9460    -0.8130 H     1 <1>   0.1500 
 32 H        0.6060    -0.7500     2.5680 H     1 <1>   0.1500 
 33 H       -2.7190     1.7160     1.5630 H     1 <1>   0.1500 
 34 H        2.5230     3.4830    -2.2410 H     1 <1>   0.0800 
 35 H        1.4360     2.5770    -3.2910 H     1 <1>   0.0800 
 36 H        2.7960    -1.1490    -0.0530 H     1 <1>   0.0800 
 37 H        3.8790     0.2120    -0.1370 H     1 <1>   0.0800 
 38 H        1.1020    -0.3030    -3.3420 H     1 <1>   0.0800 
 39 H        1.0180    -1.4310    -2.0300 H     1 <1>   0.0800 
 40 H        3.2770     1.1170    -3.4560 H     1 <1>   0.0800 
 41 H        3.9270     1.6820    -1.9370 H     1 <1>   0.0800 
 42 H       -0.6670    -1.7090     4.4200 H     1 <1>   0.1500 
 43 H       -3.9860     0.7570     3.4180 H     1 <1>   0.1500 
 44 H        4.8640    -0.7500    -2.1160 H     1 <1>   0.4500 
 45 H        3.2910    -1.1900    -4.0220 H     1 <1>   0.0800 
 46 H        2.1830    -2.5070    -3.8430 H     1 <1>   0.0800 
 47 H       -2.9700    -0.9620     4.8560 H     1 <1>   0.1500 
 48 H        3.0890    -3.0650    -1.6550 H     1 <1>   0.0800 
 49 H        4.3810    -3.0120    -2.8330 H     1 <1>   0.0800 
 50 H        5.9860    -2.6620    -1.1060 H     1 <1>   0.0800 
 51 H        4.8640    -2.5120     0.2280 H     1 <1>   0.0800 
 52 H        7.4050    -0.6150    -1.7660 H     1 <1>   0.1500 
 53 H        5.2370    -0.8400     1.9200 H     1 <1>   0.1500 
 54 H        8.7460     1.1910    -0.8650 H     1 <1>   0.1500 
 55 H        6.5810     0.9660     2.8170 H     1 <1>   0.1500 
 56 H        8.0280     2.9000     2.3170 H     1 <1>   0.0800 
 57 H        8.9120     2.9920     0.8130 H     1 <1>   0.0800 
 58 H       10.4120     1.1720     1.5830 H     1 <1>   0.0800 
 59 H        9.5270     1.0750     3.0830 H     1 <1>   0.0800 
 60 H       11.0390     3.4640     2.1500 H     1 <1>   0.4500 
 61 H       11.5330     2.4170     3.3370 H     1 <1>   0.4500 
 62 H       10.1970     3.3680     3.5810 H     1 <1>   0.4500 
@<TRIPOS>BOND
  1   1   2  ar  
  2   1   3  ar  
  3   2   4  ar  
  4   2   5  1   
  5   3   6  ar  
  6   3   7  1   
  7   4   8  ar  
  8   5   9  ar  
  9   5  10  ar  
 10   6   8  ar  
 11   6  11  1   
 12   7  12  1   
 13   7  13  1   
 14   7  14  1   
 15   8  31  1   
 16   9  15  ar  
 17   9  32  1   
 18  10  16  ar  
 19  10  33  1   
 20  11  14  1   
 21  11  34  1   
 22  11  35  1   
 23  12  17  1   
 24  12  36  1   
 25  12  37  1   
 26  13  18  1   
 27  13  38  1   
 28  13  39  1   
 29  14  40  1   
 30  14  41  1   
 31  15  19  ar  
 32  15  42  1   
 33  16  19  ar  
 34  16  43  1   
 35  17  20  1   
 36  17  21  1   
 37  17  44  1   
 38  18  20  1   
 39  18  45  1   
 40  18  46  1   
 41  19  47  1   
 42  20  48  1   
 43  20  49  1   
 44  21  22  1   
 45  21  50  1   
 46  21  51  1   
 47  22  23  ar  
 48  22  24  ar  
 49  23  25  ar  
 50  23  52  1   
 51  24  26  ar  
 52  24  53  1   
 53  25  27  ar  
 54  25  54  1   
 55  26  27  ar  
 56  26  55  1   
 57  27  28  1   
 58  28  29  1   
 59  28  56  1   
 60  28  57  1   
 61  29  30  1   
 62  29  58  1   
 63  29  59  1   
 64  30  60  1   
 65  30  61  1   
 66  30  62  1   
@<TRIPOS>SUBSTRUCTURE
  1 ****  12 GROUP 4 **** **** 0

# MOE 2024.06 (io_trps.svl 2023.06)
