@<TRIPOS>MOLECULE
NONAME
36 38 1 0 0 
SMALL
USER_CHARGES


@<TRIPOS>ATOM
  1 O        1.0500    -0.5680    -1.8100 O.3   1 <1>  -0.0190 
  2 N        2.1080     0.0820    -2.2050 N.2   1 <1>  -0.4100 
  3 C        1.0270    -0.7180    -0.5120 C.2   1 <1>   0.0550 
  4 C        2.7780     0.3560    -1.1400 C.2   1 <1>   0.1080 
  5 C        2.1270    -0.1370    -0.0110 C.2   1 <1>  -0.1500 
  6 C       -0.1270    -1.4480     0.1470 C.3   1 <1>  -0.0150 
  7 C        4.0990     1.1110    -1.1160 C.3   1 <1>   0.3900 
  8 C        0.0400    -2.1290     1.4690 C.3   1 <1>  -0.2000 
  9 C       -0.1300    -2.9410     0.2160 C.3   1 <1>  -0.2000 
 10 N        4.0550     2.2020    -0.1140 N.pl3 1 <1>  -0.8690 
 11 C        5.0910     3.1210    -0.0940 C.ar  1 <1>   0.4100 
 12 N        6.3030     2.6440    -0.3070 N.ar  1 <1>  -0.6200 
 13 C        4.8120     4.5080     0.1400 C.ar  1 <1>   0.4100 
 14 C        7.2270     3.5970    -0.2700 C.ar  1 <1>   0.1600 
 15 N        5.7520     5.4370     0.1660 N.ar  1 <1>  -0.6200 
 16 N        3.4970     4.9440     0.3630 N.pl3 1 <1>  -0.8380 
 17 C        6.9630     4.9350    -0.0440 C.ar  1 <1>   0.1600 
 18 C        3.0970     6.2440    -0.2430 C.3   1 <1>   0.1290 
 19 C        3.0110     4.7740     1.7570 C.3   1 <1>   0.1290 
 20 H        2.4640    -0.0470     1.0050 H     1 <1>   0.1500 
 21 H       -1.0690    -0.9650    -0.0450 H     1 <1>   0.1000 
 22 H        4.2970     1.5230    -2.0900 H     1 <1>   0.0800 
 23 H        4.8930     0.4290    -0.8670 H     1 <1>   0.0800 
 24 H       -0.7710    -2.0860     2.1750 H     1 <1>   0.1000 
 25 H        1.0040    -2.1210     1.9460 H     1 <1>   0.1000 
 26 H        0.7180    -3.4720    -0.1800 H     1 <1>   0.1000 
 27 H       -1.0580    -3.4610     0.0500 H     1 <1>   0.1000 
 28 H        3.1660     2.7160    -0.1540 H     1 <1>   0.4000 
 29 H        8.2450     3.2890    -0.4290 H     1 <1>   0.1500 
 30 H        7.7820     5.6320    -0.0340 H     1 <1>   0.1500 
 31 H        3.5140     6.3280    -1.2320 H     1 <1>   0.0800 
 32 H        3.4650     7.0590     0.3570 H     1 <1>   0.0800 
 33 H        2.0250     6.3040    -0.3120 H     1 <1>   0.0800 
 34 H        3.3630     3.8400     2.1610 H     1 <1>   0.0800 
 35 H        1.9350     4.7760     1.7720 H     1 <1>   0.0800 
 36 H        3.3780     5.5770     2.3730 H     1 <1>   0.0800 
@<TRIPOS>BOND
  1   1   2  1   
  2   1   3  1   
  3   2   4  2   
  4   3   5  2   
  5   3   6  1   
  6   4   5  1   
  7   4   7  1   
  8   5  20  1   
  9   6   8  1   
 10   6   9  1   
 11   6  21  1   
 12   7  10  1   
 13   7  22  1   
 14   7  23  1   
 15   8   9  1   
 16   8  24  1   
 17   8  25  1   
 18   9  26  1   
 19   9  27  1   
 20  10  11  1   
 21  10  28  1   
 22  11  12  ar  
 23  11  13  ar  
 24  12  14  ar  
 25  13  15  ar  
 26  13  16  1   
 27  14  17  ar  
 28  14  29  1   
 29  15  17  ar  
 30  16  18  1   
 31  16  19  1   
 32  17  30  1   
 33  18  31  1   
 34  18  32  1   
 35  18  33  1   
 36  19  34  1   
 37  19  35  1   
 38  19  36  1   
@<TRIPOS>SUBSTRUCTURE
  1 ****  10 GROUP 4 **** **** 0

# MOE 2024.06 (io_trps.svl 2023.06)
