@<TRIPOS>MOLECULE
NONAME
56 57 1 0 0 
SMALL
USER_CHARGES


@<TRIPOS>ATOM
  1 O        4.4490    -1.2220     1.5790 O.2   1 <1>  -0.5700 
  2 C        3.3160    -1.5520     1.3120 C.2   1 <1>   0.5690 
  3 N        2.7550    -1.4600     0.0890 N.am  1 <1>  -0.6600 
  4 C        2.3180    -2.0390     2.3240 C.3   1 <1>  -0.0990 
  5 C        3.5080    -1.1590    -1.1660 C.3   1 <1>   0.2810 
  6 C        1.3190    -1.8010     0.0890 C.3   1 <1>   0.1400 
  7 C        0.9750    -1.9280     1.5810 C.3   1 <1>  -0.1600 
  8 C        3.1720     0.2090    -1.8240 C.2   1 <1>   0.5690 
  9 C        3.3710    -2.3590    -2.1180 C.3   1 <1>  -0.2400 
 10 O        2.6740     0.2100    -2.9260 O.2   1 <1>  -0.5700 
 11 N        3.5260     1.4070    -1.2330 N.am  1 <1>  -0.6600 
 12 C        3.8470     1.6010     0.2120 C.3   1 <1>   0.1400 
 13 C        3.6530     2.6460    -2.0410 C.3   1 <1>   0.1400 
 14 C        5.3520     1.4570     0.5000 C.3   1 <1>   0.3430 
 15 C        5.0960     2.8010    -2.5440 C.3   1 <1>  -0.1600 
 16 N        6.2090     2.3880    -0.3250 N.4   1 <1>  -0.9590 
 17 C        6.1740     2.0230    -1.7770 C.3   1 <1>   0.3430 
 18 C        7.6070     2.3540     0.2180 C.3   1 <1>   0.3430 
 19 C        8.4810     3.4980    -0.3120 C.3   1 <1>   0.1200 
 20 O        9.7240     3.3810     0.2940 O.3   1 <1>  -0.5600 
 21 C       10.6380     4.3710    -0.0790 C.3   1 <1>   0.1200 
 22 C       11.9570     4.1250     0.6480 C.3   1 <1>   0.1200 
 23 O       12.8520     5.1150     0.2570 O.3   1 <1>  -0.5600 
 24 C       14.1050     5.0080     0.8520 C.3   1 <1>   0.0400 
 25 H        2.3390    -1.4330     3.2110 H     1 <1>   0.0800 
 26 H        2.5410    -3.0610     2.5700 H     1 <1>   0.0800 
 27 H        4.5500    -1.1080    -0.9090 H     1 <1>   0.0800 
 28 H        1.1660    -2.7400    -0.4160 H     1 <1>   0.0800 
 29 H        0.7400    -1.0280    -0.3890 H     1 <1>   0.0800 
 30 H        0.4570    -1.0390     1.8950 H     1 <1>   0.0800 
 31 H        0.3400    -2.7770     1.7650 H     1 <1>   0.0800 
 32 H        2.3620    -2.4440    -2.4810 H     1 <1>   0.0800 
 33 H        3.6540    -3.2680    -1.6180 H     1 <1>   0.0800 
 34 H        4.0160    -2.2220    -2.9670 H     1 <1>   0.0800 
 35 H        3.2880     0.9100     0.8090 H     1 <1>   0.0800 
 36 H        3.5220     2.5780     0.5250 H     1 <1>   0.0800 
 37 H        3.3730     3.4980    -1.4440 H     1 <1>   0.0800 
 38 H        2.9750     2.6160    -2.8800 H     1 <1>   0.0800 
 39 H        5.6440     0.4350     0.3220 H     1 <1>   0.0800 
 40 H        5.5110     1.6530     1.5480 H     1 <1>   0.0800 
 41 H        5.3500     3.8440    -2.5880 H     1 <1>   0.0800 
 42 H        5.1140     2.4460    -3.5600 H     1 <1>   0.0800 
 43 H        5.8360     3.3390    -0.2210 H     1 <1>   0.4500 
 44 H        7.1280     2.2320    -2.2320 H     1 <1>   0.0800 
 45 H        5.9920     0.9650    -1.8800 H     1 <1>   0.0800 
 46 H        8.0720     1.4140    -0.0310 H     1 <1>   0.0800 
 47 H        7.5750     2.4380     1.2920 H     1 <1>   0.0800 
 48 H        8.0630     4.4540    -0.0440 H     1 <1>   0.0800 
 49 H        8.6180     3.4270    -1.3760 H     1 <1>   0.0800 
 50 H       10.2440     5.3340     0.1990 H     1 <1>   0.0800 
 51 H       10.7950     4.3210    -1.1420 H     1 <1>   0.0800 
 52 H       12.3620     3.1660     0.3740 H     1 <1>   0.0800 
 53 H       11.8160     4.1880     1.7130 H     1 <1>   0.0800 
 54 H       14.7190     5.8130     0.4870 H     1 <1>   0.0800 
 55 H       14.5470     4.0640     0.5820 H     1 <1>   0.0800 
 56 H       14.0000     5.0870     1.9200 H     1 <1>   0.0800 
@<TRIPOS>BOND
  1   1   2  2   
  2   2   3  am  
  3   2   4  1   
  4   3   5  1   
  5   3   6  1   
  6   4   7  1   
  7   4  25  1   
  8   4  26  1   
  9   5   8  1   
 10   5   9  1   
 11   5  27  1   
 12   6   7  1   
 13   6  28  1   
 14   6  29  1   
 15   7  30  1   
 16   7  31  1   
 17   8  10  2   
 18   8  11  am  
 19   9  32  1   
 20   9  33  1   
 21   9  34  1   
 22  11  12  1   
 23  11  13  1   
 24  12  14  1   
 25  12  35  1   
 26  12  36  1   
 27  13  15  1   
 28  13  37  1   
 29  13  38  1   
 30  14  16  1   
 31  14  39  1   
 32  14  40  1   
 33  15  17  1   
 34  15  41  1   
 35  15  42  1   
 36  16  17  1   
 37  16  18  1   
 38  16  43  1   
 39  17  44  1   
 40  17  45  1   
 41  18  19  1   
 42  18  46  1   
 43  18  47  1   
 44  19  20  1   
 45  19  48  1   
 46  19  49  1   
 47  20  21  1   
 48  21  22  1   
 49  21  50  1   
 50  21  51  1   
 51  22  23  1   
 52  22  52  1   
 53  22  53  1   
 54  23  24  1   
 55  24  54  1   
 56  24  55  1   
 57  24  56  1   
@<TRIPOS>SUBSTRUCTURE
  1 ****  14 GROUP 4 **** **** 0

# MOE 2024.06 (io_trps.svl 2023.06)
