@<TRIPOS>MOLECULE
NONAME
48 50 1 0 0 
SMALL
USER_CHARGES


@<TRIPOS>ATOM
  1 S        0.9960    -0.2390     0.5750 S.o2  1 <1>   1.3330 
  2 O        1.9540    -1.3210     0.5740 O.2   1 <1>  -0.6500 
  3 O        0.7930     0.5300     1.7820 O.2   1 <1>  -0.6500 
  4 N       -0.5020    -0.8770     0.0940 N.am  1 <1>  -0.8490 
  5 C        1.3680     0.9140    -0.7480 C.3   1 <1>  -0.0550 
  6 C       -1.3230    -1.2900     1.2370 C.3   1 <1>   0.1160 
  7 C       -0.3830    -1.9860    -0.8590 C.3   1 <1>   0.1160 
  8 C        2.6740     1.7040    -0.5300 C.3   1 <1>  -0.0800 
  9 C        2.8110     2.8250    -1.5450 C.3   1 <1>   0.2200 
 10 C        3.9120     0.8600    -0.8430 C.3   1 <1>   0.1200 
 11 N        3.7270     3.8500    -1.0060 N.am  1 <1>  -0.7300 
 12 C        3.4650     2.1150    -2.7290 C.3   1 <1>   0.1200 
 13 O        4.1400     1.0030    -2.2120 O.3   1 <1>  -0.5600 
 14 C        3.4010     5.1350    -0.7180 C.2   1 <1>   0.6300 
 15 O        2.2930     5.5630    -0.9440 O.2   1 <1>  -0.5700 
 16 C        4.4750     6.0410    -0.0940 C.3   1 <1>   0.0320 
 17 C        5.6860     5.2630     0.4110 C.ar  1 <1>  -0.0320 
 18 C        4.0710     7.2650     0.6830 C.3   1 <1>  -0.2000 
 19 C        4.6970     7.4130    -0.6670 C.3   1 <1>  -0.2000 
 20 C        5.6750     4.7090     1.6810 C.ar  1 <1>  -0.1500 
 21 C        6.7920     5.0760    -0.4040 C.ar  1 <1>  -0.1500 
 22 C        6.7580     3.9740     2.1340 C.ar  1 <1>  -0.1500 
 23 C        7.8760     4.3410     0.0460 C.ar  1 <1>  -0.1500 
 24 C        7.8590     3.7900     1.3150 C.ar  1 <1>  -0.1500 
 25 H        1.4190     0.3860    -1.6800 H     1 <1>   0.0800 
 26 H        0.5550     1.6110    -0.8100 H     1 <1>   0.0800 
 27 H       -2.2690    -1.6740     0.8980 H     1 <1>   0.0800 
 28 H       -1.5140    -0.4450     1.8780 H     1 <1>   0.0800 
 29 H       -0.8140    -2.0490     1.8090 H     1 <1>   0.0800 
 30 H       -1.3590    -2.2880    -1.1990 H     1 <1>   0.0800 
 31 H        0.1030    -2.8300    -0.3970 H     1 <1>   0.0800 
 32 H        0.1950    -1.6820    -1.7140 H     1 <1>   0.0800 
 33 H        2.6940     2.0830     0.4780 H     1 <1>   0.0800 
 34 H        1.8690     3.2730    -1.8150 H     1 <1>   0.0800 
 35 H        3.8000    -0.1850    -0.6140 H     1 <1>   0.0800 
 36 H        4.7750     1.2450    -0.3270 H     1 <1>   0.0800 
 37 H        4.6760     3.5300    -0.7930 H     1 <1>   0.3700 
 38 H        4.1610     2.7460    -3.2530 H     1 <1>   0.0800 
 39 H        2.7190     1.7500    -3.4120 H     1 <1>   0.0800 
 40 H        3.0230     7.4840     0.7930 H     1 <1>   0.1000 
 41 H        4.6460     7.5480     1.5470 H     1 <1>   0.1000 
 42 H        5.6970     7.8040    -0.7260 H     1 <1>   0.1000 
 43 H        4.0750     7.7390    -1.4840 H     1 <1>   0.1000 
 44 H        4.8190     4.8460     2.3200 H     1 <1>   0.1500 
 45 H        6.8110     5.5010    -1.3920 H     1 <1>   0.1500 
 46 H        6.7430     3.5460     3.1210 H     1 <1>   0.1500 
 47 H        8.7320     4.1990    -0.5900 H     1 <1>   0.1500 
 48 H        8.7010     3.2200     1.6660 H     1 <1>   0.1500 
@<TRIPOS>BOND
  1   1   2  2   
  2   1   3  2   
  3   1   4  am  
  4   1   5  1   
  5   4   6  1   
  6   4   7  1   
  7   5   8  1   
  8   5  25  1   
  9   5  26  1   
 10   6  27  1   
 11   6  28  1   
 12   6  29  1   
 13   7  30  1   
 14   7  31  1   
 15   7  32  1   
 16   8   9  1   
 17   8  10  1   
 18   8  33  1   
 19   9  11  1   
 20   9  12  1   
 21   9  34  1   
 22  10  13  1   
 23  10  35  1   
 24  10  36  1   
 25  11  14  am  
 26  11  37  1   
 27  12  13  1   
 28  12  38  1   
 29  12  39  1   
 30  14  15  2   
 31  14  16  1   
 32  16  17  1   
 33  16  18  1   
 34  16  19  1   
 35  17  20  ar  
 36  17  21  ar  
 37  18  19  1   
 38  18  40  1   
 39  18  41  1   
 40  19  42  1   
 41  19  43  1   
 42  20  22  ar  
 43  20  44  1   
 44  21  23  ar  
 45  21  45  1   
 46  22  24  ar  
 47  22  46  1   
 48  23  24  ar  
 49  23  47  1   
 50  24  48  1   
@<TRIPOS>SUBSTRUCTURE
  1 ****   8 GROUP 4 **** **** 0

# MOE 2024.06 (io_trps.svl 2023.06)
