@<TRIPOS>MOLECULE
NONAME
45 47 1 0 0 
SMALL
USER_CHARGES


@<TRIPOS>ATOM
  1 S        0.4370     0.2880     0.0910 S.3   1 <1>  -0.0800 
  2 C       -1.0910     1.0850    -0.3440 C.2   1 <1>  -0.0450 
  3 C       -0.2210    -1.3200    -0.2030 C.ar  1 <1>   0.0400 
  4 C       -2.0010     0.1380    -0.6960 C.2   1 <1>  -0.1810 
  5 C       -1.1350     2.5290    -0.3000 C.2   1 <1>   0.7150 
  6 C       -1.5400    -1.2210    -0.6200 C.ar  1 <1>   0.0000 
  7 C        0.4480    -2.5200    -0.0520 C.ar  1 <1>  -0.1500 
  8 C       -3.4220     0.4310    -1.1500 C.3   1 <1>  -0.0590 
  9 O       -1.5810     3.1380    -1.2570 O.2   1 <1>  -0.5700 
 10 N       -0.6990     3.2480     0.8000 N.am  1 <1>  -0.6600 
 11 C       -2.2140    -2.4100    -0.8980 C.ar  1 <1>  -0.1500 
 12 C       -0.2420    -3.6860    -0.3330 C.ar  1 <1>  -0.1500 
 13 C       -0.4560     4.7130     0.7210 C.3   1 <1>   0.1400 
 14 C       -0.5050     2.6440     2.1490 C.3   1 <1>   0.0600 
 15 C       -1.5680    -3.6270    -0.7540 C.ar  1 <1>  -0.1500 
 16 C        1.0210     4.9660     0.4180 C.3   1 <1>  -0.1600 
 17 C        1.3220     6.4710     0.3430 C.3   1 <1>  -0.1600 
 18 C        2.7990     6.7560     0.0590 C.3   1 <1>   0.2000 
 19 O        2.9920     8.1280     0.0640 O.3   1 <1>  -0.5600 
 20 C        3.2860     6.3110    -1.3130 C.3   1 <1>  -0.1600 
 21 C        4.1140     8.4730    -0.6860 C.3   1 <1>   0.1200 
 22 C        4.4170     7.2830    -1.5950 C.3   1 <1>  -0.1600 
 23 H        1.4720    -2.5360     0.2730 H     1 <1>   0.1500 
 24 H       -3.6260     1.4870    -1.1340 H     1 <1>   0.0800 
 25 H       -4.1250    -0.0600    -0.5020 H     1 <1>   0.0800 
 26 H       -3.5640     0.0760    -2.1550 H     1 <1>   0.0800 
 27 H       -3.2360    -2.3790    -1.2250 H     1 <1>   0.1500 
 28 H        0.2450    -4.6400    -0.2280 H     1 <1>   0.1500 
 29 H       -0.7310     5.1790     1.6520 H     1 <1>   0.0800 
 30 H       -1.0640     5.1500    -0.0540 H     1 <1>   0.0800 
 31 H       -0.9900     1.6860     2.2110 H     1 <1>   0.0800 
 32 H       -0.9290     3.2840     2.9030 H     1 <1>   0.0800 
 33 H        0.5460     2.5190     2.3420 H     1 <1>   0.0800 
 34 H       -2.0940    -4.5400    -0.9710 H     1 <1>   0.1500 
 35 H        1.2610     4.5020    -0.5230 H     1 <1>   0.0800 
 36 H        1.6270     4.5200     1.1870 H     1 <1>   0.0800 
 37 H        1.0650     6.9300     1.2820 H     1 <1>   0.0800 
 38 H        0.7220     6.9220    -0.4280 H     1 <1>   0.0800 
 39 H        3.4250     6.3410     0.8320 H     1 <1>   0.0800 
 40 H        2.5000     6.4380    -2.0370 H     1 <1>   0.0800 
 41 H        3.6100     5.2860    -1.3130 H     1 <1>   0.0800 
 42 H        4.9280     8.6700    -0.0090 H     1 <1>   0.0800 
 43 H        3.8800     9.3590    -1.2490 H     1 <1>   0.0800 
 44 H        4.4490     7.5750    -2.6300 H     1 <1>   0.0800 
 45 H        5.3660     6.8560    -1.3200 H     1 <1>   0.0800 
@<TRIPOS>BOND
  1   1   2  1   
  2   1   3  1   
  3   2   4  2   
  4   2   5  1   
  5   3   6  ar  
  6   3   7  ar  
  7   4   6  1   
  8   4   8  1   
  9   5   9  2   
 10   5  10  am  
 11   6  11  ar  
 12   7  12  ar  
 13   7  23  1   
 14   8  24  1   
 15   8  25  1   
 16   8  26  1   
 17  10  13  1   
 18  10  14  1   
 19  11  15  ar  
 20  11  27  1   
 21  12  15  ar  
 22  12  28  1   
 23  13  16  1   
 24  13  29  1   
 25  13  30  1   
 26  14  31  1   
 27  14  32  1   
 28  14  33  1   
 29  15  34  1   
 30  16  17  1   
 31  16  35  1   
 32  16  36  1   
 33  17  18  1   
 34  17  37  1   
 35  17  38  1   
 36  18  19  1   
 37  18  20  1   
 38  18  39  1   
 39  19  21  1   
 40  20  22  1   
 41  20  40  1   
 42  20  41  1   
 43  21  22  1   
 44  21  42  1   
 45  21  43  1   
 46  22  44  1   
 47  22  45  1   
@<TRIPOS>SUBSTRUCTURE
  1 ****   5 GROUP 4 **** **** 0

# MOE 2024.06 (io_trps.svl 2023.06)
