@<TRIPOS>MOLECULE
NONAME
45 48 1 0 0 
SMALL
USER_CHARGES


@<TRIPOS>ATOM
  1 F       -1.1150    -0.3750     2.0820 F     1 <1>  -0.1900 
  2 C       -1.7270    -0.6420     0.9560 C.ar  1 <1>   0.1900 
  3 C       -2.1170     0.3740     0.0770 C.ar  1 <1>   0.0830 
  4 C       -1.9760    -1.9760     0.6920 C.ar  1 <1>  -0.1500 
  5 O       -1.9100     1.7110     0.2350 O.3   1 <1>  -0.3400 
  6 C       -2.7840     0.0020    -1.0810 C.ar  1 <1>  -0.1500 
  7 C       -2.6370    -2.3220    -0.4750 C.ar  1 <1>  -0.1500 
  8 C       -0.9130     2.2320     1.0990 C.3   1 <1>   0.2580 
  9 C       -3.0420    -1.3320    -1.3570 C.ar  1 <1>  -0.1500 
 10 C       -0.6020     3.7060     0.7610 C.3   1 <1>   0.2450 
 11 C        0.5260     1.9190     0.6290 C.3   1 <1>   0.2450 
 12 N        0.8650     3.3770     0.8440 N.3   1 <1>  -0.5900 
 13 C        1.7390     4.0340    -0.0050 C.ar  1 <1>   0.4100 
 14 N        2.5210     3.2970    -0.7880 N.ar  1 <1>  -0.6200 
 15 C        1.7820     5.4230     0.0050 C.ar  1 <1>  -0.1500 
 16 C        3.3360     3.9590    -1.5880 C.ar  1 <1>   0.1600 
 17 C        2.6450     6.1200    -0.8180 C.ar  1 <1>   0.0860 
 18 C        3.4350     5.3330    -1.6440 C.ar  1 <1>  -0.1500 
 19 C        2.7060     7.5670    -0.8160 C.2   1 <1>   0.5440 
 20 O        1.6860     8.2060    -0.9920 O.2   1 <1>  -0.5700 
 21 N        3.8890     8.2360    -0.6060 N.am  1 <1>  -0.6600 
 22 C        5.1060     7.6280    -0.0220 C.3   1 <1>   0.1400 
 23 C        3.9700     9.7150    -0.5690 C.3   1 <1>   0.1400 
 24 C        6.0570     8.7960     0.2170 C.3   1 <1>  -0.1600 
 25 C        5.1520    10.0170     0.3440 C.3   1 <1>  -0.1600 
 26 H       -1.6580    -2.7300     1.3900 H     1 <1>   0.1500 
 27 H       -3.1000     0.7640    -1.7710 H     1 <1>   0.1500 
 28 H       -2.8380    -3.3560    -0.6950 H     1 <1>   0.1500 
 29 H       -1.1320     2.0590     2.1370 H     1 <1>   0.0000 
 30 H       -3.5580    -1.6010    -2.2620 H     1 <1>   0.1500 
 31 H       -0.8920     4.3970     1.5320 H     1 <1>   0.0000 
 32 H       -0.8840     4.0000    -0.2350 H     1 <1>   0.0000 
 33 H        0.5840     1.6310    -0.4060 H     1 <1>   0.0000 
 34 H        1.0740     1.2860     1.3030 H     1 <1>   0.0000 
 35 H        1.1330     5.9650     0.6660 H     1 <1>   0.1500 
 36 H        3.9610     3.3670    -2.2350 H     1 <1>   0.1500 
 37 H        4.1170     5.8010    -2.3290 H     1 <1>   0.1500 
 38 H        5.5420     6.9070    -0.6910 H     1 <1>   0.0800 
 39 H        4.8520     7.1540     0.9120 H     1 <1>   0.0800 
 40 H        3.0590    10.1490    -0.1920 H     1 <1>   0.0800 
 41 H        4.1560    10.0790    -1.5650 H     1 <1>   0.0800 
 42 H        6.6980     8.9050    -0.6410 H     1 <1>   0.0800 
 43 H        6.6660     8.6440     1.0900 H     1 <1>   0.0800 
 44 H        4.7950    10.1050     1.3550 H     1 <1>   0.0800 
 45 H        5.6480    10.9290     0.0660 H     1 <1>   0.0800 
@<TRIPOS>BOND
  1   1   2  1   
  2   2   3  ar  
  3   2   4  ar  
  4   3   5  1   
  5   3   6  ar  
  6   4   7  ar  
  7   4  26  1   
  8   5   8  1   
  9   6   9  ar  
 10   6  27  1   
 11   7   9  ar  
 12   7  28  1   
 13   8  10  1   
 14   8  11  1   
 15   8  29  1   
 16   9  30  1   
 17  10  12  1   
 18  10  31  1   
 19  10  32  1   
 20  11  12  1   
 21  11  33  1   
 22  11  34  1   
 23  12  13  1   
 24  13  14  ar  
 25  13  15  ar  
 26  14  16  ar  
 27  15  17  ar  
 28  15  35  1   
 29  16  18  ar  
 30  16  36  1   
 31  17  18  ar  
 32  17  19  1   
 33  18  37  1   
 34  19  20  2   
 35  19  21  am  
 36  21  22  1   
 37  21  23  1   
 38  22  24  1   
 39  22  38  1   
 40  22  39  1   
 41  23  25  1   
 42  23  40  1   
 43  23  41  1   
 44  24  25  1   
 45  24  42  1   
 46  24  43  1   
 47  25  44  1   
 48  25  45  1   
@<TRIPOS>SUBSTRUCTURE
  1 ****  13 GROUP 4 **** **** 0

# MOE 2024.06 (io_trps.svl 2023.06)
