@<TRIPOS>MOLECULE
NONAME
54 57 1 0 0 
SMALL
USER_CHARGES


@<TRIPOS>ATOM
  1 O       -0.3670    -0.5470     0.1350 O.2   1 <1>  -0.5700 
  2 C        0.6920    -1.0650     0.4340 C.2   1 <1>   0.5440 
  3 N        1.8100    -0.2740     0.6050 N.am  1 <1>  -0.6600 
  4 C        0.7390    -2.5040     0.5960 C.ar  1 <1>   0.0860 
  5 C        1.7170     1.2140     0.6330 C.3   1 <1>   0.1400 
  6 C        3.2060    -0.7960     0.5840 C.3   1 <1>   0.1400 
  7 C        0.3170    -3.3670    -0.3960 C.ar  1 <1>  -0.1500 
  8 C        1.1980    -3.1170     1.7540 C.ar  1 <1>  -0.1500 
  9 C        2.4510     1.8020    -0.5760 C.3   1 <1>  -0.1600 
 10 C        3.9560    -0.2190    -0.6220 C.3   1 <1>  -0.1600 
 11 C        0.3770    -4.7420    -0.2220 C.ar  1 <1>   0.4100 
 12 C        1.2240    -4.4930     1.8410 C.ar  1 <1>   0.1600 
 13 C        3.9040     1.3150    -0.6460 C.3   1 <1>  -0.1600 
 14 N        0.8320    -5.3140     0.8840 N.ar  1 <1>  -0.6200 
 15 N       -0.0540    -5.5630    -1.2380 N.pl3 1 <1>  -0.8690 
 16 C       -0.2870    -7.0230    -1.0700 C.3   1 <1>   0.2090 
 17 C       -1.6890    -7.2810    -0.5170 C.3   1 <1>   0.0210 
 18 C       -2.0280    -8.7640    -0.4700 C.2   1 <1>  -0.1810 
 19 C       -3.3370    -9.2530    -0.2510 C.ar  1 <1>   0.0000 
 20 C       -1.2130    -9.8370    -0.6150 C.2   1 <1>  -0.3020 
 21 C       -3.2510   -10.6400    -0.2780 C.ar  1 <1>  -0.1520 
 22 C       -4.5790    -8.6470    -0.0350 C.ar  1 <1>  -0.1500 
 23 N       -1.9430   -10.9850    -0.5010 N.pl3 1 <1>   0.0330 
 24 C       -4.3850   -11.4360    -0.0970 C.ar  1 <1>  -0.1500 
 25 C       -5.7020    -9.4230     0.1440 C.ar  1 <1>   0.0820 
 26 C       -5.6010   -10.8280     0.1120 C.ar  1 <1>  -0.1500 
 27 O       -6.8790    -8.7650     0.3460 O.3   1 <1>  -0.3620 
 28 C       -8.0800    -9.4730     0.5540 C.3   1 <1>   0.0400 
 29 H        2.1640     1.5740     1.5430 H     1 <1>   0.0800 
 30 H        0.6880     1.5330     0.6230 H     1 <1>   0.0800 
 31 H        3.2190    -1.8690     0.5210 H     1 <1>   0.0800 
 32 H        3.7020    -0.5050     1.4940 H     1 <1>   0.0800 
 33 H       -0.0640    -2.9660    -1.3150 H     1 <1>   0.1500 
 34 H        1.5280    -2.5130     2.5790 H     1 <1>   0.1500 
 35 H        2.4300     2.8760    -0.5150 H     1 <1>   0.0800 
 36 H        1.9240     1.5140    -1.4690 H     1 <1>   0.0800 
 37 H        3.5130    -0.6090    -1.5230 H     1 <1>   0.0800 
 38 H        4.9800    -0.5460    -0.5940 H     1 <1>   0.0800 
 39 H        1.5850    -4.9490     2.7480 H     1 <1>   0.1500 
 40 H        4.4530     1.7040     0.1940 H     1 <1>   0.0800 
 41 H        4.3670     1.6810    -1.5460 H     1 <1>   0.0800 
 42 H       -0.6310    -5.1240    -1.9580 H     1 <1>   0.4000 
 43 H        0.4500    -7.4440    -0.4070 H     1 <1>   0.0800 
 44 H       -0.1840    -7.5040    -2.0280 H     1 <1>   0.0800 
 45 H       -2.4080    -6.7860    -1.1440 H     1 <1>   0.0800 
 46 H       -1.7590    -6.8750     0.4760 H     1 <1>   0.0800 
 47 H       -0.1520    -9.8640    -0.7910 H     1 <1>   0.1500 
 48 H       -4.6520    -7.5770    -0.0090 H     1 <1>   0.1500 
 49 H       -1.5870   -11.9440    -0.5630 H     1 <1>   0.2700 
 50 H       -4.2980   -12.5070    -0.1220 H     1 <1>   0.1500 
 51 H       -6.4690   -11.4420     0.2500 H     1 <1>   0.1500 
 52 H       -8.8690    -8.7560     0.6960 H     1 <1>   0.0800 
 53 H       -7.9780   -10.0820     1.4340 H     1 <1>   0.0800 
 54 H       -8.2860   -10.0750    -0.3130 H     1 <1>   0.0800 
@<TRIPOS>BOND
  1   1   2  2   
  2   2   3  am  
  3   2   4  1   
  4   3   5  1   
  5   3   6  1   
  6   4   7  ar  
  7   4   8  ar  
  8   5   9  1   
  9   5  29  1   
 10   5  30  1   
 11   6  10  1   
 12   6  31  1   
 13   6  32  1   
 14   7  11  ar  
 15   7  33  1   
 16   8  12  ar  
 17   8  34  1   
 18   9  13  1   
 19   9  35  1   
 20   9  36  1   
 21  10  13  1   
 22  10  37  1   
 23  10  38  1   
 24  11  14  ar  
 25  11  15  1   
 26  12  14  ar  
 27  12  39  1   
 28  13  40  1   
 29  13  41  1   
 30  15  16  1   
 31  15  42  1   
 32  16  17  1   
 33  16  43  1   
 34  16  44  1   
 35  17  18  1   
 36  17  45  1   
 37  17  46  1   
 38  18  19  1   
 39  18  20  2   
 40  19  21  ar  
 41  19  22  ar  
 42  20  23  1   
 43  20  47  1   
 44  21  23  1   
 45  21  24  ar  
 46  22  25  ar  
 47  22  48  1   
 48  23  49  1   
 49  24  26  ar  
 50  24  50  1   
 51  25  26  ar  
 52  25  27  1   
 53  26  51  1   
 54  27  28  1   
 55  28  52  1   
 56  28  53  1   
 57  28  54  1   
@<TRIPOS>SUBSTRUCTURE
  1 ****  11 GROUP 4 **** **** 0

# MOE 2024.06 (io_trps.svl 2023.06)
