@<TRIPOS>MOLECULE
NONAME
41 42 1 0 0 
SMALL
USER_CHARGES


@<TRIPOS>ATOM
  1 S        1.0490     1.2050     1.0710 S.o2  1 <1>   1.3330 
  2 O        1.4470     2.4880     1.6060 O.2   1 <1>  -0.6500 
  3 O        2.0340     0.1510     1.0880 O.2   1 <1>  -0.6500 
  4 N        0.7170     1.4880    -0.5690 N.am  1 <1>  -0.8490 
  5 C       -0.4870     0.6280     1.7620 C.3   1 <1>  -0.1350 
  6 C        1.8170     1.1610    -1.4990 C.3   1 <1>   0.1960 
  7 C       -0.1020     2.6490    -0.9530 C.3   1 <1>   0.1960 
  8 C        3.1410     1.9000    -1.1810 C.3   1 <1>   0.3430 
  9 C        0.5980     4.0190    -0.8770 C.3   1 <1>  -0.1600 
 10 N        2.9250     3.2820    -0.6340 N.4   1 <1>  -0.9590 
 11 C        2.0060     4.1030    -1.4680 C.3   1 <1>   0.3430 
 12 C        4.1980     3.9470    -0.2420 C.3   1 <1>   0.4860 
 13 C        3.9020     5.2690     0.4330 C.ar  1 <1>  -0.1430 
 14 C        4.2490     6.4630    -0.1600 C.ar  1 <1>   0.1600 
 15 C        3.2710     5.3350     1.6570 C.ar  1 <1>   0.1600 
 16 N        3.9760     7.6230     0.3880 N.ar  1 <1>  -0.6200 
 17 N        2.9830     6.4780     2.2310 N.ar  1 <1>  -0.6200 
 18 C        3.3580     7.5510     1.5580 C.ar  1 <1>   0.7220 
 19 S        2.9620     9.1060     2.3390 S.3   1 <1>  -0.3320 
 20 C        3.6230    10.4040     1.2010 C.3   1 <1>  -0.0100 
 21 H       -0.3570     0.3900     2.8000 H     1 <1>   0.0800 
 22 H       -0.8140    -0.2560     1.2490 H     1 <1>   0.0800 
 23 H       -1.2460     1.3800     1.6770 H     1 <1>   0.0800 
 24 H        1.5150     1.3830    -2.5080 H     1 <1>   0.0800 
 25 H        2.0040     0.1000    -1.4630 H     1 <1>   0.0800 
 26 H       -0.9850     2.6770    -0.3350 H     1 <1>   0.0800 
 27 H       -0.4440     2.4960    -1.9640 H     1 <1>   0.0800 
 28 H        3.7450     1.9380    -2.0720 H     1 <1>   0.0800 
 29 H        3.6760     1.3130    -0.4510 H     1 <1>   0.0800 
 30 H        0.6120     4.3710     0.1400 H     1 <1>   0.0800 
 31 H       -0.0200     4.7190    -1.4120 H     1 <1>   0.0800 
 32 H        2.4000     3.1380     0.2550 H     1 <1>   0.4500 
 33 H        2.3180     5.1360    -1.4600 H     1 <1>   0.0800 
 34 H        2.0090     3.7600    -2.4900 H     1 <1>   0.0800 
 35 H        4.8110     4.1110    -1.1140 H     1 <1>   0.0800 
 36 H        4.7440     3.3150     0.4410 H     1 <1>   0.0800 
 37 H        4.7600     6.4810    -1.1090 H     1 <1>   0.1500 
 38 H        2.9850     4.4380     2.1850 H     1 <1>   0.1500 
 39 H        3.4150    11.3630     1.6400 H     1 <1>   0.0800 
 40 H        3.1270    10.2980     0.2530 H     1 <1>   0.0800 
 41 H        4.6820    10.2470     1.1010 H     1 <1>   0.0800 
@<TRIPOS>BOND
  1   1   2  2   
  2   1   3  2   
  3   1   4  am  
  4   1   5  1   
  5   4   6  1   
  6   4   7  1   
  7   5  21  1   
  8   5  22  1   
  9   5  23  1   
 10   6   8  1   
 11   6  24  1   
 12   6  25  1   
 13   7   9  1   
 14   7  26  1   
 15   7  27  1   
 16   8  10  1   
 17   8  28  1   
 18   8  29  1   
 19   9  11  1   
 20   9  30  1   
 21   9  31  1   
 22  10  11  1   
 23  10  12  1   
 24  10  32  1   
 25  11  33  1   
 26  11  34  1   
 27  12  13  1   
 28  12  35  1   
 29  12  36  1   
 30  13  14  ar  
 31  13  15  ar  
 32  14  16  ar  
 33  14  37  1   
 34  15  17  ar  
 35  15  38  1   
 36  16  18  ar  
 37  17  18  ar  
 38  18  19  1   
 39  19  20  1   
 40  20  39  1   
 41  20  40  1   
 42  20  41  1   
@<TRIPOS>SUBSTRUCTURE
  1 ****  10 GROUP 4 **** **** 0

# MOE 2024.06 (io_trps.svl 2023.06)
