@<TRIPOS>MOLECULE
NONAME
46 48 1 0 0 
SMALL
USER_CHARGES


@<TRIPOS>ATOM
  1 S        0.6190     0.9190     0.2380 S.3   1 <1>  -0.0800 
  2 C        0.2990    -0.7730     0.6380 C.2   1 <1>  -0.0130 
  3 C       -0.7920     1.4720     1.1170 C.2   1 <1>  -0.1100 
  4 C        1.1960    -1.8020     0.1660 C.ar  1 <1>   0.0530 
  5 C       -0.8260    -0.8300     1.3940 C.2   1 <1>  -0.1500 
  6 C       -1.4400     0.4290     1.6640 C.2   1 <1>  -0.1500 
  7 C        1.2700    -3.0280     0.8270 C.ar  1 <1>  -0.1500 
  8 C        2.0110    -1.6300    -0.9530 C.ar  1 <1>  -0.1500 
  9 C        2.1130    -4.0460     0.4120 C.ar  1 <1>  -0.1440 
 10 C        2.8520    -2.6350    -1.3880 C.ar  1 <1>  -0.1500 
 11 C        2.9100    -3.8430    -0.7160 C.ar  1 <1>   0.0830 
 12 C        2.1420    -5.3320     1.2300 C.3   1 <1>   0.2530 
 13 O        3.7020    -4.8010    -1.2470 O.3   1 <1>  -0.3630 
 14 N        0.9920    -6.2430     0.9870 N.3   1 <1>  -0.8100 
 15 C        4.9550    -5.1480    -0.6490 C.3   1 <1>   0.0140 
 16 C        1.1980    -7.5310     1.6850 C.3   1 <1>   0.1100 
 17 C        0.7290    -6.5210    -0.4400 C.3   1 <1>   0.1100 
 18 C        5.0250    -6.6350    -0.3120 C.2   1 <1>   0.9060 
 19 C        2.3980    -8.3480     1.1350 C.3   1 <1>   0.4230 
 20 C        1.8460    -7.3210    -1.1420 C.3   1 <1>   0.3430 
 21 O        5.1290    -6.9830     0.8670 O.co2 1 <1>  -0.9000 
 22 O        4.8030    -7.5000    -1.1720 O.co2 1 <1>  -0.9000 
 23 N        2.4290    -8.4490    -0.3460 N.4   1 <1>  -0.9060 
 24 C        2.4150    -9.7670     1.6890 C.3   1 <1>  -0.2400 
 25 H       -0.9870     2.5300     1.1300 H     1 <1>   0.1500 
 26 H       -1.2580    -1.7370     1.7780 H     1 <1>   0.1500 
 27 H       -2.3380     0.4930     2.2540 H     1 <1>   0.1500 
 28 H        0.6540    -3.1880     1.6930 H     1 <1>   0.1500 
 29 H        1.9830    -0.7040    -1.4980 H     1 <1>   0.1500 
 30 H        3.4650    -2.4920    -2.2590 H     1 <1>   0.1500 
 31 H        2.1480    -5.0650     2.2720 H     1 <1>   0.0800 
 32 H        3.0610    -5.8370     1.0470 H     1 <1>   0.0800 
 33 H        5.7310    -4.9130    -1.3510 H     1 <1>   0.0800 
 34 H        5.0910    -4.5700     0.2460 H     1 <1>   0.0800 
 35 H        1.3560    -7.3430     2.7330 H     1 <1>   0.0800 
 36 H        0.3010    -8.1190     1.6010 H     1 <1>   0.0800 
 37 H       -0.1890    -7.0770    -0.5170 H     1 <1>   0.0800 
 38 H        0.5730    -5.5960    -0.9700 H     1 <1>   0.0800 
 39 H        3.2940    -7.8570     1.4690 H     1 <1>   0.0800 
 40 H        2.6380    -6.6390    -1.3800 H     1 <1>   0.0800 
 41 H        1.4800    -7.6930    -2.0830 H     1 <1>   0.0800 
 42 H        3.4550    -8.3840    -0.5880 H     1 <1>   0.4500 
 43 H        2.1160    -9.3600    -0.6700 H     1 <1>   0.4500 
 44 H        1.5370   -10.3110     1.3930 H     1 <1>   0.0800 
 45 H        2.4500    -9.7320     2.7630 H     1 <1>   0.0800 
 46 H        3.2970   -10.2830     1.3510 H     1 <1>   0.0800 
@<TRIPOS>BOND
  1   1   2  1   
  2   1   3  1   
  3   2   4  1   
  4   2   5  2   
  5   3   6  2   
  6   3  25  1   
  7   4   7  ar  
  8   4   8  ar  
  9   5   6  1   
 10   5  26  1   
 11   6  27  1   
 12   7   9  ar  
 13   7  28  1   
 14   8  10  ar  
 15   8  29  1   
 16   9  11  ar  
 17   9  12  1   
 18  10  11  ar  
 19  10  30  1   
 20  11  13  1   
 21  12  14  1   
 22  12  31  1   
 23  12  32  1   
 24  13  15  1   
 25  14  16  1   
 26  14  17  1   
 27  15  18  1   
 28  15  33  1   
 29  15  34  1   
 30  16  19  1   
 31  16  35  1   
 32  16  36  1   
 33  17  20  1   
 34  17  37  1   
 35  17  38  1   
 36  18  21  ar  
 37  18  22  ar  
 38  19  23  1   
 39  19  24  1   
 40  19  39  1   
 41  20  23  1   
 42  20  40  1   
 43  20  41  1   
 44  23  42  1   
 45  23  43  1   
 46  24  44  1   
 47  24  45  1   
 48  24  46  1   
@<TRIPOS>SUBSTRUCTURE
  1 ****   9 GROUP 4 **** **** 0

# MOE 2024.06 (io_trps.svl 2023.06)
