@<TRIPOS>MOLECULE
NONAME
58 62 1 0 0 
SMALL
USER_CHARGES


@<TRIPOS>ATOM
  1 O        3.0760    -1.4590     2.1460 O.2   1 <1>  -0.5700 
  2 C        2.1290    -1.7170     1.4200 C.2   1 <1>   0.5440 
  3 N        1.3810    -0.6440     0.9640 N.am  1 <1>  -0.6600 
  4 C        1.8750    -3.1160     1.0640 C.ar  1 <1>   0.3960 
  5 C        1.7330     0.7620     1.2650 C.3   1 <1>   0.1400 
  6 C        0.2560    -0.7070     0.0020 C.3   1 <1>   0.1400 
  7 N        0.6360    -3.5520     0.7780 N.ar  1 <1>  -0.6200 
  8 C        2.9700    -3.9870     1.0390 C.ar  1 <1>   0.1600 
  9 C        1.0480     1.5740     0.1740 C.3   1 <1>  -0.1600 
 10 C       -0.1710     0.7420    -0.2120 C.3   1 <1>  -0.1600 
 11 C        0.5730    -4.8370     0.4750 C.ar  1 <1>   0.4100 
 12 N        2.9320    -5.2760     0.7300 N.ar  1 <1>  -0.6200 
 13 N       -0.6820    -5.3470     0.1930 N.pl3 1 <1>  -0.8380 
 14 C        1.7050    -5.6640     0.4480 C.ar  1 <1>   0.1600 
 15 C       -1.6570    -4.4950    -0.5390 C.3   1 <1>   0.2090 
 16 C       -1.2840    -6.2720     1.1830 C.3   1 <1>   0.2090 
 17 C       -2.6800    -5.3860    -1.2430 C.3   1 <1>  -0.1600 
 18 C       -2.3100    -7.1690     0.4890 C.3   1 <1>  -0.1600 
 19 C       -3.3700    -6.3390    -0.2520 C.3   1 <1>   0.1000 
 20 C       -4.3790    -7.2580    -0.9420 C.2   1 <1>   0.0070 
 21 N       -4.3540    -7.5530    -2.1970 N.2   1 <1>  -0.3380 
 22 N       -5.4000    -7.8680    -0.3220 N.pl3 1 <1>   0.0480 
 23 N       -5.3740    -8.3770    -2.4310 N.2   1 <1>  -0.3380 
 24 C       -5.9800    -8.5530    -1.3100 C.2   1 <1>   0.0060 
 25 C       -5.8200    -7.8220     1.0960 C.3   1 <1>   0.0960 
 26 C       -7.2000    -9.4380    -1.1370 C.3   1 <1>   0.0200 
 27 C       -5.7860    -9.2140     1.7430 C.3   1 <1>  -0.1600 
 28 C       -6.9560   -10.5710    -0.1300 C.3   1 <1>  -0.1600 
 29 C       -6.9620   -10.1200     1.3400 C.3   1 <1>  -0.1600 
 30 H        2.8010     0.9070     1.2570 H     1 <1>   0.0800 
 31 H        1.3420     1.0190     2.2340 H     1 <1>   0.0800 
 32 H       -0.5570    -1.2880     0.4010 H     1 <1>   0.0800 
 33 H        0.6000    -1.1430    -0.9200 H     1 <1>   0.0800 
 34 H        3.9380    -3.5850     1.2880 H     1 <1>   0.1500 
 35 H        1.7150     1.6600    -0.6660 H     1 <1>   0.0800 
 36 H        0.7840     2.5590     0.5160 H     1 <1>   0.0800 
 37 H       -0.9880     0.9650     0.4520 H     1 <1>   0.0800 
 38 H       -0.4850     0.9210    -1.2250 H     1 <1>   0.0800 
 39 H        1.5550    -6.6910     0.1740 H     1 <1>   0.1500 
 40 H       -1.1380    -3.8950    -1.2670 H     1 <1>   0.0800 
 41 H       -2.1490    -3.8370     0.1580 H     1 <1>   0.0800 
 42 H       -1.7590    -5.6960     1.9590 H     1 <1>   0.0800 
 43 H       -0.5170    -6.8790     1.6360 H     1 <1>   0.0800 
 44 H       -2.1740    -5.9520    -2.0050 H     1 <1>   0.0800 
 45 H       -3.4180    -4.7720    -1.7270 H     1 <1>   0.0800 
 46 H       -2.7780    -7.8010     1.2200 H     1 <1>   0.0800 
 47 H       -1.8000    -7.8050    -0.2140 H     1 <1>   0.0800 
 48 H       -3.8970    -5.7300     0.4610 H     1 <1>   0.0800 
 49 H       -6.8120    -7.4090     1.1500 H     1 <1>   0.0800 
 50 H       -5.1600    -7.1700     1.6360 H     1 <1>   0.0800 
 51 H       -7.4330    -9.8710    -2.0940 H     1 <1>   0.0800 
 52 H       -8.0430    -8.8410    -0.8380 H     1 <1>   0.0800 
 53 H       -5.8310    -9.0810     2.8090 H     1 <1>   0.0800 
 54 H       -4.8490    -9.6970     1.5210 H     1 <1>   0.0800 
 55 H       -6.0230   -11.0580    -0.3630 H     1 <1>   0.0800 
 56 H       -7.7360   -11.3010    -0.2580 H     1 <1>   0.0800 
 57 H       -7.8930    -9.6260     1.5610 H     1 <1>   0.0800 
 58 H       -6.9230   -11.0040     1.9540 H     1 <1>   0.0800 
@<TRIPOS>BOND
  1   1   2  2   
  2   2   3  am  
  3   2   4  1   
  4   3   5  1   
  5   3   6  1   
  6   4   7  ar  
  7   4   8  ar  
  8   5   9  1   
  9   5  30  1   
 10   5  31  1   
 11   6  10  1   
 12   6  32  1   
 13   6  33  1   
 14   7  11  ar  
 15   8  12  ar  
 16   8  34  1   
 17   9  10  1   
 18   9  35  1   
 19   9  36  1   
 20  10  37  1   
 21  10  38  1   
 22  11  13  1   
 23  11  14  ar  
 24  12  14  ar  
 25  13  15  1   
 26  13  16  1   
 27  14  39  1   
 28  15  17  1   
 29  15  40  1   
 30  15  41  1   
 31  16  18  1   
 32  16  42  1   
 33  16  43  1   
 34  17  19  1   
 35  17  44  1   
 36  17  45  1   
 37  18  19  1   
 38  18  46  1   
 39  18  47  1   
 40  19  20  1   
 41  19  48  1   
 42  20  21  2   
 43  20  22  1   
 44  21  23  1   
 45  22  24  1   
 46  22  25  1   
 47  23  24  2   
 48  24  26  1   
 49  25  27  1   
 50  25  49  1   
 51  25  50  1   
 52  26  28  1   
 53  26  51  1   
 54  26  52  1   
 55  27  29  1   
 56  27  53  1   
 57  27  54  1   
 58  28  29  1   
 59  28  55  1   
 60  28  56  1   
 61  29  57  1   
 62  29  58  1   
@<TRIPOS>SUBSTRUCTURE
  1 ****  15 GROUP 4 **** **** 0

# MOE 2024.06 (io_trps.svl 2023.06)
