@<TRIPOS>MOLECULE
NONAME
41 43 1 0 0 
SMALL
USER_CHARGES


@<TRIPOS>ATOM
  1 S        0.6760    -0.3100    -1.1400 S.o2  1 <1>   1.5010 
  2 O        1.7520    -1.2250    -0.8170 O.2   1 <1>  -0.6500 
  3 O        0.3140    -0.1020    -2.5210 O.2   1 <1>  -0.6500 
  4 N        1.2490     1.1820    -0.5670 N.am  1 <1>  -0.8490 
  5 C       -0.7730    -0.6260    -0.1310 C.2   1 <1>  -0.0630 
  6 C        1.5880     1.2270     0.8840 C.3   1 <1>   0.2760 
  7 C        2.1000     1.8860    -1.5450 C.3   1 <1>   0.1960 
  8 C       -0.9290    -1.7470     0.6730 C.2   1 <1>   0.1390 
  9 C       -1.9120     0.0830     0.0780 C.2   1 <1>  -0.3020 
 10 C        1.5660     2.6650     1.4270 C.3   1 <1>   0.1200 
 11 C        2.9200     0.5290     1.2810 C.3   1 <1>   0.3430 
 12 C        3.3560     2.5760    -0.9910 C.3   1 <1>  -0.0800 
 13 N       -2.0420    -1.7320     1.3380 N.2   1 <1>  -0.7070 
 14 N       -2.6600    -0.6050     0.9590 N.pl3 1 <1>   0.3140 
 15 O        2.7980     3.2910     1.2380 O.3   1 <1>  -0.5600 
 16 N        3.8880     0.3380     0.1480 N.4   1 <1>  -0.9590 
 17 C        3.0380     3.7470    -0.0510 C.3   1 <1>   0.1200 
 18 C        4.4200     1.6220    -0.4130 C.3   1 <1>   0.3430 
 19 C       -3.9860    -0.2450     1.4770 C.3   1 <1>   0.0160 
 20 C        4.9960    -0.5750     0.5480 C.3   1 <1>   0.2630 
 21 H        0.8030     0.7240     1.4200 H     1 <1>   0.0800 
 22 H        2.4220     1.1970    -2.3090 H     1 <1>   0.0800 
 23 H        1.4870     2.6200    -2.0430 H     1 <1>   0.0800 
 24 H       -0.2110    -2.5480     0.7480 H     1 <1>   0.1500 
 25 H       -2.2180     1.0190    -0.3520 H     1 <1>   0.1500 
 26 H        1.3980     2.6400     2.4900 H     1 <1>   0.0800 
 27 H        0.7800     3.2480     0.9770 H     1 <1>   0.0800 
 28 H        2.6700    -0.4380     1.6840 H     1 <1>   0.0800 
 29 H        3.3890     1.0920     2.0710 H     1 <1>   0.0800 
 30 H        3.8200     3.0390    -1.8440 H     1 <1>   0.0800 
 31 H        3.3320    -0.1510    -0.5830 H     1 <1>   0.4500 
 32 H        2.1910     4.3200    -0.3920 H     1 <1>   0.0800 
 33 H        3.8860     4.4080     0.0090 H     1 <1>   0.0800 
 34 H        4.9730     2.1450     0.3500 H     1 <1>   0.0800 
 35 H        5.1120     1.3820    -1.2040 H     1 <1>   0.0800 
 36 H       -4.2710     0.7220     1.1070 H     1 <1>   0.0800 
 37 H       -3.9490    -0.2300     2.5500 H     1 <1>   0.0800 
 38 H       -4.6960    -0.9830     1.1540 H     1 <1>   0.0800 
 39 H        5.5770    -0.1350     1.3430 H     1 <1>   0.0800 
 40 H        5.6440    -0.7670    -0.2910 H     1 <1>   0.0800 
 41 H        4.5960    -1.5160     0.8900 H     1 <1>   0.0800 
@<TRIPOS>BOND
  1   1   2  2   
  2   1   3  2   
  3   1   4  am  
  4   1   5  1   
  5   4   6  1   
  6   4   7  1   
  7   5   8  1   
  8   5   9  2   
  9   6  10  1   
 10   6  11  1   
 11   6  21  1   
 12   7  12  1   
 13   7  22  1   
 14   7  23  1   
 15   8  13  2   
 16   8  24  1   
 17   9  14  1   
 18   9  25  1   
 19  10  15  1   
 20  10  26  1   
 21  10  27  1   
 22  11  16  1   
 23  11  28  1   
 24  11  29  1   
 25  12  17  1   
 26  12  18  1   
 27  12  30  1   
 28  13  14  1   
 29  14  19  1   
 30  15  17  1   
 31  16  18  1   
 32  16  20  1   
 33  16  31  1   
 34  17  32  1   
 35  17  33  1   
 36  18  34  1   
 37  18  35  1   
 38  19  36  1   
 39  19  37  1   
 40  19  38  1   
 41  20  39  1   
 42  20  40  1   
 43  20  41  1   
@<TRIPOS>SUBSTRUCTURE
  1 ****   4 GROUP 4 **** **** 0

# MOE 2024.06 (io_trps.svl 2023.06)
