@<TRIPOS>MOLECULE
NONAME
53 56 1 0 0 
SMALL
USER_CHARGES


@<TRIPOS>ATOM
  1 O        0.4130    -0.1830    -0.6530 O.3   1 <1>  -0.3630 
  2 C        1.2910    -1.1110    -0.2200 C.ar  1 <1>   0.0830 
  3 C        0.9640     0.9430    -1.3070 C.3   1 <1>   0.1200 
  4 C        2.1830    -0.8320     0.8070 C.ar  1 <1>  -0.1440 
  5 C        1.2820    -2.3560    -0.8260 C.ar  1 <1>  -0.1500 
  6 C        1.3500     2.0430    -0.3080 C.3   1 <1>   0.2090 
  7 C        3.0850    -1.8120     1.1980 C.ar  1 <1>  -0.1500 
  8 C        2.1610     0.5170     1.5140 C.3   1 <1>   0.3530 
  9 C        2.1820    -3.3260    -0.4240 C.ar  1 <1>  -0.1500 
 10 N        2.4750     1.6440     0.5880 N.pl3 1 <1>  -0.8380 
 11 C        3.0920    -3.0590     0.5880 C.ar  1 <1>  -0.1430 
 12 C        3.7550     1.9350     0.2620 C.ar  1 <1>   0.4100 
 13 C        4.0750    -4.1280     1.0280 C.3   1 <1>   0.2640 
 14 N        4.4430     0.9660    -0.2960 N.ar  1 <1>  -0.6200 
 15 C        4.3160     3.2130     0.4970 C.ar  1 <1>  -0.1430 
 16 O        3.3540    -5.1500     1.6090 O.3   1 <1>  -0.6800 
 17 C        5.6880     1.1980    -0.6670 C.ar  1 <1>   0.7710 
 18 C        5.6030     3.4240     0.1110 C.ar  1 <1>   0.2180 
 19 C        3.5020     4.3040     1.1980 C.3   1 <1>  -0.0170 
 20 N        6.2580     2.3980    -0.4840 N.ar  1 <1>  -0.1790 
 21 N        6.4050     0.1960    -1.2510 N.pl3 1 <1>  -0.8380 
 22 C        6.3450     4.7430     0.3090 C.3   1 <1>  -0.0170 
 23 C        4.1300     5.6960     1.0530 C.3   1 <1>  -0.1600 
 24 C        5.7550    -1.1210    -1.5800 C.3   1 <1>   0.1290 
 25 C        7.8630     0.2020    -1.5870 C.3   1 <1>   0.1290 
 26 C        5.6380     5.6540     1.3210 C.3   1 <1>  -0.1600 
 27 H        0.2140     1.3130    -1.9810 H     1 <1>   0.0800 
 28 H        1.8210     0.6310    -1.8790 H     1 <1>   0.0800 
 29 H        0.5730    -2.5570    -1.6080 H     1 <1>   0.1500 
 30 H        0.4890     2.3090     0.2810 H     1 <1>   0.0800 
 31 H        1.6430     2.9120    -0.8690 H     1 <1>   0.0800 
 32 H        3.7850    -1.6030     1.9870 H     1 <1>   0.1500 
 33 H        2.8800     0.5160     2.3150 H     1 <1>   0.0800 
 34 H        1.1890     0.6710     1.9490 H     1 <1>   0.0800 
 35 H        2.1710    -4.2940    -0.8970 H     1 <1>   0.1500 
 36 H        4.7670    -3.7480     1.7600 H     1 <1>   0.0800 
 37 H        4.6200    -4.5320     0.1920 H     1 <1>   0.0800 
 38 H        2.5670    -4.7660     2.0410 H     1 <1>   0.4000 
 39 H        3.4270     4.0520     2.2430 H     1 <1>   0.0800 
 40 H        2.5020     4.3420     0.8060 H     1 <1>   0.0800 
 41 H        7.2050     2.4830    -0.8250 H     1 <1>   0.4570 
 42 H        6.4050     5.2510    -0.6380 H     1 <1>   0.0800 
 43 H        7.3480     4.5600     0.6550 H     1 <1>   0.0800 
 44 H        3.6560     6.3740     1.7430 H     1 <1>   0.0800 
 45 H        3.9530     6.0690     0.0580 H     1 <1>   0.0800 
 46 H        4.6870    -1.0250    -1.6920 H     1 <1>   0.0800 
 47 H        5.9490    -1.8300    -0.7930 H     1 <1>   0.0800 
 48 H        6.1460    -1.5100    -2.5050 H     1 <1>   0.0800 
 49 H        8.3920     0.9870    -1.0780 H     1 <1>   0.0800 
 50 H        7.9920     0.3180    -2.6510 H     1 <1>   0.0800 
 51 H        8.3070    -0.7360    -1.2930 H     1 <1>   0.0800 
 52 H        6.0480     6.6480     1.2630 H     1 <1>   0.0800 
 53 H        5.8090     5.2880     2.3200 H     1 <1>   0.0800 
@<TRIPOS>BOND
  1   1   2  1   
  2   1   3  1   
  3   2   4  ar  
  4   2   5  ar  
  5   3   6  1   
  6   3  27  1   
  7   3  28  1   
  8   4   7  ar  
  9   4   8  1   
 10   5   9  ar  
 11   5  29  1   
 12   6  10  1   
 13   6  30  1   
 14   6  31  1   
 15   7  11  ar  
 16   7  32  1   
 17   8  10  1   
 18   8  33  1   
 19   8  34  1   
 20   9  11  ar  
 21   9  35  1   
 22  10  12  1   
 23  11  13  1   
 24  12  14  ar  
 25  12  15  ar  
 26  13  16  1   
 27  13  36  1   
 28  13  37  1   
 29  14  17  ar  
 30  15  18  ar  
 31  15  19  1   
 32  16  38  1   
 33  17  20  ar  
 34  17  21  1   
 35  18  20  ar  
 36  18  22  1   
 37  19  23  1   
 38  19  39  1   
 39  19  40  1   
 40  20  41  1   
 41  21  24  1   
 42  21  25  1   
 43  22  26  1   
 44  22  42  1   
 45  22  43  1   
 46  23  26  1   
 47  23  44  1   
 48  23  45  1   
 49  24  46  1   
 50  24  47  1   
 51  24  48  1   
 52  25  49  1   
 53  25  50  1   
 54  25  51  1   
 55  26  52  1   
 56  26  53  1   
@<TRIPOS>SUBSTRUCTURE
  1 ****  14 GROUP 4 **** **** 0

# MOE 2024.06 (io_trps.svl 2023.06)
