@<TRIPOS>MOLECULE
NONAME
49 51 1 0 0 
SMALL
USER_CHARGES


@<TRIPOS>ATOM
  1 O        1.6420    -0.6730     2.6140 O.2   1 <1>  -0.5700 
  2 C        1.7290    -0.9270     1.4290 C.2   1 <1>   0.5440 
  3 N        2.1060     0.0330     0.5300 N.am  1 <1>  -0.4930 
  4 C        1.4900    -2.2680     0.9600 C.ar  1 <1>   0.0860 
  5 C        2.3420     1.4230     0.6870 C.2   1 <1>   0.0630 
  6 C        0.6320    -2.5680    -0.1140 C.ar  1 <1>   0.0000 
  7 C        2.1220    -3.3550     1.5280 C.ar  1 <1>  -0.1500 
  8 C        1.7120     2.3680     1.5050 C.2   1 <1>   0.1080 
  9 C        3.2580     2.1310    -0.0100 C.2   1 <1>  -0.3320 
 10 C        0.5550    -3.8770    -0.5470 C.ar  1 <1>   0.1050 
 11 C       -0.2680    -1.8850    -0.9600 C.2   1 <1>   0.1080 
 12 C        1.9490    -4.6460     1.0190 C.ar  1 <1>   0.1660 
 13 N        2.1930     3.5600     1.3330 N.2   1 <1>  -0.7070 
 14 C        0.5870     2.1200     2.4860 C.3   1 <1>  -0.0590 
 15 N        3.1510     3.4190     0.4030 N.pl3 1 <1>   0.3140 
 16 C        4.2540     1.6520    -1.0590 C.3   1 <1>  -0.0600 
 17 N        1.1960    -4.9310    -0.0110 N.ar  1 <1>  -0.5670 
 18 N       -0.3050    -3.8810    -1.6020 N.pl3 1 <1>   0.3140 
 19 N       -0.8060    -2.6510    -1.8470 N.2   1 <1>  -0.7070 
 20 C       -0.6450    -0.4190    -0.8800 C.3   1 <1>  -0.0590 
 21 C        2.6680    -5.8090     1.6710 C.3   1 <1>  -0.0970 
 22 C        3.9380     4.5840    -0.0520 C.3   1 <1>   0.0960 
 23 C       -0.7020    -5.0570    -2.3840 C.3   1 <1>   0.0160 
 24 C        3.2930     5.2380    -1.2820 C.3   1 <1>  -0.1600 
 25 C        4.1080     6.4410    -1.7690 C.3   1 <1>  -0.2400 
 26 H        2.3220    -0.3080    -0.4040 H     1 <1>   0.3700 
 27 H        2.7650    -3.2010     2.3750 H     1 <1>   0.1500 
 28 H       -0.0750     1.3640     2.1110 H     1 <1>   0.0800 
 29 H        0.0320     3.0250     2.6410 H     1 <1>   0.0800 
 30 H        0.9980     1.7970     3.4240 H     1 <1>   0.0800 
 31 H        4.1760     0.5900    -1.2040 H     1 <1>   0.0800 
 32 H        5.2580     1.8730    -0.7420 H     1 <1>   0.0800 
 33 H        4.0680     2.1390    -1.9990 H     1 <1>   0.0800 
 34 H       -0.7280    -0.1080     0.1450 H     1 <1>   0.0800 
 35 H       -1.5960    -0.2650    -1.3570 H     1 <1>   0.0800 
 36 H        0.0880     0.1820    -1.3820 H     1 <1>   0.0800 
 37 H        3.2510    -5.4870     2.5130 H     1 <1>   0.0800 
 38 H        3.3200    -6.2760     0.9540 H     1 <1>   0.0800 
 39 H        1.9480    -6.5340     2.0050 H     1 <1>   0.0800 
 40 H        4.9370     4.2620    -0.2750 H     1 <1>   0.0800 
 41 H        3.9810     5.2910     0.7580 H     1 <1>   0.0800 
 42 H        0.1790    -5.5350    -2.7700 H     1 <1>   0.0800 
 43 H       -1.3350    -4.7480    -3.1950 H     1 <1>   0.0800 
 44 H       -1.2330    -5.7380    -1.7460 H     1 <1>   0.0800 
 45 H        2.2990     5.5640    -1.0230 H     1 <1>   0.0800 
 46 H        3.2160     4.5170    -2.0770 H     1 <1>   0.0800 
 47 H        4.1770     7.1870    -0.9950 H     1 <1>   0.0800 
 48 H        3.6320     6.8850    -2.6260 H     1 <1>   0.0800 
 49 H        5.1020     6.1380    -2.0490 H     1 <1>   0.0800 
@<TRIPOS>BOND
  1   1   2  2   
  2   2   3  am  
  3   2   4  1   
  4   3   5  1   
  5   3  26  1   
  6   4   6  ar  
  7   4   7  ar  
  8   5   8  1   
  9   5   9  2   
 10   6  10  ar  
 11   6  11  1   
 12   7  12  ar  
 13   7  27  1   
 14   8  13  2   
 15   8  14  1   
 16   9  15  1   
 17   9  16  1   
 18  10  17  ar  
 19  10  18  1   
 20  11  19  2   
 21  11  20  1   
 22  12  17  ar  
 23  12  21  1   
 24  13  15  1   
 25  14  28  1   
 26  14  29  1   
 27  14  30  1   
 28  15  22  1   
 29  16  31  1   
 30  16  32  1   
 31  16  33  1   
 32  18  19  1   
 33  18  23  1   
 34  20  34  1   
 35  20  35  1   
 36  20  36  1   
 37  21  37  1   
 38  21  38  1   
 39  21  39  1   
 40  22  24  1   
 41  22  40  1   
 42  22  41  1   
 43  23  42  1   
 44  23  43  1   
 45  23  44  1   
 46  24  25  1   
 47  24  45  1   
 48  24  46  1   
 49  25  47  1   
 50  25  48  1   
 51  25  49  1   
@<TRIPOS>SUBSTRUCTURE
  1 ****   3 GROUP 4 **** **** 0

# MOE 2024.06 (io_trps.svl 2023.06)
