@<TRIPOS>MOLECULE
NONAME
40 41 1 0 0 
SMALL
USER_CHARGES


@<TRIPOS>ATOM
  1 S        0.0630    -0.3000     0.6600 S.3   1 <1>  -0.0800 
  2 C       -1.3820    -0.9210    -0.0730 C.2   1 <1>   0.4420 
  3 C       -0.4060     1.2630     0.0880 C.2   1 <1>   0.1980 
  4 N       -2.0590     0.0040    -0.6550 N.2   1 <1>  -0.3380 
  5 N       -1.6040    -2.2770     0.0460 N.am  1 <1>  -0.4940 
  6 N       -1.4980     1.2440    -0.5580 N.2   1 <1>  -0.3380 
  7 C        0.4790     2.4500     0.3940 C.3   1 <1>   0.0200 
  8 C       -2.7080    -3.0160    -0.3040 C.2   1 <1>   0.5440 
  9 C       -0.1840     3.7160    -0.1640 C.3   1 <1>   0.3430 
 10 O       -3.7400    -2.4580    -0.6090 O.2   1 <1>  -0.5700 
 11 C       -2.6460    -4.4630    -0.2630 C.ar  1 <1>   0.0860 
 12 N        0.5840     4.9690     0.1450 N.4   1 <1>  -0.9590 
 13 C       -3.7760    -5.2150     0.0590 C.ar  1 <1>  -0.1500 
 14 C       -1.4690    -5.1680    -0.5410 C.ar  1 <1>  -0.1500 
 15 C       -0.2560     6.1630    -0.1860 C.3   1 <1>   0.2630 
 16 C        1.8870     5.0420    -0.5920 C.3   1 <1>   0.2630 
 17 C       -3.7160    -6.5920     0.1160 C.ar  1 <1>   0.1900 
 18 C       -1.4160    -6.5500    -0.4810 C.ar  1 <1>  -0.1500 
 19 F       -4.8250    -7.2100     0.4350 F     1 <1>  -0.1900 
 20 C       -2.5360    -7.2960    -0.1480 C.ar  1 <1>   0.0830 
 21 O       -2.3550    -8.6420    -0.1200 O.3   1 <1>  -0.3630 
 22 C       -3.3870    -9.5610     0.1640 C.3   1 <1>   0.0400 
 23 H       -0.8580    -2.7980     0.4960 H     1 <1>   0.3700 
 24 H        1.4370     2.2870    -0.0630 H     1 <1>   0.0800 
 25 H        0.5930     2.5300     1.4600 H     1 <1>   0.0800 
 26 H       -1.1730     3.7890     0.2600 H     1 <1>   0.0800 
 27 H       -0.3000     3.6110    -1.2310 H     1 <1>   0.0800 
 28 H        0.7750     4.9950     1.1600 H     1 <1>   0.4500 
 29 H       -4.7070    -4.7150     0.2650 H     1 <1>   0.1500 
 30 H       -0.5790    -4.6330    -0.8220 H     1 <1>   0.1500 
 31 H       -0.4880     6.1780    -1.2390 H     1 <1>   0.0800 
 32 H        0.2670     7.0720     0.0650 H     1 <1>   0.0800 
 33 H       -1.1810     6.1360     0.3680 H     1 <1>   0.0800 
 34 H        1.7180     5.0020    -1.6570 H     1 <1>   0.0800 
 35 H        2.5270     4.2210    -0.3140 H     1 <1>   0.0800 
 36 H        2.3970     5.9630    -0.3600 H     1 <1>   0.0800 
 37 H       -0.4980    -7.0680    -0.6990 H     1 <1>   0.1500 
 38 H       -2.9770   -10.5530     0.1030 H     1 <1>   0.0800 
 39 H       -4.1690    -9.4460    -0.5650 H     1 <1>   0.0800 
 40 H       -3.7560    -9.3800     1.1580 H     1 <1>   0.0800 
@<TRIPOS>BOND
  1   1   2  1   
  2   1   3  1   
  3   2   4  2   
  4   2   5  1   
  5   3   6  2   
  6   3   7  1   
  7   4   6  1   
  8   5   8  am  
  9   5  23  1   
 10   7   9  1   
 11   7  24  1   
 12   7  25  1   
 13   8  10  2   
 14   8  11  1   
 15   9  12  1   
 16   9  26  1   
 17   9  27  1   
 18  11  13  ar  
 19  11  14  ar  
 20  12  15  1   
 21  12  16  1   
 22  12  28  1   
 23  13  17  ar  
 24  13  29  1   
 25  14  18  ar  
 26  14  30  1   
 27  15  31  1   
 28  15  32  1   
 29  15  33  1   
 30  16  34  1   
 31  16  35  1   
 32  16  36  1   
 33  17  19  1   
 34  17  20  ar  
 35  18  20  ar  
 36  18  37  1   
 37  20  21  1   
 38  21  22  1   
 39  22  38  1   
 40  22  39  1   
 41  22  40  1   
@<TRIPOS>SUBSTRUCTURE
  1 ****   5 GROUP 4 **** **** 0

# MOE 2024.06 (io_trps.svl 2023.06)
