@<TRIPOS>MOLECULE
NONAME
50 53 1 0 0 
SMALL
USER_CHARGES


@<TRIPOS>ATOM
  1 CL      -2.2100     0.5370    -0.0300 Cl    1 <1>  -0.1770 
  2 C       -3.3270    -0.7990    -0.1760 C.ar  1 <1>   0.1770 
  3 C       -4.5690    -0.5880    -0.7260 C.ar  1 <1>  -0.1500 
  4 C       -2.9190    -2.0580     0.2770 C.ar  1 <1>  -0.1500 
  5 C       -5.4350    -1.6730    -0.8270 C.ar  1 <1>   0.2270 
  6 C       -3.7740    -3.1340     0.1780 C.ar  1 <1>  -0.1500 
  7 N       -6.7020    -1.7260    -1.3240 N.2   1 <1>  -0.5650 
  8 C       -5.0370    -2.9230    -0.3820 C.ar  1 <1>  -0.1520 
  9 C       -7.0480    -2.9580    -1.1850 C.2   1 <1>   0.0060 
 10 N       -6.0920    -3.7410    -0.6230 N.pl3 1 <1>   0.0330 
 11 C       -8.3990    -3.5110    -1.5960 C.3   1 <1>   0.0810 
 12 C       -9.0890    -4.1680    -0.4120 C.2   1 <1>   0.5690 
 13 O       -9.1090    -5.3780    -0.3860 O.2   1 <1>  -0.5700 
 14 N       -9.6720    -3.4330     0.5890 N.am  1 <1>  -0.6600 
 15 C      -10.1960    -4.0890     1.8240 C.3   1 <1>   0.1400 
 16 C       -9.7930    -1.9460     0.5940 C.3   1 <1>   0.1400 
 17 C      -11.6810    -4.4770     1.7070 C.3   1 <1>   0.1400 
 18 C      -11.2160    -1.5090     0.2250 C.3   1 <1>  -0.1600 
 19 N      -12.4870    -3.5600     0.8320 N.am  1 <1>  -0.6600 
 20 C      -12.3180    -2.1010     1.1150 C.3   1 <1>   0.1400 
 21 C      -13.3930    -3.9900    -0.1230 C.2   1 <1>   0.7030 
 22 O      -14.2150    -3.1970    -0.5450 O.2   1 <1>  -0.5700 
 23 C      -13.4260    -5.3540    -0.6420 C.2   1 <1>   0.2770 
 24 N      -14.5600    -6.1500    -0.8380 N.pl3 1 <1>  -0.7640 
 25 C      -12.3800    -6.1100    -1.0640 C.2   1 <1>   0.2000 
 26 C      -14.1700    -7.3120    -1.3420 C.cat 1 <1>   0.6500 
 27 C      -15.9520    -5.6940    -0.5610 C.3   1 <1>   0.2740 
 28 N      -12.8540    -7.3210    -1.4830 N.pl3 1 <1>  -0.7000 
 29 H       -4.8820     0.3770    -1.0740 H     1 <1>   0.1500 
 30 H       -1.9360    -2.1650     0.6990 H     1 <1>   0.1500 
 31 H       -3.4830    -4.1130     0.5180 H     1 <1>   0.1500 
 32 H       -6.1570    -4.7400    -0.4070 H     1 <1>   0.2700 
 33 H       -8.2560    -4.2380    -2.3730 H     1 <1>   0.0800 
 34 H       -9.0150    -2.7270    -1.9940 H     1 <1>   0.0800 
 35 H      -10.0710    -3.4250     2.6610 H     1 <1>   0.0800 
 36 H       -9.6170    -4.9710     2.0420 H     1 <1>   0.0800 
 37 H       -9.0960    -1.4990    -0.0920 H     1 <1>   0.0800 
 38 H       -9.5430    -1.5730     1.5730 H     1 <1>   0.0800 
 39 H      -12.1100    -4.4800     2.6940 H     1 <1>   0.0800 
 40 H      -11.7310    -5.4880     1.3490 H     1 <1>   0.0800 
 41 H      -11.4170    -1.7450    -0.8050 H     1 <1>   0.0800 
 42 H      -11.2600    -0.4380     0.3120 H     1 <1>   0.0800 
 43 H      -13.2410    -1.5800     0.9230 H     1 <1>   0.0800 
 44 H      -12.0800    -1.9500     2.1540 H     1 <1>   0.0800 
 45 H      -11.3380    -5.8430    -1.0910 H     1 <1>   0.1500 
 46 H      -14.8280    -8.1310    -1.6050 H     1 <1>   0.1500 
 47 H      -16.0370    -5.3720     0.4640 H     1 <1>   0.0800 
 48 H      -16.6550    -6.4910    -0.7350 H     1 <1>   0.0800 
 49 H      -16.2000    -4.8650    -1.2030 H     1 <1>   0.0800 
 50 H      -12.2830    -8.0890    -1.8530 H     1 <1>   0.4500 
@<TRIPOS>BOND
  1   1   2  1   
  2   2   3  ar  
  3   2   4  ar  
  4   3   5  ar  
  5   3  29  1   
  6   4   6  ar  
  7   4  30  1   
  8   5   7  1   
  9   5   8  ar  
 10   6   8  ar  
 11   6  31  1   
 12   7   9  2   
 13   8  10  1   
 14   9  10  1   
 15   9  11  1   
 16  10  32  1   
 17  11  12  1   
 18  11  33  1   
 19  11  34  1   
 20  12  13  2   
 21  12  14  am  
 22  14  15  1   
 23  14  16  1   
 24  15  17  1   
 25  15  35  1   
 26  15  36  1   
 27  16  18  1   
 28  16  37  1   
 29  16  38  1   
 30  17  19  1   
 31  17  39  1   
 32  17  40  1   
 33  18  20  1   
 34  18  41  1   
 35  18  42  1   
 36  19  20  1   
 37  19  21  am  
 38  20  43  1   
 39  20  44  1   
 40  21  22  2   
 41  21  23  1   
 42  23  24  1   
 43  23  25  2   
 44  24  26  ar  
 45  24  27  1   
 46  25  28  1   
 47  25  45  1   
 48  26  28  ar  
 49  26  46  1   
 50  27  47  1   
 51  27  48  1   
 52  27  49  1   
 53  28  50  1   
@<TRIPOS>SUBSTRUCTURE
  1 ****  12 GROUP 4 **** **** 0

# MOE 2024.06 (io_trps.svl 2023.06)
