@<TRIPOS>MOLECULE
NONAME
48 51 1 0 0 
SMALL
USER_CHARGES


@<TRIPOS>ATOM
  1 O       -1.8840    -1.2580    -1.8630 O.2   1 <1>  -0.5700 
  2 C       -1.9550    -1.1740    -0.6470 C.2   1 <1>   0.7160 
  3 N       -1.5670     0.0120    -0.0660 N.am  1 <1>  -0.7300 
  4 C       -2.4350    -2.2770     0.1920 C.2   1 <1>   0.4300 
  5 C       -1.0630     1.2210    -0.7680 C.3   1 <1>   0.0600 
  6 N       -2.5310    -2.2270     1.4810 N.2   1 <1>  -0.4100 
  7 N       -2.8350    -3.4740    -0.2740 N.2   1 <1>  -0.5650 
  8 O       -2.9930    -3.3620     1.8950 O.3   1 <1>  -0.0190 
  9 C       -3.1550    -4.0640     0.8040 C.2   1 <1>   0.2980 
 10 C       -3.6970    -5.4850     0.9230 C.3   1 <1>   0.2900 
 11 N       -5.1230    -5.5270     1.3300 N.3   1 <1>  -0.8100 
 12 C       -5.9960    -4.8340     0.3540 C.3   1 <1>   0.1100 
 13 C       -5.6010    -6.9170     1.4480 C.3   1 <1>   0.1100 
 14 C       -7.2290    -5.7190     0.1820 C.3   1 <1>   0.2000 
 15 C       -6.6670    -7.1240     0.3630 C.3   1 <1>  -0.0800 
 16 O       -8.0930    -5.4610     1.2310 O.3   1 <1>  -0.6800 
 17 C       -6.0800    -7.6580    -0.9620 C.3   1 <1>  -0.0170 
 18 C       -5.3320    -8.9680    -0.7810 C.ar  1 <1>   0.1670 
 19 N       -4.0350    -8.9160    -0.7420 N.ar  1 <1>  -0.6200 
 20 C       -6.0680   -10.1580    -0.6600 C.ar  1 <1>  -0.1500 
 21 C       -3.3610   -10.0830    -0.5760 C.ar  1 <1>   0.3100 
 22 C       -5.4170   -11.3420    -0.4880 C.ar  1 <1>  -0.1500 
 23 C       -4.0130   -11.3280    -0.4400 C.ar  1 <1>   0.0000 
 24 C       -1.9580   -10.0550    -0.5350 C.ar  1 <1>  -0.1500 
 25 C       -3.2380   -12.4910    -0.2630 C.ar  1 <1>  -0.1500 
 26 C       -1.2220   -11.1980    -0.3630 C.ar  1 <1>  -0.1500 
 27 C       -1.8710   -12.4290    -0.2240 C.ar  1 <1>  -0.1500 
 28 H       -1.6390     0.0690     0.9540 H     1 <1>   0.3700 
 29 H       -1.0260     1.0520    -1.8320 H     1 <1>   0.0800 
 30 H       -0.0730     1.4570    -0.4210 H     1 <1>   0.0800 
 31 H       -1.7160     2.0530    -0.5730 H     1 <1>   0.0800 
 32 H       -3.1060    -6.0110     1.6520 H     1 <1>   0.0800 
 33 H       -3.5740    -5.9850    -0.0230 H     1 <1>   0.0800 
 34 H       -6.2570    -3.8470     0.6960 H     1 <1>   0.0800 
 35 H       -5.4980    -4.7450    -0.5970 H     1 <1>   0.0800 
 36 H       -4.7990    -7.6330     1.3910 H     1 <1>   0.0800 
 37 H       -6.0640    -7.0270     2.4140 H     1 <1>   0.0800 
 38 H       -7.7530    -5.5640    -0.7460 H     1 <1>   0.0800 
 39 H       -7.4270    -7.8060     0.7020 H     1 <1>   0.0800 
 40 H       -7.5470    -5.3580     2.0380 H     1 <1>   0.4000 
 41 H       -5.4030    -6.9390    -1.3890 H     1 <1>   0.0800 
 42 H       -6.8740    -7.8050    -1.6710 H     1 <1>   0.0800 
 43 H       -7.1410   -10.1200    -0.7040 H     1 <1>   0.1500 
 44 H       -5.9450   -12.2730    -0.3910 H     1 <1>   0.1500 
 45 H       -1.4780    -9.1010    -0.6460 H     1 <1>   0.1500 
 46 H       -3.7420   -13.4350    -0.1580 H     1 <1>   0.1500 
 47 H       -0.1470   -11.1630    -0.3330 H     1 <1>   0.1500 
 48 H       -1.2810   -13.3190    -0.0890 H     1 <1>   0.1500 
@<TRIPOS>BOND
  1   1   2  2   
  2   2   3  am  
  3   2   4  1   
  4   3   5  1   
  5   3  28  1   
  6   4   6  2   
  7   4   7  1   
  8   5  29  1   
  9   5  30  1   
 10   5  31  1   
 11   6   8  1   
 12   7   9  2   
 13   8   9  1   
 14   9  10  1   
 15  10  11  1   
 16  10  32  1   
 17  10  33  1   
 18  11  12  1   
 19  11  13  1   
 20  12  14  1   
 21  12  34  1   
 22  12  35  1   
 23  13  15  1   
 24  13  36  1   
 25  13  37  1   
 26  14  15  1   
 27  14  16  1   
 28  14  38  1   
 29  15  17  1   
 30  15  39  1   
 31  16  40  1   
 32  17  18  1   
 33  17  41  1   
 34  17  42  1   
 35  18  19  ar  
 36  18  20  ar  
 37  19  21  ar  
 38  20  22  ar  
 39  20  43  1   
 40  21  23  ar  
 41  21  24  ar  
 42  22  23  ar  
 43  22  44  1   
 44  23  25  ar  
 45  24  26  ar  
 46  24  45  1   
 47  25  27  ar  
 48  25  46  1   
 49  26  27  ar  
 50  26  47  1   
 51  27  48  1   
@<TRIPOS>SUBSTRUCTURE
  1 ****  10 GROUP 4 **** **** 0

# MOE 2024.06 (io_trps.svl 2023.06)
