@<TRIPOS>MOLECULE
NONAME
49 51 1 0 0 
SMALL
USER_CHARGES


@<TRIPOS>ATOM
  1 S        1.1550    -1.3260     1.2000 S.3   1 <1>  -0.4600 
  2 C        0.0730    -2.7170     0.7710 C.3   1 <1>   0.0700 
  3 C        1.9220    -1.8580     2.7530 C.3   1 <1>  -0.0100 
  4 C       -0.7060    -2.3420    -0.4880 C.3   1 <1>   0.1400 
  5 N       -1.5080    -3.5000    -0.9500 N.am  1 <1>  -0.7300 
  6 C       -2.8250    -3.7160    -0.6900 C.2   1 <1>   0.5690 
  7 O       -3.4620    -2.9650     0.0100 O.2   1 <1>  -0.5700 
  8 C       -3.5140    -4.9480    -1.2870 C.3   1 <1>   0.2610 
  9 O       -2.5960    -5.6890    -2.0870 O.3   1 <1>  -0.5600 
 10 C       -4.1950    -5.7630    -0.1450 C.3   1 <1>   0.3640 
 11 C       -2.9970    -6.9990    -2.3890 C.3   1 <1>   0.1810 
 12 N       -3.7360    -7.1860    -0.0370 N.am  1 <1>  -0.5090 
 13 C       -5.7160    -5.6930    -0.3270 C.ar  1 <1>  -0.1430 
 14 C       -3.1620    -7.8100    -1.1110 C.2   1 <1>   0.5690 
 15 C       -3.7570    -7.7930     1.3160 C.3   1 <1>   0.0490 
 16 C       -6.4370    -6.6700    -1.0050 C.ar  1 <1>  -0.1500 
 17 C       -6.4000    -4.6030     0.1960 C.ar  1 <1>  -0.1500 
 18 O       -2.7720    -8.9550    -1.0950 O.2   1 <1>  -0.5700 
 19 C       -4.4610    -9.1000     1.5020 C.3   1 <1>  -0.2000 
 20 C       -5.0310    -7.8570     2.1030 C.3   1 <1>  -0.2000 
 21 C       -7.8070    -6.5550    -1.1550 C.ar  1 <1>  -0.1500 
 22 C       -7.7710    -4.4860     0.0470 C.ar  1 <1>  -0.1500 
 23 C       -8.4850    -5.4660    -0.6340 C.ar  1 <1>   0.0830 
 24 O       -9.8270    -5.4300    -0.8260 O.3   1 <1>  -0.3620 
 25 C      -10.6080    -4.3650    -0.3330 C.3   1 <1>   0.0400 
 26 H        0.7030    -3.5710     0.6060 H     1 <1>   0.0800 
 27 H       -0.5900    -2.8800     1.6020 H     1 <1>   0.0800 
 28 H        2.5870    -1.0760     3.0730 H     1 <1>   0.0800 
 29 H        2.4640    -2.7670     2.5640 H     1 <1>   0.0800 
 30 H        1.1400    -2.0140     3.4750 H     1 <1>   0.0800 
 31 H       -0.0250    -2.0470    -1.2670 H     1 <1>   0.0800 
 32 H       -1.3570    -1.5110    -0.2710 H     1 <1>   0.0800 
 33 H       -1.0390    -4.1800    -1.5600 H     1 <1>   0.3700 
 34 H       -4.2760    -4.5840    -1.9530 H     1 <1>   0.0800 
 35 H       -3.9650    -5.2890     0.7940 H     1 <1>   0.0800 
 36 H       -3.9210    -6.9670    -2.9380 H     1 <1>   0.0800 
 37 H       -2.2350    -7.4450    -3.0030 H     1 <1>   0.0800 
 38 H       -2.8300    -7.6440     1.8460 H     1 <1>   0.1000 
 39 H       -5.9490    -7.5350    -1.4180 H     1 <1>   0.1500 
 40 H       -5.8670    -3.8290     0.7250 H     1 <1>   0.1500 
 41 H       -4.9480    -9.5430     0.6510 H     1 <1>   0.1000 
 42 H       -4.0180    -9.8330     2.1520 H     1 <1>   0.1000 
 43 H       -4.9870    -7.7510     3.1720 H     1 <1>   0.1000 
 44 H       -5.9530    -7.4880     1.6930 H     1 <1>   0.1000 
 45 H       -8.3630    -7.3120    -1.6770 H     1 <1>   0.1500 
 46 H       -8.2620    -3.6280     0.4650 H     1 <1>   0.1500 
 47 H      -11.6320    -4.5490    -0.6040 H     1 <1>   0.0800 
 48 H      -10.2710    -3.4470    -0.7820 H     1 <1>   0.0800 
 49 H      -10.5140    -4.3290     0.7370 H     1 <1>   0.0800 
@<TRIPOS>BOND
  1   1   2  1   
  2   1   3  1   
  3   2   4  1   
  4   2  26  1   
  5   2  27  1   
  6   3  28  1   
  7   3  29  1   
  8   3  30  1   
  9   4   5  1   
 10   4  31  1   
 11   4  32  1   
 12   5   6  am  
 13   5  33  1   
 14   6   7  2   
 15   6   8  1   
 16   8   9  1   
 17   8  10  1   
 18   8  34  1   
 19   9  11  1   
 20  10  12  1   
 21  10  13  1   
 22  10  35  1   
 23  11  14  1   
 24  11  36  1   
 25  11  37  1   
 26  12  14  am  
 27  12  15  1   
 28  13  16  ar  
 29  13  17  ar  
 30  14  18  2   
 31  15  19  1   
 32  15  20  1   
 33  15  38  1   
 34  16  21  ar  
 35  16  39  1   
 36  17  22  ar  
 37  17  40  1   
 38  19  20  1   
 39  19  41  1   
 40  19  42  1   
 41  20  43  1   
 42  20  44  1   
 43  21  23  ar  
 44  21  45  1   
 45  22  23  ar  
 46  22  46  1   
 47  23  24  1   
 48  24  25  1   
 49  25  47  1   
 50  25  48  1   
 51  25  49  1   
@<TRIPOS>SUBSTRUCTURE
  1 ****  10 GROUP 4 **** **** 0

# MOE 2024.06 (io_trps.svl 2023.06)
