@<TRIPOS>MOLECULE
NONAME
50 52 1 0 0 
SMALL
USER_CHARGES


@<TRIPOS>ATOM
  1 CL       0.2110     1.3050    -0.8850 Cl    1 <1>  -0.1770 
  2 C       -1.4540     1.3600    -0.3690 C.ar  1 <1>   0.1770 
  3 C       -2.1200     0.1830    -0.0860 C.ar  1 <1>  -0.1500 
  4 C       -2.0890     2.5810    -0.2480 C.ar  1 <1>  -0.1500 
  5 C       -3.4400     0.2330     0.3250 C.ar  1 <1>  -0.1500 
  6 C       -3.4100     2.6180     0.1630 C.ar  1 <1>  -0.1500 
  7 C       -4.1170     1.4490     0.4560 C.ar  1 <1>   0.0530 
  8 C       -5.4910     1.5170     0.8890 C.2   1 <1>   0.0870 
  9 O       -5.8810     2.5170     1.6420 O.3   1 <1>  -0.0190 
 10 C       -6.5800     0.7210     0.7010 C.2   1 <1>  -0.0860 
 11 N       -7.1440     2.4510     1.9710 N.2   1 <1>  -0.4100 
 12 C       -7.5830     1.3900     1.4090 C.2   1 <1>   0.3720 
 13 C       -6.7660    -0.5010    -0.0150 C.2   1 <1>   0.7160 
 14 N       -8.9180     1.0240     1.5090 N.pl3 1 <1>  -0.8520 
 15 O       -6.0530    -0.8310    -0.9410 O.2   1 <1>  -0.5700 
 16 N       -7.7930    -1.3280     0.3200 N.am  1 <1>  -0.7300 
 17 C       -9.7460     1.5940     0.4090 C.3   1 <1>   0.2090 
 18 C       -8.1000    -2.6160    -0.3370 C.3   1 <1>   0.2200 
 19 C      -11.2370     1.2870     0.5980 C.3   1 <1>   0.1200 
 20 C       -9.1780    -2.4180    -1.4000 C.3   1 <1>   0.3430 
 21 C       -8.7730    -3.5410     0.6630 C.3   1 <1>  -0.1600 
 22 O      -11.4780    -0.0970     0.5770 O.3   1 <1>  -0.5600 
 23 N      -10.4740    -2.4260    -0.6540 N.4   1 <1>  -0.9590 
 24 C      -10.2640    -3.2170     0.5940 C.3   1 <1>   0.3430 
 25 C      -12.7690    -0.4130     1.0060 C.3   1 <1>   0.0400 
 26 C      -11.6220    -2.8960    -1.4800 C.3   1 <1>   0.2630 
 27 H       -1.6070    -0.7560    -0.1870 H     1 <1>   0.1500 
 28 H       -1.5530     3.4850    -0.4730 H     1 <1>   0.1500 
 29 H       -3.9490    -0.6860     0.5500 H     1 <1>   0.1500 
 30 H       -3.9040     3.5700     0.2570 H     1 <1>   0.1500 
 31 H       -9.2610     1.4240     2.3920 H     1 <1>   0.4000 
 32 H       -8.4810    -0.9220     0.9730 H     1 <1>   0.3700 
 33 H       -9.4170     1.2030    -0.5380 H     1 <1>   0.0800 
 34 H       -9.6120     2.6630     0.3880 H     1 <1>   0.0800 
 35 H       -7.2030    -3.0450    -0.7540 H     1 <1>   0.0800 
 36 H      -11.8080     1.7400    -0.1940 H     1 <1>   0.0800 
 37 H      -11.5660     1.6910     1.5410 H     1 <1>   0.0800 
 38 H       -9.1480    -3.2500    -2.0840 H     1 <1>   0.0800 
 39 H       -9.0270    -1.5010    -1.9450 H     1 <1>   0.0800 
 40 H       -8.3790    -3.4330     1.6580 H     1 <1>   0.0800 
 41 H       -8.6320    -4.5610     0.3550 H     1 <1>   0.0800 
 42 H      -10.6720    -1.4500    -0.3330 H     1 <1>   0.4500 
 43 H      -10.5540    -2.6230     1.4470 H     1 <1>   0.0800 
 44 H      -10.8450    -4.1250     0.5830 H     1 <1>   0.0800 
 45 H      -12.8980    -1.4790     0.9640 H     1 <1>   0.0800 
 46 H      -13.4890     0.0660     0.3640 H     1 <1>   0.0800 
 47 H      -12.8990    -0.0800     2.0230 H     1 <1>   0.0800 
 48 H      -11.4570    -3.9080    -1.8120 H     1 <1>   0.0800 
 49 H      -11.7420    -2.2620    -2.3440 H     1 <1>   0.0800 
 50 H      -12.5330    -2.8640    -0.9030 H     1 <1>   0.0800 
@<TRIPOS>BOND
  1   1   2  1   
  2   2   3  ar  
  3   2   4  ar  
  4   3   5  ar  
  5   3  27  1   
  6   4   6  ar  
  7   4  28  1   
  8   5   7  ar  
  9   5  29  1   
 10   6   7  ar  
 11   6  30  1   
 12   7   8  1   
 13   8   9  1   
 14   8  10  2   
 15   9  11  1   
 16  10  12  1   
 17  10  13  1   
 18  11  12  2   
 19  12  14  1   
 20  13  15  2   
 21  13  16  am  
 22  14  17  1   
 23  14  31  1   
 24  16  18  1   
 25  16  32  1   
 26  17  19  1   
 27  17  33  1   
 28  17  34  1   
 29  18  20  1   
 30  18  21  1   
 31  18  35  1   
 32  19  22  1   
 33  19  36  1   
 34  19  37  1   
 35  20  23  1   
 36  20  38  1   
 37  20  39  1   
 38  21  24  1   
 39  21  40  1   
 40  21  41  1   
 41  22  25  1   
 42  23  24  1   
 43  23  26  1   
 44  23  42  1   
 45  24  43  1   
 46  24  44  1   
 47  25  45  1   
 48  25  46  1   
 49  25  47  1   
 50  26  48  1   
 51  26  49  1   
 52  26  50  1   
@<TRIPOS>SUBSTRUCTURE
  1 ****  13 GROUP 4 **** **** 0

# MOE 2024.06 (io_trps.svl 2023.06)
