@<TRIPOS>MOLECULE
NONAME
51 55 1 0 0 
SMALL
USER_CHARGES


@<TRIPOS>ATOM
  1 S        0.5560     1.1430     2.0060 S.3   1 <1>  -0.0800 
  2 C       -0.6900     1.6210     0.8620 C.2   1 <1>  -0.1400 
  3 C       -0.5520     0.0260     2.7930 C.2   1 <1>  -0.1100 
  4 C       -1.8340     0.9690     1.1080 C.2   1 <1>  -0.1810 
  5 C       -0.4490     2.6450    -0.2410 C.3   1 <1>   0.4600 
  6 C       -1.7620     0.0520     2.2040 C.2   1 <1>  -0.1500 
  7 C       -3.0470     1.2420     0.2480 C.3   1 <1>   0.0210 
  8 O       -1.5930     2.6870    -1.0750 O.3   1 <1>  -0.5600 
  9 C        0.7220     2.2220    -1.1350 C.3   1 <1>  -0.1600 
 10 C       -0.1990     4.0460     0.3340 C.3   1 <1>  -0.1600 
 11 C       -2.8610     2.5940    -0.4680 C.3   1 <1>   0.1200 
 12 C        0.9980     3.2560    -2.2260 C.3   1 <1>   0.1400 
 13 C        0.0830     5.0690    -0.7680 C.3   1 <1>   0.1400 
 14 N        1.2210     4.5920    -1.6020 N.am  1 <1>  -0.6600 
 15 C        2.4350     5.2430    -1.6920 C.2   1 <1>   0.5440 
 16 O        3.4130     4.6230    -2.0680 O.2   1 <1>  -0.5700 
 17 C        2.5880     6.6430    -1.3400 C.ar  1 <1>   0.0860 
 18 C        3.5900     7.0480    -0.4630 C.ar  1 <1>  -0.1500 
 19 C        1.7540     7.6270    -1.8710 C.ar  1 <1>  -0.1500 
 20 C        3.7700     8.3780    -0.1020 C.ar  1 <1>   0.1170 
 21 C        1.9070     8.9550    -1.5210 C.ar  1 <1>  -0.1500 
 22 N        4.8080     8.7480     0.7710 N.am  1 <1>  -0.4770 
 23 C        2.9060     9.3250    -0.6420 C.ar  1 <1>  -0.1500 
 24 C        4.8460     9.7740     1.6780 C.2   1 <1>   0.6900 
 25 C        6.1620     8.1420     0.6730 C.3   1 <1>   0.1400 
 26 O        3.9260    10.5080     1.9750 O.2   1 <1>  -0.5700 
 27 N        6.0690     9.9110     2.2130 N.am  1 <1>  -0.7300 
 28 C        7.0400     8.9890     1.6090 C.3   1 <1>   0.1400 
 29 H       -0.1720    -0.5400     3.6250 H     1 <1>   0.1500 
 30 H       -2.6140    -0.5390     2.4950 H     1 <1>   0.1500 
 31 H       -3.9320     1.2800     0.8570 H     1 <1>   0.0800 
 32 H       -3.1640     0.4560    -0.4770 H     1 <1>   0.0800 
 33 H        0.5030     1.2690    -1.5790 H     1 <1>   0.0800 
 34 H        1.6110     2.1100    -0.5430 H     1 <1>   0.0800 
 35 H        0.6520     4.0090     0.9890 H     1 <1>   0.0800 
 36 H       -1.0380     4.3590     0.9250 H     1 <1>   0.0800 
 37 H       -2.9640     3.4040     0.2320 H     1 <1>   0.0800 
 38 H       -3.6020     2.7090    -1.2390 H     1 <1>   0.0800 
 39 H        0.1570     3.3180    -2.8950 H     1 <1>   0.0800 
 40 H        1.8570     2.9550    -2.8030 H     1 <1>   0.0800 
 41 H        0.3060     6.0180    -0.3150 H     1 <1>   0.0800 
 42 H       -0.7860     5.1860    -1.3930 H     1 <1>   0.0800 
 43 H        4.2360     6.2920    -0.0570 H     1 <1>   0.1500 
 44 H        0.9830     7.3400    -2.5650 H     1 <1>   0.1500 
 45 H        1.2520     9.7040    -1.9330 H     1 <1>   0.1500 
 46 H        3.0200    10.3610    -0.3740 H     1 <1>   0.1500 
 47 H        6.5200     8.1870    -0.3400 H     1 <1>   0.0800 
 48 H        6.1360     7.1200     1.0060 H     1 <1>   0.0800 
 49 H        6.3110    10.7300     2.7700 H     1 <1>   0.3700 
 50 H        7.7830     9.5340     1.0530 H     1 <1>   0.0800 
 51 H        7.5090     8.3810     2.3620 H     1 <1>   0.0800 
@<TRIPOS>BOND
  1   1   2  1   
  2   1   3  1   
  3   2   4  2   
  4   2   5  1   
  5   3   6  2   
  6   3  29  1   
  7   4   6  1   
  8   4   7  1   
  9   5   8  1   
 10   5   9  1   
 11   5  10  1   
 12   6  30  1   
 13   7  11  1   
 14   7  31  1   
 15   7  32  1   
 16   8  11  1   
 17   9  12  1   
 18   9  33  1   
 19   9  34  1   
 20  10  13  1   
 21  10  35  1   
 22  10  36  1   
 23  11  37  1   
 24  11  38  1   
 25  12  14  1   
 26  12  39  1   
 27  12  40  1   
 28  13  14  1   
 29  13  41  1   
 30  13  42  1   
 31  14  15  am  
 32  15  16  2   
 33  15  17  1   
 34  17  18  ar  
 35  17  19  ar  
 36  18  20  ar  
 37  18  43  1   
 38  19  21  ar  
 39  19  44  1   
 40  20  22  1   
 41  20  23  ar  
 42  21  23  ar  
 43  21  45  1   
 44  22  24  am  
 45  22  25  1   
 46  23  46  1   
 47  24  26  2   
 48  24  27  am  
 49  25  28  1   
 50  25  47  1   
 51  25  48  1   
 52  27  28  1   
 53  27  49  1   
 54  28  50  1   
 55  28  51  1   
@<TRIPOS>SUBSTRUCTURE
  1 ****  13 GROUP 4 **** **** 0

# MOE 2024.06 (io_trps.svl 2023.06)
