@<TRIPOS>MOLECULE
NONAME
52 56 1 0 0 
SMALL
USER_CHARGES


@<TRIPOS>ATOM
  1 O        1.0480    -0.6400     1.2590 O.3   1 <1>  -0.5600 
  2 C        1.9850    -1.1390     0.3300 C.3   1 <1>   0.4600 
  3 C       -0.3230    -0.8140     0.9850 C.3   1 <1>   0.1200 
  4 C        1.4990    -2.4730    -0.2240 C.2   1 <1>  -0.3320 
  5 C        2.1790    -0.1030    -0.7820 C.3   1 <1>  -0.1600 
  6 C        3.2870    -1.3280     1.1100 C.3   1 <1>  -0.1600 
  7 C       -0.6960    -2.3050     0.9460 C.3   1 <1>   0.0210 
  8 N        2.1790    -3.3130    -1.0650 N.pl3 1 <1>   0.0330 
  9 C        0.2960    -3.0100     0.0560 C.2   1 <1>  -0.1810 
 10 C        2.7160     1.2160    -0.2290 C.3   1 <1>   0.2090 
 11 C        3.7920     0.0060     1.6580 C.3   1 <1>   0.2090 
 12 C        1.3840    -4.4070    -1.3080 C.ar  1 <1>  -0.1520 
 13 C        0.1900    -4.2470    -0.6120 C.ar  1 <1>   0.0000 
 14 N        3.9880     0.9620     0.5220 N.pl3 1 <1>  -0.8380 
 15 C        1.6100    -5.5420    -2.0900 C.ar  1 <1>  -0.1500 
 16 C       -0.7960    -5.2350    -0.6920 C.ar  1 <1>  -0.1500 
 17 C        5.1040     1.7350     0.3460 C.ar  1 <1>   0.4610 
 18 C        0.6310    -6.5060    -2.1620 C.ar  1 <1>  -0.1500 
 19 C       -0.5720    -6.3530    -1.4620 C.ar  1 <1>  -0.1500 
 20 N        6.3050     1.1940     0.6030 N.ar  1 <1>  -0.1790 
 21 C        5.1140     3.0370    -0.0930 C.ar  1 <1>  -0.1500 
 22 C        7.4480     1.8860     0.4360 C.ar  1 <1>   0.7710 
 23 C        6.3200     3.7020    -0.2500 C.ar  1 <1>   0.4100 
 24 N        7.4860     3.1190     0.0170 N.ar  1 <1>  -0.6200 
 25 N        8.6220     1.3050     0.7000 N.pl3 1 <1>  -0.9000 
 26 N        6.3380     4.9850    -0.6830 N.pl3 1 <1>  -0.8690 
 27 C        7.5390     5.8360    -0.9230 C.3   1 <1>   0.1290 
 28 H       -0.5460    -0.3510     0.0410 H     1 <1>   0.0800 
 29 H       -0.8800    -0.3140     1.7570 H     1 <1>   0.0800 
 30 H        1.2480     0.0610    -1.2910 H     1 <1>   0.0800 
 31 H        2.8730    -0.4830    -1.5080 H     1 <1>   0.0800 
 32 H        4.0350    -1.7620     0.4750 H     1 <1>   0.0800 
 33 H        3.1070    -2.0130     1.9190 H     1 <1>   0.0800 
 34 H       -1.6910    -2.4200     0.5580 H     1 <1>   0.0800 
 35 H       -0.6600    -2.7220     1.9370 H     1 <1>   0.0800 
 36 H        3.1110    -3.1760    -1.4630 H     1 <1>   0.2700 
 37 H        1.9890     1.6570     0.4340 H     1 <1>   0.0800 
 38 H        2.8820     1.8940    -1.0490 H     1 <1>   0.0800 
 39 H        4.7020    -0.1450     2.2110 H     1 <1>   0.0800 
 40 H        3.0630     0.4130     2.3420 H     1 <1>   0.0800 
 41 H        2.5360    -5.6540    -2.6250 H     1 <1>   0.1500 
 42 H       -1.7140    -5.1050    -0.1490 H     1 <1>   0.1500 
 43 H        0.7810    -7.3900    -2.7570 H     1 <1>   0.1500 
 44 H       -1.3210    -7.1220    -1.5340 H     1 <1>   0.1500 
 45 H        6.3480     0.2250     0.8690 H     1 <1>   0.4570 
 46 H        4.2010     3.5540    -0.3100 H     1 <1>   0.1500 
 47 H        9.4640     1.8730     0.5570 H     1 <1>   0.4000 
 48 H        8.8070     0.3690     1.0620 H     1 <1>   0.4000 
 49 H        5.4530     5.4720    -0.8620 H     1 <1>   0.4000 
 50 H        8.4470     5.2680    -0.8200 H     1 <1>   0.0800 
 51 H        7.5580     6.6450    -0.2130 H     1 <1>   0.0800 
 52 H        7.5020     6.2440    -1.9180 H     1 <1>   0.0800 
@<TRIPOS>BOND
  1   1   2  1   
  2   1   3  1   
  3   2   4  1   
  4   2   5  1   
  5   2   6  1   
  6   3   7  1   
  7   3  28  1   
  8   3  29  1   
  9   4   8  1   
 10   4   9  2   
 11   5  10  1   
 12   5  30  1   
 13   5  31  1   
 14   6  11  1   
 15   6  32  1   
 16   6  33  1   
 17   7   9  1   
 18   7  34  1   
 19   7  35  1   
 20   8  12  1   
 21   8  36  1   
 22   9  13  1   
 23  10  14  1   
 24  10  37  1   
 25  10  38  1   
 26  11  14  1   
 27  11  39  1   
 28  11  40  1   
 29  12  13  ar  
 30  12  15  ar  
 31  13  16  ar  
 32  14  17  1   
 33  15  18  ar  
 34  15  41  1   
 35  16  19  ar  
 36  16  42  1   
 37  17  20  ar  
 38  17  21  ar  
 39  18  19  ar  
 40  18  43  1   
 41  19  44  1   
 42  20  22  ar  
 43  20  45  1   
 44  21  23  ar  
 45  21  46  1   
 46  22  24  ar  
 47  22  25  1   
 48  23  24  ar  
 49  23  26  1   
 50  25  47  1   
 51  25  48  1   
 52  26  27  1   
 53  26  49  1   
 54  27  50  1   
 55  27  51  1   
 56  27  52  1   
@<TRIPOS>SUBSTRUCTURE
  1 ****   5 GROUP 4 **** **** 0

# MOE 2024.06 (io_trps.svl 2023.06)
