@<TRIPOS>MOLECULE
NONAME
56 58 1 0 0 
SMALL
USER_CHARGES


@<TRIPOS>ATOM
  1 O       -0.2530    -0.0340    -0.0490 O.2   1 <1>  -0.5700 
  2 C       -0.2810     1.1710    -0.0780 C.2   1 <1>   0.5690 
  3 N        0.8370     1.9300    -0.0400 N.am  1 <1>  -0.7300 
  4 C       -1.6220     1.8600    -0.1670 C.3   1 <1>  -0.0990 
  5 C        2.2130     1.4080     0.0350 C.3   1 <1>   0.2200 
  6 C       -2.7060     0.9000     0.3210 C.3   1 <1>   0.3430 
  7 C        2.9100     2.0350     1.2360 C.3   1 <1>  -0.1600 
  8 C        3.0050     1.9470    -1.1490 C.3   1 <1>  -0.1600 
  9 N       -4.0590     1.5250     0.2710 N.4   1 <1>  -0.9590 
 10 C        3.3690     3.4240     0.7750 C.3   1 <1>  -0.1600 
 11 C        3.4280     3.3670    -0.7570 C.3   1 <1>  -0.1600 
 12 C       -5.0550     0.7670     1.0670 C.3   1 <1>   0.3430 
 13 C       -4.5600     1.7850    -1.1110 C.3   1 <1>   0.3430 
 14 C       -6.3110     1.6220     1.2730 C.3   1 <1>  -0.1600 
 15 C       -5.9920     2.3350    -1.0860 C.3   1 <1>  -0.1600 
 16 C       -6.4330     2.8210     0.3110 C.3   1 <1>   0.2800 
 17 O       -5.5180     3.7810     0.7850 O.3   1 <1>  -0.5600 
 18 C       -7.8710     3.3800     0.3750 C.3   1 <1>  -0.1600 
 19 C       -5.5480     5.0570     0.2040 C.3   1 <1>   0.1200 
 20 C       -8.0260     4.8060    -0.1600 C.3   1 <1>   0.2800 
 21 C       -6.9230     5.6950     0.4100 C.3   1 <1>  -0.1600 
 22 O       -7.8910     4.7750    -1.5270 O.3   1 <1>  -0.6800 
 23 C       -9.4160     5.3700     0.1230 C.3   1 <1>  -0.2400 
 24 H        0.7970     2.9490    -0.0830 H     1 <1>   0.3700 
 25 H       -1.7830     2.1310    -1.1920 H     1 <1>   0.0800 
 26 H       -1.6060     2.7400     0.4470 H     1 <1>   0.0800 
 27 H        2.2170     0.3300     0.0750 H     1 <1>   0.0800 
 28 H       -2.4760     0.6140     1.3350 H     1 <1>   0.0800 
 29 H       -2.6910     0.0050    -0.2810 H     1 <1>   0.0800 
 30 H        3.7780     1.4430     1.4710 H     1 <1>   0.0800 
 31 H        2.2760     2.0710     2.1050 H     1 <1>   0.0800 
 32 H        2.4430     1.9150    -2.0660 H     1 <1>   0.0800 
 33 H        3.8880     1.3420    -1.2690 H     1 <1>   0.0800 
 34 H       -4.0450     2.4610     0.7230 H     1 <1>   0.4500 
 35 H        4.3300     3.6670     1.1960 H     1 <1>   0.0800 
 36 H        2.6570     4.1700     1.0850 H     1 <1>   0.0800 
 37 H        2.7430     4.0850    -1.1750 H     1 <1>   0.0800 
 38 H        4.4190     3.5840    -1.1200 H     1 <1>   0.0800 
 39 H       -4.6430     0.5010     2.0270 H     1 <1>   0.0800 
 40 H       -5.3130    -0.1410     0.5450 H     1 <1>   0.0800 
 41 H       -4.5320     0.8800    -1.6950 H     1 <1>   0.0800 
 42 H       -3.9220     2.5110    -1.5870 H     1 <1>   0.0800 
 43 H       -6.3390     1.9780     2.2880 H     1 <1>   0.0800 
 44 H       -7.1620     0.9760     1.1510 H     1 <1>   0.0800 
 45 H       -6.6600     1.5570    -1.4050 H     1 <1>   0.0800 
 46 H       -6.0740     3.1100    -1.8220 H     1 <1>   0.0800 
 47 H       -8.1740     3.3900     1.4070 H     1 <1>   0.0800 
 48 H       -8.5500     2.7260    -0.1410 H     1 <1>   0.0800 
 49 H       -5.3120     4.9790    -0.8430 H     1 <1>   0.0800 
 50 H       -4.7910     5.6540     0.6830 H     1 <1>   0.0800 
 51 H       -6.9510     6.6660    -0.0510 H     1 <1>   0.0800 
 52 H       -7.0790     5.8330     1.4650 H     1 <1>   0.0800 
 53 H       -8.2050     5.6200    -1.9010 H     1 <1>   0.4000 
 54 H       -9.5900     5.4070     1.1830 H     1 <1>   0.0800 
 55 H      -10.1720     4.7430    -0.3180 H     1 <1>   0.0800 
 56 H       -9.5120     6.3680    -0.2640 H     1 <1>   0.0800 
@<TRIPOS>BOND
  1   1   2  2   
  2   2   3  am  
  3   2   4  1   
  4   3   5  1   
  5   3  24  1   
  6   4   6  1   
  7   4  25  1   
  8   4  26  1   
  9   5   7  1   
 10   5   8  1   
 11   5  27  1   
 12   6   9  1   
 13   6  28  1   
 14   6  29  1   
 15   7  10  1   
 16   7  30  1   
 17   7  31  1   
 18   8  11  1   
 19   8  32  1   
 20   8  33  1   
 21   9  12  1   
 22   9  13  1   
 23   9  34  1   
 24  10  11  1   
 25  10  35  1   
 26  10  36  1   
 27  11  37  1   
 28  11  38  1   
 29  12  14  1   
 30  12  39  1   
 31  12  40  1   
 32  13  15  1   
 33  13  41  1   
 34  13  42  1   
 35  14  16  1   
 36  14  43  1   
 37  14  44  1   
 38  15  16  1   
 39  15  45  1   
 40  15  46  1   
 41  16  17  1   
 42  16  18  1   
 43  17  19  1   
 44  18  20  1   
 45  18  47  1   
 46  18  48  1   
 47  19  21  1   
 48  19  49  1   
 49  19  50  1   
 50  20  21  1   
 51  20  22  1   
 52  20  23  1   
 53  21  51  1   
 54  21  52  1   
 55  22  53  1   
 56  23  54  1   
 57  23  55  1   
 58  23  56  1   
@<TRIPOS>SUBSTRUCTURE
  1 ****   9 GROUP 4 **** **** 0

# MOE 2024.06 (io_trps.svl 2023.06)
