@<TRIPOS>MOLECULE
NONAME
51 54 1 0 0 
SMALL
USER_CHARGES


@<TRIPOS>ATOM
  1 O        0.0590    -0.0520    -1.3900 O.2   1 <1>  -0.5700 
  2 C       -0.8800     0.6840    -1.2030 C.2   1 <1>   0.5690 
  3 N       -2.1470     0.2070    -1.0050 N.am  1 <1>  -0.6600 
  4 C       -0.6150     2.1720    -1.1650 C.3   1 <1>  -0.0990 
  5 C       -3.3580     1.0160    -0.7040 C.3   1 <1>   0.1400 
  6 C       -2.4550    -1.2390    -0.9260 C.3   1 <1>   0.1400 
  7 C       -0.3080     2.6210     0.2660 C.3   1 <1>   0.0210 
  8 C       -4.4500    -0.0060    -0.3800 C.3   1 <1>   0.2000 
  9 C       -3.7240    -1.3160    -0.0760 C.3   1 <1>  -0.0800 
 10 C       -0.4300     4.1240     0.3790 C.2   1 <1>   0.1080 
 11 O       -5.2020     0.3780     0.7190 O.3   1 <1>  -0.6800 
 12 C       -4.5980    -2.5520    -0.3520 C.3   1 <1>  -0.0160 
 13 N       -1.5770     4.7120     0.5410 N.2   1 <1>  -0.7070 
 14 C        0.6210     5.0340     0.3180 C.2   1 <1>  -0.1810 
 15 C       -3.8720    -3.8440    -0.0130 C.ar  1 <1>   0.1670 
 16 N       -1.2800     6.0270     0.5940 N.pl3 1 <1>   0.3000 
 17 C        0.0440     6.2400     0.4630 C.2   1 <1>  -0.3320 
 18 C        2.1120     4.8260     0.1340 C.3   1 <1>   0.0210 
 19 N       -3.0520    -4.3210    -0.9350 N.ar  1 <1>  -0.6200 
 20 C       -4.0870    -4.4620     1.2180 C.ar  1 <1>   0.1600 
 21 C        0.7730     7.5690     0.4620 C.3   1 <1>   0.0200 
 22 C        2.7870     6.1570    -0.2490 C.3   1 <1>  -0.1600 
 23 C       -2.4640    -5.4400    -0.5480 C.ar  1 <1>   0.1600 
 24 N       -3.5000    -5.5810     1.6090 N.ar  1 <1>  -0.6200 
 25 C        2.2870     7.3300     0.6200 C.3   1 <1>  -0.1600 
 26 C       -2.6800    -6.0490     0.6830 C.ar  1 <1>   0.1600 
 27 H        0.2210     2.4010    -1.8000 H     1 <1>   0.0800 
 28 H       -1.4650     2.7060    -1.5460 H     1 <1>   0.0800 
 29 H       -3.1670     1.6620     0.1350 H     1 <1>   0.0800 
 30 H       -3.6340     1.6000    -1.5640 H     1 <1>   0.0800 
 31 H       -2.6310    -1.6160    -1.9190 H     1 <1>   0.0800 
 32 H       -1.6430    -1.7880    -0.4780 H     1 <1>   0.0800 
 33 H        0.6790     2.3020     0.5480 H     1 <1>   0.0800 
 34 H       -1.0060     2.1780     0.9530 H     1 <1>   0.0800 
 35 H       -5.1110    -0.1110    -1.2230 H     1 <1>   0.0800 
 36 H       -3.4130    -1.3220     0.9540 H     1 <1>   0.0800 
 37 H       -4.6190     0.5700     1.4790 H     1 <1>   0.4000 
 38 H       -4.8860    -2.5750    -1.3890 H     1 <1>   0.0800 
 39 H       -5.4990    -2.4830     0.2310 H     1 <1>   0.0800 
 40 H       -2.0000     6.7480     0.7200 H     1 <1>   0.2700 
 41 H        2.5240     4.4630     1.0590 H     1 <1>   0.0800 
 42 H        2.2910     4.0920    -0.6310 H     1 <1>   0.0800 
 43 H       -4.7730    -4.0090     1.9120 H     1 <1>   0.1500 
 44 H        0.5820     8.0700    -0.4710 H     1 <1>   0.0800 
 45 H        0.4200     8.1930     1.2640 H     1 <1>   0.0800 
 46 H        3.8540     6.0570    -0.1520 H     1 <1>   0.0800 
 47 H        2.5670     6.3720    -1.2810 H     1 <1>   0.0800 
 48 H       -1.7760    -5.8980    -1.2360 H     1 <1>   0.1500 
 49 H        2.8190     8.2300     0.3650 H     1 <1>   0.0800 
 50 H        2.4950     7.1060     1.6530 H     1 <1>   0.0800 
 51 H       -2.1530    -6.9590     0.9080 H     1 <1>   0.1500 
@<TRIPOS>BOND
  1   1   2  2   
  2   2   3  am  
  3   2   4  1   
  4   3   5  1   
  5   3   6  1   
  6   4   7  1   
  7   4  27  1   
  8   4  28  1   
  9   5   8  1   
 10   5  29  1   
 11   5  30  1   
 12   6   9  1   
 13   6  31  1   
 14   6  32  1   
 15   7  10  1   
 16   7  33  1   
 17   7  34  1   
 18   8   9  1   
 19   8  11  1   
 20   8  35  1   
 21   9  12  1   
 22   9  36  1   
 23  10  13  2   
 24  10  14  1   
 25  11  37  1   
 26  12  15  1   
 27  12  38  1   
 28  12  39  1   
 29  13  16  1   
 30  14  17  2   
 31  14  18  1   
 32  15  19  ar  
 33  15  20  ar  
 34  16  17  1   
 35  16  40  1   
 36  17  21  1   
 37  18  22  1   
 38  18  41  1   
 39  18  42  1   
 40  19  23  ar  
 41  20  24  ar  
 42  20  43  1   
 43  21  25  1   
 44  21  44  1   
 45  21  45  1   
 46  22  25  1   
 47  22  46  1   
 48  22  47  1   
 49  23  26  ar  
 50  23  48  1   
 51  24  26  ar  
 52  25  49  1   
 53  25  50  1   
 54  26  51  1   
@<TRIPOS>SUBSTRUCTURE
  1 ****   3 GROUP 4 **** **** 0

# MOE 2024.06 (io_trps.svl 2023.06)
