@<TRIPOS>MOLECULE
NONAME
57 60 1 0 0 
SMALL
USER_CHARGES


@<TRIPOS>ATOM
  1 O       -3.7600     2.8240    -1.3760 O.2   1 <1>  -0.5700 
  2 C       -3.2440     2.2130    -0.4630 C.2   1 <1>   0.5690 
  3 N       -3.7480     0.9730    -0.1370 N.am  1 <1>  -0.6600 
  4 C       -2.0300     2.8500     0.2800 C.3   1 <1>   0.2040 
  5 C       -4.8670     0.3730    -0.9100 C.3   1 <1>   0.1400 
  6 C       -3.2120    -0.0250     0.8310 C.3   1 <1>   0.1400 
  7 C       -0.7640     2.0030     0.0330 C.ar  1 <1>  -0.1440 
  8 C       -1.7500     4.2950    -0.1930 C.3   1 <1>  -0.1600 
  9 C       -2.3690     3.1310     1.7590 C.3   1 <1>  -0.1600 
 10 C       -5.2490    -0.8890    -0.1410 C.3   1 <1>   0.2000 
 11 C       -3.9460    -1.3360     0.5220 C.3   1 <1>  -0.0800 
 12 C       -0.3420     1.8250    -1.2790 C.ar  1 <1>  -0.1500 
 13 C       -0.0200     1.4090     1.0490 C.ar  1 <1>  -0.1500 
 14 C       -2.7540     5.1960     0.5360 C.3   1 <1>  -0.1600 
 15 C       -3.2310     4.3930     1.7480 C.3   1 <1>  -0.1600 
 16 O       -6.1430    -0.5350     0.8570 O.3   1 <1>  -0.6800 
 17 C       -3.1150    -2.2310    -0.4150 C.3   1 <1>   0.0210 
 18 C        0.7930     1.0930    -1.5770 C.ar  1 <1>  -0.1500 
 19 C        1.1150     0.6760     0.7550 C.ar  1 <1>  -0.1500 
 20 C       -1.8790    -2.7560     0.2890 C.2   1 <1>   0.1080 
 21 C        1.5360     0.5160    -0.5530 C.ar  1 <1>   0.0830 
 22 N       -1.9420    -3.5810     1.2870 N.2   1 <1>  -0.7070 
 23 C       -0.5680    -2.4250    -0.0360 C.2   1 <1>  -0.1500 
 24 O        2.6650    -0.2060    -0.7540 O.3   1 <1>  -0.3630 
 25 N       -0.6590    -3.8050     1.6260 N.pl3 1 <1>   0.3000 
 26 C        0.1920    -3.1160     0.8390 C.2   1 <1>  -0.3320 
 27 C        3.1910    -0.3970    -2.0490 C.3   1 <1>   0.0400 
 28 C        1.7030    -3.1610     0.9740 C.3   1 <1>  -0.0600 
 29 H       -5.6960     1.0550    -1.0020 H     1 <1>   0.0800 
 30 H       -4.5100     0.1160    -1.8920 H     1 <1>   0.0800 
 31 H       -2.1470    -0.1360     0.7340 H     1 <1>   0.0800 
 32 H       -3.4500     0.2810     1.8340 H     1 <1>   0.0800 
 33 H       -0.7550     4.5740     0.1090 H     1 <1>   0.0800 
 34 H       -1.8180     4.4060    -1.2610 H     1 <1>   0.0800 
 35 H       -2.8680     2.3190     2.2500 H     1 <1>   0.0800 
 36 H       -1.4680     3.3620     2.3000 H     1 <1>   0.0800 
 37 H       -5.7100    -1.6440    -0.7550 H     1 <1>   0.0800 
 38 H       -4.1460    -1.8900     1.4240 H     1 <1>   0.0800 
 39 H       -0.9040     2.2630    -2.0880 H     1 <1>   0.1500 
 40 H       -0.3060     1.5000     2.0800 H     1 <1>   0.1500 
 41 H       -2.2890     6.1210     0.8320 H     1 <1>   0.0800 
 42 H       -3.5900     5.4150    -0.1070 H     1 <1>   0.0800 
 43 H       -4.2660     4.1260     1.6150 H     1 <1>   0.0800 
 44 H       -3.1270     4.9510     2.6630 H     1 <1>   0.0800 
 45 H       -5.8060     0.2640     1.3090 H     1 <1>   0.4000 
 46 H       -2.8220    -1.6890    -1.2960 H     1 <1>   0.0800 
 47 H       -3.7040    -3.0770    -0.7210 H     1 <1>   0.0800 
 48 H        1.0810     0.9870    -2.6050 H     1 <1>   0.1500 
 49 H        1.6860     0.2200     1.5440 H     1 <1>   0.1500 
 50 H       -0.2540    -1.7570    -0.8190 H     1 <1>   0.1500 
 51 H       -0.3990    -4.4330     2.3960 H     1 <1>   0.2700 
 52 H        4.0890    -0.9810    -1.9620 H     1 <1>   0.0800 
 53 H        3.4190     0.5630    -2.4770 H     1 <1>   0.0800 
 54 H        2.4670    -0.9240    -2.6450 H     1 <1>   0.0800 
 55 H        2.1600    -2.6010     0.1790 H     1 <1>   0.0800 
 56 H        2.0530    -4.1760     0.9200 H     1 <1>   0.0800 
 57 H        2.0060    -2.7310     1.9120 H     1 <1>   0.0800 
@<TRIPOS>BOND
  1   1   2  2   
  2   2   3  am  
  3   2   4  1   
  4   3   5  1   
  5   3   6  1   
  6   4   7  1   
  7   4   8  1   
  8   4   9  1   
  9   5  10  1   
 10   5  29  1   
 11   5  30  1   
 12   6  11  1   
 13   6  31  1   
 14   6  32  1   
 15   7  12  ar  
 16   7  13  ar  
 17   8  14  1   
 18   8  33  1   
 19   8  34  1   
 20   9  15  1   
 21   9  35  1   
 22   9  36  1   
 23  10  11  1   
 24  10  16  1   
 25  10  37  1   
 26  11  17  1   
 27  11  38  1   
 28  12  18  ar  
 29  12  39  1   
 30  13  19  ar  
 31  13  40  1   
 32  14  15  1   
 33  14  41  1   
 34  14  42  1   
 35  15  43  1   
 36  15  44  1   
 37  16  45  1   
 38  17  20  1   
 39  17  46  1   
 40  17  47  1   
 41  18  21  ar  
 42  18  48  1   
 43  19  21  ar  
 44  19  49  1   
 45  20  22  2   
 46  20  23  1   
 47  21  24  1   
 48  22  25  1   
 49  23  26  2   
 50  23  50  1   
 51  24  27  1   
 52  25  26  1   
 53  25  51  1   
 54  26  28  1   
 55  27  52  1   
 56  27  53  1   
 57  27  54  1   
 58  28  55  1   
 59  28  56  1   
 60  28  57  1   
@<TRIPOS>SUBSTRUCTURE
  1 ****   6 GROUP 4 **** **** 0

# MOE 2024.06 (io_trps.svl 2023.06)
