@<TRIPOS>MOLECULE
NONAME
52 54 1 0 0 
SMALL
USER_CHARGES


@<TRIPOS>ATOM
  1 N       -1.0560    -0.0550    -0.4280 N.ar  1 <1>  -0.6200 
  2 C       -1.4600    -0.4270     0.7840 C.ar  1 <1>   0.1660 
  3 C       -0.4530     1.1220    -0.5040 C.ar  1 <1>   0.1660 
  4 C       -1.2880     0.3390     1.9280 C.ar  1 <1>  -0.1500 
  5 C       -2.1640    -1.7820     0.8890 C.3   1 <1>   0.4870 
  6 C       -0.2390     1.9530     0.5830 C.ar  1 <1>  -0.1500 
  7 C        0.0140     1.5450    -1.8820 C.3   1 <1>  -0.0970 
  8 C       -0.6630     1.5630     1.8340 C.ar  1 <1>  -0.1500 
  9 N       -2.6750    -2.1900    -0.4630 N.4   1 <1>  -0.9590 
 10 C       -4.0880    -1.8630    -0.7960 C.3   1 <1>   0.4230 
 11 C       -2.3180    -3.6010    -0.7890 C.3   1 <1>   0.2630 
 12 C       -4.4340    -0.3800    -0.6850 C.3   1 <1>  -0.1600 
 13 C       -5.1240    -2.5470     0.0950 C.3   1 <1>  -0.1600 
 14 C       -5.9690    -0.3570    -0.6510 C.3   1 <1>  -0.0800 
 15 C       -6.4080    -1.7260    -0.1200 C.3   1 <1>  -0.0800 
 16 C       -6.5950     0.7050     0.2710 C.3   1 <1>  -0.1600 
 17 C       -7.2520    -1.4610     1.1370 C.3   1 <1>  -0.1600 
 18 C       -7.6890     0.0060     1.0860 C.3   1 <1>   0.4230 
 19 N       -9.0600     0.1500     0.4990 N.4   1 <1>  -0.9590 
 20 C       -9.1990    -0.2170    -0.9470 C.3   1 <1>   0.2630 
 21 C       -9.5910     1.5320     0.7270 C.3   1 <1>   0.2630 
 22 H       -1.6300    -0.0050     2.8880 H     1 <1>   0.1500 
 23 H       -2.9650    -1.7260     1.6030 H     1 <1>   0.0800 
 24 H       -1.4430    -2.5020     1.2370 H     1 <1>   0.0800 
 25 H        0.2580     2.8990     0.4580 H     1 <1>   0.1500 
 26 H        0.4960     2.5040    -1.8500 H     1 <1>   0.0800 
 27 H       -0.8270     1.6040    -2.5480 H     1 <1>   0.0800 
 28 H        0.7110     0.8220    -2.2650 H     1 <1>   0.0800 
 29 H       -0.5080     2.1880     2.6980 H     1 <1>   0.1500 
 30 H       -2.0960    -1.5670    -1.0670 H     1 <1>   0.4500 
 31 H       -4.2810    -2.1610    -1.8150 H     1 <1>   0.0800 
 32 H       -2.8530    -4.2830    -0.1480 H     1 <1>   0.0800 
 33 H       -1.2590    -3.7580    -0.6570 H     1 <1>   0.0800 
 34 H       -2.5680    -3.8210    -1.8140 H     1 <1>   0.0800 
 35 H       -4.0450     0.0340     0.2260 H     1 <1>   0.0800 
 36 H       -4.0500     0.1780    -1.5210 H     1 <1>   0.0800 
 37 H       -5.2740    -3.5730    -0.1920 H     1 <1>   0.0800 
 38 H       -4.8230    -2.5060     1.1250 H     1 <1>   0.0800 
 39 H       -6.3430    -0.2370    -1.6560 H     1 <1>   0.0800 
 40 H       -7.0130    -2.2090    -0.8710 H     1 <1>   0.0800 
 41 H       -6.9550     1.5550    -0.2810 H     1 <1>   0.0800 
 42 H       -5.8570     1.0620     0.9680 H     1 <1>   0.0800 
 43 H       -6.6430    -1.5790     2.0160 H     1 <1>   0.0800 
 44 H       -8.0830    -2.1400     1.2200 H     1 <1>   0.0800 
 45 H       -7.7030     0.4050     2.0890 H     1 <1>   0.0800 
 46 H       -9.6660    -0.4920     1.0320 H     1 <1>   0.4500 
 47 H       -8.5790     0.4190    -1.5580 H     1 <1>   0.0800 
 48 H      -10.2240    -0.1020    -1.2640 H     1 <1>   0.0800 
 49 H       -8.9090    -1.2420    -1.1050 H     1 <1>   0.0800 
 50 H       -9.0050     2.2560     0.1860 H     1 <1>   0.0800 
 51 H       -9.5590     1.7780     1.7770 H     1 <1>   0.0800 
 52 H      -10.6140     1.6000     0.3930 H     1 <1>   0.0800 
@<TRIPOS>BOND
  1   1   2  ar  
  2   1   3  ar  
  3   2   4  ar  
  4   2   5  1   
  5   3   6  ar  
  6   3   7  1   
  7   4   8  ar  
  8   4  22  1   
  9   5   9  1   
 10   5  23  1   
 11   5  24  1   
 12   6   8  ar  
 13   6  25  1   
 14   7  26  1   
 15   7  27  1   
 16   7  28  1   
 17   8  29  1   
 18   9  10  1   
 19   9  11  1   
 20   9  30  1   
 21  10  12  1   
 22  10  13  1   
 23  10  31  1   
 24  11  32  1   
 25  11  33  1   
 26  11  34  1   
 27  12  14  1   
 28  12  35  1   
 29  12  36  1   
 30  13  15  1   
 31  13  37  1   
 32  13  38  1   
 33  14  15  1   
 34  14  16  1   
 35  14  39  1   
 36  15  17  1   
 37  15  40  1   
 38  16  18  1   
 39  16  41  1   
 40  16  42  1   
 41  17  18  1   
 42  17  43  1   
 43  17  44  1   
 44  18  19  1   
 45  18  45  1   
 46  19  20  1   
 47  19  21  1   
 48  19  46  1   
 49  20  47  1   
 50  20  48  1   
 51  20  49  1   
 52  21  50  1   
 53  21  51  1   
 54  21  52  1   
@<TRIPOS>SUBSTRUCTURE
  1 ****  12 GROUP 4 **** **** 0

# MOE 2024.06 (io_trps.svl 2023.06)
