@<TRIPOS>MOLECULE
NONAME
58 60 1 0 0 
SMALL
USER_CHARGES


@<TRIPOS>ATOM
  1 O       -0.2310     0.0830     0.9470 O.2   1 <1>  -0.5700 
  2 C       -1.0190     0.9850     0.7690 C.2   1 <1>   0.5690 
  3 N       -2.3810     0.7580     0.7720 N.am  1 <1>  -0.6600 
  4 C       -0.4210     2.3810     0.5880 C.3   1 <1>   0.1810 
  5 C       -3.3840     1.8580     0.6230 C.3   1 <1>   0.2200 
  6 C       -2.8890    -0.6450     0.8920 C.3   1 <1>   0.0600 
  7 O       -0.8450     2.9820    -0.6270 O.3   1 <1>  -0.3620 
  8 C       -4.5770     1.7730     1.5760 C.3   1 <1>  -0.1600 
  9 C       -4.0110     1.8920    -0.7680 C.3   1 <1>  -0.1600 
 10 C       -0.5600     4.2770    -0.9120 C.ar  1 <1>   0.0820 
 11 C       -5.6500     2.6440     0.9070 C.3   1 <1>  -0.0800 
 12 C       -5.2960     2.7100    -0.5830 C.3   1 <1>  -0.0800 
 13 C        0.1990     5.1060    -0.0910 C.ar  1 <1>  -0.1500 
 14 C       -1.0720     4.7800    -2.0940 C.ar  1 <1>  -0.1500 
 15 C       -7.0840     2.0940     0.9730 C.3   1 <1>  -0.1600 
 16 C       -6.5270     2.1790    -1.3310 C.3   1 <1>  -0.1600 
 17 C        0.4340     6.4260    -0.4450 C.ar  1 <1>  -0.1430 
 18 C       -0.8400     6.0940    -2.4520 C.ar  1 <1>  -0.1500 
 19 C       -7.7100     2.4220    -0.3870 C.3   1 <1>   0.4230 
 20 C       -0.0900     6.9250    -1.6340 C.ar  1 <1>  -0.1430 
 21 C        1.2690     7.3020     0.4800 C.3   1 <1>  -0.0970 
 22 N       -8.1480     3.8550    -0.4380 N.4   1 <1>  -0.9590 
 23 C        0.1440     8.3670    -2.0640 C.3   1 <1>  -0.0970 
 24 C       -9.2210     4.1680     0.5610 C.3   1 <1>   0.2630 
 25 C       -8.6320     4.2660    -1.7960 C.3   1 <1>   0.2630 
 26 H        0.6510     2.3120     0.5660 H     1 <1>   0.0800 
 27 H       -0.7280     3.0020     1.4080 H     1 <1>   0.0800 
 28 H       -2.9170     2.8110     0.7960 H     1 <1>   0.0800 
 29 H       -3.7530    -0.7930     0.2710 H     1 <1>   0.0800 
 30 H       -3.1460    -0.8490     1.9160 H     1 <1>   0.0800 
 31 H       -2.1340    -1.3480     0.5840 H     1 <1>   0.0800 
 32 H       -4.9260     0.7620     1.6610 H     1 <1>   0.0800 
 33 H       -4.3190     2.1430     2.5530 H     1 <1>   0.0800 
 34 H       -3.3490     2.3550    -1.4790 H     1 <1>   0.0800 
 35 H       -4.2340     0.8940    -1.0950 H     1 <1>   0.0800 
 36 H       -5.6110     3.6400     1.3180 H     1 <1>   0.0800 
 37 H       -5.1070     3.7370    -0.8520 H     1 <1>   0.0800 
 38 H        0.6170     4.7360     0.8240 H     1 <1>   0.1500 
 39 H       -1.6480     4.1360    -2.7330 H     1 <1>   0.1500 
 40 H       -7.6250     2.4620     1.8230 H     1 <1>   0.0800 
 41 H       -7.0530     1.0210     1.0560 H     1 <1>   0.0800 
 42 H       -6.4360     1.1140    -1.4580 H     1 <1>   0.0800 
 43 H       -6.6280     2.6080    -2.3100 H     1 <1>   0.0800 
 44 H       -1.2450     6.4650    -3.3760 H     1 <1>   0.1500 
 45 H       -8.5360     1.7660    -0.6120 H     1 <1>   0.0800 
 46 H        1.5870     6.7570     1.3500 H     1 <1>   0.0800 
 47 H        0.6920     8.1490     0.8050 H     1 <1>   0.0800 
 48 H        2.1450     7.6510    -0.0370 H     1 <1>   0.0800 
 49 H       -7.3140     4.4140    -0.2080 H     1 <1>   0.4500 
 50 H       -0.3310     8.5720    -3.0050 H     1 <1>   0.0800 
 51 H        1.1980     8.5520    -2.1730 H     1 <1>   0.0800 
 52 H       -0.2570     9.0410    -1.3290 H     1 <1>   0.0800 
 53 H      -10.0770     3.5320     0.4040 H     1 <1>   0.0800 
 54 H       -9.5330     5.1960     0.4620 H     1 <1>   0.0800 
 55 H       -8.8630     4.0240     1.5660 H     1 <1>   0.0800 
 56 H       -9.4470     3.6340    -2.1110 H     1 <1>   0.0800 
 57 H       -7.8400     4.1970    -2.5220 H     1 <1>   0.0800 
 58 H       -8.9780     5.2870    -1.7750 H     1 <1>   0.0800 
@<TRIPOS>BOND
  1   1   2  2   
  2   2   3  am  
  3   2   4  1   
  4   3   5  1   
  5   3   6  1   
  6   4   7  1   
  7   4  26  1   
  8   4  27  1   
  9   5   8  1   
 10   5   9  1   
 11   5  28  1   
 12   6  29  1   
 13   6  30  1   
 14   6  31  1   
 15   7  10  1   
 16   8  11  1   
 17   8  32  1   
 18   8  33  1   
 19   9  12  1   
 20   9  34  1   
 21   9  35  1   
 22  10  13  ar  
 23  10  14  ar  
 24  11  12  1   
 25  11  15  1   
 26  11  36  1   
 27  12  16  1   
 28  12  37  1   
 29  13  17  ar  
 30  13  38  1   
 31  14  18  ar  
 32  14  39  1   
 33  15  19  1   
 34  15  40  1   
 35  15  41  1   
 36  16  19  1   
 37  16  42  1   
 38  16  43  1   
 39  17  20  ar  
 40  17  21  1   
 41  18  20  ar  
 42  18  44  1   
 43  19  22  1   
 44  19  45  1   
 45  20  23  1   
 46  21  46  1   
 47  21  47  1   
 48  21  48  1   
 49  22  24  1   
 50  22  25  1   
 51  22  49  1   
 52  23  50  1   
 53  23  51  1   
 54  23  52  1   
 55  24  53  1   
 56  24  54  1   
 57  24  55  1   
 58  25  56  1   
 59  25  57  1   
 60  25  58  1   
@<TRIPOS>SUBSTRUCTURE
  1 ****   5 GROUP 4 **** **** 0

# MOE 2024.06 (io_trps.svl 2023.06)
