@<TRIPOS>MOLECULE
NONAME
49 50 1 0 0 
SMALL
USER_CHARGES


@<TRIPOS>ATOM
  1 CL       2.7950    -0.6280    -1.7870 Cl    1 <1>  -0.1770 
  2 C        3.3510     0.9460    -1.2460 C.ar  1 <1>   0.1770 
  3 C        4.1230     1.0310    -0.0940 C.ar  1 <1>  -0.1440 
  4 C        3.0090     2.0730    -1.9840 C.ar  1 <1>  -0.1440 
  5 C        4.5530     2.2790     0.3270 C.ar  1 <1>  -0.1500 
  6 C        4.5000    -0.2130     0.6970 C.3   1 <1>  -0.0960 
  7 C        3.4490     3.3120    -1.5460 C.ar  1 <1>  -0.1500 
  8 C        2.1730     1.9640    -3.2510 C.3   1 <1>  -0.0960 
  9 C        4.2020     3.4160    -0.3860 C.ar  1 <1>   0.0820 
 10 O        4.6400     4.6280     0.0270 O.3   1 <1>  -0.3630 
 11 C        3.8750     5.4500     0.9200 C.3   1 <1>   0.3410 
 12 C        4.6910     6.7400     1.1970 C.2   1 <1>   0.5690 
 13 C        3.6330     4.6840     2.2330 C.3   1 <1>  -0.2400 
 14 C        2.5330     5.8040     0.2540 C.3   1 <1>  -0.2400 
 15 O        4.2370     7.5840     1.9400 O.2   1 <1>  -0.5700 
 16 N        5.9060     6.8870     0.5880 N.am  1 <1>  -0.4930 
 17 C        6.8390     7.9490     0.6800 C.2   1 <1>   0.0630 
 18 C        6.7780     9.1170     1.4430 C.2   1 <1>   0.1390 
 19 C        8.0120     8.0370     0.0210 C.2   1 <1>  -0.3020 
 20 N        7.8240     9.8720     1.2750 N.2   1 <1>  -0.7070 
 21 N        8.5920     9.2000     0.3920 N.pl3 1 <1>   0.3140 
 22 C        9.8890     9.7240    -0.0610 C.3   1 <1>   0.1570 
 23 C        9.6860    10.8150    -1.0900 C.2   1 <1>   0.5690 
 24 O       10.3920    10.8150    -2.0690 O.2   1 <1>  -0.5700 
 25 N        8.7360    11.7670    -0.8830 N.am  1 <1>  -0.7300 
 26 C        8.4160    12.8970    -1.7880 C.3   1 <1>   0.0600 
 27 H        5.1620     2.3790     1.2060 H     1 <1>   0.1500 
 28 H        5.0580    -0.8890     0.0740 H     1 <1>   0.0800 
 29 H        3.6120    -0.7120     1.0410 H     1 <1>   0.0800 
 30 H        5.1030     0.0380     1.5510 H     1 <1>   0.0800 
 31 H        3.2140     4.2020    -2.1000 H     1 <1>   0.1500 
 32 H        2.6750     1.3400    -3.9690 H     1 <1>   0.0800 
 33 H        2.0110     2.9300    -3.6930 H     1 <1>   0.0800 
 34 H        1.2160     1.5290    -3.0220 H     1 <1>   0.0800 
 35 H        4.5700     4.3910     2.6710 H     1 <1>   0.0800 
 36 H        3.0190     3.8170     2.0700 H     1 <1>   0.0800 
 37 H        3.1220     5.3200     2.9340 H     1 <1>   0.0800 
 38 H        2.7030     6.2870    -0.6910 H     1 <1>   0.0800 
 39 H        1.9860     6.4840     0.8830 H     1 <1>   0.0800 
 40 H        1.9260     4.9290     0.1130 H     1 <1>   0.0800 
 41 H        6.1710     6.1090    -0.0200 H     1 <1>   0.3700 
 42 H        5.9590     9.3670     2.0970 H     1 <1>   0.1500 
 43 H        8.4570     7.3540    -0.6770 H     1 <1>   0.1500 
 44 H       10.4630     8.9260    -0.4890 H     1 <1>   0.0800 
 45 H       10.4140    10.1260     0.7830 H     1 <1>   0.0800 
 46 H        8.1200    11.6430    -0.0630 H     1 <1>   0.3700 
 47 H        9.0980    12.9120    -2.6220 H     1 <1>   0.0800 
 48 H        8.4980    13.8260    -1.2530 H     1 <1>   0.0800 
 49 H        7.4120    12.7890    -2.1610 H     1 <1>   0.0800 
@<TRIPOS>BOND
  1   1   2  1   
  2   2   3  ar  
  3   2   4  ar  
  4   3   5  ar  
  5   3   6  1   
  6   4   7  ar  
  7   4   8  1   
  8   5   9  ar  
  9   5  27  1   
 10   6  28  1   
 11   6  29  1   
 12   6  30  1   
 13   7   9  ar  
 14   7  31  1   
 15   8  32  1   
 16   8  33  1   
 17   8  34  1   
 18   9  10  1   
 19  10  11  1   
 20  11  12  1   
 21  11  13  1   
 22  11  14  1   
 23  12  15  2   
 24  12  16  am  
 25  13  35  1   
 26  13  36  1   
 27  13  37  1   
 28  14  38  1   
 29  14  39  1   
 30  14  40  1   
 31  16  17  1   
 32  16  41  1   
 33  17  18  1   
 34  17  19  2   
 35  18  20  2   
 36  18  42  1   
 37  19  21  1   
 38  19  43  1   
 39  20  21  1   
 40  21  22  1   
 41  22  23  1   
 42  22  44  1   
 43  22  45  1   
 44  23  24  2   
 45  23  25  am  
 46  25  26  1   
 47  25  46  1   
 48  26  47  1   
 49  26  48  1   
 50  26  49  1   
@<TRIPOS>SUBSTRUCTURE
  1 ****  16 GROUP 4 **** **** 0

# MOE 2024.06 (io_trps.svl 2023.06)
