@<TRIPOS>MOLECULE
NONAME
53 55 1 0 0 
SMALL
USER_CHARGES


@<TRIPOS>ATOM
  1 F       -1.6930    -2.7090     2.9110 F     1 <1>  -0.1900 
  2 C       -1.7770    -2.7140     1.6050 C.ar  1 <1>   0.1900 
  3 C       -0.6810    -2.3640     0.8120 C.ar  1 <1>   0.0820 
  4 C       -3.0010    -3.0680     1.0680 C.ar  1 <1>  -0.1500 
  5 O        0.5640    -2.0500     1.2670 O.3   1 <1>  -0.3630 
  6 C       -0.9120    -2.3490    -0.5590 C.ar  1 <1>   0.1900 
  7 C       -3.1880    -3.1010    -0.3140 C.ar  1 <1>   0.0860 
  8 C        1.0850    -2.6490     2.4340 C.3   1 <1>   0.0400 
  9 F        0.0520    -1.9920    -1.3700 F     1 <1>  -0.1900 
 10 C       -2.1220    -2.7050    -1.1210 C.ar  1 <1>  -0.1500 
 11 C       -4.4340    -3.5390    -0.9120 C.2   1 <1>   0.5440 
 12 O       -5.0230    -2.7550    -1.6320 O.2   1 <1>  -0.5700 
 13 N       -4.9810    -4.7960    -0.7110 N.am  1 <1>  -0.6600 
 14 C       -4.2840    -5.9240     0.0240 C.3   1 <1>   0.3640 
 15 C       -6.4080    -5.0300    -1.0990 C.3   1 <1>   0.1400 
 16 C       -2.8190    -6.0060    -0.4220 C.ar  1 <1>  -0.1430 
 17 C       -4.9330    -7.3370    -0.1440 C.3   1 <1>   0.2000 
 18 C       -6.6720    -6.4870    -1.4680 C.3   1 <1>   0.1200 
 19 C       -1.8020    -5.9800     0.5240 C.ar  1 <1>  -0.1500 
 20 C       -2.4820    -6.0860    -1.7680 C.ar  1 <1>  -0.1500 
 21 O       -6.3110    -7.2930    -0.3960 O.3   1 <1>  -0.5600 
 22 C       -4.7760    -8.2280     1.1010 C.3   1 <1>   0.1200 
 23 C       -0.4730    -6.0120     0.1430 C.ar  1 <1>   0.0830 
 24 C       -1.1540    -6.1160    -2.1610 C.ar  1 <1>  -0.1500 
 25 O       -3.4500    -8.3480     1.4990 O.3   1 <1>  -0.6800 
 26 O        0.4570    -5.9830     1.1290 O.3   1 <1>  -0.3630 
 27 C       -0.1450    -6.0590    -1.2150 C.ar  1 <1>   0.0830 
 28 C        1.2870    -7.1180     1.2480 C.3   1 <1>   0.0400 
 29 O        1.1350    -6.0450    -1.6540 O.3   1 <1>  -0.3630 
 30 C        1.8090    -4.8120    -1.5340 C.3   1 <1>   0.0400 
 31 H       -3.8130    -3.3250     1.7230 H     1 <1>   0.1500 
 32 H        2.1530    -2.5300     2.4220 H     1 <1>   0.0800 
 33 H        0.8330    -3.6950     2.4380 H     1 <1>   0.0800 
 34 H        0.6750    -2.1520     3.2950 H     1 <1>   0.0800 
 35 H       -2.2410    -2.6880    -2.1900 H     1 <1>   0.1500 
 36 H       -4.3110    -5.6840     1.0730 H     1 <1>   0.0800 
 37 H       -7.0460    -4.7530    -0.2780 H     1 <1>   0.0800 
 38 H       -6.6740    -4.4160    -1.9420 H     1 <1>   0.0800 
 39 H       -4.4840    -7.8390    -0.9820 H     1 <1>   0.0800 
 40 H       -6.1130    -6.7770    -2.3420 H     1 <1>   0.0800 
 41 H       -7.7200    -6.6370    -1.6560 H     1 <1>   0.0800 
 42 H       -2.0310    -5.9350     1.5740 H     1 <1>   0.1500 
 43 H       -3.2550    -6.1100    -2.5180 H     1 <1>   0.1500 
 44 H       -5.1540    -9.2150     0.9000 H     1 <1>   0.0800 
 45 H       -5.3220    -7.8020     1.9250 H     1 <1>   0.0800 
 46 H       -0.8940    -6.1700    -3.2020 H     1 <1>   0.1500 
 47 H       -2.9070    -8.7690     0.8020 H     1 <1>   0.4000 
 48 H        1.8590    -7.0220     2.1530 H     1 <1>   0.0800 
 49 H        1.9480    -7.1670     0.4020 H     1 <1>   0.0800 
 50 H        0.6700    -7.9970     1.2930 H     1 <1>   0.0800 
 51 H        2.8320    -4.9550    -1.8310 H     1 <1>   0.0800 
 52 H        1.7660    -4.4750    -0.5130 H     1 <1>   0.0800 
 53 H        1.3350    -4.0970    -2.1820 H     1 <1>   0.0800 
@<TRIPOS>BOND
  1   1   2  1   
  2   2   3  ar  
  3   2   4  ar  
  4   3   5  1   
  5   3   6  ar  
  6   4   7  ar  
  7   4  31  1   
  8   5   8  1   
  9   6   9  1   
 10   6  10  ar  
 11   7  10  ar  
 12   7  11  1   
 13   8  32  1   
 14   8  33  1   
 15   8  34  1   
 16  10  35  1   
 17  11  12  2   
 18  11  13  am  
 19  13  14  1   
 20  13  15  1   
 21  14  16  1   
 22  14  17  1   
 23  14  36  1   
 24  15  18  1   
 25  15  37  1   
 26  15  38  1   
 27  16  19  ar  
 28  16  20  ar  
 29  17  21  1   
 30  17  22  1   
 31  17  39  1   
 32  18  21  1   
 33  18  40  1   
 34  18  41  1   
 35  19  23  ar  
 36  19  42  1   
 37  20  24  ar  
 38  20  43  1   
 39  22  25  1   
 40  22  44  1   
 41  22  45  1   
 42  23  26  1   
 43  23  27  ar  
 44  24  27  ar  
 45  24  46  1   
 46  25  47  1   
 47  26  28  1   
 48  27  29  1   
 49  28  48  1   
 50  28  49  1   
 51  28  50  1   
 52  29  30  1   
 53  30  51  1   
 54  30  52  1   
 55  30  53  1   
@<TRIPOS>SUBSTRUCTURE
  1 ****  16 GROUP 4 **** **** 0

# MOE 2024.06 (io_trps.svl 2023.06)
