@<TRIPOS>MOLECULE
NONAME
46 47 1 0 0 
SMALL
USER_CHARGES


@<TRIPOS>ATOM
  1 CL      -0.6010    -2.1760     2.1760 Cl    1 <1>  -0.1770 
  2 C       -1.8200    -1.8420     0.9710 C.ar  1 <1>   0.1770 
  3 C       -2.2600    -0.5440     0.7560 C.ar  1 <1>  -0.1440 
  4 C       -2.3260    -2.9070     0.2490 C.ar  1 <1>  -0.1500 
  5 C       -3.2300    -0.3290    -0.2120 C.ar  1 <1>  -0.1500 
  6 C       -1.6960     0.6220     1.5540 C.3   1 <1>  -0.0960 
  7 C       -3.3010    -2.6850    -0.7130 C.ar  1 <1>  -0.1430 
  8 C       -3.7450    -1.3890    -0.9400 C.ar  1 <1>  -0.1500 
  9 C       -3.8800    -3.8450    -1.5010 C.3   1 <1>   0.4870 
 10 N       -4.7480    -4.6490    -0.6060 N.4   1 <1>  -0.9590 
 11 C       -5.1940    -5.9160    -1.2720 C.3   1 <1>   0.3430 
 12 C       -5.9140    -3.8720    -0.0990 C.3   1 <1>   0.3430 
 13 C       -5.9800    -6.8070    -0.3070 C.3   1 <1>   0.2000 
 14 C       -6.6950    -4.7110     0.9100 C.3   1 <1>  -0.1600 
 15 O       -6.4200    -7.9190    -0.9940 O.3   1 <1>  -0.6800 
 16 C       -7.1650    -6.1090     0.4050 C.3   1 <1>  -0.1060 
 17 C       -7.4850    -7.0210     1.6020 C.2   1 <1>   0.9060 
 18 C       -8.4830    -5.9940    -0.4310 C.3   1 <1>  -0.1600 
 19 O       -7.5710    -6.5370     2.7330 O.co2 1 <1>  -0.9000 
 20 O       -7.5970    -8.2360     1.3910 O.co2 1 <1>  -0.9000 
 21 C       -8.4650    -5.2350    -1.7690 C.3   1 <1>  -0.1600 
 22 C       -9.8430    -5.2940    -2.4330 C.3   1 <1>  -0.2400 
 23 H       -1.9430    -3.8910     0.4530 H     1 <1>   0.1500 
 24 H       -3.5860     0.6690    -0.4030 H     1 <1>   0.1500 
 25 H       -2.1450     1.5510     1.2560 H     1 <1>   0.0800 
 26 H       -0.6340     0.6930     1.4000 H     1 <1>   0.0800 
 27 H       -1.8830     0.4750     2.6030 H     1 <1>   0.0800 
 28 H       -4.4950    -1.1850    -1.6860 H     1 <1>   0.1500 
 29 H       -3.0750    -4.4540    -1.8800 H     1 <1>   0.0800 
 30 H       -4.4510    -3.4750    -2.3380 H     1 <1>   0.0800 
 31 H       -4.1950    -4.9060     0.2220 H     1 <1>   0.4500 
 32 H       -5.8160    -5.6820    -2.1160 H     1 <1>   0.0800 
 33 H       -4.3400    -6.4710    -1.6200 H     1 <1>   0.0800 
 34 H       -5.5720    -2.9740     0.3900 H     1 <1>   0.0800 
 35 H       -6.5470    -3.5840    -0.9180 H     1 <1>   0.0800 
 36 H       -5.2930    -7.1690     0.4410 H     1 <1>   0.0800 
 37 H       -6.0590    -4.8390     1.7690 H     1 <1>   0.0800 
 38 H       -7.5480    -4.1530     1.2540 H     1 <1>   0.0800 
 39 H       -6.9630    -8.4350    -0.3290 H     1 <1>   0.4000 
 40 H       -8.8350    -6.9930    -0.6310 H     1 <1>   0.0800 
 41 H       -9.2320    -5.5470     0.2020 H     1 <1>   0.0800 
 42 H       -8.2200    -4.2020    -1.6170 H     1 <1>   0.0800 
 43 H       -7.7570    -5.6830    -2.4390 H     1 <1>   0.0800 
 44 H      -10.5880    -4.8490    -1.7970 H     1 <1>   0.0800 
 45 H      -10.1230    -6.3160    -2.6250 H     1 <1>   0.0800 
 46 H       -9.8300    -4.7630    -3.3680 H     1 <1>   0.0800 
@<TRIPOS>BOND
  1   1   2  1   
  2   2   3  ar  
  3   2   4  ar  
  4   3   5  ar  
  5   3   6  1   
  6   4   7  ar  
  7   4  23  1   
  8   5   8  ar  
  9   5  24  1   
 10   6  25  1   
 11   6  26  1   
 12   6  27  1   
 13   7   8  ar  
 14   7   9  1   
 15   8  28  1   
 16   9  10  1   
 17   9  29  1   
 18   9  30  1   
 19  10  11  1   
 20  10  12  1   
 21  10  31  1   
 22  11  13  1   
 23  11  32  1   
 24  11  33  1   
 25  12  14  1   
 26  12  34  1   
 27  12  35  1   
 28  13  15  1   
 29  13  16  1   
 30  13  36  1   
 31  14  16  1   
 32  14  37  1   
 33  14  38  1   
 34  15  39  1   
 35  16  17  1   
 36  16  18  1   
 37  17  19  ar  
 38  17  20  ar  
 39  18  21  1   
 40  18  40  1   
 41  18  41  1   
 42  21  22  1   
 43  21  42  1   
 44  21  43  1   
 45  22  44  1   
 46  22  45  1   
 47  22  46  1   
@<TRIPOS>SUBSTRUCTURE
  1 ****  12 GROUP 4 **** **** 0

# MOE 2024.06 (io_trps.svl 2023.06)
