@<TRIPOS>MOLECULE
NONAME
49 50 1 0 0 
SMALL
USER_CHARGES


@<TRIPOS>ATOM
  1 S        1.4480    -0.0620    -0.0990 S.3   1 <1>  -0.4600 
  2 C        1.8580     1.5090    -0.9040 C.3   1 <1>   0.0700 
  3 C        1.3140    -1.2230    -1.4840 C.3   1 <1>  -0.0100 
  4 C        1.9420     2.6010     0.1750 C.3   1 <1>  -0.0800 
  5 C        2.0730     3.9900    -0.4690 C.3   1 <1>  -0.1600 
  6 C        3.1200     2.3690     1.1400 C.3   1 <1>  -0.1600 
  7 C        2.2000     5.0900     0.5860 C.3   1 <1>   0.3430 
  8 C        3.2320     3.4880     2.1730 C.3   1 <1>   0.3430 
  9 N        3.3590     4.7990     1.4800 N.4   1 <1>  -0.9590 
 10 C        3.6020     5.9090     2.4410 C.3   1 <1>   0.4860 
 11 C        3.9580     7.1490     1.6490 C.ar  1 <1>  -0.1440 
 12 C        5.1120     7.1630     0.8820 C.ar  1 <1>  -0.1500 
 13 C        3.1350     8.2650     1.6600 C.ar  1 <1>  -0.1500 
 14 C        5.4380     8.2610     0.1000 C.ar  1 <1>  -0.1440 
 15 C        3.4600     9.3740     0.9000 C.ar  1 <1>  -0.1500 
 16 C        4.6110     9.3790     0.1150 C.ar  1 <1>   0.0820 
 17 C        6.6930     8.2570    -0.7690 C.3   1 <1>   0.2630 
 18 O        4.9770    10.4420    -0.6480 O.3   1 <1>  -0.3630 
 19 O        7.0630     6.9420    -1.0730 O.3   1 <1>  -0.5600 
 20 C        4.2280    11.6380    -0.6730 C.3   1 <1>   0.0400 
 21 C        8.1890     6.8540    -1.8870 C.3   1 <1>   0.0400 
 22 H        1.0710     1.7110    -1.6090 H     1 <1>   0.0800 
 23 H        2.7920     1.3760    -1.4220 H     1 <1>   0.0800 
 24 H        1.0710    -2.1890    -1.0780 H     1 <1>   0.0800 
 25 H        2.2610    -1.2510    -1.9920 H     1 <1>   0.0800 
 26 H        0.5320    -0.8780    -2.1370 H     1 <1>   0.0800 
 27 H        1.0220     2.5750     0.7370 H     1 <1>   0.0800 
 28 H        1.2030     4.1910    -1.0700 H     1 <1>   0.0800 
 29 H        2.9300     4.0240    -1.1200 H     1 <1>   0.0800 
 30 H        4.0430     2.2920     0.5930 H     1 <1>   0.0800 
 31 H        2.9830     1.4410     1.6680 H     1 <1>   0.0800 
 32 H        1.2930     5.1400     1.1660 H     1 <1>   0.0800 
 33 H        2.3420     6.0400     0.0930 H     1 <1>   0.0800 
 34 H        4.0930     3.3120     2.7980 H     1 <1>   0.0800 
 35 H        2.3520     3.4870     2.7970 H     1 <1>   0.0800 
 36 H        4.1870     4.7650     0.8720 H     1 <1>   0.4500 
 37 H        4.4210     5.6610     3.0970 H     1 <1>   0.0800 
 38 H        2.7230     6.0880     3.0380 H     1 <1>   0.0800 
 39 H        5.7730     6.3130     0.8800 H     1 <1>   0.1500 
 40 H        2.2380     8.2860     2.2550 H     1 <1>   0.1500 
 41 H        2.8070    10.2260     0.9310 H     1 <1>   0.1500 
 42 H        7.5030     8.7330    -0.2440 H     1 <1>   0.0800 
 43 H        6.5090     8.7760    -1.6940 H     1 <1>   0.0800 
 44 H        4.7220    12.3280    -1.3330 H     1 <1>   0.0800 
 45 H        4.1890    12.0480     0.3210 H     1 <1>   0.0800 
 46 H        3.2400    11.4250    -1.0420 H     1 <1>   0.0800 
 47 H        8.3970     5.8130    -2.0630 H     1 <1>   0.0800 
 48 H        9.0270     7.3110    -1.3890 H     1 <1>   0.0800 
 49 H        7.9910     7.3460    -2.8240 H     1 <1>   0.0800 
@<TRIPOS>BOND
  1   1   2  1   
  2   1   3  1   
  3   2   4  1   
  4   2  22  1   
  5   2  23  1   
  6   3  24  1   
  7   3  25  1   
  8   3  26  1   
  9   4   5  1   
 10   4   6  1   
 11   4  27  1   
 12   5   7  1   
 13   5  28  1   
 14   5  29  1   
 15   6   8  1   
 16   6  30  1   
 17   6  31  1   
 18   7   9  1   
 19   7  32  1   
 20   7  33  1   
 21   8   9  1   
 22   8  34  1   
 23   8  35  1   
 24   9  10  1   
 25   9  36  1   
 26  10  11  1   
 27  10  37  1   
 28  10  38  1   
 29  11  12  ar  
 30  11  13  ar  
 31  12  14  ar  
 32  12  39  1   
 33  13  15  ar  
 34  13  40  1   
 35  14  16  ar  
 36  14  17  1   
 37  15  16  ar  
 38  15  41  1   
 39  16  18  1   
 40  17  19  1   
 41  17  42  1   
 42  17  43  1   
 43  18  20  1   
 44  19  21  1   
 45  20  44  1   
 46  20  45  1   
 47  20  46  1   
 48  21  47  1   
 49  21  48  1   
 50  21  49  1   
@<TRIPOS>SUBSTRUCTURE
  1 ****   9 GROUP 4 **** **** 0

# MOE 2024.06 (io_trps.svl 2023.06)
