@<TRIPOS>MOLECULE
NONAME
50 52 1 0 0 
SMALL
USER_CHARGES


@<TRIPOS>ATOM
  1 O       -2.5290    -0.7760    -1.3670 O.co2 1 <1>  -0.9000 
  2 C       -1.9190    -1.1860    -0.3710 C.2   1 <1>   0.9060 
  3 O       -1.3820    -0.4160     0.4360 O.co2 1 <1>  -0.9000 
  4 C       -1.7370    -2.6850    -0.1880 C.3   1 <1>   0.0140 
  5 O       -2.8090    -3.3050     0.5250 O.3   1 <1>  -0.3630 
  6 C       -2.8930    -4.6500     0.6360 C.ar  1 <1>   0.0830 
  7 C       -4.0520    -5.1560     1.1970 C.ar  1 <1>  -0.1500 
  8 C       -1.8950    -5.5240     0.2180 C.ar  1 <1>  -0.1500 
  9 C       -4.2330    -6.5210     1.3210 C.ar  1 <1>  -0.1500 
 10 C       -2.0750    -6.8910     0.3410 C.ar  1 <1>  -0.1500 
 11 C       -3.2510    -7.3960     0.8800 C.ar  1 <1>  -0.1440 
 12 C       -3.4780    -8.8900     0.9720 C.3   1 <1>   0.4870 
 13 N       -3.6910    -9.4210    -0.4030 N.4   1 <1>  -0.9590 
 14 C       -4.9240    -8.8330    -1.0260 C.3   1 <1>   0.3430 
 15 C       -3.9020   -10.9020    -0.3600 C.3   1 <1>   0.3430 
 16 C       -6.0370    -9.8480    -0.7610 C.3   1 <1>   0.2000 
 17 C       -5.2960   -11.1700    -0.9360 C.3   1 <1>  -0.0800 
 18 O       -6.4390    -9.7350     0.5750 O.3   1 <1>  -0.5600 
 19 C       -5.9810   -12.4070    -0.3230 C.3   1 <1>   0.0200 
 20 C       -7.5510    -8.9170     0.7870 C.3   1 <1>   0.0400 
 21 C       -5.0430   -13.5980    -0.3560 C.2   1 <1>  -0.0400 
 22 O       -4.3860   -13.8790    -1.4500 O.3   1 <1>  -0.0190 
 23 C       -4.6900   -14.4940     0.5780 C.2   1 <1>  -0.1500 
 24 N       -3.6010   -14.9020    -1.2930 N.2   1 <1>  -0.4100 
 25 C       -3.7700   -15.3020    -0.0840 C.2   1 <1>   0.1080 
 26 C       -3.0610   -16.4910     0.5250 C.3   1 <1>  -0.0590 
 27 H       -0.8290    -2.8510     0.3570 H     1 <1>   0.0800 
 28 H       -1.6770    -3.1280    -1.1620 H     1 <1>   0.0800 
 29 H       -4.8050    -4.4620     1.5280 H     1 <1>   0.1500 
 30 H       -0.9800    -5.1490    -0.2010 H     1 <1>   0.1500 
 31 H       -5.1460    -6.8870     1.7620 H     1 <1>   0.1500 
 32 H       -1.2860    -7.5450     0.0120 H     1 <1>   0.1500 
 33 H       -4.3430    -9.0920     1.5850 H     1 <1>   0.0800 
 34 H       -2.6190    -9.3570     1.4250 H     1 <1>   0.0800 
 35 H       -2.8700    -9.1690    -0.9660 H     1 <1>   0.4500 
 36 H       -5.1700    -7.8630    -0.6270 H     1 <1>   0.0800 
 37 H       -4.7780    -8.7440    -2.0900 H     1 <1>   0.0800 
 38 H       -3.1520   -11.4270    -0.9310 H     1 <1>   0.0800 
 39 H       -3.8670   -11.2520     0.6600 H     1 <1>   0.0800 
 40 H       -6.8830    -9.7500    -1.4220 H     1 <1>   0.0800 
 41 H       -5.1740   -11.3480    -1.9900 H     1 <1>   0.0800 
 42 H       -6.8700   -12.6420    -0.8820 H     1 <1>   0.0800 
 43 H       -6.2690   -12.2280     0.6990 H     1 <1>   0.0800 
 44 H       -7.7500    -8.8870     1.8450 H     1 <1>   0.0800 
 45 H       -8.4040    -9.3340     0.2780 H     1 <1>   0.0800 
 46 H       -7.3470    -7.9230     0.4290 H     1 <1>   0.0800 
 47 H       -5.0130   -14.5990     1.5980 H     1 <1>   0.1500 
 48 H       -2.5280   -16.1900     1.4080 H     1 <1>   0.0800 
 49 H       -2.3610   -16.9030    -0.1800 H     1 <1>   0.0800 
 50 H       -3.7770   -17.2490     0.7840 H     1 <1>   0.0800 
@<TRIPOS>BOND
  1   1   2  ar  
  2   2   3  ar  
  3   2   4  1   
  4   4   5  1   
  5   4  27  1   
  6   4  28  1   
  7   5   6  1   
  8   6   7  ar  
  9   6   8  ar  
 10   7   9  ar  
 11   7  29  1   
 12   8  10  ar  
 13   8  30  1   
 14   9  11  ar  
 15   9  31  1   
 16  10  11  ar  
 17  10  32  1   
 18  11  12  1   
 19  12  13  1   
 20  12  33  1   
 21  12  34  1   
 22  13  14  1   
 23  13  15  1   
 24  13  35  1   
 25  14  16  1   
 26  14  36  1   
 27  14  37  1   
 28  15  17  1   
 29  15  38  1   
 30  15  39  1   
 31  16  17  1   
 32  16  18  1   
 33  16  40  1   
 34  17  19  1   
 35  17  41  1   
 36  18  20  1   
 37  19  21  1   
 38  19  42  1   
 39  19  43  1   
 40  20  44  1   
 41  20  45  1   
 42  20  46  1   
 43  21  22  1   
 44  21  23  2   
 45  22  24  1   
 46  23  25  1   
 47  23  47  1   
 48  24  25  2   
 49  25  26  1   
 50  26  48  1   
 51  26  49  1   
 52  26  50  1   
@<TRIPOS>SUBSTRUCTURE
  1 ****  13 GROUP 4 **** **** 0

# MOE 2024.06 (io_trps.svl 2023.06)
