@<TRIPOS>MOLECULE
NONAME
51 53 1 0 0 
SMALL
USER_CHARGES


@<TRIPOS>ATOM
  1 O       -1.2710     1.3560    -2.5330 O.2   1 <1>  -0.5700 
  2 C       -1.9000     1.7710    -1.5770 C.2   1 <1>   0.5440 
  3 N       -2.8020     2.8020    -1.7580 N.am  1 <1>  -0.6600 
  4 C       -1.6790     1.1830    -0.2700 C.ar  1 <1>   0.0860 
  5 C       -3.5840     3.4200    -0.6550 C.3   1 <1>   0.1400 
  6 C       -2.9340     3.5120    -3.0560 C.3   1 <1>   0.1400 
  7 C       -0.6000     1.5550     0.5420 C.ar  1 <1>  -0.1440 
  8 C       -2.5690     0.2270     0.2170 C.ar  1 <1>  -0.1500 
  9 C       -3.0860     4.8500    -0.4340 C.3   1 <1>  -0.1600 
 10 C       -2.4020     4.9370    -2.8870 C.3   1 <1>  -0.1600 
 11 C       -0.4460     0.9920     1.7980 C.ar  1 <1>  -0.1500 
 12 C        0.4190     2.5750     0.0510 C.3   1 <1>  -0.0970 
 13 C       -2.4110    -0.3340     1.4700 C.ar  1 <1>  -0.1500 
 14 C       -3.1120     5.6800    -1.7350 C.3   1 <1>  -0.0190 
 15 C       -1.3470     0.0520     2.2650 C.ar  1 <1>  -0.1500 
 16 C       -2.5150     7.0650    -1.5100 C.2   1 <1>   0.5690 
 17 O       -3.2170     8.0410    -1.6110 O.2   1 <1>  -0.5700 
 18 N       -1.2070     7.1680    -1.1870 N.am  1 <1>  -0.7300 
 19 C       -0.5160     8.4290    -0.8230 C.3   1 <1>   0.3210 
 20 C        0.8410     8.1510    -0.1760 C.2   1 <1>   0.3350 
 21 N        1.3650     6.9960    -0.0230 N.2   1 <1>  -0.4100 
 22 N        1.5990     9.1370     0.2870 N.2   1 <1>  -0.5650 
 23 O        2.5090     7.1690     0.5670 O.3   1 <1>  -0.0190 
 24 C        2.5910     8.4660     0.7280 C.2   1 <1>   0.2980 
 25 C        3.8360     9.0440     1.3860 C.3   1 <1>   0.3000 
 26 O        4.0380     8.4770     2.6500 O.3   1 <1>  -0.5600 
 27 C        5.1440     8.9780     3.3310 C.3   1 <1>   0.0400 
 28 H       -3.4870     2.8580     0.2580 H     1 <1>   0.0800 
 29 H       -4.6250     3.4310    -0.9280 H     1 <1>   0.0800 
 30 H       -3.9700     3.5310    -3.3460 H     1 <1>   0.0800 
 31 H       -2.3810     3.0060    -3.8310 H     1 <1>   0.0800 
 32 H       -3.3940    -0.0750    -0.4040 H     1 <1>   0.1500 
 33 H       -2.0860     4.8040    -0.0410 H     1 <1>   0.0800 
 34 H       -3.7020     5.3280     0.3070 H     1 <1>   0.0800 
 35 H       -2.5440     5.4790    -3.8060 H     1 <1>   0.0800 
 36 H       -1.3440     4.8780    -2.7030 H     1 <1>   0.0800 
 37 H        0.3820     1.2790     2.4240 H     1 <1>   0.1500 
 38 H        0.9080     2.2040    -0.8330 H     1 <1>   0.0800 
 39 H        1.1690     2.7690     0.7960 H     1 <1>   0.0800 
 40 H       -0.0650     3.5030    -0.1910 H     1 <1>   0.0800 
 41 H       -3.1100    -1.0710     1.8270 H     1 <1>   0.1500 
 42 H       -4.1410     5.8160    -2.0180 H     1 <1>   0.0800 
 43 H       -1.2180    -0.3810     3.2420 H     1 <1>   0.1500 
 44 H       -0.6250     6.3330    -1.0740 H     1 <1>   0.3700 
 45 H       -1.1290     8.9870    -0.1370 H     1 <1>   0.0800 
 46 H       -0.3710     9.0220    -1.7080 H     1 <1>   0.0800 
 47 H        3.7210    10.1080     1.5000 H     1 <1>   0.0800 
 48 H        4.6960     8.8340     0.7750 H     1 <1>   0.0800 
 49 H        5.2050     8.4760     4.2810 H     1 <1>   0.0800 
 50 H        5.0180    10.0350     3.4890 H     1 <1>   0.0800 
 51 H        6.0350     8.7800     2.7600 H     1 <1>   0.0800 
@<TRIPOS>BOND
  1   1   2  2   
  2   2   3  am  
  3   2   4  1   
  4   3   5  1   
  5   3   6  1   
  6   4   7  ar  
  7   4   8  ar  
  8   5   9  1   
  9   5  28  1   
 10   5  29  1   
 11   6  10  1   
 12   6  30  1   
 13   6  31  1   
 14   7  11  ar  
 15   7  12  1   
 16   8  13  ar  
 17   8  32  1   
 18   9  14  1   
 19   9  33  1   
 20   9  34  1   
 21  10  14  1   
 22  10  35  1   
 23  10  36  1   
 24  11  15  ar  
 25  11  37  1   
 26  12  38  1   
 27  12  39  1   
 28  12  40  1   
 29  13  15  ar  
 30  13  41  1   
 31  14  16  1   
 32  14  42  1   
 33  15  43  1   
 34  16  17  2   
 35  16  18  am  
 36  18  19  1   
 37  18  44  1   
 38  19  20  1   
 39  19  45  1   
 40  19  46  1   
 41  20  21  2   
 42  20  22  1   
 43  21  23  1   
 44  22  24  2   
 45  23  24  1   
 46  24  25  1   
 47  25  26  1   
 48  25  47  1   
 49  25  48  1   
 50  26  27  1   
 51  27  49  1   
 52  27  50  1   
 53  27  51  1   
@<TRIPOS>SUBSTRUCTURE
  1 ****  12 GROUP 4 **** **** 0

# MOE 2024.06 (io_trps.svl 2023.06)
