@<TRIPOS>MOLECULE
NONAME
55 58 1 0 0 
SMALL
USER_CHARGES


@<TRIPOS>ATOM
  1 N       -1.5970    -0.4690    -0.2290 N.ar  1 <1>  -0.6200 
  2 C       -1.0880     0.2360    -1.2310 C.ar  1 <1>   0.4760 
  3 C       -2.6390     0.0600     0.3790 C.ar  1 <1>   0.1660 
  4 N       -1.5200     1.3980    -1.6870 N.ar  1 <1>  -0.6200 
  5 C        0.1260    -0.3550    -1.9320 C.3   1 <1>  -0.0160 
  6 C       -3.1630     1.2710    -0.0150 C.ar  1 <1>  -0.1500 
  7 C       -3.2480    -0.7150     1.5470 C.3   1 <1>   0.4870 
  8 C       -2.5590     1.9100    -1.0710 C.ar  1 <1>   0.1600 
  9 C        1.4390     0.0080    -1.2230 C.3   1 <1>  -0.2400 
 10 N       -4.1610    -1.8200     1.0950 N.4   1 <1>  -0.9590 
 11 C       -4.9060    -2.4070     2.2420 C.3   1 <1>   0.3430 
 12 C       -3.4190    -2.8640     0.3230 C.3   1 <1>   0.3430 
 13 C       -5.9310    -3.4090     1.7240 C.3   1 <1>  -0.1600 
 14 C       -4.4070    -3.8830    -0.2340 C.3   1 <1>  -0.1600 
 15 C       -5.2800    -4.5040     0.8660 C.3   1 <1>   0.1010 
 16 C       -6.3530    -5.3830     0.2440 C.2   1 <1>   0.1080 
 17 N       -7.2730    -4.9140    -0.5420 N.2   1 <1>  -0.7070 
 18 C       -6.4760    -6.7550     0.4370 C.2   1 <1>  -0.1500 
 19 N       -8.0180    -5.9880    -0.8750 N.pl3 1 <1>   0.3000 
 20 C       -7.5510    -7.1130    -0.2970 C.2   1 <1>  -0.3320 
 21 C       -8.1940    -8.4740    -0.4970 C.3   1 <1>   0.1630 
 22 C       -9.6930    -8.3290    -0.7200 C.ar  1 <1>  -0.1440 
 23 C      -10.5110    -7.9090     0.3180 C.ar  1 <1>  -0.1500 
 24 C      -10.2550    -8.5990    -1.9600 C.ar  1 <1>  -0.1500 
 25 C      -11.8730    -7.7610     0.1210 C.ar  1 <1>  -0.1500 
 26 C      -11.6170    -8.4510    -2.1580 C.ar  1 <1>  -0.1500 
 27 C      -12.4260    -8.0320    -1.1170 C.ar  1 <1>  -0.1500 
 28 H        0.1570     0.0090    -2.9440 H     1 <1>   0.0800 
 29 H        0.0230    -1.4240    -1.9730 H     1 <1>   0.0800 
 30 H       -4.0100     1.7180     0.4710 H     1 <1>   0.1500 
 31 H       -3.7970    -0.0250     2.1640 H     1 <1>   0.0800 
 32 H       -2.4460    -1.1240     2.1390 H     1 <1>   0.0800 
 33 H       -2.9320     2.8600    -1.4180 H     1 <1>   0.1500 
 34 H        1.5580     1.0770    -1.1940 H     1 <1>   0.0800 
 35 H        2.2750    -0.4180    -1.7490 H     1 <1>   0.0800 
 36 H        1.4340    -0.3660    -0.2150 H     1 <1>   0.0800 
 37 H       -4.8450    -1.4150     0.4410 H     1 <1>   0.4500 
 38 H       -5.4160    -1.6310     2.7910 H     1 <1>   0.0800 
 39 H       -4.2210    -2.9040     2.9100 H     1 <1>   0.0800 
 40 H       -2.7030    -3.3560     0.9600 H     1 <1>   0.0800 
 41 H       -2.8860    -2.4150    -0.5000 H     1 <1>   0.0800 
 42 H       -6.6760    -2.8860     1.1480 H     1 <1>   0.0800 
 43 H       -6.4370    -3.8670     2.5560 H     1 <1>   0.0800 
 44 H       -3.8670    -4.6630    -0.7400 H     1 <1>   0.0800 
 45 H       -5.0310    -3.4030    -0.9690 H     1 <1>   0.0800 
 46 H       -4.6600    -5.1180     1.4970 H     1 <1>   0.0800 
 47 H       -5.8410    -7.3760     1.0430 H     1 <1>   0.1500 
 48 H       -8.8520    -5.9320    -1.4760 H     1 <1>   0.2700 
 49 H       -8.0160    -9.0920     0.3650 H     1 <1>   0.0800 
 50 H       -7.7410    -8.9560    -1.3450 H     1 <1>   0.0800 
 51 H      -10.0870    -7.6930     1.2840 H     1 <1>   0.1500 
 52 H       -9.6380    -8.9270    -2.7790 H     1 <1>   0.1500 
 53 H      -12.5010    -7.4340     0.9320 H     1 <1>   0.1500 
 54 H      -12.0470    -8.6640    -3.1210 H     1 <1>   0.1500 
 55 H      -13.4850    -7.9170    -1.2700 H     1 <1>   0.1500 
@<TRIPOS>BOND
  1   1   2  ar  
  2   1   3  ar  
  3   2   4  ar  
  4   2   5  1   
  5   3   6  ar  
  6   3   7  1   
  7   4   8  ar  
  8   5   9  1   
  9   5  28  1   
 10   5  29  1   
 11   6   8  ar  
 12   6  30  1   
 13   7  10  1   
 14   7  31  1   
 15   7  32  1   
 16   8  33  1   
 17   9  34  1   
 18   9  35  1   
 19   9  36  1   
 20  10  11  1   
 21  10  12  1   
 22  10  37  1   
 23  11  13  1   
 24  11  38  1   
 25  11  39  1   
 26  12  14  1   
 27  12  40  1   
 28  12  41  1   
 29  13  15  1   
 30  13  42  1   
 31  13  43  1   
 32  14  15  1   
 33  14  44  1   
 34  14  45  1   
 35  15  16  1   
 36  15  46  1   
 37  16  17  2   
 38  16  18  1   
 39  17  19  1   
 40  18  20  2   
 41  18  47  1   
 42  19  20  1   
 43  19  48  1   
 44  20  21  1   
 45  21  22  1   
 46  21  49  1   
 47  21  50  1   
 48  22  23  ar  
 49  22  24  ar  
 50  23  25  ar  
 51  23  51  1   
 52  24  26  ar  
 53  24  52  1   
 54  25  27  ar  
 55  25  53  1   
 56  26  27  ar  
 57  26  54  1   
 58  27  55  1   
@<TRIPOS>SUBSTRUCTURE
  1 ****  14 GROUP 4 **** **** 0

# MOE 2024.06 (io_trps.svl 2023.06)
