@<TRIPOS>MOLECULE
NONAME
46 49 1 0 0 
SMALL
USER_CHARGES


@<TRIPOS>ATOM
  1 O       -1.0960     0.2770     2.4800 O.2   1 <1>  -0.5700 
  2 C       -1.4530     0.8930     1.4930 C.2   1 <1>   0.5440 
  3 N       -2.0710     0.1950     0.4810 N.am  1 <1>  -0.6600 
  4 C       -1.2840     2.3300     1.4460 C.ar  1 <1>   0.0860 
  5 C       -2.8330     0.7940    -0.6420 C.3   1 <1>   0.1400 
  6 C       -2.2550    -1.2780     0.4970 C.3   1 <1>   0.1400 
  7 C       -0.5760     2.9790     0.4300 C.ar  1 <1>   0.0830 
  8 C       -1.8500     3.1190     2.4500 C.ar  1 <1>  -0.1500 
  9 C       -3.9070    -0.2460    -0.9520 C.3   1 <1>   0.2000 
 10 C       -3.1990    -1.5760    -0.6750 C.3   1 <1>  -0.0800 
 11 O       -0.0040     2.2500    -0.5640 O.3   1 <1>  -0.3630 
 12 C       -0.4500     4.3710     0.4340 C.ar  1 <1>   0.0830 
 13 C       -1.7380     4.4970     2.4450 C.ar  1 <1>  -0.1500 
 14 O       -4.9400    -0.0730    -0.0420 O.3   1 <1>  -0.6800 
 15 C       -4.1230    -2.7830    -0.4360 C.3   1 <1>   0.0210 
 16 C        0.4930     2.9260    -1.7020 C.3   1 <1>   0.1200 
 17 O        0.2570     5.0180    -0.5270 O.3   1 <1>  -0.3630 
 18 C       -1.0370     5.1260     1.4310 C.ar  1 <1>  -0.1500 
 19 C       -3.3120    -4.0400    -0.1920 C.2   1 <1>   0.1080 
 20 C        1.1610     4.2420    -1.2870 C.3   1 <1>   0.1200 
 21 N       -2.5480    -4.5710    -1.0960 N.2   1 <1>  -0.7070 
 22 C       -3.2810    -4.7490     1.0050 C.2   1 <1>  -0.1500 
 23 N       -2.0050    -5.6450    -0.4930 N.pl3 1 <1>   0.3000 
 24 C       -2.4320    -5.7740     0.7800 C.2   1 <1>  -0.3320 
 25 C       -1.9960    -6.8830     1.7190 C.3   1 <1>  -0.0600 
 26 H       -3.2600     1.7480    -0.3850 H     1 <1>   0.0800 
 27 H       -2.1750     0.9060    -1.4860 H     1 <1>   0.0800 
 28 H       -1.3090    -1.7800     0.3760 H     1 <1>   0.0800 
 29 H       -2.6930    -1.5710     1.4360 H     1 <1>   0.0800 
 30 H       -2.3850     2.6300     3.2460 H     1 <1>   0.1500 
 31 H       -4.3050    -0.1680    -1.9490 H     1 <1>   0.0800 
 32 H       -2.5810    -1.7990    -1.5280 H     1 <1>   0.0800 
 33 H       -2.1890     5.0810     3.2290 H     1 <1>   0.1500 
 34 H       -4.5470    -0.0070     0.8530 H     1 <1>   0.4000 
 35 H       -4.7440    -2.9370    -1.2990 H     1 <1>   0.0800 
 36 H       -4.7640    -2.6090     0.4090 H     1 <1>   0.0800 
 37 H        1.1970     2.2780    -2.1920 H     1 <1>   0.0800 
 38 H       -0.3320     3.1190    -2.3640 H     1 <1>   0.0800 
 39 H       -0.9380     6.1970     1.4140 H     1 <1>   0.1500 
 40 H        1.4500     4.8150    -2.1490 H     1 <1>   0.0800 
 41 H        2.0290     4.0480    -0.6820 H     1 <1>   0.0800 
 42 H       -3.8250    -4.5060     1.9000 H     1 <1>   0.1500 
 43 H       -1.3460    -6.2670    -0.9770 H     1 <1>   0.2700 
 44 H       -2.4740    -6.7660     2.6760 H     1 <1>   0.0800 
 45 H       -0.9310    -6.8510     1.8630 H     1 <1>   0.0800 
 46 H       -2.2690    -7.8420     1.3150 H     1 <1>   0.0800 
@<TRIPOS>BOND
  1   1   2  2   
  2   2   3  am  
  3   2   4  1   
  4   3   5  1   
  5   3   6  1   
  6   4   7  ar  
  7   4   8  ar  
  8   5   9  1   
  9   5  26  1   
 10   5  27  1   
 11   6  10  1   
 12   6  28  1   
 13   6  29  1   
 14   7  11  1   
 15   7  12  ar  
 16   8  13  ar  
 17   8  30  1   
 18   9  10  1   
 19   9  14  1   
 20   9  31  1   
 21  10  15  1   
 22  10  32  1   
 23  11  16  1   
 24  12  17  1   
 25  12  18  ar  
 26  13  18  ar  
 27  13  33  1   
 28  14  34  1   
 29  15  19  1   
 30  15  35  1   
 31  15  36  1   
 32  16  20  1   
 33  16  37  1   
 34  16  38  1   
 35  17  20  1   
 36  18  39  1   
 37  19  21  2   
 38  19  22  1   
 39  20  40  1   
 40  20  41  1   
 41  21  23  1   
 42  22  24  2   
 43  22  42  1   
 44  23  24  1   
 45  23  43  1   
 46  24  25  1   
 47  25  44  1   
 48  25  45  1   
 49  25  46  1   
@<TRIPOS>SUBSTRUCTURE
  1 ****   3 GROUP 4 **** **** 0

# MOE 2024.06 (io_trps.svl 2023.06)
