@<TRIPOS>MOLECULE
NONAME
44 46 1 0 0 
SMALL
USER_CHARGES


@<TRIPOS>ATOM
  1 O       -0.6760    -1.0820     0.6240 O.2   1 <1>  -0.5700 
  2 C        0.1550    -1.9440     0.4770 C.2   1 <1>   0.5690 
  3 N        0.0790    -2.9060    -0.4940 N.am  1 <1>  -0.6600 
  4 C        1.3460    -1.9840     1.4120 C.3   1 <1>  -0.0990 
  5 C        1.1380    -3.9400    -0.6110 C.3   1 <1>   0.1400 
  6 C       -1.0570    -2.9950    -1.4480 C.3   1 <1>   0.0600 
  7 C        2.6440    -2.2050     0.6180 C.3   1 <1>  -0.0800 
  8 C        2.5300    -3.2950    -0.4750 C.3   1 <1>  -0.0800 
  9 C        3.8330    -2.5960     1.5030 C.3   1 <1>  -0.1600 
 10 C        3.6350    -4.3160    -0.1670 C.3   1 <1>  -0.1600 
 11 C        4.6700    -3.5160     0.6220 C.3   1 <1>   0.2200 
 12 N        5.6330    -4.3410     1.4090 N.am  1 <1>  -0.6600 
 13 C        7.0000    -4.1000     1.3740 C.2   1 <1>   0.7160 
 14 C        5.1020    -5.5050     2.1820 C.3   1 <1>   0.0600 
 15 O        7.7440    -5.0110     1.6980 O.2   1 <1>  -0.5700 
 16 C        7.6040    -2.8380     0.9620 C.2   1 <1>   0.1410 
 17 N        7.0210    -1.5970     0.9870 N.2   1 <1>  -0.5650 
 18 C        8.8610    -2.6700     0.4980 C.2   1 <1>  -0.0100 
 19 C        7.9310    -0.8130     0.5360 C.2   1 <1>   0.2980 
 20 O        9.0570    -1.4140     0.2320 O.3   1 <1>  -0.2800 
 21 C        7.8260     0.6990     0.3430 C.3   1 <1>   0.2900 
 22 N        8.0170     1.1000    -1.0590 N.3   1 <1>  -0.9900 
 23 H        1.4030    -1.0630     1.9630 H     1 <1>   0.0800 
 24 H        1.1860    -2.7850     2.1090 H     1 <1>   0.0800 
 25 H        0.9850    -4.6650     0.1710 H     1 <1>   0.0800 
 26 H        1.0640    -4.4440    -1.5590 H     1 <1>   0.0800 
 27 H       -1.5470    -3.9470    -1.3450 H     1 <1>   0.0800 
 28 H       -0.6960    -2.8850    -2.4560 H     1 <1>   0.0800 
 29 H       -1.7750    -2.2160    -1.2540 H     1 <1>   0.0800 
 30 H        2.8850    -1.2800     0.1200 H     1 <1>   0.0800 
 31 H        2.7640    -2.8300    -1.4190 H     1 <1>   0.0800 
 32 H        3.4920    -3.1290     2.3720 H     1 <1>   0.0800 
 33 H        4.3920    -1.7310     1.8130 H     1 <1>   0.0800 
 34 H        4.0590    -4.7250    -1.0670 H     1 <1>   0.0800 
 35 H        3.2250    -5.1070     0.4320 H     1 <1>   0.0800 
 36 H        5.2020    -2.9120    -0.0930 H     1 <1>   0.0800 
 37 H        4.9800    -6.3490     1.5260 H     1 <1>   0.0800 
 38 H        4.1570    -5.2620     2.6320 H     1 <1>   0.0800 
 39 H        5.7870    -5.7780     2.9670 H     1 <1>   0.0800 
 40 H        9.6460    -3.3880     0.3380 H     1 <1>   0.1500 
 41 H        8.5740     1.1690     0.9560 H     1 <1>   0.0800 
 42 H        6.8570     1.0280     0.6770 H     1 <1>   0.0800 
 43 H        8.8720     0.6470    -1.4060 H     1 <1>   0.3600 
 44 H        8.1620     2.1140    -1.1090 H     1 <1>   0.3600 
@<TRIPOS>BOND
  1   1   2  2   
  2   2   3  am  
  3   2   4  1   
  4   3   5  1   
  5   3   6  1   
  6   4   7  1   
  7   4  23  1   
  8   4  24  1   
  9   5   8  1   
 10   5  25  1   
 11   5  26  1   
 12   6  27  1   
 13   6  28  1   
 14   6  29  1   
 15   7   8  1   
 16   7   9  1   
 17   7  30  1   
 18   8  10  1   
 19   8  31  1   
 20   9  11  1   
 21   9  32  1   
 22   9  33  1   
 23  10  11  1   
 24  10  34  1   
 25  10  35  1   
 26  11  12  1   
 27  11  36  1   
 28  12  13  am  
 29  12  14  1   
 30  13  15  2   
 31  13  16  1   
 32  14  37  1   
 33  14  38  1   
 34  14  39  1   
 35  16  17  1   
 36  16  18  2   
 37  17  19  2   
 38  18  20  1   
 39  18  40  1   
 40  19  20  1   
 41  19  21  1   
 42  21  22  1   
 43  21  41  1   
 44  21  42  1   
 45  22  43  1   
 46  22  44  1   
@<TRIPOS>SUBSTRUCTURE
  1 ****  11 GROUP 4 **** **** 0

# MOE 2024.06 (io_trps.svl 2023.06)
