@<TRIPOS>MOLECULE
NONAME
44 45 1 0 0 
SMALL
USER_CHARGES


@<TRIPOS>ATOM
  1 S        0.2370     0.2430    -0.7050 S.o2  1 <1>   1.3330 
  2 O        0.0570    -0.9070     0.1540 O.2   1 <1>  -0.6500 
  3 O       -0.5310     0.3480    -1.9240 O.2   1 <1>  -0.6500 
  4 N       -0.0770     1.6330     0.2180 N.am  1 <1>  -0.8490 
  5 C        1.9820     0.3690    -1.0990 C.3   1 <1>  -0.0550 
  6 C       -1.3500     1.5300     0.9350 C.3   1 <1>   0.1160 
  7 C       -0.0430     2.8750    -0.5640 C.3   1 <1>   0.1160 
  8 C        2.8910     0.5300     0.1330 C.3   1 <1>  -0.0800 
  9 C        4.3220     0.8850    -0.2630 C.3   1 <1>   0.2200 
 10 C        3.0400    -0.7400     0.9740 C.3   1 <1>   0.1200 
 11 N        4.6700     2.2020     0.3120 N.am  1 <1>  -0.7300 
 12 C        5.1560    -0.2350     0.3550 C.3   1 <1>   0.1200 
 13 O        4.3720    -0.7610     1.3750 O.3   1 <1>  -0.5600 
 14 C        4.2760     3.3970    -0.2160 C.2   1 <1>   0.7160 
 15 O        3.6730     3.3840    -1.2740 O.2   1 <1>  -0.5700 
 16 C        4.5520     4.6270     0.4860 C.2   1 <1>  -0.0860 
 17 C        4.6920     5.9180     0.0590 C.2   1 <1>  -0.3320 
 18 C        4.7370     4.7340     1.8680 C.2   1 <1>   0.1390 
 19 N        4.9390     6.6790     1.1410 N.pl3 1 <1>   0.3140 
 20 C        4.6030     6.4680    -1.3590 C.3   1 <1>  -0.0600 
 21 N        4.9690     5.9430     2.2610 N.2   1 <1>  -0.7070 
 22 C        5.1570     8.1310     1.1860 C.3   1 <1>   0.0160 
 23 H        2.2820    -0.4960    -1.6570 H     1 <1>   0.0800 
 24 H        2.1220     1.2220    -1.7350 H     1 <1>   0.0800 
 25 H       -1.5090     2.4060     1.5400 H     1 <1>   0.0800 
 26 H       -1.3380     0.6700     1.5840 H     1 <1>   0.0800 
 27 H       -2.1650     1.4260     0.2380 H     1 <1>   0.0800 
 28 H       -0.2100     3.7210     0.0800 H     1 <1>   0.0800 
 29 H       -0.8020     2.8620    -1.3290 H     1 <1>   0.0800 
 30 H        0.9200     2.9990    -1.0300 H     1 <1>   0.0800 
 31 H        2.4860     1.2980     0.7690 H     1 <1>   0.0800 
 32 H        4.4660     0.9100    -1.3310 H     1 <1>   0.0800 
 33 H        2.8520    -1.6300     0.3960 H     1 <1>   0.0800 
 34 H        2.4070    -0.7320     1.8450 H     1 <1>   0.0800 
 35 H        5.0780     2.1750     1.2460 H     1 <1>   0.3700 
 36 H        6.0920     0.1080     0.7590 H     1 <1>   0.0800 
 37 H        5.3280    -1.0200    -0.3610 H     1 <1>   0.0800 
 38 H        4.6870     3.9040     2.5510 H     1 <1>   0.1500 
 39 H        4.4670     5.6760    -2.0720 H     1 <1>   0.0800 
 40 H        5.5060     6.9940    -1.6110 H     1 <1>   0.0800 
 41 H        3.7700     7.1430    -1.4420 H     1 <1>   0.0800 
 42 H        4.3200     8.6280     0.7340 H     1 <1>   0.0800 
 43 H        6.0590     8.3680     0.6560 H     1 <1>   0.0800 
 44 H        5.2490     8.4410     2.2110 H     1 <1>   0.0800 
@<TRIPOS>BOND
  1   1   2  2   
  2   1   3  2   
  3   1   4  am  
  4   1   5  1   
  5   4   6  1   
  6   4   7  1   
  7   5   8  1   
  8   5  23  1   
  9   5  24  1   
 10   6  25  1   
 11   6  26  1   
 12   6  27  1   
 13   7  28  1   
 14   7  29  1   
 15   7  30  1   
 16   8   9  1   
 17   8  10  1   
 18   8  31  1   
 19   9  11  1   
 20   9  12  1   
 21   9  32  1   
 22  10  13  1   
 23  10  33  1   
 24  10  34  1   
 25  11  14  am  
 26  11  35  1   
 27  12  13  1   
 28  12  36  1   
 29  12  37  1   
 30  14  15  2   
 31  14  16  1   
 32  16  17  2   
 33  16  18  1   
 34  17  19  1   
 35  17  20  1   
 36  18  21  2   
 37  18  38  1   
 38  19  21  1   
 39  19  22  1   
 40  20  39  1   
 41  20  40  1   
 42  20  41  1   
 43  22  42  1   
 44  22  43  1   
 45  22  44  1   
@<TRIPOS>SUBSTRUCTURE
  1 ****  14 GROUP 4 **** **** 0

# MOE 2024.06 (io_trps.svl 2023.06)
