@<TRIPOS>MOLECULE
NONAME
53 57 1 0 0 
SMALL
USER_CHARGES


@<TRIPOS>ATOM
  1 O       -0.6330     0.4380     1.5830 O.2   1 <1>  -0.5700 
  2 C       -1.5620     1.0520     1.0920 C.2   1 <1>   0.5440 
  3 N       -2.6640     0.3420     0.6680 N.am  1 <1>  -0.6600 
  4 C       -1.4810     2.4900     0.9390 C.ar  1 <1>   0.0860 
  5 C       -3.6380     0.8360    -0.3430 C.3   1 <1>   0.1400 
  6 C       -2.7470    -1.1380     0.7750 C.3   1 <1>   0.1400 
  7 C       -0.3900     3.0810     0.3210 C.ar  1 <1>  -0.1500 
  8 C       -2.5110     3.3310     1.4140 C.ar  1 <1>  -0.1500 
  9 C       -4.5940    -0.3350    -0.5580 C.3   1 <1>   0.2000 
 10 C       -3.7140    -1.5690    -0.3330 C.3   1 <1>  -0.0800 
 11 C       -0.3390     4.4640     0.1540 C.ar  1 <1>  -0.1520 
 12 C       -2.4680     4.6950     1.2530 C.ar  1 <1>  -0.1500 
 13 O       -5.5710    -0.2780     0.4250 O.3   1 <1>  -0.6800 
 14 C       -4.4820    -2.8680    -0.0230 C.3   1 <1>   0.0200 
 15 N        0.6180     5.2630    -0.4240 N.pl3 1 <1>   0.0330 
 16 C       -1.3730     5.2780     0.6080 C.ar  1 <1>   0.0000 
 17 C       -3.5820    -4.0900     0.0540 C.2   1 <1>  -0.0400 
 18 C        0.1920     6.5570    -0.3390 C.2   1 <1>  -0.3320 
 19 C       -1.0110     6.5980     0.2750 C.2   1 <1>  -0.1810 
 20 O       -4.1030    -5.2270     0.4340 O.3   1 <1>  -0.0190 
 21 C       -2.2800    -4.3030    -0.1970 C.2   1 <1>  -0.1500 
 22 C        0.9460     7.7660    -0.8580 C.3   1 <1>   0.0200 
 23 C       -1.7850     7.8740     0.5380 C.3   1 <1>   0.0210 
 24 N       -3.2220    -6.1840     0.4560 N.2   1 <1>  -0.4100 
 25 C       -2.1130    -5.6570     0.0810 C.2   1 <1>   0.1080 
 26 C        0.3300     9.0540    -0.2800 C.3   1 <1>  -0.1600 
 27 C       -1.2120     9.0270    -0.3100 C.3   1 <1>  -0.1600 
 28 C       -0.8090    -6.4130    -0.0390 C.3   1 <1>  -0.0590 
 29 H       -4.1620     1.7140    -0.0100 H     1 <1>   0.0800 
 30 H       -3.1120     1.0550    -1.2560 H     1 <1>   0.0800 
 31 H       -1.7760    -1.5870     0.6510 H     1 <1>   0.0800 
 32 H       -3.1320    -1.3950     1.7470 H     1 <1>   0.0800 
 33 H        0.4210     2.4680    -0.0290 H     1 <1>   0.1500 
 34 H       -3.3440     2.8780     1.9200 H     1 <1>   0.1500 
 35 H       -5.0760    -0.3190    -1.5220 H     1 <1>   0.0800 
 36 H       -3.1380    -1.7200    -1.2290 H     1 <1>   0.0800 
 37 H       -3.2560     5.3300     1.6150 H     1 <1>   0.1500 
 38 H       -5.1360    -0.1420     1.2910 H     1 <1>   0.4000 
 39 H       -5.2190    -3.0370    -0.7880 H     1 <1>   0.0800 
 40 H       -5.0040    -2.7730     0.9130 H     1 <1>   0.0800 
 41 H        1.4970     4.9350    -0.8340 H     1 <1>   0.2700 
 42 H       -1.5130    -3.6310    -0.5310 H     1 <1>   0.1500 
 43 H        1.9840     7.7070    -0.5790 H     1 <1>   0.0800 
 44 H        0.8800     7.7820    -1.9310 H     1 <1>   0.0800 
 45 H       -2.8230     7.7280     0.3000 H     1 <1>   0.0800 
 46 H       -1.7040     8.1140     1.5830 H     1 <1>   0.0800 
 47 H        0.6530     9.1630     0.7410 H     1 <1>   0.0800 
 48 H        0.6920     9.9030    -0.8330 H     1 <1>   0.0800 
 49 H       -1.5360     8.9010    -1.3280 H     1 <1>   0.0800 
 50 H       -1.6030     9.9630     0.0500 H     1 <1>   0.0800 
 51 H       -0.4520    -6.3670    -1.0520 H     1 <1>   0.0800 
 52 H       -0.9550    -7.4420     0.2320 H     1 <1>   0.0800 
 53 H       -0.0760    -5.9810     0.6160 H     1 <1>   0.0800 
@<TRIPOS>BOND
  1   1   2  2   
  2   2   3  am  
  3   2   4  1   
  4   3   5  1   
  5   3   6  1   
  6   4   7  ar  
  7   4   8  ar  
  8   5   9  1   
  9   5  29  1   
 10   5  30  1   
 11   6  10  1   
 12   6  31  1   
 13   6  32  1   
 14   7  11  ar  
 15   7  33  1   
 16   8  12  ar  
 17   8  34  1   
 18   9  10  1   
 19   9  13  1   
 20   9  35  1   
 21  10  14  1   
 22  10  36  1   
 23  11  15  1   
 24  11  16  ar  
 25  12  16  ar  
 26  12  37  1   
 27  13  38  1   
 28  14  17  1   
 29  14  39  1   
 30  14  40  1   
 31  15  18  1   
 32  15  41  1   
 33  16  19  1   
 34  17  20  1   
 35  17  21  2   
 36  18  19  2   
 37  18  22  1   
 38  19  23  1   
 39  20  24  1   
 40  21  25  1   
 41  21  42  1   
 42  22  26  1   
 43  22  43  1   
 44  22  44  1   
 45  23  27  1   
 46  23  45  1   
 47  23  46  1   
 48  24  25  2   
 49  25  28  1   
 50  26  27  1   
 51  26  47  1   
 52  26  48  1   
 53  27  49  1   
 54  27  50  1   
 55  28  51  1   
 56  28  52  1   
 57  28  53  1   
@<TRIPOS>SUBSTRUCTURE
  1 ****   2 GROUP 4 **** **** 0

# MOE 2024.06 (io_trps.svl 2023.06)
