@<TRIPOS>MOLECULE
NONAME
47 50 1 0 0 
SMALL
USER_CHARGES


@<TRIPOS>ATOM
  1 S        1.5190     0.6700     2.0640 S.3   1 <1>   0.1810 
  2 N        2.6230     1.4670     1.0050 N.2   1 <1>  -0.5100 
  3 C        1.5590    -0.8560     1.2010 C.ar  1 <1>   0.0400 
  4 C        2.9780     0.6320     0.0990 C.2   1 <1>   0.3720 
  5 C        2.4070    -0.6960     0.1310 C.ar  1 <1>   0.0000 
  6 C        0.8830    -2.0280     1.4860 C.ar  1 <1>  -0.1500 
  7 N        3.9030     0.9750    -0.8810 N.pl3 1 <1>  -0.8210 
  8 C        2.5720    -1.7830    -0.7270 C.ar  1 <1>  -0.1500 
  9 C        1.0700    -3.1000     0.6310 C.ar  1 <1>  -0.1500 
 10 C        3.9790     2.4160    -1.3040 C.3   1 <1>   0.2090 
 11 C        5.2540     0.3380    -0.7710 C.3   1 <1>   0.2090 
 12 C        1.9100    -2.9740    -0.4730 C.ar  1 <1>  -0.1500 
 13 C        4.9860     3.2350    -0.4710 C.3   1 <1>   0.2090 
 14 C        6.2270     1.1740     0.0830 C.3   1 <1>   0.2090 
 15 N        6.3290     2.5730    -0.4250 N.pl3 1 <1>  -0.8380 
 16 C        7.4490     3.3190    -0.1360 C.ar  1 <1>   0.4100 
 17 N        7.2760     4.4480     0.5420 N.ar  1 <1>  -0.6200 
 18 C        8.7050     2.8830    -0.5500 C.ar  1 <1>  -0.1500 
 19 C        8.3670     5.1400     0.8190 C.ar  1 <1>   0.1600 
 20 C        9.8290     3.6170    -0.2560 C.ar  1 <1>  -0.1500 
 21 C        9.6700     4.8040     0.4560 C.ar  1 <1>   0.0860 
 22 C       10.7750     5.6630     0.8120 C.2   1 <1>   0.5440 
 23 O       10.6680     6.4620     1.7230 O.2   1 <1>  -0.5700 
 24 N       11.9580     5.6120     0.1270 N.am  1 <1>  -0.7300 
 25 C       13.1500     6.4290     0.4290 C.3   1 <1>   0.1400 
 26 C       14.3940     5.5880     0.1710 C.3   1 <1>  -0.2400 
 27 H        0.2340    -2.0970     2.3410 H     1 <1>   0.1500 
 28 H        3.2110    -1.6810    -1.5850 H     1 <1>   0.1500 
 29 H        0.5640    -4.0320     0.8140 H     1 <1>   0.1500 
 30 H        3.0050     2.8670    -1.2240 H     1 <1>   0.0800 
 31 H        4.2720     2.4580    -2.3380 H     1 <1>   0.0800 
 32 H        5.6660     0.2220    -1.7580 H     1 <1>   0.0800 
 33 H        5.1610    -0.6400    -0.3350 H     1 <1>   0.0800 
 34 H        2.0420    -3.8110    -1.1360 H     1 <1>   0.1500 
 35 H        4.6100     3.3460     0.5310 H     1 <1>   0.0800 
 36 H        5.0800     4.2170    -0.8990 H     1 <1>   0.0800 
 37 H        7.1950     0.7060     0.0830 H     1 <1>   0.0800 
 38 H        5.8690     1.1960     1.0980 H     1 <1>   0.0800 
 39 H        8.7750     1.9690    -1.1060 H     1 <1>   0.1500 
 40 H        8.2260     6.0510     1.3770 H     1 <1>   0.1500 
 41 H       10.8010     3.2780    -0.5630 H     1 <1>   0.1500 
 42 H       12.0210     5.0550    -0.7240 H     1 <1>   0.3700 
 43 H       13.1260     6.7460     1.4590 H     1 <1>   0.0800 
 44 H       13.1510     7.3040    -0.1980 H     1 <1>   0.0800 
 45 H       14.3890     4.7160     0.8000 H     1 <1>   0.0800 
 46 H       15.2710     6.1660     0.3990 H     1 <1>   0.0800 
 47 H       14.4420     5.2910    -0.8610 H     1 <1>   0.0800 
@<TRIPOS>BOND
  1   1   2  1   
  2   1   3  1   
  3   2   4  2   
  4   3   5  ar  
  5   3   6  ar  
  6   4   5  1   
  7   4   7  1   
  8   5   8  ar  
  9   6   9  ar  
 10   6  27  1   
 11   7  10  1   
 12   7  11  1   
 13   8  12  ar  
 14   8  28  1   
 15   9  12  ar  
 16   9  29  1   
 17  10  13  1   
 18  10  30  1   
 19  10  31  1   
 20  11  14  1   
 21  11  32  1   
 22  11  33  1   
 23  12  34  1   
 24  13  15  1   
 25  13  35  1   
 26  13  36  1   
 27  14  15  1   
 28  14  37  1   
 29  14  38  1   
 30  15  16  1   
 31  16  17  ar  
 32  16  18  ar  
 33  17  19  ar  
 34  18  20  ar  
 35  18  39  1   
 36  19  21  ar  
 37  19  40  1   
 38  20  21  ar  
 39  20  41  1   
 40  21  22  1   
 41  22  23  2   
 42  22  24  am  
 43  24  25  1   
 44  24  42  1   
 45  25  26  1   
 46  25  43  1   
 47  25  44  1   
 48  26  45  1   
 49  26  46  1   
 50  26  47  1   
@<TRIPOS>SUBSTRUCTURE
  1 ****  15 GROUP 4 **** **** 0

# MOE 2024.06 (io_trps.svl 2023.06)
