@<TRIPOS>MOLECULE
NONAME
54 56 1 0 0 
SMALL
USER_CHARGES


@<TRIPOS>ATOM
  1 O       -3.5530    -0.7150     2.1710 O.3   1 <1>  -0.6800 
  2 C       -2.9500     0.2250     1.3810 C.3   1 <1>   0.2800 
  3 C       -4.0440     0.8670     0.5180 C.3   1 <1>  -0.1600 
  4 C       -1.8920    -0.5040     0.5520 C.3   1 <1>  -0.2400 
  5 C       -2.3020     1.2470     2.3120 C.3   1 <1>  -0.2400 
  6 C       -4.9500    -0.1890    -0.1190 C.3   1 <1>   0.3430 
  7 N       -5.9160     0.4340    -1.0690 N.4   1 <1>  -0.9590 
  8 C       -6.9560     1.2570    -0.3530 C.3   1 <1>   0.3430 
  9 C       -6.5690    -0.6210    -1.8960 C.3   1 <1>   0.3430 
 10 C       -7.9010     1.9680    -1.3370 C.3   1 <1>   0.1430 
 11 C       -7.4800     0.0260    -2.9440 C.3   1 <1>  -0.1600 
 12 C       -8.9770     2.6740    -0.5490 C.ar  1 <1>   0.1670 
 13 C       -8.5360     0.9440    -2.3020 C.3   1 <1>  -0.1600 
 14 C       -7.2190     3.1400    -2.0960 C.3   1 <1>  -0.1600 
 15 N       -9.6520     2.1310     0.4310 N.ar  1 <1>  -0.6200 
 16 C       -9.1580     3.9540    -0.9720 C.ar  1 <1>  -0.1430 
 17 C       -8.2290     4.3050    -2.1060 C.3   1 <1>  -0.0170 
 18 C      -10.5670     2.9290     0.9920 C.ar  1 <1>   0.7200 
 19 C      -10.1130     4.7020    -0.3320 C.ar  1 <1>   0.1600 
 20 N      -10.8210     4.1960     0.6500 N.ar  1 <1>  -0.6200 
 21 N      -11.3200     2.3940     2.0190 N.pl3 1 <1>  -0.8380 
 22 C      -10.9710     1.1180     2.7010 C.3   1 <1>   0.1290 
 23 C      -12.5530     3.0670     2.5170 C.3   1 <1>   0.1290 
 24 H       -2.9020    -1.0630     2.8140 H     1 <1>   0.4000 
 25 H       -3.5770     1.4670    -0.2420 H     1 <1>   0.0800 
 26 H       -4.6300     1.5120     1.1470 H     1 <1>   0.0800 
 27 H       -2.3260    -1.2930    -0.0330 H     1 <1>   0.0800 
 28 H       -1.1380    -0.9270     1.1920 H     1 <1>   0.0800 
 29 H       -1.4060     0.1860    -0.1140 H     1 <1>   0.0800 
 30 H       -3.0400     1.7050     2.9480 H     1 <1>   0.0800 
 31 H       -1.8280     2.0220     1.7370 H     1 <1>   0.0800 
 32 H       -1.5510     0.7840     2.9270 H     1 <1>   0.0800 
 33 H       -5.4780    -0.7230     0.6560 H     1 <1>   0.0800 
 34 H       -4.3350    -0.9000    -0.6460 H     1 <1>   0.0800 
 35 H       -5.3940     1.0520    -1.7010 H     1 <1>   0.4500 
 36 H       -6.4870     1.9990     0.2720 H     1 <1>   0.0800 
 37 H       -7.5460     0.6190     0.2850 H     1 <1>   0.0800 
 38 H       -7.1560    -1.2680    -1.2620 H     1 <1>   0.0800 
 39 H       -5.8220    -1.2210    -2.3910 H     1 <1>   0.0800 
 40 H       -7.9820    -0.7520    -3.4940 H     1 <1>   0.0800 
 41 H       -6.8810     0.5740    -3.6490 H     1 <1>   0.0800 
 42 H       -9.1000     1.4530    -3.0650 H     1 <1>   0.0800 
 43 H       -9.2320     0.3350    -1.7480 H     1 <1>   0.0800 
 44 H       -6.9220     2.8800    -3.0970 H     1 <1>   0.0800 
 45 H       -6.3480     3.4650    -1.5540 H     1 <1>   0.0800 
 46 H       -8.7810     4.3270    -3.0300 H     1 <1>   0.0800 
 47 H       -7.7460     5.2540    -1.9480 H     1 <1>   0.0800 
 48 H      -10.3010     5.7210    -0.6250 H     1 <1>   0.1500 
 49 H       -9.9160     0.9200     2.6220 H     1 <1>   0.0800 
 50 H      -11.5160     0.3080     2.2490 H     1 <1>   0.0800 
 51 H      -11.2250     1.1780     3.7450 H     1 <1>   0.0800 
 52 H      -13.0350     3.6100     1.7220 H     1 <1>   0.0800 
 53 H      -12.2940     3.7550     3.3030 H     1 <1>   0.0800 
 54 H      -13.2470     2.3390     2.8960 H     1 <1>   0.0800 
@<TRIPOS>BOND
  1   1   2  1   
  2   1  24  1   
  3   2   3  1   
  4   2   4  1   
  5   2   5  1   
  6   3   6  1   
  7   3  25  1   
  8   3  26  1   
  9   4  27  1   
 10   4  28  1   
 11   4  29  1   
 12   5  30  1   
 13   5  31  1   
 14   5  32  1   
 15   6   7  1   
 16   6  33  1   
 17   6  34  1   
 18   7   8  1   
 19   7   9  1   
 20   7  35  1   
 21   8  10  1   
 22   8  36  1   
 23   8  37  1   
 24   9  11  1   
 25   9  38  1   
 26   9  39  1   
 27  10  12  1   
 28  10  13  1   
 29  10  14  1   
 30  11  13  1   
 31  11  40  1   
 32  11  41  1   
 33  12  15  ar  
 34  12  16  ar  
 35  13  42  1   
 36  13  43  1   
 37  14  17  1   
 38  14  44  1   
 39  14  45  1   
 40  15  18  ar  
 41  16  17  1   
 42  16  19  ar  
 43  17  46  1   
 44  17  47  1   
 45  18  20  ar  
 46  18  21  1   
 47  19  20  ar  
 48  19  48  1   
 49  21  22  1   
 50  21  23  1   
 51  22  49  1   
 52  22  50  1   
 53  22  51  1   
 54  23  52  1   
 55  23  53  1   
 56  23  54  1   
@<TRIPOS>SUBSTRUCTURE
  1 ****   8 GROUP 4 **** **** 0

# MOE 2024.06 (io_trps.svl 2023.06)
