@<TRIPOS>MOLECULE
NONAME
44 46 1 0 0 
SMALL
USER_CHARGES


@<TRIPOS>ATOM
  1 F       -0.3900    -0.5250     0.3580 F     1 <1>  -0.1900 
  2 C       -0.2980    -1.8270     0.3900 C.ar  1 <1>   0.1900 
  3 C       -0.5840    -2.4860     1.5700 C.ar  1 <1>  -0.1500 
  4 C        0.0810    -2.4980    -0.7560 C.ar  1 <1>  -0.1500 
  5 C       -0.4850    -3.8670     1.5980 C.ar  1 <1>  -0.1500 
  6 C        0.1760    -3.8790    -0.7150 C.ar  1 <1>  -0.1500 
  7 C       -0.1060    -4.5660     0.4590 C.ar  1 <1>  -0.1430 
  8 C       -0.0060    -6.0830     0.4950 C.3   1 <1>  -0.0160 
  9 C       -1.3510    -6.7170     0.1110 C.3   1 <1>  -0.0990 
 10 C       -1.3360    -8.2380     0.1140 C.2   1 <1>   0.5690 
 11 O       -0.3360    -8.8200     0.4630 O.2   1 <1>  -0.5700 
 12 N       -2.4560    -8.9180    -0.2760 N.am  1 <1>  -0.6600 
 13 C       -3.7550    -8.3250    -0.6770 C.3   1 <1>   0.1400 
 14 C       -2.5270   -10.3980    -0.2930 C.3   1 <1>   0.1400 
 15 C       -4.6650    -9.5200    -0.9690 C.3   1 <1>   0.2000 
 16 C       -4.0230   -10.7190    -0.2720 C.3   1 <1>  -0.0800 
 17 O       -5.9450    -9.3200    -0.4770 O.3   1 <1>  -0.6800 
 18 C       -4.3930   -12.0560    -0.9360 C.3   1 <1>  -0.0170 
 19 C       -3.7750   -13.2400    -0.2100 C.ar  1 <1>   0.1670 
 20 N       -2.5190   -13.5280    -0.5120 N.ar  1 <1>  -0.6200 
 21 C       -4.5260   -13.9570     0.7210 C.ar  1 <1>   0.1600 
 22 C       -2.0680   -14.5660     0.1730 C.ar  1 <1>   0.1600 
 23 N       -4.0770   -14.9950     1.4070 N.ar  1 <1>  -0.6200 
 24 C       -2.8220   -15.2750     1.1010 C.ar  1 <1>   0.1600 
 25 H       -0.8750    -1.9290     2.4420 H     1 <1>   0.1500 
 26 H        0.2970    -1.9490    -1.6550 H     1 <1>   0.1500 
 27 H       -0.7040    -4.3960     2.5100 H     1 <1>   0.1500 
 28 H        0.4720    -4.4160    -1.6000 H     1 <1>   0.1500 
 29 H        0.7590    -6.4150    -0.1860 H     1 <1>   0.0800 
 30 H        0.2790    -6.4060     1.4820 H     1 <1>   0.0800 
 31 H       -1.6210    -6.3800    -0.8730 H     1 <1>   0.0800 
 32 H       -2.1020    -6.3830     0.8010 H     1 <1>   0.0800 
 33 H       -4.1450    -7.7320     0.1320 H     1 <1>   0.0800 
 34 H       -3.6340    -7.7200    -1.5590 H     1 <1>   0.0800 
 35 H       -2.0660   -10.7610    -1.1960 H     1 <1>   0.0800 
 36 H       -2.0170   -10.8220     0.5570 H     1 <1>   0.0800 
 37 H       -4.7310    -9.6750    -2.0330 H     1 <1>   0.0800 
 38 H       -4.3250   -10.7370     0.7610 H     1 <1>   0.0800 
 39 H       -5.9220    -9.1890     0.4910 H     1 <1>   0.4000 
 40 H       -4.0610   -12.0630    -1.9590 H     1 <1>   0.0800 
 41 H       -5.4640   -12.1610    -0.9440 H     1 <1>   0.0800 
 42 H       -5.5420   -13.6580     0.9070 H     1 <1>   0.1500 
 43 H       -1.0530   -14.8700    -0.0080 H     1 <1>   0.1500 
 44 H       -2.3650   -16.1060     1.6100 H     1 <1>   0.1500 
@<TRIPOS>BOND
  1   1   2  1   
  2   2   3  ar  
  3   2   4  ar  
  4   3   5  ar  
  5   3  25  1   
  6   4   6  ar  
  7   4  26  1   
  8   5   7  ar  
  9   5  27  1   
 10   6   7  ar  
 11   6  28  1   
 12   7   8  1   
 13   8   9  1   
 14   8  29  1   
 15   8  30  1   
 16   9  10  1   
 17   9  31  1   
 18   9  32  1   
 19  10  11  2   
 20  10  12  am  
 21  12  13  1   
 22  12  14  1   
 23  13  15  1   
 24  13  33  1   
 25  13  34  1   
 26  14  16  1   
 27  14  35  1   
 28  14  36  1   
 29  15  16  1   
 30  15  17  1   
 31  15  37  1   
 32  16  18  1   
 33  16  38  1   
 34  17  39  1   
 35  18  19  1   
 36  18  40  1   
 37  18  41  1   
 38  19  20  ar  
 39  19  21  ar  
 40  20  22  ar  
 41  21  23  ar  
 42  21  42  1   
 43  22  24  ar  
 44  22  43  1   
 45  23  24  ar  
 46  24  44  1   
@<TRIPOS>SUBSTRUCTURE
  1 ****  12 GROUP 4 **** **** 0

# MOE 2024.06 (io_trps.svl 2023.06)
