@<TRIPOS>MOLECULE
NONAME
47 51 1 0 0 
SMALL
USER_CHARGES


@<TRIPOS>ATOM
  1 O       -0.1690     4.4610    -1.5850 O.2   1 <1>  -0.5700 
  2 C       -0.1000     3.6190    -0.7020 C.2   1 <1>   0.5440 
  3 N       -1.2830     3.1150    -0.1960 N.am  1 <1>  -0.6600 
  4 C        1.2080     3.3100    -0.1530 C.ar  1 <1>   0.0860 
  5 C       -2.6010     3.4150    -0.8230 C.3   1 <1>   0.1400 
  6 C       -1.3980     2.2560     1.0210 C.3   1 <1>   0.1400 
  7 C        1.7270     2.0100    -0.0040 C.ar  1 <1>   0.0410 
  8 C        2.0030     4.3840     0.2570 C.ar  1 <1>  -0.1500 
  9 C       -3.4240     4.3320     0.1090 C.3   1 <1>   0.1440 
 10 C       -2.7070     2.5340     1.7890 C.3   1 <1>  -0.1600 
 11 C        1.0110     0.8290    -0.4080 C.2   1 <1>   0.6970 
 12 C        2.9890     1.8520     0.5750 C.ar  1 <1>  -0.1500 
 13 C        3.2520     4.2080     0.8180 C.ar  1 <1>  -0.1500 
 14 C       -4.8860     4.2490    -0.3050 C.ar  1 <1>   0.1660 
 15 C       -3.1940     3.9840     1.6060 C.3   1 <1>  -0.1600 
 16 C       -3.1040     5.8250    -0.1650 C.3   1 <1>  -0.1600 
 17 N        0.5130     0.6170    -1.5900 N.2   1 <1>  -0.6190 
 18 N        0.8010    -0.1740     0.4040 N.2   1 <1>  -0.6190 
 19 C        3.7480     2.9290     0.9820 C.ar  1 <1>  -0.1500 
 20 N       -5.7160     3.2720    -0.0190 N.ar  1 <1>  -0.6200 
 21 C       -5.2570     5.3390    -1.0380 C.ar  1 <1>  -0.1430 
 22 C       -4.1140     6.3070    -1.2180 C.3   1 <1>  -0.0170 
 23 N       -0.0240    -0.5430    -1.4840 N.2   1 <1>  -0.2500 
 24 N        0.1400    -1.0310    -0.2930 N.2   1 <1>  -0.2500 
 25 C       -6.9400     3.4450    -0.4930 C.ar  1 <1>   0.7200 
 26 C       -6.5540     5.4020    -1.4880 C.ar  1 <1>   0.1600 
 27 N       -7.4150     4.4460    -1.2210 N.ar  1 <1>  -0.6200 
 28 N       -7.8060     2.4670    -0.2240 N.pl3 1 <1>  -0.9000 
 29 H       -3.1200     2.4830    -0.9690 H     1 <1>   0.0800 
 30 H       -2.4780     3.8640    -1.7930 H     1 <1>   0.0800 
 31 H       -0.5570     2.4340     1.6690 H     1 <1>   0.0800 
 32 H       -1.3840     1.2190     0.7250 H     1 <1>   0.0800 
 33 H        1.6210     5.3820     0.1270 H     1 <1>   0.1500 
 34 H       -2.5580     2.3160     2.8310 H     1 <1>   0.0800 
 35 H       -3.4650     1.8600     1.4290 H     1 <1>   0.0800 
 36 H        3.3680     0.8500     0.6980 H     1 <1>   0.1500 
 37 H        3.8370     5.0580     1.1240 H     1 <1>   0.1500 
 38 H       -4.0980     4.1450     2.1660 H     1 <1>   0.0800 
 39 H       -2.4350     4.6300     2.0110 H     1 <1>   0.0800 
 40 H       -2.0870     5.9710    -0.4860 H     1 <1>   0.0800 
 41 H       -3.2640     6.3960     0.7320 H     1 <1>   0.0800 
 42 H        4.7180     2.7740     1.4210 H     1 <1>   0.1500 
 43 H       -3.7040     6.2060    -2.2090 H     1 <1>   0.0800 
 44 H       -4.4140     7.3260    -1.0440 H     1 <1>   0.0800 
 45 H       -6.8870     6.2430    -2.0720 H     1 <1>   0.1500 
 46 H       -8.6170     2.4360    -0.8340 H     1 <1>   0.4000 
 47 H       -7.3770     1.5790     0.0190 H     1 <1>   0.4000 
@<TRIPOS>BOND
  1   1   2  2   
  2   2   3  am  
  3   2   4  1   
  4   3   5  1   
  5   3   6  1   
  6   4   7  ar  
  7   4   8  ar  
  8   5   9  1   
  9   5  29  1   
 10   5  30  1   
 11   6  10  1   
 12   6  31  1   
 13   6  32  1   
 14   7  11  1   
 15   7  12  ar  
 16   8  13  ar  
 17   8  33  1   
 18   9  14  1   
 19   9  15  1   
 20   9  16  1   
 21  10  15  1   
 22  10  34  1   
 23  10  35  1   
 24  11  17  2   
 25  11  18  1   
 26  12  19  ar  
 27  12  36  1   
 28  13  19  ar  
 29  13  37  1   
 30  14  20  ar  
 31  14  21  ar  
 32  15  38  1   
 33  15  39  1   
 34  16  22  1   
 35  16  40  1   
 36  16  41  1   
 37  17  23  1   
 38  18  24  2   
 39  19  42  1   
 40  20  25  ar  
 41  21  22  1   
 42  21  26  ar  
 43  22  43  1   
 44  22  44  1   
 45  23  24  1   
 46  25  27  ar  
 47  25  28  1   
 48  26  27  ar  
 49  26  45  1   
 50  28  46  1   
 51  28  47  1   
@<TRIPOS>SUBSTRUCTURE
  1 ****   3 GROUP 4 **** **** 0

# MOE 2024.06 (io_trps.svl 2023.06)
