@<TRIPOS>MOLECULE
NONAME
51 53 1 0 0 
SMALL
USER_CHARGES


@<TRIPOS>ATOM
  1 S       -0.1310     0.3490     0.0950 S.o2  1 <1>   1.3330 
  2 O       -0.6010     1.6720    -0.2520 O.2   1 <1>  -0.6500 
  3 O       -0.4410    -0.2040     1.3940 O.2   1 <1>  -0.6500 
  4 N       -0.7190    -0.7340    -1.0730 N.am  1 <1>  -0.8490 
  5 C        1.6370     0.3030    -0.1970 C.3   1 <1>  -0.0550 
  6 C       -2.0900    -0.4150    -1.4830 C.3   1 <1>   0.1160 
  7 C       -0.6430    -2.1380    -0.6510 C.3   1 <1>   0.1160 
  8 C        2.4410     1.2200     0.7420 C.3   1 <1>  -0.0800 
  9 C        3.8850     1.3720     0.2560 C.3   1 <1>   0.2200 
 10 C        2.6180     0.6070     2.1320 C.3   1 <1>   0.1200 
 11 N        4.2440     2.7910    -0.0050 N.am  1 <1>  -0.7300 
 12 C        4.7230     0.7220     1.3600 C.3   1 <1>   0.1200 
 13 O        3.8260    -0.0740     2.0660 O.3   1 <1>  -0.5600 
 14 C        4.1600     3.8610     0.8440 C.2   1 <1>   0.5440 
 15 O        3.8560     3.6500     2.0020 O.2   1 <1>  -0.5700 
 16 C        4.3780     5.2210     0.3870 C.ar  1 <1>   0.0860 
 17 C        5.1570     5.5580    -0.7400 C.ar  1 <1>   0.3930 
 18 C        3.7840     6.2720     1.0820 C.ar  1 <1>  -0.1500 
 19 O        5.7720     4.5680    -1.4290 O.3   1 <1>  -0.3630 
 20 N        5.3520     6.7970    -1.1960 N.ar  1 <1>  -0.6200 
 21 C        3.9910     7.5470     0.6160 C.ar  1 <1>  -0.1430 
 22 C        6.6280     4.8330    -2.5270 C.3   1 <1>   0.0400 
 23 C        4.7630     7.7440    -0.4980 C.ar  1 <1>   0.1670 
 24 C        3.4640     8.8480     1.1690 C.3   1 <1>  -0.0170 
 25 C        4.8620     9.2070    -0.8400 C.3   1 <1>  -0.0170 
 26 C        4.2500     9.9150     0.3840 C.3   1 <1>  -0.1600 
 27 H        1.9970    -0.7030    -0.0990 H     1 <1>   0.0800 
 28 H        1.8070     0.6150    -1.2090 H     1 <1>   0.0800 
 29 H       -2.4300    -1.1120    -2.2290 H     1 <1>   0.0800 
 30 H       -2.1270     0.5750    -1.9070 H     1 <1>   0.0800 
 31 H       -2.7530    -0.4510    -0.6340 H     1 <1>   0.0800 
 32 H       -0.9420    -2.7830    -1.4600 H     1 <1>   0.0800 
 33 H       -1.2880    -2.3140     0.1940 H     1 <1>   0.0800 
 34 H        0.3660    -2.3890    -0.3720 H     1 <1>   0.0800 
 35 H        1.9430     2.1710     0.8220 H     1 <1>   0.0800 
 36 H        4.0370     0.8140    -0.6520 H     1 <1>   0.0800 
 37 H        1.8390    -0.0800     2.4150 H     1 <1>   0.0800 
 38 H        2.7120     1.3770     2.8800 H     1 <1>   0.0800 
 39 H        4.6420     2.9810    -0.9300 H     1 <1>   0.3700 
 40 H        5.1250     1.4520     2.0410 H     1 <1>   0.0800 
 41 H        5.5070     0.0990     0.9680 H     1 <1>   0.0800 
 42 H        3.1800     6.0870     1.9540 H     1 <1>   0.1500 
 43 H        7.0100     3.8990    -2.8960 H     1 <1>   0.0800 
 44 H        7.4380     5.4570    -2.1920 H     1 <1>   0.0800 
 45 H        6.0650     5.3340    -3.2960 H     1 <1>   0.0800 
 46 H        2.4100     8.9260     0.9660 H     1 <1>   0.0800 
 47 H        3.6400     8.9270     2.2270 H     1 <1>   0.0800 
 48 H        5.8860     9.4970    -0.9950 H     1 <1>   0.0800 
 49 H        4.2890     9.4020    -1.7290 H     1 <1>   0.0800 
 50 H        5.0470    10.2870     1.0040 H     1 <1>   0.0800 
 51 H        3.6210    10.7390     0.0930 H     1 <1>   0.0800 
@<TRIPOS>BOND
  1   1   2  2   
  2   1   3  2   
  3   1   4  am  
  4   1   5  1   
  5   4   6  1   
  6   4   7  1   
  7   5   8  1   
  8   5  27  1   
  9   5  28  1   
 10   6  29  1   
 11   6  30  1   
 12   6  31  1   
 13   7  32  1   
 14   7  33  1   
 15   7  34  1   
 16   8   9  1   
 17   8  10  1   
 18   8  35  1   
 19   9  11  1   
 20   9  12  1   
 21   9  36  1   
 22  10  13  1   
 23  10  37  1   
 24  10  38  1   
 25  11  14  am  
 26  11  39  1   
 27  12  13  1   
 28  12  40  1   
 29  12  41  1   
 30  14  15  2   
 31  14  16  1   
 32  16  17  ar  
 33  16  18  ar  
 34  17  19  1   
 35  17  20  ar  
 36  18  21  ar  
 37  18  42  1   
 38  19  22  1   
 39  20  23  ar  
 40  21  23  ar  
 41  21  24  1   
 42  22  43  1   
 43  22  44  1   
 44  22  45  1   
 45  23  25  1   
 46  24  26  1   
 47  24  46  1   
 48  24  47  1   
 49  25  26  1   
 50  25  48  1   
 51  25  49  1   
 52  26  50  1   
 53  26  51  1   
@<TRIPOS>SUBSTRUCTURE
  1 ****  11 GROUP 4 **** **** 0

# MOE 2024.06 (io_trps.svl 2023.06)
