@<TRIPOS>MOLECULE
NONAME
52 54 1 0 0 
SMALL
USER_CHARGES


@<TRIPOS>ATOM
  1 O       -0.9230    -3.2890     0.1360 O.co2 1 <1>  -0.9000 
  2 C       -0.2320    -4.2250    -0.2910 C.2   1 <1>   1.0330 
  3 O       -0.5810    -5.3860     0.0020 O.co2 1 <1>  -0.9000 
  4 C        0.9420    -4.0010    -1.0790 C.2   1 <1>  -0.2330 
  5 C        1.5060    -4.9540    -1.9260 C.2   1 <1>   0.3720 
  6 C        1.7680    -2.9270    -1.2220 C.2   1 <1>   0.0870 
  7 N        2.5580    -4.5050    -2.5130 N.2   1 <1>  -0.4100 
  8 N        1.0020    -6.2340    -2.1140 N.pl3 1 <1>  -0.8520 
  9 O        2.6970    -3.2800    -2.0810 O.3   1 <1>  -0.0190 
 10 C        1.8240    -1.6050    -0.6430 C.ar  1 <1>   0.0530 
 11 C        1.9350    -7.3470    -1.8360 C.3   1 <1>   0.2090 
 12 C        1.3520    -1.3300     0.6410 C.ar  1 <1>  -0.1500 
 13 C        2.3820    -0.5400    -1.3530 C.ar  1 <1>  -0.1500 
 14 C        1.7330    -7.8720    -0.4160 C.3   1 <1>  -0.0990 
 15 C        1.4260    -0.0640     1.1910 C.ar  1 <1>  -0.1500 
 16 C        2.4640     0.7290    -0.8120 C.ar  1 <1>  -0.1500 
 17 C        0.4890    -8.7210    -0.3200 C.2   1 <1>   0.5690 
 18 C        1.9870     0.9820     0.4640 C.ar  1 <1>   0.0820 
 19 O        0.5720    -9.8990    -0.5760 O.2   1 <1>  -0.5700 
 20 N       -0.6710    -8.1340     0.0480 N.am  1 <1>  -0.7300 
 21 O        2.0980     2.2500     0.9250 O.3   1 <1>  -0.3620 
 22 C       -1.9930    -8.7590     0.0920 C.3   1 <1>   0.2200 
 23 C        1.5690     2.6190     2.1790 C.3   1 <1>   0.0400 
 24 C       -2.8670    -8.1170    -0.9890 C.3   1 <1>  -0.1600 
 25 C       -2.5910    -8.5420     1.4850 C.3   1 <1>  -0.1600 
 26 C       -4.3110    -8.6370    -0.9230 C.3   1 <1>  -0.1600 
 27 C       -4.0340    -9.0650     1.5600 C.3   1 <1>  -0.1600 
 28 C       -4.9100    -8.4250     0.4740 C.3   1 <1>  -0.1600 
 29 H        0.1710    -6.3150    -1.4950 H     1 <1>   0.4000 
 30 H        2.9510    -7.0070    -1.9520 H     1 <1>   0.0800 
 31 H        1.7670    -8.1360    -2.5490 H     1 <1>   0.0800 
 32 H        0.9150    -2.1250     1.2190 H     1 <1>   0.1500 
 33 H        2.7530    -0.7140    -2.3470 H     1 <1>   0.1500 
 34 H        1.6870    -7.0560     0.2810 H     1 <1>   0.0800 
 35 H        2.5720    -8.4870    -0.1520 H     1 <1>   0.0800 
 36 H        1.0380     0.0840     2.1800 H     1 <1>   0.1500 
 37 H        2.8970     1.5350    -1.3750 H     1 <1>   0.1500 
 38 H       -0.6940    -7.1000     0.1890 H     1 <1>   0.3700 
 39 H       -1.9020    -9.8160    -0.1000 H     1 <1>   0.0800 
 40 H        1.7460     3.6700     2.3210 H     1 <1>   0.0800 
 41 H        2.0690     2.0560     2.9470 H     1 <1>   0.0800 
 42 H        0.5120     2.4210     2.1820 H     1 <1>   0.0800 
 43 H       -2.4490    -8.3310    -1.9570 H     1 <1>   0.0800 
 44 H       -2.8690    -7.0480    -0.8520 H     1 <1>   0.0800 
 45 H       -2.5850    -7.4890     1.7090 H     1 <1>   0.0800 
 46 H       -1.9850    -9.0490     2.2140 H     1 <1>   0.0800 
 47 H       -4.3210    -9.6870    -1.1620 H     1 <1>   0.0800 
 48 H       -4.9100    -8.1230    -1.6550 H     1 <1>   0.0800 
 49 H       -4.4450    -8.8460     2.5310 H     1 <1>   0.0800 
 50 H       -4.0320   -10.1340     1.4340 H     1 <1>   0.0800 
 51 H       -5.9000    -8.8450     0.5120 H     1 <1>   0.0800 
 52 H       -4.9910    -7.3680     0.6650 H     1 <1>   0.0800 
@<TRIPOS>BOND
  1   1   2  ar  
  2   2   3  ar  
  3   2   4  1   
  4   4   5  1   
  5   4   6  2   
  6   5   7  2   
  7   5   8  1   
  8   6   9  1   
  9   6  10  1   
 10   7   9  1   
 11   8  11  1   
 12   8  29  1   
 13  10  12  ar  
 14  10  13  ar  
 15  11  14  1   
 16  11  30  1   
 17  11  31  1   
 18  12  15  ar  
 19  12  32  1   
 20  13  16  ar  
 21  13  33  1   
 22  14  17  1   
 23  14  34  1   
 24  14  35  1   
 25  15  18  ar  
 26  15  36  1   
 27  16  18  ar  
 28  16  37  1   
 29  17  19  2   
 30  17  20  am  
 31  18  21  1   
 32  20  22  1   
 33  20  38  1   
 34  21  23  1   
 35  22  24  1   
 36  22  25  1   
 37  22  39  1   
 38  23  40  1   
 39  23  41  1   
 40  23  42  1   
 41  24  26  1   
 42  24  43  1   
 43  24  44  1   
 44  25  27  1   
 45  25  45  1   
 46  25  46  1   
 47  26  28  1   
 48  26  47  1   
 49  26  48  1   
 50  27  28  1   
 51  27  49  1   
 52  27  50  1   
 53  28  51  1   
 54  28  52  1   
@<TRIPOS>SUBSTRUCTURE
  1 ****   2 GROUP 4 **** **** 0

# MOE 2024.06 (io_trps.svl 2023.06)
