@<TRIPOS>MOLECULE
NONAME
50 51 1 0 0 
SMALL
USER_CHARGES


@<TRIPOS>ATOM
  1 S        0.4750     0.0360    -0.4660 S.o2  1 <1>   1.3330 
  2 O        0.3400    -0.0800    -1.9010 O.2   1 <1>  -0.6500 
  3 O        1.7910     0.0380     0.1310 O.2   1 <1>  -0.6500 
  4 N       -0.4240    -1.2100     0.2560 N.am  1 <1>  -0.8490 
  5 C       -0.4000     1.5150     0.0370 C.3   1 <1>  -0.0550 
  6 C       -0.3070    -2.4720    -0.4790 C.3   1 <1>   0.1160 
  7 C       -0.0910    -1.4230     1.6690 C.3   1 <1>   0.1160 
  8 C        0.1830     2.8020    -0.5800 C.3   1 <1>  -0.0800 
  9 C       -0.6450     4.0610    -0.3090 C.3   1 <1>   0.2000 
 10 C        1.5930     3.1590    -0.0830 C.3   1 <1>   0.1400 
 11 O       -1.0130     4.0840     1.0280 O.3   1 <1>  -0.6800 
 12 C        0.3440     5.1990    -0.5470 C.3   1 <1>   0.1400 
 13 N        1.6420     4.6430    -0.0860 N.am  1 <1>  -0.6600 
 14 C        2.7110     5.3460     0.3950 C.2   1 <1>   0.5690 
 15 O        3.6620     4.7810     0.8800 O.2   1 <1>  -0.5700 
 16 C        2.6980     6.8640     0.3280 C.3   1 <1>  -0.0990 
 17 C        4.0680     7.5070     0.5890 C.3   1 <1>  -0.0170 
 18 C        3.9750     9.0210     0.4280 C.ar  1 <1>  -0.1440 
 19 C        4.2440     9.6670    -0.7770 C.ar  1 <1>  -0.1440 
 20 C        3.5990     9.7710     1.5330 C.ar  1 <1>  -0.1500 
 21 C        4.1290    11.0470    -0.8510 C.ar  1 <1>  -0.1500 
 22 C        4.6670     8.9060    -2.0270 C.3   1 <1>  -0.0970 
 23 C        3.4860    11.1460     1.4510 C.ar  1 <1>  -0.1500 
 24 C        3.7510    11.7860     0.2550 C.ar  1 <1>  -0.1500 
 25 H       -1.4250     1.4250    -0.2670 H     1 <1>   0.0800 
 26 H       -0.3860     1.5900     1.1070 H     1 <1>   0.0800 
 27 H       -0.9010    -3.2360    -0.0060 H     1 <1>   0.0800 
 28 H        0.7210    -2.7920    -0.5130 H     1 <1>   0.0800 
 29 H       -0.6640    -2.3460    -1.4870 H     1 <1>   0.0800 
 30 H       -0.7460    -2.1630     2.0950 H     1 <1>   0.0800 
 31 H       -0.2100    -0.5070     2.2220 H     1 <1>   0.0800 
 32 H        0.9290    -1.7570     1.7700 H     1 <1>   0.0800 
 33 H        0.2400     2.6720    -1.6470 H     1 <1>   0.0800 
 34 H       -1.5340     4.1330    -0.9140 H     1 <1>   0.0800 
 35 H        2.3550     2.7530    -0.7280 H     1 <1>   0.0800 
 36 H        1.7580     2.8030     0.9200 H     1 <1>   0.0800 
 37 H       -0.2050     4.2030     1.5700 H     1 <1>   0.4000 
 38 H        0.0620     6.0880    -0.0090 H     1 <1>   0.0800 
 39 H        0.4100     5.4150    -1.5990 H     1 <1>   0.0800 
 40 H        2.3600     7.1620    -0.6470 H     1 <1>   0.0800 
 41 H        1.9970     7.2310     1.0530 H     1 <1>   0.0800 
 42 H        4.8020     7.0940    -0.0790 H     1 <1>   0.0800 
 43 H        4.3900     7.2710     1.5890 H     1 <1>   0.0800 
 44 H        3.3900     9.2830     2.4690 H     1 <1>   0.1500 
 45 H        4.3340    11.5600    -1.7740 H     1 <1>   0.1500 
 46 H        4.7170     9.5600    -2.8790 H     1 <1>   0.0800 
 47 H        3.9630     8.1250    -2.2470 H     1 <1>   0.0800 
 48 H        5.6390     8.4720    -1.8780 H     1 <1>   0.0800 
 49 H        3.1930    11.7160     2.3150 H     1 <1>   0.1500 
 50 H        3.6650    12.8560     0.1860 H     1 <1>   0.1500 
@<TRIPOS>BOND
  1   1   2  2   
  2   1   3  2   
  3   1   4  am  
  4   1   5  1   
  5   4   6  1   
  6   4   7  1   
  7   5   8  1   
  8   5  25  1   
  9   5  26  1   
 10   6  27  1   
 11   6  28  1   
 12   6  29  1   
 13   7  30  1   
 14   7  31  1   
 15   7  32  1   
 16   8   9  1   
 17   8  10  1   
 18   8  33  1   
 19   9  11  1   
 20   9  12  1   
 21   9  34  1   
 22  10  13  1   
 23  10  35  1   
 24  10  36  1   
 25  11  37  1   
 26  12  13  1   
 27  12  38  1   
 28  12  39  1   
 29  13  14  am  
 30  14  15  2   
 31  14  16  1   
 32  16  17  1   
 33  16  40  1   
 34  16  41  1   
 35  17  18  1   
 36  17  42  1   
 37  17  43  1   
 38  18  19  ar  
 39  18  20  ar  
 40  19  21  ar  
 41  19  22  1   
 42  20  23  ar  
 43  20  44  1   
 44  21  24  ar  
 45  21  45  1   
 46  22  46  1   
 47  22  47  1   
 48  22  48  1   
 49  23  24  ar  
 50  23  49  1   
 51  24  50  1   
@<TRIPOS>SUBSTRUCTURE
  1 ****  13 GROUP 4 **** **** 0

# MOE 2024.06 (io_trps.svl 2023.06)
