@<TRIPOS>MOLECULE
NONAME
62 65 1 0 0 
SMALL
USER_CHARGES


@<TRIPOS>ATOM
  1 O       -0.3470     1.3810    -1.3530 O.2   1 <1>  -0.5700 
  2 C       -0.3380     2.3200    -0.5790 C.2   1 <1>   0.7160 
  3 N       -1.3550     3.2510    -0.6460 N.am  1 <1>  -0.6600 
  4 C        0.7290     2.4270     0.3870 C.2   1 <1>  -0.0860 
  5 C       -1.8150     4.0570     0.5160 C.3   1 <1>   0.1400 
  6 C       -2.2320     3.3640    -1.8410 C.3   1 <1>   0.1400 
  7 C        1.3680     3.6010     0.7950 C.2   1 <1>   0.1390 
  8 C        1.3750     1.4620     1.0990 C.2   1 <1>  -0.3020 
  9 C       -3.2430     3.6460     0.8890 C.3   1 <1>  -0.1600 
 10 C       -3.6520     2.9300    -1.4700 C.3   1 <1>  -0.1600 
 11 N        2.2940     3.3970     1.6790 N.2   1 <1>  -0.7070 
 12 N        2.2990     2.0640     1.8610 N.pl3 1 <1>   0.3000 
 13 C       -4.2240     3.7590    -0.2970 C.3   1 <1>   0.2800 
 14 O       -4.2330     5.0960    -0.7410 O.3   1 <1>  -0.5600 
 15 C       -5.6660     3.3310     0.1330 C.3   1 <1>   0.2000 
 16 C       -5.0280     6.0090    -0.0410 C.3   1 <1>   0.1200 
 17 O       -5.9080     1.9570    -0.0320 O.3   1 <1>  -0.6800 
 18 C       -6.7850     4.1850    -0.5240 C.3   1 <1>   0.3000 
 19 C       -6.5190     5.6660    -0.1900 C.3   1 <1>  -0.1600 
 20 N       -8.0700     3.7340     0.0530 N.am  1 <1>  -0.7300 
 21 C       -6.8990     3.9880    -2.0450 C.3   1 <1>  -0.2400 
 22 C       -9.2910     4.3330     0.0210 C.2   1 <1>   0.5690 
 23 O       -9.4700     5.4210    -0.4710 O.2   1 <1>  -0.5700 
 24 C      -10.4840     3.5970     0.6270 C.3   1 <1>  -0.0190 
 25 C      -10.2960     3.3410     2.1370 C.3   1 <1>  -0.1600 
 26 C      -10.7830     2.2810    -0.1200 C.3   1 <1>  -0.1600 
 27 C      -11.5090     2.6140     2.7390 C.3   1 <1>  -0.1600 
 28 C      -11.9960     1.5540     0.4840 C.3   1 <1>  -0.1600 
 29 C      -11.7990     1.3140     1.9830 C.3   1 <1>   0.2000 
 30 O      -12.9560     0.7680     2.4890 O.3   1 <1>  -0.6800 
 31 H       -1.1760     3.9070     1.3680 H     1 <1>   0.0800 
 32 H       -1.7890     5.1010     0.2520 H     1 <1>   0.0800 
 33 H       -2.2350     4.3860    -2.1820 H     1 <1>   0.0800 
 34 H       -1.8610     2.7500    -2.6440 H     1 <1>   0.0800 
 35 H        1.1210     4.5780     0.4130 H     1 <1>   0.1500 
 36 H        1.2120     0.3990     1.0820 H     1 <1>   0.1500 
 37 H       -3.5790     4.2420     1.7160 H     1 <1>   0.0800 
 38 H       -3.2230     2.6250     1.2280 H     1 <1>   0.0800 
 39 H       -3.6100     1.8900    -1.2020 H     1 <1>   0.0800 
 40 H       -4.2780     3.0170    -2.3360 H     1 <1>   0.0800 
 41 H        2.9520     1.6040     2.5080 H     1 <1>   0.2700 
 42 H       -5.7390     3.5040     1.1920 H     1 <1>   0.0800 
 43 H       -4.7340     6.0010     0.9940 H     1 <1>   0.0800 
 44 H       -4.8310     6.9900    -0.4390 H     1 <1>   0.0800 
 45 H       -5.8000     1.7130    -0.9720 H     1 <1>   0.4000 
 46 H       -7.0040     5.9280     0.7330 H     1 <1>   0.0800 
 47 H       -6.9460     6.2940    -0.9520 H     1 <1>   0.0800 
 48 H       -8.0010     2.7800     0.4160 H     1 <1>   0.3700 
 49 H       -6.0370     4.3850    -2.5460 H     1 <1>   0.0800 
 50 H       -7.7560     4.5180    -2.4220 H     1 <1>   0.0800 
 51 H       -7.0040     2.9490    -2.2960 H     1 <1>   0.0800 
 52 H      -11.3390     4.2420     0.5090 H     1 <1>   0.0800 
 53 H       -9.4140     2.7460     2.2990 H     1 <1>   0.0800 
 54 H      -10.1560     4.2810     2.6430 H     1 <1>   0.0800 
 55 H      -10.9760     2.4960    -1.1580 H     1 <1>   0.0800 
 56 H       -9.9260     1.6320    -0.0730 H     1 <1>   0.0800 
 57 H      -12.3650     3.2640     2.6870 H     1 <1>   0.0800 
 58 H      -11.3120     2.3880     3.7730 H     1 <1>   0.0800 
 59 H      -12.1300     0.6100    -0.0140 H     1 <1>   0.0800 
 60 H      -12.8750     2.1540     0.3240 H     1 <1>   0.0800 
 61 H      -11.0040     0.6050     2.1450 H     1 <1>   0.0800 
 62 H      -13.6990     1.3860     2.3600 H     1 <1>   0.4000 
@<TRIPOS>BOND
  1   1   2  2   
  2   2   3  am  
  3   2   4  1   
  4   3   5  1   
  5   3   6  1   
  6   4   7  1   
  7   4   8  2   
  8   5   9  1   
  9   5  31  1   
 10   5  32  1   
 11   6  10  1   
 12   6  33  1   
 13   6  34  1   
 14   7  11  2   
 15   7  35  1   
 16   8  12  1   
 17   8  36  1   
 18   9  13  1   
 19   9  37  1   
 20   9  38  1   
 21  10  13  1   
 22  10  39  1   
 23  10  40  1   
 24  11  12  1   
 25  12  41  1   
 26  13  14  1   
 27  13  15  1   
 28  14  16  1   
 29  15  17  1   
 30  15  18  1   
 31  15  42  1   
 32  16  19  1   
 33  16  43  1   
 34  16  44  1   
 35  17  45  1   
 36  18  19  1   
 37  18  20  1   
 38  18  21  1   
 39  19  46  1   
 40  19  47  1   
 41  20  22  am  
 42  20  48  1   
 43  21  49  1   
 44  21  50  1   
 45  21  51  1   
 46  22  23  2   
 47  22  24  1   
 48  24  25  1   
 49  24  26  1   
 50  24  52  1   
 51  25  27  1   
 52  25  53  1   
 53  25  54  1   
 54  26  28  1   
 55  26  55  1   
 56  26  56  1   
 57  27  29  1   
 58  27  57  1   
 59  27  58  1   
 60  28  29  1   
 61  28  59  1   
 62  28  60  1   
 63  29  30  1   
 64  29  61  1   
 65  30  62  1   
@<TRIPOS>SUBSTRUCTURE
  1 ****  15 GROUP 4 **** **** 0

# MOE 2024.06 (io_trps.svl 2023.06)
