@<TRIPOS>MOLECULE
NONAME
45 46 1 0 0 
SMALL
USER_CHARGES


@<TRIPOS>ATOM
  1 CL      -1.9270    -1.8430     3.7280 Cl    1 <1>  -0.1770 
  2 C       -2.2390    -2.1560     2.0390 C.ar  1 <1>   0.1770 
  3 C       -2.7580    -3.3810     1.6640 C.ar  1 <1>  -0.1500 
  4 C       -1.9620    -1.1740     1.1060 C.ar  1 <1>  -0.1500 
  5 C       -3.0090    -3.6350     0.3240 C.ar  1 <1>  -0.1440 
  6 C       -2.2120    -1.4280    -0.2310 C.ar  1 <1>  -0.1500 
  7 C       -2.7340    -2.6530    -0.6180 C.ar  1 <1>  -0.1500 
  8 C       -3.5840    -4.9730    -0.1130 C.3   1 <1>  -0.0160 
  9 C       -5.1020    -4.8750    -0.2600 C.3   1 <1>   0.1400 
 10 N       -5.6520    -6.1910    -0.6470 N.am  1 <1>  -0.7300 
 11 C       -6.0530    -6.5600    -1.8910 C.2   1 <1>   0.5690 
 12 O       -5.9790    -5.8160    -2.8400 O.2   1 <1>  -0.5700 
 13 C       -6.6020    -7.9780    -2.0790 C.3   1 <1>   0.1710 
 14 N       -7.1350    -8.6100    -0.8290 N.3   1 <1>  -0.8100 
 15 C       -7.2160   -10.0830    -0.9970 C.3   1 <1>   0.1100 
 16 C       -8.4230    -8.0010    -0.4590 C.3   1 <1>   0.0300 
 17 C       -7.4280   -10.8510     0.3210 C.3   1 <1>   0.2000 
 18 O       -6.7490   -12.0740     0.2110 O.3   1 <1>  -0.5600 
 19 C       -8.9160   -11.1330     0.6300 C.3   1 <1>   0.1200 
 20 C       -6.8590   -12.8780     1.3500 C.3   1 <1>   0.1200 
 21 O       -9.0410   -11.9470     1.7620 O.3   1 <1>  -0.5600 
 22 C       -8.3400   -13.1520     1.6600 C.3   1 <1>   0.1200 
 23 H       -2.9590    -4.1190     2.4180 H     1 <1>   0.1500 
 24 H       -1.5590    -0.2300     1.4250 H     1 <1>   0.1500 
 25 H       -2.0030    -0.6740    -0.9720 H     1 <1>   0.1500 
 26 H       -2.9260    -2.8390    -1.6610 H     1 <1>   0.1500 
 27 H       -3.3390    -5.7280     0.6120 H     1 <1>   0.0800 
 28 H       -3.1540    -5.2570    -1.0570 H     1 <1>   0.0800 
 29 H       -5.3440    -4.1450    -1.0150 H     1 <1>   0.0800 
 30 H       -5.5460    -4.5610     0.6690 H     1 <1>   0.0800 
 31 H       -5.7960    -6.8920     0.0880 H     1 <1>   0.3700 
 32 H       -5.7880    -8.5690    -2.4590 H     1 <1>   0.0800 
 33 H       -7.3680    -7.9550    -2.8330 H     1 <1>   0.0800 
 34 H       -6.2790   -10.4220    -1.4060 H     1 <1>   0.0800 
 35 H       -7.9920   -10.3330    -1.7010 H     1 <1>   0.0800 
 36 H       -8.3540    -6.9270    -0.4880 H     1 <1>   0.0800 
 37 H       -8.6880    -8.2790     0.5450 H     1 <1>   0.0800 
 38 H       -9.2000    -8.3140    -1.1360 H     1 <1>   0.0800 
 39 H       -6.9760   -10.2980     1.1260 H     1 <1>   0.0800 
 40 H       -9.3850   -11.6310    -0.2010 H     1 <1>   0.0800 
 41 H       -9.4500   -10.2240     0.8310 H     1 <1>   0.0800 
 42 H       -6.3850   -12.3770     2.1760 H     1 <1>   0.0800 
 43 H       -6.3390   -13.8000     1.1560 H     1 <1>   0.0800 
 44 H       -8.4380   -13.6720     2.5960 H     1 <1>   0.0800 
 45 H       -8.7850   -13.7460     0.8820 H     1 <1>   0.0800 
@<TRIPOS>BOND
  1   1   2  1   
  2   2   3  ar  
  3   2   4  ar  
  4   3   5  ar  
  5   3  23  1   
  6   4   6  ar  
  7   4  24  1   
  8   5   7  ar  
  9   5   8  1   
 10   6   7  ar  
 11   6  25  1   
 12   7  26  1   
 13   8   9  1   
 14   8  27  1   
 15   8  28  1   
 16   9  10  1   
 17   9  29  1   
 18   9  30  1   
 19  10  11  am  
 20  10  31  1   
 21  11  12  2   
 22  11  13  1   
 23  13  14  1   
 24  13  32  1   
 25  13  33  1   
 26  14  15  1   
 27  14  16  1   
 28  15  17  1   
 29  15  34  1   
 30  15  35  1   
 31  16  36  1   
 32  16  37  1   
 33  16  38  1   
 34  17  18  1   
 35  17  19  1   
 36  17  39  1   
 37  18  20  1   
 38  19  21  1   
 39  19  40  1   
 40  19  41  1   
 41  20  22  1   
 42  20  42  1   
 43  20  43  1   
 44  21  22  1   
 45  22  44  1   
 46  22  45  1   
@<TRIPOS>SUBSTRUCTURE
  1 ****  10 GROUP 4 **** **** 0

# MOE 2024.06 (io_trps.svl 2023.06)
