@<TRIPOS>MOLECULE
NONAME
44 46 1 0 0 
SMALL
USER_CHARGES


@<TRIPOS>ATOM
  1 F        1.9050    -0.3850     2.5230 F     1 <1>  -0.1900 
  2 C        2.1280    -1.0230     1.4060 C.ar  1 <1>   0.1900 
  3 C        2.2370    -2.4010     1.4370 C.ar  1 <1>  -0.1500 
  4 C        2.2440    -0.2970     0.2370 C.ar  1 <1>  -0.1500 
  5 C        2.4710    -3.0810     0.2510 C.ar  1 <1>  -0.1440 
  6 C        2.4790    -0.9810    -0.9440 C.ar  1 <1>  -0.1500 
  7 C        2.5910    -2.3640    -0.9330 C.ar  1 <1>  -0.1500 
  8 C        2.5880    -4.5970     0.2470 C.3   1 <1>  -0.0160 
  9 C        1.2050    -5.2350     0.0440 C.3   1 <1>  -0.0990 
 10 C        1.2280    -6.7550     0.0160 C.2   1 <1>   0.5690 
 11 O        2.2740    -7.3360     0.1840 O.2   1 <1>  -0.5700 
 12 N        0.0620    -7.4350    -0.1990 N.am  1 <1>  -0.6600 
 13 C       -1.2880    -6.8430    -0.3700 C.3   1 <1>   0.1400 
 14 C       -0.0060    -8.9160    -0.2350 C.3   1 <1>   0.1400 
 15 C       -2.2300    -8.0380    -0.5310 C.3   1 <1>   0.2000 
 16 C       -1.4770    -9.2460     0.0260 C.3   1 <1>  -0.0800 
 17 O       -3.4100    -7.8540     0.1720 O.3   1 <1>  -0.6800 
 18 C       -1.9480   -10.5720    -0.5970 C.3   1 <1>  -0.0170 
 19 C       -1.2150   -11.7670    -0.0080 C.ar  1 <1>   0.1670 
 20 N       -0.0250   -12.0410    -0.5190 N.ar  1 <1>  -0.6200 
 21 C       -1.8000   -12.5080     1.0180 C.ar  1 <1>   0.1600 
 22 C        0.5360   -13.0890     0.0600 C.ar  1 <1>   0.1600 
 23 N       -1.2410   -13.5570     1.5980 N.ar  1 <1>  -0.6200 
 24 C       -0.0520   -13.8220     1.0840 C.ar  1 <1>   0.1600 
 25 H        2.1400    -2.9210     2.3720 H     1 <1>   0.1500 
 26 H        2.1530     0.7730     0.2540 H     1 <1>   0.1500 
 27 H        2.5750    -0.4410    -1.8700 H     1 <1>   0.1500 
 28 H        2.7750    -2.8840    -1.8580 H     1 <1>   0.1500 
 29 H        3.2520    -4.9100    -0.5400 H     1 <1>   0.0800 
 30 H        3.0100    -4.9330     1.1790 H     1 <1>   0.0800 
 31 H        0.7970    -4.8830    -0.8850 H     1 <1>   0.0800 
 32 H        0.5580    -4.9190     0.8400 H     1 <1>   0.0800 
 33 H       -1.5400    -6.2680     0.5040 H     1 <1>   0.0800 
 34 H       -1.3140    -6.2220    -1.2480 H     1 <1>   0.0800 
 35 H        0.3000    -9.2580    -1.2090 H     1 <1>   0.0800 
 36 H        0.6380    -9.3540     0.5100 H     1 <1>   0.0800 
 37 H       -2.4720    -8.1720    -1.5720 H     1 <1>   0.0800 
 38 H       -1.6050    -9.2880     1.0930 H     1 <1>   0.0800 
 39 H       -3.2270    -7.7510     1.1260 H     1 <1>   0.4000 
 40 H       -1.7890   -10.5560    -1.6610 H     1 <1>   0.0800 
 41 H       -3.0050   -10.6840    -0.4310 H     1 <1>   0.0800 
 42 H       -2.7720   -12.2200     1.3760 H     1 <1>   0.1500 
 43 H        1.5090   -13.3830    -0.2920 H     1 <1>   0.1500 
 44 H        0.4840   -14.6600     1.4930 H     1 <1>   0.1500 
@<TRIPOS>BOND
  1   1   2  1   
  2   2   3  ar  
  3   2   4  ar  
  4   3   5  ar  
  5   3  25  1   
  6   4   6  ar  
  7   4  26  1   
  8   5   7  ar  
  9   5   8  1   
 10   6   7  ar  
 11   6  27  1   
 12   7  28  1   
 13   8   9  1   
 14   8  29  1   
 15   8  30  1   
 16   9  10  1   
 17   9  31  1   
 18   9  32  1   
 19  10  11  2   
 20  10  12  am  
 21  12  13  1   
 22  12  14  1   
 23  13  15  1   
 24  13  33  1   
 25  13  34  1   
 26  14  16  1   
 27  14  35  1   
 28  14  36  1   
 29  15  16  1   
 30  15  17  1   
 31  15  37  1   
 32  16  18  1   
 33  16  38  1   
 34  17  39  1   
 35  18  19  1   
 36  18  40  1   
 37  18  41  1   
 38  19  20  ar  
 39  19  21  ar  
 40  20  22  ar  
 41  21  23  ar  
 42  21  42  1   
 43  22  24  ar  
 44  22  43  1   
 45  23  24  ar  
 46  24  44  1   
@<TRIPOS>SUBSTRUCTURE
  1 ****  12 GROUP 4 **** **** 0

# MOE 2024.06 (io_trps.svl 2023.06)
