@<TRIPOS>MOLECULE
NONAME
45 47 1 0 0 
SMALL
USER_CHARGES


@<TRIPOS>ATOM
  1 F        0.8140     0.1520    -1.2080 F     1 <1>  -0.1900 
  2 C        1.6800     0.9710    -0.6470 C.ar  1 <1>   0.1900 
  3 C        2.8480     0.5030    -0.0470 C.ar  1 <1>   0.4100 
  4 C        1.4300     2.3140    -0.6650 C.ar  1 <1>   0.1600 
  5 N        3.6960     1.3640     0.4840 N.ar  1 <1>  -0.6200 
  6 N        3.1890    -0.8430     0.0270 N.pl3 1 <1>  -0.8380 
  7 N        2.2690     3.1780    -0.1280 N.ar  1 <1>  -0.6200 
  8 C        3.3550     2.6410     0.4210 C.ar  1 <1>   0.7200 
  9 C        2.2760    -1.7930     0.7270 C.3   1 <1>   0.2090 
 10 C        4.6240    -1.2360     0.1770 C.3   1 <1>   0.2090 
 11 N        4.2480     3.4720     0.9990 N.pl3 1 <1>  -0.8690 
 12 C        2.5970    -3.2470     0.3340 C.3   1 <1>   0.1200 
 13 C        4.8250    -2.7210    -0.1790 C.3   1 <1>   0.1200 
 14 C        4.5530     4.7860     0.4440 C.3   1 <1>   0.4270 
 15 O        3.9510    -3.5400     0.5500 O.3   1 <1>  -0.5600 
 16 C        6.0700     4.9620     0.4220 C.2   1 <1>  -0.2760 
 17 C        3.9060     5.8420     1.3290 C.3   1 <1>  -0.2400 
 18 C        6.9250     4.4280     1.3080 C.2   1 <1>  -0.2880 
 19 C        6.5490     5.8340    -0.7370 C.3   1 <1>  -0.0220 
 20 C        8.4350     4.5850     1.2560 C.3   1 <1>  -0.0220 
 21 C        8.0030     6.2950    -0.5530 C.3   1 <1>  -0.1600 
 22 C        8.8970     5.1350    -0.1000 C.3   1 <1>  -0.1600 
 23 H        0.5330     2.6890    -1.1250 H     1 <1>   0.1500 
 24 H        1.2510    -1.5790     0.4840 H     1 <1>   0.0800 
 25 H        2.3960    -1.6820     1.7910 H     1 <1>   0.0800 
 26 H        4.9370    -1.0660     1.1920 H     1 <1>   0.0800 
 27 H        5.2340    -0.6280    -0.4680 H     1 <1>   0.0800 
 28 H        5.1080     2.9770     1.2160 H     1 <1>   0.4000 
 29 H        2.3710    -3.4110    -0.7050 H     1 <1>   0.0800 
 30 H        2.0150    -3.9290     0.9270 H     1 <1>   0.0800 
 31 H        5.8300    -3.0230     0.0530 H     1 <1>   0.0800 
 32 H        4.6480    -2.8790    -1.2280 H     1 <1>   0.0800 
 33 H        4.1640     4.8520    -0.5590 H     1 <1>   0.0800 
 34 H        4.2940     5.7720     2.3290 H     1 <1>   0.0800 
 35 H        2.8410     5.6990     1.3470 H     1 <1>   0.0800 
 36 H        4.1160     6.8220     0.9450 H     1 <1>   0.0800 
 37 H        6.6070     3.8400     2.1530 H     1 <1>   0.1500 
 38 H        5.9250     6.7070    -0.8270 H     1 <1>   0.0800 
 39 H        6.4650     5.2700    -1.6500 H     1 <1>   0.0800 
 40 H        8.9050     3.6320     1.4270 H     1 <1>   0.0800 
 41 H        8.7400     5.2530     2.0420 H     1 <1>   0.0800 
 42 H        8.0340     7.0730     0.1910 H     1 <1>   0.0800 
 43 H        8.3710     6.7050    -1.4780 H     1 <1>   0.0800 
 44 H        8.8490     4.3490    -0.8340 H     1 <1>   0.0800 
 45 H        9.9190     5.4620    -0.0280 H     1 <1>   0.0800 
@<TRIPOS>BOND
  1   1   2  1   
  2   2   3  ar  
  3   2   4  ar  
  4   3   5  ar  
  5   3   6  1   
  6   4   7  ar  
  7   4  23  1   
  8   5   8  ar  
  9   6   9  1   
 10   6  10  1   
 11   7   8  ar  
 12   8  11  1   
 13   9  12  1   
 14   9  24  1   
 15   9  25  1   
 16  10  13  1   
 17  10  26  1   
 18  10  27  1   
 19  11  14  1   
 20  11  28  1   
 21  12  15  1   
 22  12  29  1   
 23  12  30  1   
 24  13  15  1   
 25  13  31  1   
 26  13  32  1   
 27  14  16  1   
 28  14  17  1   
 29  14  33  1   
 30  16  18  2   
 31  16  19  1   
 32  17  34  1   
 33  17  35  1   
 34  17  36  1   
 35  18  20  1   
 36  18  37  1   
 37  19  21  1   
 38  19  38  1   
 39  19  39  1   
 40  20  22  1   
 41  20  40  1   
 42  20  41  1   
 43  21  22  1   
 44  21  42  1   
 45  21  43  1   
 46  22  44  1   
 47  22  45  1   
@<TRIPOS>SUBSTRUCTURE
  1 ****   5 GROUP 4 **** **** 0

# MOE 2024.06 (io_trps.svl 2023.06)
