@<TRIPOS>MOLECULE
NONAME
20 21 1 0 0 
SMALL
USER_CHARGES


@<TRIPOS>ATOM
  1 O        0.1870    -0.1910    -0.7180 O.3   1 <1>  -0.3630 
  2 C        1.4380    -0.6500    -0.5550 C.ar  1 <1>   0.0830 
  3 C       -0.7360    -1.1440    -0.2080 C.3   1 <1>   0.1200 
  4 C        1.4800    -1.9240    -0.0530 C.ar  1 <1>  -0.1440 
  5 C        2.5930     0.0530    -0.8440 C.ar  1 <1>  -0.1500 
  6 C        0.0730    -2.4130     0.1390 C.3   1 <1>   0.0640 
  7 C        2.6930    -2.5430     0.1880 C.ar  1 <1>  -0.1500 
  8 C        3.8140    -0.5600    -0.6090 C.ar  1 <1>  -0.1500 
  9 C       -0.2340    -3.5780    -0.8090 C.3   1 <1>  -0.2400 
 10 C        3.8630    -1.8510    -0.0940 C.ar  1 <1>  -0.1500 
 11 H       -1.4850    -1.3260    -0.9570 H     1 <1>   0.0800 
 12 H       -1.1870    -0.7230     0.6720 H     1 <1>   0.0800 
 13 H        2.5280     1.0500    -1.2400 H     1 <1>   0.1500 
 14 H       -0.0990    -2.7010     1.1610 H     1 <1>   0.0800 
 15 H        2.7300    -3.5430     0.5830 H     1 <1>   0.1500 
 16 H        4.7270    -0.0340    -0.8250 H     1 <1>   0.1500 
 17 H       -0.0440    -3.2870    -1.8280 H     1 <1>   0.0800 
 18 H       -1.2630    -3.8750    -0.7170 H     1 <1>   0.0800 
 19 H        0.3910    -4.4200    -0.5720 H     1 <1>   0.0800 
 20 H        4.8160    -2.3170     0.0860 H     1 <1>   0.1500 
@<TRIPOS>BOND
  1   1   2  1   
  2   1   3  1   
  3   2   4  ar  
  4   2   5  ar  
  5   3   6  1   
  6   3  11  1   
  7   3  12  1   
  8   4   6  1   
  9   4   7  ar  
 10   5   8  ar  
 11   5  13  1   
 12   6   9  1   
 13   6  14  1   
 14   7  10  ar  
 15   7  15  1   
 16   8  10  ar  
 17   8  16  1   
 18   9  17  1   
 19   9  18  1   
 20   9  19  1   
 21  10  20  1   
@<TRIPOS>SUBSTRUCTURE
  1 ****   4 GROUP 4 **** **** 0

# MOE 2024.06 (io_trps.svl 2023.06)
