@<TRIPOS>MOLECULE
NONAME
44 46 1 0 0 
SMALL
USER_CHARGES


@<TRIPOS>ATOM
  1 F        0.1510    -1.3050    -0.9110 F     1 <1>  -0.1900 
  2 C       -1.1370    -1.3550    -0.7050 C.ar  1 <1>   0.1900 
  3 C       -1.7130    -0.4230     0.1510 C.ar  1 <1>   0.0860 
  4 C       -1.8630    -2.3230    -1.3710 C.ar  1 <1>  -0.1500 
  5 C       -3.0950    -0.5180     0.2880 C.ar  1 <1>   0.1900 
  6 C       -0.9380     0.5710     0.8420 C.2   1 <1>   0.5440 
  7 C       -3.2380    -2.3860    -1.2000 C.ar  1 <1>   0.0820 
  8 F       -3.7080     0.3340     1.0640 F     1 <1>  -0.1900 
  9 C       -3.8630    -1.4680    -0.3580 C.ar  1 <1>  -0.1500 
 10 O       -0.2160     0.2680     1.7720 O.2   1 <1>  -0.5700 
 11 N       -0.9180     1.8840     0.4400 N.am  1 <1>  -0.6600 
 12 O       -3.8960    -3.3500    -1.8780 O.3   1 <1>  -0.3630 
 13 C       -0.7130     2.9580     1.4840 C.3   1 <1>   0.2200 
 14 C       -0.6640     2.2110    -0.9920 C.3   1 <1>   0.1400 
 15 C       -5.2900    -3.5340    -1.7540 C.3   1 <1>   0.0400 
 16 C       -1.2680     4.3270     1.0600 C.3   1 <1>   0.1200 
 17 C        0.7800     3.0800     1.8780 C.3   1 <1>   0.3430 
 18 C        0.3990     3.3070    -1.1970 C.3   1 <1>  -0.0800 
 19 O       -0.3080     5.0420     0.3370 O.3   1 <1>  -0.5600 
 20 N        1.6840     2.4210     0.8750 N.4   1 <1>  -0.9590 
 21 C       -0.1880     4.7160    -1.0050 C.3   1 <1>   0.1200 
 22 C        1.7450     3.1150    -0.4540 C.3   1 <1>   0.3430 
 23 C        3.0360     2.1750     1.4480 C.3   1 <1>   0.2630 
 24 H       -1.3730    -3.0260    -2.0210 H     1 <1>   0.1500 
 25 H       -4.9240    -1.4770    -0.1960 H     1 <1>   0.1500 
 26 H       -1.2620     2.6630     2.3620 H     1 <1>   0.0800 
 27 H       -0.3350     1.3220    -1.5020 H     1 <1>   0.0800 
 28 H       -1.5930     2.5140    -1.4480 H     1 <1>   0.0800 
 29 H       -5.5720    -4.3670    -2.3730 H     1 <1>   0.0800 
 30 H       -5.7920    -2.6440    -2.0890 H     1 <1>   0.0800 
 31 H       -5.5250    -3.7490    -0.7260 H     1 <1>   0.0800 
 32 H       -1.4800     4.9080     1.9400 H     1 <1>   0.0800 
 33 H       -2.1770     4.2360     0.4900 H     1 <1>   0.0800 
 34 H        0.9020     2.5930     2.8310 H     1 <1>   0.0800 
 35 H        1.0460     4.1170     2.0030 H     1 <1>   0.0800 
 36 H        0.6420     3.2710    -2.2440 H     1 <1>   0.0800 
 37 H        1.2170     1.5030     0.7370 H     1 <1>   0.4500 
 38 H       -1.1530     4.8140    -1.4760 H     1 <1>   0.0800 
 39 H        0.4700     5.4480    -1.4430 H     1 <1>   0.0800 
 40 H        2.2040     4.0820    -0.3270 H     1 <1>   0.0800 
 41 H        2.3910     2.5390    -1.0970 H     1 <1>   0.0800 
 42 H        3.5280     3.1100     1.6610 H     1 <1>   0.0800 
 43 H        3.6390     1.6140     0.7530 H     1 <1>   0.0800 
 44 H        2.9540     1.6090     2.3620 H     1 <1>   0.0800 
@<TRIPOS>BOND
  1   1   2  1   
  2   2   3  ar  
  3   2   4  ar  
  4   3   5  ar  
  5   3   6  1   
  6   4   7  ar  
  7   4  24  1   
  8   5   8  1   
  9   5   9  ar  
 10   6  10  2   
 11   6  11  am  
 12   7   9  ar  
 13   7  12  1   
 14   9  25  1   
 15  11  13  1   
 16  11  14  1   
 17  12  15  1   
 18  13  16  1   
 19  13  17  1   
 20  13  26  1   
 21  14  18  1   
 22  14  27  1   
 23  14  28  1   
 24  15  29  1   
 25  15  30  1   
 26  15  31  1   
 27  16  19  1   
 28  16  32  1   
 29  16  33  1   
 30  17  20  1   
 31  17  34  1   
 32  17  35  1   
 33  18  21  1   
 34  18  22  1   
 35  18  36  1   
 36  19  21  1   
 37  20  22  1   
 38  20  23  1   
 39  20  37  1   
 40  21  38  1   
 41  21  39  1   
 42  22  40  1   
 43  22  41  1   
 44  23  42  1   
 45  23  43  1   
 46  23  44  1   
@<TRIPOS>SUBSTRUCTURE
  1 ****   6 GROUP 4 **** **** 0

# MOE 2024.06 (io_trps.svl 2023.06)
