@<TRIPOS>MOLECULE
NONAME
55 57 1 0 0 
SMALL
USER_CHARGES


@<TRIPOS>ATOM
  1 O       -1.0840    -1.8830     0.3000 O.2   1 <1>  -0.5700 
  2 C       -0.1350    -2.6130     0.1420 C.2   1 <1>   0.5690 
  3 N       -0.0700    -3.5630    -0.8410 N.am  1 <1>  -0.6600 
  4 C        1.0520    -2.4870     1.0750 C.3   1 <1>  -0.0990 
  5 C        1.1210    -4.4410    -0.9590 C.3   1 <1>   0.1400 
  6 C       -1.1820    -3.8060    -1.7970 C.3   1 <1>   0.0600 
  7 C        2.3650    -2.5110     0.2740 C.3   1 <1>  -0.0800 
  8 C        2.4120    -3.6120    -0.8130 C.3   1 <1>  -0.0800 
  9 C        3.6040    -2.7110     1.1560 C.3   1 <1>  -0.1600 
 10 C        3.6410    -4.4710    -0.4870 C.3   1 <1>  -0.1600 
 11 C        4.5550    -3.5270     0.2910 C.3   1 <1>   0.2200 
 12 N        5.6180    -4.1920     1.1040 N.am  1 <1>  -0.6600 
 13 C        6.8740    -3.6270     1.2340 C.2   1 <1>   0.5440 
 14 C        5.2720    -5.4490     1.8360 C.3   1 <1>   0.0600 
 15 O        7.7460    -4.2430     1.8210 O.2   1 <1>  -0.5700 
 16 C        7.1760    -2.3170     0.7080 C.ar  1 <1>   0.0860 
 17 C        7.5190    -2.0710    -0.6300 C.ar  1 <1>   0.0820 
 18 C        7.0740    -1.2180     1.5570 C.ar  1 <1>  -0.1500 
 19 O        7.6550    -3.0440    -1.5640 O.3   1 <1>  -0.3630 
 20 C        7.7160    -0.7760    -1.0800 C.ar  1 <1>  -0.1500 
 21 C        7.2640     0.0780     1.1190 C.ar  1 <1>   0.0820 
 22 C        8.3990    -4.2110    -1.2780 C.3   1 <1>   0.0400 
 23 C        7.6000     0.3140    -0.2250 C.ar  1 <1>   0.0820 
 24 O        7.1010     1.0380     2.0740 O.3   1 <1>  -0.3630 
 25 O        7.8200     1.5840    -0.6610 O.3   1 <1>  -0.3630 
 26 C        6.5440     2.2930     1.7490 C.3   1 <1>   0.0400 
 27 C        8.3240     1.8660    -1.9490 C.3   1 <1>   0.0400 
 28 H        0.9760    -1.5710     1.6330 H     1 <1>   0.0800 
 29 H        1.0130    -3.3080     1.7650 H     1 <1>   0.0800 
 30 H        1.0660    -5.1850    -0.1830 H     1 <1>   0.0800 
 31 H        1.1200    -4.9450    -1.9100 H     1 <1>   0.0800 
 32 H       -0.8380    -3.6460    -2.8030 H     1 <1>   0.0800 
 33 H       -2.0010    -3.1340    -1.6030 H     1 <1>   0.0800 
 34 H       -1.5360    -4.8170    -1.6950 H     1 <1>   0.0800 
 35 H        2.4580    -1.5620    -0.2300 H     1 <1>   0.0800 
 36 H        2.5910    -3.1250    -1.7570 H     1 <1>   0.0800 
 37 H        3.3490    -3.2680     2.0390 H     1 <1>   0.0800 
 38 H        4.0420    -1.7710     1.4400 H     1 <1>   0.0800 
 39 H        4.1210    -4.8340    -1.3790 H     1 <1>   0.0800 
 40 H        3.3370    -5.3000     0.1240 H     1 <1>   0.0800 
 41 H        5.0020    -2.8660    -0.4300 H     1 <1>   0.0800 
 42 H        4.2970    -5.3660     2.2810 H     1 <1>   0.0800 
 43 H        5.9820    -5.6420     2.6230 H     1 <1>   0.0800 
 44 H        5.2860    -6.2800     1.1540 H     1 <1>   0.0800 
 45 H        6.8290    -1.3840     2.5910 H     1 <1>   0.1500 
 46 H        7.9650    -0.6520    -2.1150 H     1 <1>   0.1500 
 47 H        8.8020    -4.5870    -2.2000 H     1 <1>   0.0800 
 48 H        7.7460    -4.9470    -0.8440 H     1 <1>   0.0800 
 49 H        9.1990    -3.9690    -0.5990 H     1 <1>   0.0800 
 50 H        6.1610     2.7330     2.6520 H     1 <1>   0.0800 
 51 H        5.7480     2.1540     1.0390 H     1 <1>   0.0800 
 52 H        7.3160     2.9200     1.3410 H     1 <1>   0.0800 
 53 H        8.4760     2.9270    -2.0230 H     1 <1>   0.0800 
 54 H        7.6050     1.5480    -2.6830 H     1 <1>   0.0800 
 55 H        9.2610     1.3530    -2.0770 H     1 <1>   0.0800 
@<TRIPOS>BOND
  1   1   2  2   
  2   2   3  am  
  3   2   4  1   
  4   3   5  1   
  5   3   6  1   
  6   4   7  1   
  7   4  28  1   
  8   4  29  1   
  9   5   8  1   
 10   5  30  1   
 11   5  31  1   
 12   6  32  1   
 13   6  33  1   
 14   6  34  1   
 15   7   8  1   
 16   7   9  1   
 17   7  35  1   
 18   8  10  1   
 19   8  36  1   
 20   9  11  1   
 21   9  37  1   
 22   9  38  1   
 23  10  11  1   
 24  10  39  1   
 25  10  40  1   
 26  11  12  1   
 27  11  41  1   
 28  12  13  am  
 29  12  14  1   
 30  13  15  2   
 31  13  16  1   
 32  14  42  1   
 33  14  43  1   
 34  14  44  1   
 35  16  17  ar  
 36  16  18  ar  
 37  17  19  1   
 38  17  20  ar  
 39  18  21  ar  
 40  18  45  1   
 41  19  22  1   
 42  20  23  ar  
 43  20  46  1   
 44  21  23  ar  
 45  21  24  1   
 46  22  47  1   
 47  22  48  1   
 48  22  49  1   
 49  23  25  1   
 50  24  26  1   
 51  25  27  1   
 52  26  50  1   
 53  26  51  1   
 54  26  52  1   
 55  27  53  1   
 56  27  54  1   
 57  27  55  1   
@<TRIPOS>SUBSTRUCTURE
  1 ****  11 GROUP 4 **** **** 0

# MOE 2024.06 (io_trps.svl 2023.06)
