@<TRIPOS>MOLECULE
NONAME
52 55 1 0 0 
SMALL
USER_CHARGES


@<TRIPOS>ATOM
  1 O       -0.5090    -0.1280     0.6540 O.3   1 <1>  -0.3630 
  2 C       -1.5460     0.5350     0.0820 C.ar  1 <1>   0.0830 
  3 C        0.6600     0.5290     1.0890 C.3   1 <1>   0.0400 
  4 C       -2.6560    -0.2200    -0.3110 C.ar  1 <1>   0.0000 
  5 C       -1.5330     1.9140    -0.1170 C.ar  1 <1>  -0.1500 
  6 C       -2.6930    -1.6480    -0.1140 C.ar  1 <1>   0.6200 
  7 C       -3.7330     0.4430    -0.9000 C.ar  1 <1>  -0.1500 
  8 C       -2.6130     2.5470    -0.7030 C.ar  1 <1>  -0.1500 
  9 N       -2.2380    -2.4210    -1.1040 N.ar  1 <1>  -0.6200 
 10 N       -3.2000    -2.1020     1.0350 N.ar  1 <1>  -0.6200 
 11 C       -3.7160     1.8100    -1.0960 C.ar  1 <1>  -0.1500 
 12 C       -2.2460    -3.7120    -0.9020 C.ar  1 <1>   0.1600 
 13 C       -3.1980    -3.3960     1.2150 C.ar  1 <1>   0.1600 
 14 C       -2.7330    -4.2680     0.2580 C.ar  1 <1>  -0.1430 
 15 C       -2.7610    -5.7630     0.4740 C.3   1 <1>   0.4860 
 16 N       -3.8940    -6.3550    -0.2960 N.4   1 <1>  -0.9590 
 17 C       -5.2360    -5.8000     0.0780 C.3   1 <1>   0.3430 
 18 C       -3.9720    -7.8470    -0.1750 C.3   1 <1>   0.3430 
 19 C       -6.2160    -6.9540    -0.1220 C.3   1 <1>   0.2000 
 20 C       -5.4130    -8.2060     0.2100 C.3   1 <1>  -0.0800 
 21 O       -7.3200    -6.8480     0.7060 O.3   1 <1>  -0.6800 
 22 C       -5.9520    -9.4620    -0.5030 C.3   1 <1>  -0.0170 
 23 C       -5.1950   -10.7250    -0.1120 C.ar  1 <1>   0.1670 
 24 N       -3.9000   -10.7510    -0.3950 N.ar  1 <1>  -0.6200 
 25 C       -5.8700   -11.7800     0.5030 C.ar  1 <1>   0.1600 
 26 C       -3.3390   -11.8980    -0.0390 C.ar  1 <1>   0.1600 
 27 N       -5.3040   -12.9150     0.8720 N.ar  1 <1>  -0.6200 
 28 C       -4.0170   -12.9430     0.5750 C.ar  1 <1>   0.1600 
 29 H        1.3230    -0.2090     1.5010 H     1 <1>   0.0800 
 30 H        0.3950     1.2460     1.8450 H     1 <1>   0.0800 
 31 H        1.1240     1.0080     0.2460 H     1 <1>   0.0800 
 32 H       -0.6920     2.5120     0.1770 H     1 <1>   0.1500 
 33 H       -4.5920    -0.1270    -1.2070 H     1 <1>   0.1500 
 34 H       -2.5980     3.6130    -0.8550 H     1 <1>   0.1500 
 35 H       -4.5570     2.3020    -1.5530 H     1 <1>   0.1500 
 36 H       -1.8520    -4.3300    -1.6910 H     1 <1>   0.1500 
 37 H       -3.5820    -3.7560     2.1560 H     1 <1>   0.1500 
 38 H       -2.8750    -5.9770     1.5250 H     1 <1>   0.0800 
 39 H       -1.8270    -6.1900     0.1440 H     1 <1>   0.0800 
 40 H       -3.7430    -6.1330    -1.2900 H     1 <1>   0.4500 
 41 H       -5.2400    -5.5130     1.1160 H     1 <1>   0.0800 
 42 H       -5.4980    -4.9520    -0.5340 H     1 <1>   0.0800 
 43 H       -3.7230    -8.3050    -1.1200 H     1 <1>   0.0800 
 44 H       -3.2890    -8.2240     0.5700 H     1 <1>   0.0800 
 45 H       -6.5630    -6.9610    -1.1430 H     1 <1>   0.0800 
 46 H       -5.4260    -8.3740     1.2730 H     1 <1>   0.0800 
 47 H       -7.1310    -7.0720     1.6390 H     1 <1>   0.4000 
 48 H       -5.8830    -9.3420    -1.5700 H     1 <1>   0.0800 
 49 H       -6.9950    -9.5810    -0.2630 H     1 <1>   0.0800 
 50 H       -6.9240   -11.6860     0.6990 H     1 <1>   0.1500 
 51 H       -2.2890   -12.0230    -0.2420 H     1 <1>   0.1500 
 52 H       -3.4740   -13.8370     0.8300 H     1 <1>   0.1500 
@<TRIPOS>BOND
  1   1   2  1   
  2   1   3  1   
  3   2   4  ar  
  4   2   5  ar  
  5   3  29  1   
  6   3  30  1   
  7   3  31  1   
  8   4   6  1   
  9   4   7  ar  
 10   5   8  ar  
 11   5  32  1   
 12   6   9  ar  
 13   6  10  ar  
 14   7  11  ar  
 15   7  33  1   
 16   8  11  ar  
 17   8  34  1   
 18   9  12  ar  
 19  10  13  ar  
 20  11  35  1   
 21  12  14  ar  
 22  12  36  1   
 23  13  14  ar  
 24  13  37  1   
 25  14  15  1   
 26  15  16  1   
 27  15  38  1   
 28  15  39  1   
 29  16  17  1   
 30  16  18  1   
 31  16  40  1   
 32  17  19  1   
 33  17  41  1   
 34  17  42  1   
 35  18  20  1   
 36  18  43  1   
 37  18  44  1   
 38  19  20  1   
 39  19  21  1   
 40  19  45  1   
 41  20  22  1   
 42  20  46  1   
 43  21  47  1   
 44  22  23  1   
 45  22  48  1   
 46  22  49  1   
 47  23  24  ar  
 48  23  25  ar  
 49  24  26  ar  
 50  25  27  ar  
 51  25  50  1   
 52  26  28  ar  
 53  26  51  1   
 54  27  28  ar  
 55  28  52  1   
@<TRIPOS>SUBSTRUCTURE
  1 ****  14 GROUP 4 **** **** 0

# MOE 2024.06 (io_trps.svl 2023.06)
