@<TRIPOS>MOLECULE
NONAME
30 31 1 0 0 
SMALL
USER_CHARGES


@<TRIPOS>ATOM
  1 CL      -0.4170    -0.5780    -1.6340 Cl    1 <1>  -0.1770 
  2 C       -1.8640    -1.2770    -0.9410 C.ar  1 <1>   0.1770 
  3 C       -1.7930    -2.3270    -0.0590 C.ar  1 <1>   0.1600 
  4 C       -3.1090    -0.7920    -1.2600 C.ar  1 <1>   0.1600 
  5 N       -2.8730    -2.8610     0.4680 N.ar  1 <1>  -0.6200 
  6 N       -4.2040    -1.3070    -0.7460 N.ar  1 <1>  -0.6200 
  7 C       -4.0390    -2.3250     0.1020 C.ar  1 <1>   0.7200 
  8 N       -5.1780    -2.8780     0.6390 N.pl3 1 <1>  -0.8380 
  9 C       -5.2310    -4.2890     1.1380 C.3   1 <1>   0.2090 
 10 C       -6.4520    -2.1220     0.7970 C.3   1 <1>   0.2090 
 11 C       -6.3290    -5.0610     0.3880 C.3   1 <1>   0.2000 
 12 C       -7.5910    -2.8670     0.0930 C.3   1 <1>  -0.1600 
 13 O       -5.9780    -5.0970    -0.9510 O.3   1 <1>  -0.6800 
 14 C       -7.6920    -4.3500     0.5260 C.3   1 <1>  -0.0800 
 15 C       -8.7790    -5.0990    -0.2620 C.3   1 <1>   0.1200 
 16 O      -10.0220    -4.5500     0.0180 O.3   1 <1>  -0.6800 
 17 H       -0.8340    -2.7310     0.2130 H     1 <1>   0.1500 
 18 H       -3.2000     0.0290    -1.9490 H     1 <1>   0.1500 
 19 H       -4.2920    -4.7960     0.9980 H     1 <1>   0.0800 
 20 H       -5.4460    -4.2810     2.1920 H     1 <1>   0.0800 
 21 H       -6.6720    -2.0320     1.8470 H     1 <1>   0.0800 
 22 H       -6.3690    -1.1260     0.3960 H     1 <1>   0.0800 
 23 H       -6.3870    -6.0760     0.7410 H     1 <1>   0.0800 
 24 H       -8.5170    -2.3620     0.3060 H     1 <1>   0.0800 
 25 H       -7.4340    -2.8050    -0.9700 H     1 <1>   0.0800 
 26 H       -5.6550    -4.1970    -1.1780 H     1 <1>   0.4000 
 27 H       -7.9560    -4.3830     1.5680 H     1 <1>   0.0800 
 28 H       -8.8040    -6.1420     0.0050 H     1 <1>   0.0800 
 29 H       -8.6090    -5.0150    -1.3220 H     1 <1>   0.0800 
 30 H      -10.2540    -4.6770     0.9570 H     1 <1>   0.4000 
@<TRIPOS>BOND
  1   1   2  1   
  2   2   3  ar  
  3   2   4  ar  
  4   3   5  ar  
  5   3  17  1   
  6   4   6  ar  
  7   4  18  1   
  8   5   7  ar  
  9   6   7  ar  
 10   7   8  1   
 11   8   9  1   
 12   8  10  1   
 13   9  11  1   
 14   9  19  1   
 15   9  20  1   
 16  10  12  1   
 17  10  21  1   
 18  10  22  1   
 19  11  13  1   
 20  11  14  1   
 21  11  23  1   
 22  12  14  1   
 23  12  24  1   
 24  12  25  1   
 25  13  26  1   
 26  14  15  1   
 27  14  27  1   
 28  15  16  1   
 29  15  28  1   
 30  15  29  1   
 31  16  30  1   
@<TRIPOS>SUBSTRUCTURE
  1 ****   8 GROUP 4 **** **** 0

# MOE 2024.06 (io_trps.svl 2023.06)
