@<TRIPOS>MOLECULE
NONAME
49 51 1 0 0 
SMALL
USER_CHARGES


@<TRIPOS>ATOM
  1 S       -0.0640    -0.4530     0.0810 S.o2  1 <1>   1.3330 
  2 O        0.2870     0.6430     0.9450 O.2   1 <1>  -0.6500 
  3 O        0.2250    -0.4130    -1.3290 O.2   1 <1>  -0.6500 
  4 N        0.8800    -1.6920     0.6330 N.am  1 <1>  -0.9780 
  5 C       -1.7490    -0.9960     0.3960 C.3   1 <1>  -0.0550 
  6 C       -2.1390    -2.3020    -0.3210 C.3   1 <1>  -0.1600 
  7 C       -3.5840    -2.7140     0.0050 C.3   1 <1>  -0.0990 
  8 C       -3.9830    -3.9860    -0.7150 C.2   1 <1>   0.5690 
  9 O       -4.6740    -3.9150    -1.7010 O.2   1 <1>  -0.5700 
 10 N       -3.5560    -5.1740    -0.2240 N.am  1 <1>  -0.7300 
 11 C       -3.8680    -6.4850    -0.8320 C.3   1 <1>   0.2200 
 12 C       -5.0800    -7.0790    -0.1350 C.3   1 <1>  -0.0800 
 13 C       -2.7820    -7.4920    -0.4750 C.3   1 <1>   0.1200 
 14 C       -4.4580    -7.7910     1.0720 C.3   1 <1>   0.1200 
 15 C       -5.8410    -8.0480    -1.0620 C.3   1 <1>  -0.0170 
 16 O       -3.0920    -7.9440     0.8070 O.3   1 <1>  -0.5600 
 17 C       -7.1210    -8.5590    -0.4080 C.ar  1 <1>  -0.1430 
 18 C       -8.2820    -7.7580    -0.2910 C.ar  1 <1>   0.0000 
 19 C       -7.1770    -9.8280     0.0910 C.ar  1 <1>  -0.1500 
 20 C       -9.4090    -8.3250     0.3520 C.ar  1 <1>   0.3100 
 21 C       -8.3940    -6.4330    -0.7760 C.ar  1 <1>  -0.1500 
 22 C       -8.3470   -10.2930     0.7040 C.ar  1 <1>   0.1600 
 23 N       -9.4250    -9.5900     0.8430 N.ar  1 <1>  -0.6200 
 24 C      -10.5730    -7.5510     0.4920 C.ar  1 <1>  -0.1500 
 25 C       -9.5440    -5.7070    -0.6250 C.ar  1 <1>  -0.1500 
 26 C      -10.6480    -6.2700     0.0190 C.ar  1 <1>  -0.1500 
 27 H        1.5130    -1.2320     1.2850 H     1 <1>   0.4200 
 28 H        1.4470    -1.9330    -0.1790 H     1 <1>   0.4200 
 29 H       -1.8720    -1.1300     1.4540 H     1 <1>   0.0800 
 30 H       -2.4210    -0.2190     0.0880 H     1 <1>   0.0800 
 31 H       -2.0400    -2.1660    -1.3860 H     1 <1>   0.0800 
 32 H       -1.4660    -3.0890    -0.0260 H     1 <1>   0.0800 
 33 H       -4.2600    -1.9330    -0.2940 H     1 <1>   0.0800 
 34 H       -3.6990    -2.8650     1.0620 H     1 <1>   0.0800 
 35 H       -3.0280    -5.2280     0.6490 H     1 <1>   0.3700 
 36 H       -3.9960    -6.3800    -1.8960 H     1 <1>   0.0800 
 37 H       -5.7530    -6.3060     0.1910 H     1 <1>   0.0800 
 38 H       -1.7960    -7.0620    -0.4810 H     1 <1>   0.0800 
 39 H       -2.8150    -8.3390    -1.1380 H     1 <1>   0.0800 
 40 H       -4.8860    -8.7610     1.2530 H     1 <1>   0.0800 
 41 H       -4.5520    -7.1900     1.9600 H     1 <1>   0.0800 
 42 H       -5.2080    -8.8800    -1.3150 H     1 <1>   0.0800 
 43 H       -6.0920    -7.5550    -1.9850 H     1 <1>   0.0800 
 44 H       -6.3370   -10.4960     0.0330 H     1 <1>   0.1500 
 45 H       -7.5600    -5.9780    -1.2790 H     1 <1>   0.1500 
 46 H       -8.3480   -11.3000     1.0850 H     1 <1>   0.1500 
 47 H      -11.4100    -8.0060     0.9880 H     1 <1>   0.1500 
 48 H       -9.6120    -4.6990    -0.9980 H     1 <1>   0.1500 
 49 H      -11.5470    -5.6880     0.1330 H     1 <1>   0.1500 
@<TRIPOS>BOND
  1   1   2  2   
  2   1   3  2   
  3   1   4  am  
  4   1   5  1   
  5   4  27  1   
  6   4  28  1   
  7   5   6  1   
  8   5  29  1   
  9   5  30  1   
 10   6   7  1   
 11   6  31  1   
 12   6  32  1   
 13   7   8  1   
 14   7  33  1   
 15   7  34  1   
 16   8   9  2   
 17   8  10  am  
 18  10  11  1   
 19  10  35  1   
 20  11  12  1   
 21  11  13  1   
 22  11  36  1   
 23  12  14  1   
 24  12  15  1   
 25  12  37  1   
 26  13  16  1   
 27  13  38  1   
 28  13  39  1   
 29  14  16  1   
 30  14  40  1   
 31  14  41  1   
 32  15  17  1   
 33  15  42  1   
 34  15  43  1   
 35  17  18  ar  
 36  17  19  ar  
 37  18  20  ar  
 38  18  21  ar  
 39  19  22  ar  
 40  19  44  1   
 41  20  23  ar  
 42  20  24  ar  
 43  21  25  ar  
 44  21  45  1   
 45  22  23  ar  
 46  22  46  1   
 47  24  26  ar  
 48  24  47  1   
 49  25  26  ar  
 50  25  48  1   
 51  26  49  1   
@<TRIPOS>SUBSTRUCTURE
  1 ****  12 GROUP 4 **** **** 0

# MOE 2024.06 (io_trps.svl 2023.06)
