@<TRIPOS>MOLECULE
NONAME
50 53 1 0 0 
SMALL
USER_CHARGES


@<TRIPOS>ATOM
  1 O       -0.4020     0.3570     0.2910 O.2   1 <1>  -0.5700 
  2 C       -1.4580     0.9620     0.3090 C.2   1 <1>   0.7150 
  3 N       -2.6280     0.2410     0.2810 N.am  1 <1>  -0.6600 
  4 C       -1.4740     2.4060     0.3370 C.2   1 <1>  -0.2370 
  5 C       -3.9410     0.7820    -0.1490 C.3   1 <1>   0.1400 
  6 C       -2.6430    -1.2420     0.2630 C.3   1 <1>   0.1400 
  7 N       -0.5670     3.1950    -0.3430 N.pl3 1 <1>   0.0480 
  8 C       -2.3260     3.2390     1.0060 C.2   1 <1>  -0.1500 
  9 C       -4.6940    -0.4240    -0.7060 C.3   1 <1>   0.2000 
 10 C       -4.1030    -1.6300     0.0190 C.3   1 <1>  -0.0800 
 11 C       -0.8670     4.5160    -0.1040 C.ar  1 <1>  -0.1520 
 12 C        0.5500     2.7140    -1.1820 C.3   1 <1>   0.0160 
 13 C       -1.9690     4.5680     0.7390 C.ar  1 <1>   0.0000 
 14 O       -6.0550    -0.3370    -0.4630 O.3   1 <1>  -0.6800 
 15 C       -4.2680    -2.9470    -0.7550 C.3   1 <1>   0.0210 
 16 C       -0.2670     5.7000    -0.5490 C.ar  1 <1>  -0.1500 
 17 C       -2.4860     5.8050     1.1430 C.ar  1 <1>  -0.1500 
 18 C       -3.5520    -4.0860    -0.0550 C.2   1 <1>   0.1080 
 19 C       -0.7850     6.9080    -0.1460 C.ar  1 <1>  -0.1500 
 20 C       -1.8990     6.9680     0.7030 C.ar  1 <1>  -0.1430 
 21 N       -3.7950    -4.4210     1.1740 N.2   1 <1>  -0.7070 
 22 C       -2.5650    -4.8790    -0.6310 C.2   1 <1>  -0.1500 
 23 C       -2.4340     8.3250     1.1210 C.3   1 <1>  -0.0970 
 24 N       -2.9610    -5.4500     1.4170 N.pl3 1 <1>   0.3000 
 25 C       -2.2050    -5.7440     0.3390 C.2   1 <1>  -0.3320 
 26 C       -1.1680    -6.8520     0.3030 C.3   1 <1>  -0.0600 
 27 H       -4.4520     1.1860     0.7070 H     1 <1>   0.0800 
 28 H       -3.8160     1.5400    -0.9030 H     1 <1>   0.0800 
 29 H       -2.0110    -1.5930    -0.5350 H     1 <1>   0.0800 
 30 H       -2.2850    -1.6400     1.1980 H     1 <1>   0.0800 
 31 H       -3.1400     2.9610     1.6500 H     1 <1>   0.1500 
 32 H       -4.5400    -0.4880    -1.7700 H     1 <1>   0.0800 
 33 H       -4.5640    -1.7320     0.9860 H     1 <1>   0.0800 
 34 H        0.2030     1.9200    -1.8180 H     1 <1>   0.0800 
 35 H        1.3310     2.3410    -0.5450 H     1 <1>   0.0800 
 36 H        0.9290     3.5130    -1.7900 H     1 <1>   0.0800 
 37 H       -6.2340    -0.4290     0.4930 H     1 <1>   0.4000 
 38 H       -3.8790    -2.8420    -1.7510 H     1 <1>   0.0800 
 39 H       -5.3130    -3.1900    -0.8280 H     1 <1>   0.0800 
 40 H        0.5880     5.6630    -1.1970 H     1 <1>   0.1500 
 41 H       -3.3390     5.8160     1.7960 H     1 <1>   0.1500 
 42 H       -0.3330     7.8250    -0.4820 H     1 <1>   0.1500 
 43 H       -2.1890    -4.7970    -1.6350 H     1 <1>   0.1500 
 44 H       -1.6700     8.8740     1.6430 H     1 <1>   0.0800 
 45 H       -3.2840     8.2190     1.7710 H     1 <1>   0.0800 
 46 H       -2.7330     8.8830     0.2520 H     1 <1>   0.0800 
 47 H       -2.9330    -5.9260     2.3260 H     1 <1>   0.2700 
 48 H       -0.7000    -6.8880    -0.6650 H     1 <1>   0.0800 
 49 H       -1.6320    -7.8030     0.4950 H     1 <1>   0.0800 
 50 H       -0.4080    -6.6750     1.0430 H     1 <1>   0.0800 
@<TRIPOS>BOND
  1   1   2  2   
  2   2   3  am  
  3   2   4  1   
  4   3   5  1   
  5   3   6  1   
  6   4   7  1   
  7   4   8  2   
  8   5   9  1   
  9   5  27  1   
 10   5  28  1   
 11   6  10  1   
 12   6  29  1   
 13   6  30  1   
 14   7  11  1   
 15   7  12  1   
 16   8  13  1   
 17   8  31  1   
 18   9  10  1   
 19   9  14  1   
 20   9  32  1   
 21  10  15  1   
 22  10  33  1   
 23  11  13  ar  
 24  11  16  ar  
 25  12  34  1   
 26  12  35  1   
 27  12  36  1   
 28  13  17  ar  
 29  14  37  1   
 30  15  18  1   
 31  15  38  1   
 32  15  39  1   
 33  16  19  ar  
 34  16  40  1   
 35  17  20  ar  
 36  17  41  1   
 37  18  21  2   
 38  18  22  1   
 39  19  20  ar  
 40  19  42  1   
 41  20  23  1   
 42  21  24  1   
 43  22  25  2   
 44  22  43  1   
 45  23  44  1   
 46  23  45  1   
 47  23  46  1   
 48  24  25  1   
 49  24  47  1   
 50  25  26  1   
 51  26  48  1   
 52  26  49  1   
 53  26  50  1   
@<TRIPOS>SUBSTRUCTURE
  1 ****   3 GROUP 4 **** **** 0

# MOE 2024.06 (io_trps.svl 2023.06)
