@<TRIPOS>MOLECULE
NONAME
49 52 1 0 0 
SMALL
USER_CHARGES


@<TRIPOS>ATOM
  1 O       -1.3460     0.3530     1.8040 O.2   1 <1>  -0.5700 
  2 C       -2.1850     0.0040     1.0000 C.2   1 <1>   0.5690 
  3 N       -2.4500    -1.2710     0.6020 N.am  1 <1>  -0.4770 
  4 C       -3.0300     0.9950     0.1990 C.3   1 <1>   0.2050 
  5 C       -3.3600    -1.2600    -0.4500 C.ar  1 <1>   0.1170 
  6 C       -1.8310    -2.4950     1.1670 C.3   1 <1>   0.0600 
  7 C       -3.7370     0.0370    -0.7480 C.ar  1 <1>  -0.1440 
  8 C       -2.0680     1.9360    -0.5350 C.3   1 <1>   0.3430 
  9 C       -4.0350     1.7940     1.0560 C.3   1 <1>  -0.1600 
 10 C       -3.8740    -2.3240    -1.1750 C.ar  1 <1>  -0.1500 
 11 C       -4.6310     0.3000    -1.7710 C.ar  1 <1>  -0.1500 
 12 N       -1.3620     2.8380     0.4420 N.4   1 <1>  -0.9590 
 13 C       -3.3360     2.8460     1.9390 C.3   1 <1>  -0.1600 
 14 C       -4.7680    -2.0670    -2.2010 C.ar  1 <1>  -0.1500 
 15 C       -5.1440    -0.7640    -2.4980 C.ar  1 <1>  -0.1500 
 16 C       -2.3370     3.7130     1.1620 C.3   1 <1>   0.3430 
 17 C       -0.2720     3.6090    -0.2370 C.3   1 <1>   0.3430 
 18 C        0.7230     4.2280     0.7500 C.3   1 <1>   0.0960 
 19 N        1.6890     5.0250    -0.0130 N.pl3 1 <1>   0.3140 
 20 N        1.3210     5.6860    -1.1250 N.2   1 <1>  -0.7070 
 21 C        2.9950     5.2040     0.2560 C.2   1 <1>  -0.3020 
 22 C        2.4020     6.2730    -1.5350 C.2   1 <1>   0.1080 
 23 C        3.4880     6.0070    -0.7090 C.2   1 <1>  -0.1500 
 24 C        2.4400     7.1410    -2.7710 C.3   1 <1>  -0.0590 
 25 H       -1.1610    -2.2370     1.9680 H     1 <1>   0.0800 
 26 H       -1.2800    -3.0110     0.4000 H     1 <1>   0.0800 
 27 H       -2.5990    -3.1440     1.5500 H     1 <1>   0.0800 
 28 H       -2.6210     2.5260    -1.2460 H     1 <1>   0.0800 
 29 H       -1.3490     1.3420    -1.0750 H     1 <1>   0.0800 
 30 H       -4.6020     1.1170     1.6740 H     1 <1>   0.0800 
 31 H       -4.7310     2.2940     0.4050 H     1 <1>   0.0800 
 32 H       -3.5840    -3.3320    -0.9450 H     1 <1>   0.1500 
 33 H       -4.9380     1.3030    -2.0090 H     1 <1>   0.1500 
 34 H       -0.9460     2.1940     1.1490 H     1 <1>   0.4500 
 35 H       -2.8200     2.3600     2.7500 H     1 <1>   0.0800 
 36 H       -4.0790     3.4850     2.3840 H     1 <1>   0.0800 
 37 H       -5.1760    -2.8840    -2.7730 H     1 <1>   0.1500 
 38 H       -5.8430    -0.5820    -3.2980 H     1 <1>   0.1500 
 39 H       -2.8670     4.3280     0.4520 H     1 <1>   0.0800 
 40 H       -1.8200     4.3610     1.8500 H     1 <1>   0.0800 
 41 H       -0.7070     4.3940    -0.8350 H     1 <1>   0.0800 
 42 H        0.2760     2.9560    -0.8970 H     1 <1>   0.0800 
 43 H        1.2530     3.4630     1.2860 H     1 <1>   0.0800 
 44 H        0.2280     4.8870     1.4370 H     1 <1>   0.0800 
 45 H        3.4990     4.7650     1.0990 H     1 <1>   0.1500 
 46 H        4.4900     6.3760    -0.8360 H     1 <1>   0.1500 
 47 H        1.7440     7.9520    -2.6630 H     1 <1>   0.0800 
 48 H        2.1660     6.5580    -3.6300 H     1 <1>   0.0800 
 49 H        3.4260     7.5420    -2.9190 H     1 <1>   0.0800 
@<TRIPOS>BOND
  1   1   2  2   
  2   2   3  am  
  3   2   4  1   
  4   3   5  1   
  5   3   6  1   
  6   4   7  1   
  7   4   8  1   
  8   4   9  1   
  9   5   7  ar  
 10   5  10  ar  
 11   6  25  1   
 12   6  26  1   
 13   6  27  1   
 14   7  11  ar  
 15   8  12  1   
 16   8  28  1   
 17   8  29  1   
 18   9  13  1   
 19   9  30  1   
 20   9  31  1   
 21  10  14  ar  
 22  10  32  1   
 23  11  15  ar  
 24  11  33  1   
 25  12  16  1   
 26  12  17  1   
 27  12  34  1   
 28  13  16  1   
 29  13  35  1   
 30  13  36  1   
 31  14  15  ar  
 32  14  37  1   
 33  15  38  1   
 34  16  39  1   
 35  16  40  1   
 36  17  18  1   
 37  17  41  1   
 38  17  42  1   
 39  18  19  1   
 40  18  43  1   
 41  18  44  1   
 42  19  20  1   
 43  19  21  1   
 44  20  22  2   
 45  21  23  2   
 46  21  45  1   
 47  22  23  1   
 48  22  24  1   
 49  23  46  1   
 50  24  47  1   
 51  24  48  1   
 52  24  49  1   
@<TRIPOS>SUBSTRUCTURE
  1 ****   8 GROUP 4 **** **** 0

# MOE 2024.06 (io_trps.svl 2023.06)
