@<TRIPOS>MOLECULE
NONAME
39 40 1 0 0 
SMALL
USER_CHARGES


@<TRIPOS>ATOM
  1 CL       1.8090     0.0530    -1.4230 Cl    1 <1>  -0.1770 
  2 C        0.7400     1.3430    -0.9160 C.ar  1 <1>   0.1770 
  3 C        1.1100     2.2520     0.0720 C.ar  1 <1>  -0.1440 
  4 C       -0.4890     1.4200    -1.5460 C.ar  1 <1>  -0.1500 
  5 C        0.2050     3.2510     0.4090 C.ar  1 <1>  -0.1500 
  6 C        2.4530     2.2020     0.7980 C.3   1 <1>   0.3640 
  7 C       -1.3780     2.4200    -1.1960 C.ar  1 <1>  -0.1500 
  8 C       -1.0270     3.3350    -0.2190 C.ar  1 <1>  -0.1500 
  9 N        2.5540     0.9170     1.5290 N.am  1 <1>  -0.7300 
 10 C        3.6650     2.4710    -0.1390 C.3   1 <1>   0.2610 
 11 C        3.6290     0.1020     1.4660 C.2   1 <1>   0.5690 
 12 O        4.8670     1.8990     0.3690 O.3   1 <1>  -0.5600 
 13 C        3.8340     3.9820    -0.3170 C.2   1 <1>   0.5690 
 14 O        3.6640    -0.9250     2.0940 O.2   1 <1>  -0.5700 
 15 C        4.8040     0.5030     0.5720 C.3   1 <1>   0.1810 
 16 O        2.9680     4.6240    -0.8620 O.2   1 <1>  -0.5700 
 17 N        4.9610     4.5800     0.1480 N.am  1 <1>  -0.7300 
 18 C        5.2440     6.0340     0.0930 C.3   1 <1>   0.2200 
 19 C        5.9190     6.3540    -1.2560 C.3   1 <1>   0.1200 
 20 C        6.1000     6.4260     1.3100 C.3   1 <1>   0.1200 
 21 O        6.0970     7.7270    -1.4210 O.3   1 <1>  -0.6800 
 22 O        6.2920     7.7980     1.3450 O.3   1 <1>  -0.6800 
 23 H       -0.7450     0.7020    -2.3040 H     1 <1>   0.1500 
 24 H        0.4510     3.9830     1.1600 H     1 <1>   0.1500 
 25 H        2.4570     2.9790     1.5440 H     1 <1>   0.0800 
 26 H       -2.3360     2.4880    -1.6820 H     1 <1>   0.1500 
 27 H       -1.7150     4.1180     0.0530 H     1 <1>   0.1500 
 28 H        1.7500     0.6200     2.0830 H     1 <1>   0.3700 
 29 H        3.4900     2.0480    -1.1100 H     1 <1>   0.0800 
 30 H        4.7110     0.0200    -0.3840 H     1 <1>   0.0800 
 31 H        5.7240     0.1930     1.0320 H     1 <1>   0.0800 
 32 H        5.6870     3.9670     0.5360 H     1 <1>   0.3700 
 33 H        4.3030     6.5560     0.1470 H     1 <1>   0.0800 
 34 H        5.3120     6.0000    -2.0720 H     1 <1>   0.0800 
 35 H        6.8890     5.8910    -1.3060 H     1 <1>   0.0800 
 36 H        7.0690     5.9610     1.2590 H     1 <1>   0.0800 
 37 H        5.6100     6.1450     2.2260 H     1 <1>   0.0800 
 38 H        5.2430     8.1550    -1.6430 H     1 <1>   0.4000 
 39 H        6.5260     8.1100     0.4370 H     1 <1>   0.4000 
@<TRIPOS>BOND
  1   1   2  1   
  2   2   3  ar  
  3   2   4  ar  
  4   3   5  ar  
  5   3   6  1   
  6   4   7  ar  
  7   4  23  1   
  8   5   8  ar  
  9   5  24  1   
 10   6   9  1   
 11   6  10  1   
 12   6  25  1   
 13   7   8  ar  
 14   7  26  1   
 15   8  27  1   
 16   9  11  am  
 17   9  28  1   
 18  10  12  1   
 19  10  13  1   
 20  10  29  1   
 21  11  14  2   
 22  11  15  1   
 23  12  15  1   
 24  13  16  2   
 25  13  17  am  
 26  15  30  1   
 27  15  31  1   
 28  17  18  1   
 29  17  32  1   
 30  18  19  1   
 31  18  20  1   
 32  18  33  1   
 33  19  21  1   
 34  19  34  1   
 35  19  35  1   
 36  20  22  1   
 37  20  36  1   
 38  20  37  1   
 39  21  38  1   
 40  22  39  1   
@<TRIPOS>SUBSTRUCTURE
  1 ****  10 GROUP 4 **** **** 0

# MOE 2024.06 (io_trps.svl 2023.06)
