@<TRIPOS>MOLECULE
NONAME
45 47 1 0 0 
SMALL
USER_CHARGES


@<TRIPOS>ATOM
  1 F        0.6210    -2.1300    -0.6580 F     1 <1>  -0.3400 
  2 C       -0.3050    -2.9620    -0.2020 C.3   1 <1>   1.1640 
  3 F       -0.4880    -3.8800    -1.1480 F     1 <1>  -0.3400 
  4 F        0.2300    -3.6010     0.8290 F     1 <1>  -0.3400 
  5 C       -1.6340    -2.2830     0.1640 C.ar  1 <1>  -0.1440 
  6 C       -2.6470    -3.0300     0.7550 C.ar  1 <1>  -0.1500 
  7 C       -1.8660    -0.9360    -0.0940 C.ar  1 <1>  -0.1500 
  8 C       -3.8700    -2.4570     1.0710 C.ar  1 <1>  -0.1440 
  9 C       -3.0800    -0.3560     0.2300 C.ar  1 <1>  -0.1500 
 10 C       -4.0810    -1.1130     0.8100 C.ar  1 <1>  -0.1500 
 11 C       -4.9680    -3.3040     1.6870 C.3   1 <1>   0.4870 
 12 N       -5.4940    -4.2030     0.6350 N.4   1 <1>  -0.9590 
 13 C       -6.1810    -3.5280    -0.5040 C.3   1 <1>   0.3430 
 14 C       -6.3660    -5.3110     1.0740 C.3   1 <1>   0.3430 
 15 C       -7.1340    -4.5780    -1.0930 C.3   1 <1>   0.2000 
 16 C       -6.9920    -5.8330    -0.2190 C.3   1 <1>  -0.0800 
 17 O       -8.4410    -4.1130    -1.0110 O.3   1 <1>  -0.6800 
 18 C       -6.1280    -6.9310    -0.8850 C.3   1 <1>   0.0210 
 19 C       -4.6300    -6.6540    -0.9480 C.2   1 <1>   0.1080 
 20 N       -4.1080    -5.5840    -1.4700 N.2   1 <1>  -0.7070 
 21 C       -3.6570    -7.5230    -0.4680 C.2   1 <1>  -0.1500 
 22 N       -2.7720    -5.7780    -1.3940 N.pl3 1 <1>   0.3000 
 23 C       -2.4800    -6.9310    -0.7620 C.2   1 <1>  -0.3320 
 24 C       -1.0650    -7.4160    -0.4970 C.3   1 <1>  -0.0600 
 25 H       -2.4760    -4.0740     0.9690 H     1 <1>   0.1500 
 26 H       -1.1050    -0.3220    -0.5490 H     1 <1>   0.1500 
 27 H       -3.2430     0.6900     0.0280 H     1 <1>   0.1500 
 28 H       -5.0170    -0.6380     1.0520 H     1 <1>   0.1500 
 29 H       -5.7530    -2.6760     2.0730 H     1 <1>   0.0800 
 30 H       -4.5570    -3.8830     2.4980 H     1 <1>   0.0800 
 31 H       -4.6830    -4.6570     0.1610 H     1 <1>   0.4500 
 32 H       -6.7410    -2.6710    -0.1680 H     1 <1>   0.0800 
 33 H       -5.4570    -3.2230    -1.2420 H     1 <1>   0.0800 
 34 H       -5.8060    -6.0790     1.5830 H     1 <1>   0.0800 
 35 H       -7.1380    -4.9330     1.7250 H     1 <1>   0.0800 
 36 H       -6.9150    -4.7620    -2.1320 H     1 <1>   0.0800 
 37 H       -7.9570    -6.2650    -0.0170 H     1 <1>   0.0800 
 38 H       -8.7980    -4.1140    -0.1020 H     1 <1>   0.4000 
 39 H       -6.4800    -7.1030    -1.8870 H     1 <1>   0.0800 
 40 H       -6.2710    -7.8510    -0.3470 H     1 <1>   0.0800 
 41 H       -3.8230    -8.4710     0.0160 H     1 <1>   0.1500 
 42 H       -2.0810    -5.1210    -1.7880 H     1 <1>   0.2700 
 43 H       -1.0850    -8.3650     0.0080 H     1 <1>   0.0800 
 44 H       -0.5340    -6.7110     0.1180 H     1 <1>   0.0800 
 45 H       -0.5340    -7.5360    -1.4250 H     1 <1>   0.0800 
@<TRIPOS>BOND
  1   1   2  1   
  2   2   3  1   
  3   2   4  1   
  4   2   5  1   
  5   5   6  ar  
  6   5   7  ar  
  7   6   8  ar  
  8   6  25  1   
  9   7   9  ar  
 10   7  26  1   
 11   8  10  ar  
 12   8  11  1   
 13   9  10  ar  
 14   9  27  1   
 15  10  28  1   
 16  11  12  1   
 17  11  29  1   
 18  11  30  1   
 19  12  13  1   
 20  12  14  1   
 21  12  31  1   
 22  13  15  1   
 23  13  32  1   
 24  13  33  1   
 25  14  16  1   
 26  14  34  1   
 27  14  35  1   
 28  15  16  1   
 29  15  17  1   
 30  15  36  1   
 31  16  18  1   
 32  16  37  1   
 33  17  38  1   
 34  18  19  1   
 35  18  39  1   
 36  18  40  1   
 37  19  20  2   
 38  19  21  1   
 39  20  22  1   
 40  21  23  2   
 41  21  41  1   
 42  22  23  1   
 43  22  42  1   
 44  23  24  1   
 45  24  43  1   
 46  24  44  1   
 47  24  45  1   
@<TRIPOS>SUBSTRUCTURE
  1 ****   6 GROUP 4 **** **** 0

# MOE 2024.06 (io_trps.svl 2023.06)
