@<TRIPOS>MOLECULE
NONAME
46 47 1 0 0 
SMALL
USER_CHARGES


@<TRIPOS>ATOM
  1 S        0.6870     0.4840    -1.8450 S.o2  1 <1>   1.3330 
  2 O        0.9360    -0.8780    -2.2630 O.2   1 <1>  -0.6500 
  3 O        0.0960     1.4210    -2.7730 O.2   1 <1>  -0.6500 
  4 N       -0.3170     0.4320    -0.4750 N.am  1 <1>  -0.8490 
  5 C        2.2280     1.1610    -1.2230 C.3   1 <1>  -0.0550 
  6 C       -0.9380     1.7240    -0.1610 C.3   1 <1>   0.1160 
  7 C       -1.3550    -0.5980    -0.5920 C.3   1 <1>   0.1160 
  8 C        2.9890     0.2240    -0.2600 C.3   1 <1>  -0.0800 
  9 C        4.3830     0.6970     0.1270 C.3   1 <1>   0.2200 
 10 C        2.3170     0.0010     1.1010 C.3   1 <1>   0.1200 
 11 N        4.3850     2.1500     0.4190 N.am  1 <1>  -0.7300 
 12 C        4.5840    -0.0650     1.4280 C.3   1 <1>   0.1200 
 13 O        3.3400    -0.0350     2.0560 O.3   1 <1>  -0.5600 
 14 C        4.9000     3.1280    -0.3800 C.2   1 <1>   0.7150 
 15 O        5.3170     2.8140    -1.4790 O.2   1 <1>  -0.5700 
 16 C        4.9310     4.4960     0.0610 C.2   1 <1>   0.0550 
 17 O        4.4380     4.8490     1.2270 O.3   1 <1>  -0.0190 
 18 C        5.4000     5.6300    -0.5060 C.2   1 <1>  -0.1500 
 19 N        4.5500     6.1210     1.4620 N.2   1 <1>  -0.4100 
 20 C        5.1320     6.6210     0.4270 C.2   1 <1>   0.1080 
 21 C        5.4700     8.1000     0.2780 C.3   1 <1>   0.1010 
 22 C        4.7400     8.7100    -0.9260 C.3   1 <1>  -0.2400 
 23 C        6.9840     8.3030     0.1480 C.3   1 <1>  -0.2400 
 24 H        2.8670     1.3610    -2.0620 H     1 <1>   0.0800 
 25 H        2.0330     2.0990    -0.7420 H     1 <1>   0.0800 
 26 H       -1.4900     1.6550     0.7610 H     1 <1>   0.0800 
 27 H       -1.6090     2.0230    -0.9490 H     1 <1>   0.0800 
 28 H       -0.1830     2.4830    -0.0460 H     1 <1>   0.0800 
 29 H       -1.9660    -0.6150     0.2940 H     1 <1>   0.0800 
 30 H       -0.9010    -1.5680    -0.7050 H     1 <1>   0.0800 
 31 H       -1.9770    -0.4060    -1.4500 H     1 <1>   0.0800 
 32 H        3.0900    -0.7380    -0.7320 H     1 <1>   0.0800 
 33 H        5.1280     0.4510    -0.6120 H     1 <1>   0.0800 
 34 H        1.7740    -0.9280     1.1320 H     1 <1>   0.0800 
 35 H        1.6610     0.8130     1.3630 H     1 <1>   0.0800 
 36 H        4.0280     2.3980     1.3460 H     1 <1>   0.3700 
 37 H        5.3260     0.3820     2.0670 H     1 <1>   0.0800 
 38 H        4.8340    -1.0940     1.2360 H     1 <1>   0.0800 
 39 H        5.8740     5.7480    -1.4630 H     1 <1>   0.1500 
 40 H        5.1360     8.6080     1.1670 H     1 <1>   0.0800 
 41 H        5.0590     8.2450    -1.8410 H     1 <1>   0.0800 
 42 H        4.9390     9.7650    -0.9860 H     1 <1>   0.0800 
 43 H        3.6790     8.5680    -0.8190 H     1 <1>   0.0800 
 44 H        7.3570     7.8280    -0.7420 H     1 <1>   0.0800 
 45 H        7.4830     7.8760     1.0000 H     1 <1>   0.0800 
 46 H        7.2180     9.3510     0.1060 H     1 <1>   0.0800 
@<TRIPOS>BOND
  1   1   2  2   
  2   1   3  2   
  3   1   4  am  
  4   1   5  1   
  5   4   6  1   
  6   4   7  1   
  7   5   8  1   
  8   5  24  1   
  9   5  25  1   
 10   6  26  1   
 11   6  27  1   
 12   6  28  1   
 13   7  29  1   
 14   7  30  1   
 15   7  31  1   
 16   8   9  1   
 17   8  10  1   
 18   8  32  1   
 19   9  11  1   
 20   9  12  1   
 21   9  33  1   
 22  10  13  1   
 23  10  34  1   
 24  10  35  1   
 25  11  14  am  
 26  11  36  1   
 27  12  13  1   
 28  12  37  1   
 29  12  38  1   
 30  14  15  2   
 31  14  16  1   
 32  16  17  1   
 33  16  18  2   
 34  17  19  1   
 35  18  20  1   
 36  18  39  1   
 37  19  20  2   
 38  20  21  1   
 39  21  22  1   
 40  21  23  1   
 41  21  40  1   
 42  22  41  1   
 43  22  42  1   
 44  22  43  1   
 45  23  44  1   
 46  23  45  1   
 47  23  46  1   
@<TRIPOS>SUBSTRUCTURE
  1 ****  11 GROUP 4 **** **** 0

# MOE 2024.06 (io_trps.svl 2023.06)
