@<TRIPOS>MOLECULE
NONAME
38 40 1 0 0 
SMALL
USER_CHARGES


@<TRIPOS>ATOM
  1 F        0.1690    -1.9100     0.8570 F     1 <1>  -0.3400 
  2 C       -0.8230    -1.8130    -0.0260 C.3   1 <1>   1.2010 
  3 F       -0.2510    -1.8810    -1.2270 F     1 <1>  -0.3400 
  4 F       -1.2810    -0.5670     0.0840 F     1 <1>  -0.3400 
  5 C       -1.9230    -2.9000     0.1830 C.2   1 <1>   0.3350 
  6 N       -3.1580    -2.6640     0.4410 N.2   1 <1>  -0.4100 
  7 N       -1.6700    -4.2160     0.1140 N.2   1 <1>  -0.5650 
  8 O       -3.7690    -3.8050     0.5410 O.3   1 <1>  -0.0190 
  9 C       -2.8330    -4.6930     0.3290 C.2   1 <1>   0.2980 
 10 C       -3.1910    -6.1780     0.3860 C.3   1 <1>   0.2900 
 11 N       -4.0340    -6.6330    -0.7510 N.3   1 <1>  -0.8100 
 12 C       -5.4560    -6.2680    -0.6240 C.3   1 <1>   0.1100 
 13 C       -4.0310    -8.0900    -0.9010 C.3   1 <1>   0.1100 
 14 C       -6.1760    -7.4640     0.0110 C.3   1 <1>   0.2000 
 15 C       -5.1660    -8.6140    -0.0170 C.3   1 <1>  -0.0800 
 16 O       -6.5190    -7.1890     1.3260 O.3   1 <1>  -0.6800 
 17 C       -5.7860    -9.9190    -0.5400 C.3   1 <1>   0.0200 
 18 C       -4.8070   -11.0800    -0.5590 C.2   1 <1>  -0.0400 
 19 O       -5.1200   -12.1520    -1.2370 O.3   1 <1>  -0.0190 
 20 C       -3.6040   -11.2880     0.0000 C.2   1 <1>  -0.1500 
 21 N       -4.1920   -13.0610    -1.1670 N.2   1 <1>  -0.4100 
 22 C       -3.2650   -12.5690    -0.4270 C.2   1 <1>   0.1080 
 23 C       -1.9850   -13.2930    -0.0750 C.3   1 <1>  -0.0590 
 24 H       -3.6760    -6.3920     1.3210 H     1 <1>   0.0800 
 25 H       -2.2620    -6.7210     0.3650 H     1 <1>   0.0800 
 26 H       -5.6120    -5.3590    -0.0700 H     1 <1>   0.0800 
 27 H       -5.8480    -6.1250    -1.6170 H     1 <1>   0.0800 
 28 H       -4.2400    -8.3200    -1.9340 H     1 <1>   0.0800 
 29 H       -3.0780    -8.5220    -0.6480 H     1 <1>   0.0800 
 30 H       -7.0820    -7.6880    -0.5270 H     1 <1>   0.0800 
 31 H       -4.7740    -8.7840     0.9710 H     1 <1>   0.0800 
 32 H       -5.7380    -6.8920     1.8260 H     1 <1>   0.4000 
 33 H       -6.1540    -9.7640    -1.5400 H     1 <1>   0.0800 
 34 H       -6.6240   -10.1910     0.0780 H     1 <1>   0.0800 
 35 H       -3.0100   -10.6560     0.6320 H     1 <1>   0.1500 
 36 H       -1.1370   -12.6840    -0.3270 H     1 <1>   0.0800 
 37 H       -1.9250   -14.2180    -0.6210 H     1 <1>   0.0800 
 38 H       -1.9680   -13.5100     0.9770 H     1 <1>   0.0800 
@<TRIPOS>BOND
  1   1   2  1   
  2   2   3  1   
  3   2   4  1   
  4   2   5  1   
  5   5   6  2   
  6   5   7  1   
  7   6   8  1   
  8   7   9  2   
  9   8   9  1   
 10   9  10  1   
 11  10  11  1   
 12  10  24  1   
 13  10  25  1   
 14  11  12  1   
 15  11  13  1   
 16  12  14  1   
 17  12  26  1   
 18  12  27  1   
 19  13  15  1   
 20  13  28  1   
 21  13  29  1   
 22  14  15  1   
 23  14  16  1   
 24  14  30  1   
 25  15  17  1   
 26  15  31  1   
 27  16  32  1   
 28  17  18  1   
 29  17  33  1   
 30  17  34  1   
 31  18  19  1   
 32  18  20  2   
 33  19  21  1   
 34  20  22  1   
 35  20  35  1   
 36  21  22  2   
 37  22  23  1   
 38  23  36  1   
 39  23  37  1   
 40  23  38  1   
@<TRIPOS>SUBSTRUCTURE
  1 ****  11 GROUP 4 **** **** 0

# MOE 2024.06 (io_trps.svl 2023.06)
