@<TRIPOS>MOLECULE
NONAME
48 49 1 0 0 
SMALL
USER_CHARGES


@<TRIPOS>ATOM
  1 O       -1.2490     0.1960     1.0590 O.2   1 <1>  -0.5700 
  2 C       -2.1740     0.9370     1.3330 C.2   1 <1>   0.5440 
  3 N       -3.3800     0.3650     1.6970 N.am  1 <1>  -0.6600 
  4 C       -2.0100     2.3760     1.2200 C.ar  1 <1>   0.0860 
  5 C       -3.4260    -1.0760     2.0790 C.3   1 <1>   0.3200 
  6 C       -4.6840     1.1130     1.7850 C.3   1 <1>   0.1400 
  7 C       -1.6900     3.0180     0.0140 C.ar  1 <1>  -0.1440 
  8 C       -2.1940     3.1620     2.3580 C.ar  1 <1>  -0.1500 
  9 C       -3.6410    -1.8690     0.8100 C.2   1 <1>  -0.3320 
 10 C       -5.6950     0.6850     0.6990 C.3   1 <1>   0.3430 
 11 C       -1.6170     4.4090    -0.0370 C.ar  1 <1>   0.0830 
 12 C       -1.3770     2.2140    -1.2540 C.3   1 <1>  -0.0960 
 13 C       -2.1120     4.5380     2.3080 C.ar  1 <1>  -0.1500 
 14 N       -2.6890    -1.9610    -0.1380 N.pl3 1 <1>   0.0330 
 15 C       -4.6960    -2.5850     0.3650 C.2   1 <1>   0.0770 
 16 N       -5.0570     0.5890    -0.6500 N.4   1 <1>  -0.9590 
 17 O       -1.3310     4.9880    -1.2330 O.3   1 <1>  -0.3630 
 18 C       -1.8330     5.1650     1.1110 C.ar  1 <1>  -0.1500 
 19 C       -3.2460    -2.6930    -1.1240 C.2   1 <1>   0.0360 
 20 N       -4.4590    -3.0670    -0.8680 N.2   1 <1>  -0.5650 
 21 C       -4.7190     1.9270    -1.2260 C.3   1 <1>   0.2630 
 22 C       -5.8880    -0.2110    -1.6020 C.3   1 <1>   0.2630 
 23 C       -0.9300     6.3390    -1.3290 C.3   1 <1>   0.0400 
 24 H       -4.2250    -1.2540     2.7790 H     1 <1>   0.0800 
 25 H       -2.5010    -1.3690     2.5480 H     1 <1>   0.0800 
 26 H       -4.5200     2.1710     1.6900 H     1 <1>   0.0800 
 27 H       -5.1190     0.9520     2.7560 H     1 <1>   0.0800 
 28 H       -2.4010     2.6820     3.2990 H     1 <1>   0.1500 
 29 H       -6.5200     1.3770     0.6730 H     1 <1>   0.0800 
 30 H       -6.0860    -0.2820     0.9710 H     1 <1>   0.0800 
 31 H       -1.8300     1.2410    -1.2470 H     1 <1>   0.0800 
 32 H       -0.3120     2.0880    -1.3330 H     1 <1>   0.0800 
 33 H       -1.7190     2.7250    -2.1350 H     1 <1>   0.0800 
 34 H       -2.2600     5.1240     3.2000 H     1 <1>   0.1500 
 35 H       -1.7460    -1.5430    -0.0870 H     1 <1>   0.2700 
 36 H       -5.6330    -2.7780     0.8640 H     1 <1>   0.1500 
 37 H       -4.1830     0.0510    -0.4800 H     1 <1>   0.4500 
 38 H       -1.7830     6.2370     1.0940 H     1 <1>   0.1500 
 39 H       -2.7120    -2.9340    -2.0280 H     1 <1>   0.1500 
 40 H       -5.6170     2.4910    -1.4170 H     1 <1>   0.0800 
 41 H       -4.1830     1.8090    -2.1530 H     1 <1>   0.0800 
 42 H       -4.1010     2.4870    -0.5440 H     1 <1>   0.0800 
 43 H       -6.8160     0.2950    -1.8110 H     1 <1>   0.0800 
 44 H       -6.1070    -1.1810    -1.1880 H     1 <1>   0.0800 
 45 H       -5.3560    -0.3570    -2.5290 H     1 <1>   0.0800 
 46 H       -0.6340     6.5280    -2.3450 H     1 <1>   0.0800 
 47 H       -0.0960     6.5040    -0.6700 H     1 <1>   0.0800 
 48 H       -1.7590     6.9720    -1.0680 H     1 <1>   0.0800 
@<TRIPOS>BOND
  1   1   2  2   
  2   2   3  am  
  3   2   4  1   
  4   3   5  1   
  5   3   6  1   
  6   4   7  ar  
  7   4   8  ar  
  8   5   9  1   
  9   5  24  1   
 10   5  25  1   
 11   6  10  1   
 12   6  26  1   
 13   6  27  1   
 14   7  11  ar  
 15   7  12  1   
 16   8  13  ar  
 17   8  28  1   
 18   9  14  1   
 19   9  15  2   
 20  10  16  1   
 21  10  29  1   
 22  10  30  1   
 23  11  17  1   
 24  11  18  ar  
 25  12  31  1   
 26  12  32  1   
 27  12  33  1   
 28  13  18  ar  
 29  13  34  1   
 30  14  19  1   
 31  14  35  1   
 32  15  20  1   
 33  15  36  1   
 34  16  21  1   
 35  16  22  1   
 36  16  37  1   
 37  17  23  1   
 38  18  38  1   
 39  19  20  2   
 40  19  39  1   
 41  21  40  1   
 42  21  41  1   
 43  21  42  1   
 44  22  43  1   
 45  22  44  1   
 46  22  45  1   
 47  23  46  1   
 48  23  47  1   
 49  23  48  1   
@<TRIPOS>SUBSTRUCTURE
  1 ****   2 GROUP 4 **** **** 0

# MOE 2024.06 (io_trps.svl 2023.06)
