@<TRIPOS>MOLECULE
NONAME
47 50 1 0 0 
SMALL
USER_CHARGES


@<TRIPOS>ATOM
  1 O       -0.8210     0.2980    -0.5980 O.2   1 <1>  -0.5700 
  2 C       -1.6120     0.9720     0.0330 C.2   1 <1>   0.5440 
  3 N       -2.7230     0.3540     0.5630 N.am  1 <1>  -0.6600 
  4 C       -1.3820     2.3840     0.1850 C.ar  1 <1>   0.0860 
  5 C       -2.7690    -1.1330     0.7420 C.3   1 <1>   0.1400 
  6 C       -4.0910     0.9600     0.4970 C.3   1 <1>   0.1400 
  7 C       -1.7740     3.0950     1.3050 C.ar  1 <1>   0.1600 
  8 C       -0.7410     3.1330    -0.7860 C.ar  1 <1>   0.1600 
  9 C       -3.7190    -1.7810    -0.2800 C.3   1 <1>   0.3440 
 10 C       -4.9890     0.1960    -0.5010 C.3   1 <1>   0.2950 
 11 N       -1.5970     4.3860     1.4410 N.ar  1 <1>  -0.6200 
 12 N       -0.5440     4.4250    -0.6840 N.ar  1 <1>  -0.6200 
 13 O       -4.9820    -1.1740    -0.2060 O.3   1 <1>  -0.5600 
 14 C       -3.8520    -3.2770    -0.0110 C.ar  1 <1>  -0.1440 
 15 C       -6.4340     0.7240    -0.4470 C.3   1 <1>  -0.1950 
 16 C       -0.9880     4.9940     0.4320 C.ar  1 <1>   0.7200 
 17 C       -2.9640    -4.1580    -0.6130 C.ar  1 <1>  -0.1500 
 18 C       -4.8320    -3.7810     0.8330 C.ar  1 <1>  -0.1500 
 19 C       -7.4210     0.2580     0.5790 C.3   1 <1>  -0.2000 
 20 C       -7.6070    -0.1060    -0.8680 C.3   1 <1>  -0.2000 
 21 N       -0.8190     6.3210     0.5970 N.pl3 1 <1>  -0.8690 
 22 C       -3.0530    -5.5190    -0.3740 C.ar  1 <1>  -0.1500 
 23 C       -4.9230    -5.1410     1.0730 C.ar  1 <1>  -0.1500 
 24 C       -0.1090     7.2650    -0.3010 C.3   1 <1>   0.1290 
 25 C       -4.0320    -6.0110     0.4700 C.ar  1 <1>  -0.1500 
 26 H       -1.7860    -1.5580     0.6320 H     1 <1>   0.0800 
 27 H       -3.1130    -1.3620     1.7340 H     1 <1>   0.0800 
 28 H       -4.5430     0.9250     1.4730 H     1 <1>   0.0800 
 29 H       -4.0360     1.9890     0.1920 H     1 <1>   0.0800 
 30 H       -2.2520     2.5690     2.1140 H     1 <1>   0.1500 
 31 H       -0.3870     2.6360    -1.6740 H     1 <1>   0.1500 
 32 H       -3.3350    -1.6320    -1.2750 H     1 <1>   0.0800 
 33 H       -4.6100     0.3220    -1.5010 H     1 <1>   0.0800 
 34 H       -6.4770     1.7650    -0.7170 H     1 <1>   0.1000 
 35 H       -2.1950    -3.7900    -1.2700 H     1 <1>   0.1500 
 36 H       -5.5320    -3.1130     1.3050 H     1 <1>   0.1500 
 37 H       -7.1440    -0.5270     1.2620 H     1 <1>   0.1000 
 38 H       -8.0930     0.9730     1.0210 H     1 <1>   0.1000 
 39 H       -8.4040     0.3600    -1.4210 H     1 <1>   0.1000 
 40 H       -7.4500    -1.1320    -1.1590 H     1 <1>   0.1000 
 41 H       -1.1480     6.6770     1.4940 H     1 <1>   0.4000 
 42 H       -2.3600    -6.1940    -0.8440 H     1 <1>   0.1500 
 43 H       -5.6880    -5.5200     1.7280 H     1 <1>   0.1500 
 44 H        0.1620     6.7860    -1.2260 H     1 <1>   0.0800 
 45 H        0.7860     7.6190     0.1810 H     1 <1>   0.0800 
 46 H       -0.7470     8.1030    -0.5220 H     1 <1>   0.0800 
 47 H       -4.1030    -7.0680     0.6560 H     1 <1>   0.1500 
@<TRIPOS>BOND
  1   1   2  2   
  2   2   3  am  
  3   2   4  1   
  4   3   5  1   
  5   3   6  1   
  6   4   7  ar  
  7   4   8  ar  
  8   5   9  1   
  9   5  26  1   
 10   5  27  1   
 11   6  10  1   
 12   6  28  1   
 13   6  29  1   
 14   7  11  ar  
 15   7  30  1   
 16   8  12  ar  
 17   8  31  1   
 18   9  13  1   
 19   9  14  1   
 20   9  32  1   
 21  10  13  1   
 22  10  15  1   
 23  10  33  1   
 24  11  16  ar  
 25  12  16  ar  
 26  14  17  ar  
 27  14  18  ar  
 28  15  19  1   
 29  15  20  1   
 30  15  34  1   
 31  16  21  1   
 32  17  22  ar  
 33  17  35  1   
 34  18  23  ar  
 35  18  36  1   
 36  19  20  1   
 37  19  37  1   
 38  19  38  1   
 39  20  39  1   
 40  20  40  1   
 41  21  24  1   
 42  21  41  1   
 43  22  25  ar  
 44  22  42  1   
 45  23  25  ar  
 46  23  43  1   
 47  24  44  1   
 48  24  45  1   
 49  24  46  1   
 50  25  47  1   
@<TRIPOS>SUBSTRUCTURE
  1 ****   3 GROUP 4 **** **** 0

# MOE 2024.06 (io_trps.svl 2023.06)
