@<TRIPOS>MOLECULE
NONAME
45 47 1 0 0 
SMALL
USER_CHARGES


@<TRIPOS>ATOM
  1 F        0.3340     0.2410    -0.2800 F     1 <1>  -0.1900 
  2 C        1.1240    -0.8010    -0.1790 C.ar  1 <1>   0.1900 
  3 C        2.5180    -0.6720    -0.3260 C.ar  1 <1>   0.1000 
  4 C        0.4990    -2.0070     0.0760 C.ar  1 <1>  -0.1500 
  5 N        3.2320     0.5220    -0.5860 N.pl3 1 <1>  -0.8380 
  6 C        3.2440    -1.8590    -0.2170 C.ar  1 <1>  -0.1500 
  7 C        1.2610    -3.1560     0.1900 C.ar  1 <1>  -0.1500 
  8 C        4.5300     0.7840     0.0900 C.3   1 <1>   0.2090 
  9 C        2.5790     1.8150    -0.9110 C.3   1 <1>   0.2090 
 10 C        2.6340    -3.0760     0.0400 C.ar  1 <1>  -0.1500 
 11 C        4.6450     2.3030     0.2090 C.3   1 <1>  -0.0800 
 12 C        3.7040     2.8350    -0.8730 C.3   1 <1>  -0.1600 
 13 C        6.0900     2.7890     0.0680 C.3   1 <1>   0.2090 
 14 N        6.1290     4.2620     0.1710 N.pl3 1 <1>  -0.8690 
 15 C        7.2210     5.0180    -0.1800 C.ar  1 <1>   0.4100 
 16 N        8.3830     4.3670    -0.2100 N.ar  1 <1>  -0.6200 
 17 C        7.0780     6.3890    -0.4740 C.ar  1 <1>   0.0860 
 18 C        9.4450     5.0720    -0.5410 C.ar  1 <1>   0.1600 
 19 C        5.7930     7.0490    -0.4100 C.2   1 <1>   0.5440 
 20 C        8.2240     7.0930    -0.8250 C.ar  1 <1>  -0.1500 
 21 C        9.4230     6.4190    -0.8550 C.ar  1 <1>  -0.1500 
 22 O        4.7740     6.5070    -0.8030 O.2   1 <1>  -0.5700 
 23 N        5.6980     8.3190     0.0980 N.am  1 <1>  -0.7300 
 24 C        4.4490     9.1170     0.2080 C.3   1 <1>   0.0600 
 25 H       -0.5700    -2.0440     0.1830 H     1 <1>   0.1500 
 26 H        4.3090    -1.8340    -0.3470 H     1 <1>   0.1500 
 27 H        0.7890    -4.1030     0.3900 H     1 <1>   0.1500 
 28 H        5.3210     0.3900    -0.5250 H     1 <1>   0.0800 
 29 H        4.5600     0.3170     1.0600 H     1 <1>   0.0800 
 30 H        1.8570     2.0600    -0.1510 H     1 <1>   0.0800 
 31 H        2.1020     1.7760    -1.8750 H     1 <1>   0.0800 
 32 H        3.2320    -3.9670     0.1190 H     1 <1>   0.1500 
 33 H        4.2730     2.5850     1.1780 H     1 <1>   0.0800 
 34 H        3.3390     3.8220    -0.6550 H     1 <1>   0.0800 
 35 H        4.1960     2.8450    -1.8300 H     1 <1>   0.0800 
 36 H        6.4930     2.4890    -0.8850 H     1 <1>   0.0800 
 37 H        6.7040     2.3680     0.8460 H     1 <1>   0.0800 
 38 H        5.2290     4.7140    -0.0570 H     1 <1>   0.4000 
 39 H       10.3870     4.5500    -0.5660 H     1 <1>   0.1500 
 40 H        8.1750     8.1380    -1.0750 H     1 <1>   0.1500 
 41 H       10.3340     6.9240    -1.1210 H     1 <1>   0.1500 
 42 H        6.5210     8.7270     0.5450 H     1 <1>   0.3700 
 43 H        3.6440     8.6320    -0.3180 H     1 <1>   0.0800 
 44 H        4.6010    10.0930    -0.2190 H     1 <1>   0.0800 
 45 H        4.1740     9.2200     1.2430 H     1 <1>   0.0800 
@<TRIPOS>BOND
  1   1   2  1   
  2   2   3  ar  
  3   2   4  ar  
  4   3   5  1   
  5   3   6  ar  
  6   4   7  ar  
  7   4  25  1   
  8   5   8  1   
  9   5   9  1   
 10   6  10  ar  
 11   6  26  1   
 12   7  10  ar  
 13   7  27  1   
 14   8  11  1   
 15   8  28  1   
 16   8  29  1   
 17   9  12  1   
 18   9  30  1   
 19   9  31  1   
 20  10  32  1   
 21  11  12  1   
 22  11  13  1   
 23  11  33  1   
 24  12  34  1   
 25  12  35  1   
 26  13  14  1   
 27  13  36  1   
 28  13  37  1   
 29  14  15  1   
 30  14  38  1   
 31  15  16  ar  
 32  15  17  ar  
 33  16  18  ar  
 34  17  19  1   
 35  17  20  ar  
 36  18  21  ar  
 37  18  39  1   
 38  19  22  2   
 39  19  23  am  
 40  20  21  ar  
 41  20  40  1   
 42  21  41  1   
 43  23  24  1   
 44  23  42  1   
 45  24  43  1   
 46  24  44  1   
 47  24  45  1   
@<TRIPOS>SUBSTRUCTURE
  1 ****  11 GROUP 4 **** **** 0

# MOE 2024.06 (io_trps.svl 2023.06)
