@<TRIPOS>MOLECULE
NONAME
42 43 1 0 0 
SMALL
USER_CHARGES


@<TRIPOS>ATOM
  1 S       -0.0410    -0.1930     0.3580 S.o2  1 <1>   1.3330 
  2 O        0.2150    -0.9900     1.5370 O.2   1 <1>  -0.6500 
  3 O       -0.7890     1.0380     0.4780 O.2   1 <1>  -0.6500 
  4 N       -0.8190    -1.1840    -0.7800 N.am  1 <1>  -0.8490 
  5 C        1.5110     0.1880    -0.4560 C.3   1 <1>  -0.0550 
  6 C       -2.2780    -1.0530    -0.7270 C.3   1 <1>   0.1160 
  7 C       -0.4400    -2.5970    -0.6790 C.3   1 <1>   0.1160 
  8 C        2.3900     1.1850     0.3260 C.3   1 <1>  -0.0800 
  9 C        3.5950     1.6120    -0.4970 C.3   1 <1>   0.2200 
 10 C        3.0290     0.5480     1.5710 C.3   1 <1>   0.1200 
 11 N        4.0100     2.9660    -0.0700 N.am  1 <1>  -0.7300 
 12 C        4.6450     0.6040    -0.0550 C.3   1 <1>   0.1200 
 13 O        4.3900     0.3850     1.2970 O.3   1 <1>  -0.5600 
 14 C        4.0540     4.0720    -0.8680 C.2   1 <1>   0.5440 
 15 O        3.7410     3.9510    -2.0360 O.2   1 <1>  -0.5700 
 16 C        4.4780     5.3570    -0.3400 C.ar  1 <1>   0.0860 
 17 C        4.3490     5.6850     1.0120 C.ar  1 <1>  -0.1500 
 18 C        5.0370     6.3270    -1.1730 C.ar  1 <1>  -0.1500 
 19 C        4.7660     6.9090     1.5020 C.ar  1 <1>  -0.1500 
 20 C        5.4540     7.5510    -0.6850 C.ar  1 <1>  -0.1500 
 21 C        5.3280     7.8640     0.6630 C.ar  1 <1>   0.0730 
 22 C        5.7620     9.1340     1.1720 C.1   1 <1>   0.4840 
 23 N        6.1080    10.1410     1.5810 N.1   1 <1>  -0.5570 
 24 H        2.0580    -0.7180    -0.6290 H     1 <1>   0.0800 
 25 H        1.2820     0.6190    -1.4130 H     1 <1>   0.0800 
 26 H       -2.7370    -1.6820    -1.4710 H     1 <1>   0.0800 
 27 H       -2.5650    -0.0340    -0.9280 H     1 <1>   0.0800 
 28 H       -2.6440    -1.3300     0.2480 H     1 <1>   0.0800 
 29 H       -0.8890    -3.1580    -1.4810 H     1 <1>   0.0800 
 30 H       -0.7670    -3.0090     0.2630 H     1 <1>   0.0800 
 31 H        0.6290    -2.7020    -0.7480 H     1 <1>   0.0800 
 32 H        1.7850     2.0350     0.5930 H     1 <1>   0.0800 
 33 H        3.4230     1.5810    -1.5600 H     1 <1>   0.0800 
 34 H        2.6190    -0.4170     1.8120 H     1 <1>   0.0800 
 35 H        2.9410     1.1940     2.4280 H     1 <1>   0.0800 
 36 H        4.4020     2.9930     0.8740 H     1 <1>   0.3700 
 37 H        5.6500     0.9660    -0.1830 H     1 <1>   0.0800 
 38 H        4.5230    -0.3320    -0.5710 H     1 <1>   0.0800 
 39 H        3.9070     4.9760     1.6890 H     1 <1>   0.1500 
 40 H        5.1420     6.1090    -2.2230 H     1 <1>   0.1500 
 41 H        4.6510     7.1290     2.5510 H     1 <1>   0.1500 
 42 H        5.8820     8.2730    -1.3610 H     1 <1>   0.1500 
@<TRIPOS>BOND
  1   1   2  2   
  2   1   3  2   
  3   1   4  am  
  4   1   5  1   
  5   4   6  1   
  6   4   7  1   
  7   5   8  1   
  8   5  24  1   
  9   5  25  1   
 10   6  26  1   
 11   6  27  1   
 12   6  28  1   
 13   7  29  1   
 14   7  30  1   
 15   7  31  1   
 16   8   9  1   
 17   8  10  1   
 18   8  32  1   
 19   9  11  1   
 20   9  12  1   
 21   9  33  1   
 22  10  13  1   
 23  10  34  1   
 24  10  35  1   
 25  11  14  am  
 26  11  36  1   
 27  12  13  1   
 28  12  37  1   
 29  12  38  1   
 30  14  15  2   
 31  14  16  1   
 32  16  17  ar  
 33  16  18  ar  
 34  17  19  ar  
 35  17  39  1   
 36  18  20  ar  
 37  18  40  1   
 38  19  21  ar  
 39  19  41  1   
 40  20  21  ar  
 41  20  42  1   
 42  21  22  1   
 43  22  23  3   
@<TRIPOS>SUBSTRUCTURE
  1 ****  11 GROUP 4 **** **** 0

# MOE 2024.06 (io_trps.svl 2023.06)
