@<TRIPOS>MOLECULE
NONAME
23 23 1 0 0 
SMALL
USER_CHARGES


@<TRIPOS>ATOM
  1 O        0.8210    -0.1860    -1.2790 O.3   1 <1>  -0.5600 
  2 C        1.3090    -0.8040    -0.1230 C.3   1 <1>   0.6240 
  3 C        0.7340     1.2030    -1.2060 C.3   1 <1>   0.0400 
  4 O        2.6580    -0.4380    -0.0230 O.3   1 <1>  -0.5600 
  5 C        1.1460    -2.3290    -0.2250 C.ar  1 <1>   0.1660 
  6 C        3.2740    -0.8180     1.1690 C.3   1 <1>   0.0400 
  7 N        0.7030    -2.9950     0.8260 N.ar  1 <1>  -0.6200 
  8 C        1.4730    -2.9830    -1.3940 C.ar  1 <1>  -0.1500 
  9 C        0.6070    -4.3030     0.6710 C.ar  1 <1>   0.7200 
 10 C        1.3190    -4.3470    -1.4310 C.ar  1 <1>   0.1600 
 11 N        0.1530    -4.9810     1.7260 N.pl3 1 <1>  -0.9000 
 12 N        0.8810    -5.0280    -0.3990 N.ar  1 <1>  -0.6200 
 13 H        0.7700    -0.4260     0.7290 H     1 <1>   0.0800 
 14 H        0.3100     1.5600    -2.1280 H     1 <1>   0.0800 
 15 H        1.7190     1.6180    -1.0800 H     1 <1>   0.0800 
 16 H        0.0980     1.4790    -0.3830 H     1 <1>   0.0800 
 17 H        4.2740    -0.4220     1.1680 H     1 <1>   0.0800 
 18 H        3.3150    -1.8920     1.2280 H     1 <1>   0.0800 
 19 H        2.7250    -0.4150     2.0020 H     1 <1>   0.0800 
 20 H        1.8360    -2.4360    -2.2450 H     1 <1>   0.1500 
 21 H        1.5610    -4.8900    -2.3290 H     1 <1>   0.1500 
 22 H       -0.1940    -5.9120     1.5160 H     1 <1>   0.4000 
 23 H       -0.3770    -4.4350     2.3990 H     1 <1>   0.4000 
@<TRIPOS>BOND
  1   1   2  1   
  2   1   3  1   
  3   2   4  1   
  4   2   5  1   
  5   2  13  1   
  6   3  14  1   
  7   3  15  1   
  8   3  16  1   
  9   4   6  1   
 10   5   7  ar  
 11   5   8  ar  
 12   6  17  1   
 13   6  18  1   
 14   6  19  1   
 15   7   9  ar  
 16   8  10  ar  
 17   8  20  1   
 18   9  11  1   
 19   9  12  ar  
 20  10  12  ar  
 21  10  21  1   
 22  11  22  1   
 23  11  23  1   
@<TRIPOS>SUBSTRUCTURE
  1 ****   5 GROUP 4 **** **** 0

# MOE 2024.06 (io_trps.svl 2023.06)
