@<TRIPOS>MOLECULE
NONAME
43 45 1 0 0 
SMALL
USER_CHARGES


@<TRIPOS>ATOM
  1 S       -0.5920    -0.2310    -0.6100 S.3   1 <1>  -0.0800 
  2 C        0.8290    -1.2350    -0.4050 C.2   1 <1>   0.1980 
  3 C        0.3560     1.1530    -0.1490 C.2   1 <1>  -0.1100 
  4 N        1.8710    -0.6040    -0.0350 N.2   1 <1>  -0.5650 
  5 C        0.6880    -2.7160    -0.6690 C.3   1 <1>   0.0200 
  6 C        1.6090     0.7500     0.1090 C.2   1 <1>   0.0770 
  7 C        0.0850    -3.4050     0.5540 C.3   1 <1>   0.1400 
  8 N        0.0380    -4.8720     0.3450 N.am  1 <1>  -0.7300 
  9 C       -0.9920    -5.5260    -0.2520 C.2   1 <1>   0.5690 
 10 O       -1.9320    -4.9270    -0.7140 O.2   1 <1>  -0.5700 
 11 C       -0.9420    -7.0410    -0.3740 C.3   1 <1>  -0.0190 
 12 C       -2.3310    -7.6810    -0.4960 C.3   1 <1>   0.1400 
 13 C       -0.2960    -7.7660     0.8170 C.3   1 <1>  -0.0990 
 14 N       -2.1810    -9.0170     0.1200 N.am  1 <1>  -0.4770 
 15 C       -1.0350    -9.0730     0.8560 C.2   1 <1>   0.5690 
 16 C       -3.1010   -10.0610    -0.1410 C.ar  1 <1>   0.1170 
 17 O       -0.6030   -10.0210     1.4650 O.2   1 <1>  -0.5700 
 18 C       -4.4950    -9.8800    -0.1050 C.ar  1 <1>   0.0830 
 19 C       -2.6090   -11.3240    -0.4570 C.ar  1 <1>  -0.1500 
 20 O       -4.9840    -8.6490     0.2320 O.3   1 <1>  -0.3630 
 21 C       -5.3410   -10.9460    -0.3990 C.ar  1 <1>  -0.1500 
 22 C       -3.4560   -12.3790    -0.7430 C.ar  1 <1>  -0.1500 
 23 C       -6.3580    -8.4290     0.4610 C.3   1 <1>   0.0400 
 24 C       -4.8240   -12.1890    -0.7170 C.ar  1 <1>  -0.1500 
 25 H       -0.1260     2.1130    -0.1220 H     1 <1>   0.1500 
 26 H        1.6630    -3.1220    -0.8700 H     1 <1>   0.0800 
 27 H        0.0590    -2.8700    -1.5270 H     1 <1>   0.0800 
 28 H        2.4220     1.3860     0.4170 H     1 <1>   0.1500 
 29 H       -0.9130    -3.0320     0.7210 H     1 <1>   0.0800 
 30 H        0.6770    -3.1860     1.4270 H     1 <1>   0.0800 
 31 H        0.8450    -5.3950     0.6910 H     1 <1>   0.3700 
 32 H       -0.3960    -7.2820    -1.2680 H     1 <1>   0.0800 
 33 H       -2.6470    -7.7600    -1.5220 H     1 <1>   0.0800 
 34 H       -3.0570    -7.1150     0.0630 H     1 <1>   0.0800 
 35 H       -0.4780    -7.2510     1.7430 H     1 <1>   0.0800 
 36 H        0.7570    -7.9250     0.6750 H     1 <1>   0.0800 
 37 H       -1.5460   -11.4840    -0.4770 H     1 <1>   0.1500 
 38 H       -6.4080   -10.8340    -0.3870 H     1 <1>   0.1500 
 39 H       -3.0470   -13.3450    -0.9830 H     1 <1>   0.1500 
 40 H       -6.4830    -7.4100     0.7810 H     1 <1>   0.0800 
 41 H       -6.6950    -9.0980     1.2340 H     1 <1>   0.0800 
 42 H       -6.8970    -8.5920    -0.4550 H     1 <1>   0.0800 
 43 H       -5.4850   -13.0090    -0.9410 H     1 <1>   0.1500 
@<TRIPOS>BOND
  1   1   2  1   
  2   1   3  1   
  3   2   4  2   
  4   2   5  1   
  5   3   6  2   
  6   3  25  1   
  7   4   6  1   
  8   5   7  1   
  9   5  26  1   
 10   5  27  1   
 11   6  28  1   
 12   7   8  1   
 13   7  29  1   
 14   7  30  1   
 15   8   9  am  
 16   8  31  1   
 17   9  10  2   
 18   9  11  1   
 19  11  12  1   
 20  11  13  1   
 21  11  32  1   
 22  12  14  1   
 23  12  33  1   
 24  12  34  1   
 25  13  15  1   
 26  13  35  1   
 27  13  36  1   
 28  14  15  am  
 29  14  16  1   
 30  15  17  2   
 31  16  18  ar  
 32  16  19  ar  
 33  18  20  1   
 34  18  21  ar  
 35  19  22  ar  
 36  19  37  1   
 37  20  23  1   
 38  21  24  ar  
 39  21  38  1   
 40  22  24  ar  
 41  22  39  1   
 42  23  40  1   
 43  23  41  1   
 44  23  42  1   
 45  24  43  1   
@<TRIPOS>SUBSTRUCTURE
  1 ****  11 GROUP 4 **** **** 0

# MOE 2024.06 (io_trps.svl 2023.06)
