@<TRIPOS>MOLECULE
NONAME
37 40 1 0 0 
SMALL
USER_CHARGES


@<TRIPOS>ATOM
  1 O        0.3470    -0.3120     1.1670 O.2   1 <1>  -0.5700 
  2 C        1.2780    -0.7130     0.4930 C.2   1 <1>   0.7150 
  3 N        2.2840     0.1350     0.1450 N.am  1 <1>  -0.4930 
  4 C        1.3600    -2.0770     0.0560 C.2   1 <1>  -0.2370 
  5 C        2.4280     1.5280     0.3850 C.2   1 <1>   0.0630 
  6 N        0.2640    -2.8640    -0.1990 N.pl3 1 <1>   0.2940 
  7 C        2.4830    -2.8340    -0.1830 C.2   1 <1>  -0.1500 
  8 C        3.5450     2.2520     0.1300 C.2   1 <1>  -0.0680 
  9 C        1.5030     2.4520     0.8790 C.2   1 <1>   0.1390 
 10 C        0.7120    -4.0860    -0.5800 C.2   1 <1>  -0.3020 
 11 C       -1.1670    -2.4790    -0.1240 C.3   1 <1>  -0.0910 
 12 C        2.0710    -4.1010    -0.5830 C.2   1 <1>  -0.1500 
 13 N        3.2350     3.5370     0.4460 N.pl3 1 <1>   0.3140 
 14 N        4.8110     1.8460    -0.3580 N.pl3 1 <1>  -0.8530 
 15 N        1.9750     3.6640     0.9220 N.2   1 <1>  -0.7070 
 16 C       -2.1460    -2.9540    -1.1590 C.3   1 <1>  -0.2000 
 17 C       -1.7140    -1.5220    -1.1410 C.3   1 <1>  -0.2000 
 18 C        4.1870     4.6530     0.3240 C.3   1 <1>   0.0960 
 19 C        5.8960     2.8640    -0.2960 C.3   1 <1>   0.2090 
 20 C        5.3430     4.2620    -0.6150 C.3   1 <1>  -0.1600 
 21 H        2.9950    -0.2490    -0.4720 H     1 <1>   0.3700 
 22 H        3.5120    -2.5350    -0.0790 H     1 <1>   0.1500 
 23 H        0.5040     2.1940     1.1870 H     1 <1>   0.1500 
 24 H        0.0390    -4.8840    -0.8320 H     1 <1>   0.1500 
 25 H       -1.4940    -2.3670     0.8950 H     1 <1>   0.1000 
 26 H        2.7200    -4.9220    -0.8380 H     1 <1>   0.1500 
 27 H        5.1210     0.9540     0.0480 H     1 <1>   0.4000 
 28 H       -3.1540    -3.1810    -0.8560 H     1 <1>   0.1000 
 29 H       -1.8060    -3.5780    -1.9670 H     1 <1>   0.1000 
 30 H       -1.0630    -1.1640    -1.9200 H     1 <1>   0.1000 
 31 H       -2.4140    -0.7740    -0.8120 H     1 <1>   0.1000 
 32 H        4.5590     4.8730     1.3060 H     1 <1>   0.0800 
 33 H        3.6630     5.5120    -0.0520 H     1 <1>   0.0800 
 34 H        6.6620     2.6060    -1.0090 H     1 <1>   0.0800 
 35 H        6.3320     2.8580     0.6890 H     1 <1>   0.0800 
 36 H        6.1300     4.9890    -0.5370 H     1 <1>   0.0800 
 37 H        4.9920     4.2700    -1.6330 H     1 <1>   0.0800 
@<TRIPOS>BOND
  1   1   2  2   
  2   2   3  am  
  3   2   4  1   
  4   3   5  1   
  5   3  21  1   
  6   4   6  1   
  7   4   7  2   
  8   5   8  2   
  9   5   9  1   
 10   6  10  1   
 11   6  11  1   
 12   7  12  1   
 13   7  22  1   
 14   8  13  1   
 15   8  14  1   
 16   9  15  2   
 17   9  23  1   
 18  10  12  2   
 19  10  24  1   
 20  11  16  1   
 21  11  17  1   
 22  11  25  1   
 23  12  26  1   
 24  13  15  1   
 25  13  18  1   
 26  14  19  1   
 27  14  27  1   
 28  16  17  1   
 29  16  28  1   
 30  16  29  1   
 31  17  30  1   
 32  17  31  1   
 33  18  20  1   
 34  18  32  1   
 35  18  33  1   
 36  19  20  1   
 37  19  34  1   
 38  19  35  1   
 39  20  36  1   
 40  20  37  1   
@<TRIPOS>SUBSTRUCTURE
  1 ****   3 GROUP 4 **** **** 0

# MOE 2024.06 (io_trps.svl 2023.06)
