@<TRIPOS>MOLECULE
NONAME
43 44 1 0 0 
SMALL
USER_CHARGES


@<TRIPOS>ATOM
  1 S        0.7080     1.0810    -1.1490 S.o2  1 <1>   1.3330 
  2 O        1.2110     2.3800    -1.5490 O.2   1 <1>  -0.6500 
  3 O        0.5860     0.0120    -2.1040 O.2   1 <1>  -0.6500 
  4 N        1.7490     0.5540     0.0850 N.am  1 <1>  -0.8490 
  5 C       -0.8650     1.3380    -0.3030 C.3   1 <1>  -0.0550 
  6 C        3.1480     0.5580    -0.3730 C.3   1 <1>   0.1160 
  7 C        1.4510    -0.8170     0.5400 C.3   1 <1>   0.1160 
  8 C       -1.0010     2.6080     0.5790 C.3   1 <1>  -0.0800 
  9 C       -1.2770     3.8650    -0.2640 C.3   1 <1>   0.2000 
 10 C        0.2410     2.9610     1.4120 C.3   1 <1>   0.3430 
 11 O       -2.4890     4.4230     0.1140 O.3   1 <1>  -0.6800 
 12 C       -0.1250     4.8400     0.0030 C.3   1 <1>   0.3430 
 13 N        0.9400     4.0090     0.6330 N.4   1 <1>  -0.9590 
 14 C        1.9760     4.7680     1.3700 C.3   1 <1>   0.5230 
 15 C        2.4330     5.9160     0.5040 C.2   1 <1>  -0.3320 
 16 N        3.1610     5.8040    -0.6330 N.pl3 1 <1>   0.3140 
 17 C        2.2070     7.2350     0.6960 C.2   1 <1>  -0.1500 
 18 N        3.3830     7.0060    -1.1780 N.2   1 <1>  -0.7070 
 19 C        3.6920     4.6000    -1.2920 C.3   1 <1>   0.0160 
 20 C        2.8210     7.8590    -0.3810 C.2   1 <1>   0.1390 
 21 H       -1.6430     1.3660    -1.0430 H     1 <1>   0.0800 
 22 H       -1.0730     0.4790     0.3030 H     1 <1>   0.0800 
 23 H        3.8050     0.2400     0.4200 H     1 <1>   0.0800 
 24 H        3.4430     1.5460    -0.6780 H     1 <1>   0.0800 
 25 H        3.2710    -0.1070    -1.2140 H     1 <1>   0.0800 
 26 H        2.1350    -1.1070     1.3210 H     1 <1>   0.0800 
 27 H        1.5440    -1.5190    -0.2740 H     1 <1>   0.0800 
 28 H        0.4540    -0.8840     0.9360 H     1 <1>   0.0800 
 29 H       -1.8200     2.4300     1.2550 H     1 <1>   0.0800 
 30 H       -1.3360     3.6470    -1.3180 H     1 <1>   0.0800 
 31 H        0.8720     2.1060     1.5950 H     1 <1>   0.0800 
 32 H       -0.0740     3.3690     2.3590 H     1 <1>   0.0800 
 33 H       -2.5630     4.5900     1.0740 H     1 <1>   0.4000 
 34 H       -0.4460     5.6130     0.6800 H     1 <1>   0.0800 
 35 H        0.2290     5.2850    -0.9140 H     1 <1>   0.0800 
 36 H        1.4060     3.5350    -0.1660 H     1 <1>   0.4500 
 37 H        1.5620     5.1600     2.2850 H     1 <1>   0.0800 
 38 H        2.8090     4.1300     1.6170 H     1 <1>   0.0800 
 39 H        1.6790     7.7440     1.4840 H     1 <1>   0.1500 
 40 H        3.9000     3.8420    -0.5630 H     1 <1>   0.0800 
 41 H        4.6020     4.8600    -1.8030 H     1 <1>   0.0800 
 42 H        2.9770     4.2460    -2.0110 H     1 <1>   0.0800 
 43 H        2.8360     8.9240    -0.5480 H     1 <1>   0.1500 
@<TRIPOS>BOND
  1   1   2  2   
  2   1   3  2   
  3   1   4  am  
  4   1   5  1   
  5   4   6  1   
  6   4   7  1   
  7   5   8  1   
  8   5  21  1   
  9   5  22  1   
 10   6  23  1   
 11   6  24  1   
 12   6  25  1   
 13   7  26  1   
 14   7  27  1   
 15   7  28  1   
 16   8   9  1   
 17   8  10  1   
 18   8  29  1   
 19   9  11  1   
 20   9  12  1   
 21   9  30  1   
 22  10  13  1   
 23  10  31  1   
 24  10  32  1   
 25  11  33  1   
 26  12  13  1   
 27  12  34  1   
 28  12  35  1   
 29  13  14  1   
 30  13  36  1   
 31  14  15  1   
 32  14  37  1   
 33  14  38  1   
 34  15  16  1   
 35  15  17  2   
 36  16  18  1   
 37  16  19  1   
 38  17  20  1   
 39  17  39  1   
 40  18  20  2   
 41  19  40  1   
 42  19  41  1   
 43  19  42  1   
 44  20  43  1   
@<TRIPOS>SUBSTRUCTURE
  1 ****  13 GROUP 4 **** **** 0

# MOE 2024.06 (io_trps.svl 2023.06)
