@<TRIPOS>MOLECULE
NONAME
48 51 1 0 0 
SMALL
USER_CHARGES


@<TRIPOS>ATOM
  1 O       -0.5180     0.0480     1.3270 O.2   1 <1>  -0.5700 
  2 C       -1.4410     0.6920     0.8570 C.2   1 <1>   0.5440 
  3 N       -2.4600    -0.0090     0.2390 N.am  1 <1>  -0.6600 
  4 C       -1.4310     2.1550     0.9260 C.ar  1 <1>   0.3960 
  5 C       -3.6840     0.5890    -0.3480 C.3   1 <1>   0.1400 
  6 C       -2.5200    -1.4880     0.1920 C.3   1 <1>   0.1400 
  7 N       -2.4600     2.7740     1.4990 N.ar  1 <1>  -0.6200 
  8 C       -0.3720     2.8940     0.4000 C.ar  1 <1>  -0.1430 
  9 C       -4.4980    -0.6010    -0.8570 C.3   1 <1>   0.2000 
 10 C       -3.9910    -1.8120    -0.0760 C.3   1 <1>  -0.0800 
 11 C       -2.3980     4.0820     1.5260 C.ar  1 <1>   0.7200 
 12 C       -0.4330     4.2680     0.5130 C.ar  1 <1>   0.1660 
 13 C        0.8220     2.2050    -0.2700 C.3   1 <1>  -0.0170 
 14 O       -5.8550    -0.4300    -0.6320 O.3   1 <1>  -0.6800 
 15 C       -4.2200    -3.1370    -0.8230 C.3   1 <1>  -0.0160 
 16 N       -1.4490     4.8710     1.0750 N.ar  1 <1>  -0.6200 
 17 N       -3.4270     4.6980     2.1070 N.pl3 1 <1>  -0.9000 
 18 C        0.6610     5.1820    -0.0210 C.3   1 <1>  -0.0170 
 19 C        1.6690     3.1590    -1.1200 C.3   1 <1>  -0.1600 
 20 C       -3.7190    -4.3280    -0.0210 C.ar  1 <1>   0.1670 
 21 C        1.9660     4.4430    -0.3430 C.3   1 <1>  -0.1600 
 22 N       -2.4280    -4.6000    -0.1120 N.ar  1 <1>  -0.6200 
 23 C       -4.6080    -5.0650     0.7600 C.ar  1 <1>   0.1600 
 24 C       -2.0860    -5.6420     0.6260 C.ar  1 <1>   0.1600 
 25 N       -4.2690    -6.1090     1.4980 N.ar  1 <1>  -0.6200 
 26 C       -2.9760    -6.3720     1.4050 C.ar  1 <1>   0.1600 
 27 H       -4.2230     1.1220     0.4160 H     1 <1>   0.0800 
 28 H       -3.4280     1.2540    -1.1550 H     1 <1>   0.0800 
 29 H       -1.8940    -1.8390    -0.6110 H     1 <1>   0.0800 
 30 H       -2.1820    -1.9220     1.1190 H     1 <1>   0.0800 
 31 H       -4.3410    -0.7240    -1.9160 H     1 <1>   0.0800 
 32 H       -4.4830    -1.8510     0.8810 H     1 <1>   0.0800 
 33 H        1.4430     1.7790     0.5010 H     1 <1>   0.0800 
 34 H        0.4860     1.3980    -0.8980 H     1 <1>   0.0800 
 35 H       -6.0190    -0.2480     0.3140 H     1 <1>   0.4000 
 36 H       -3.7120    -3.1170    -1.7710 H     1 <1>   0.0800 
 37 H       -5.2700    -3.2530    -1.0210 H     1 <1>   0.0800 
 38 H       -3.9530     4.1380     2.7720 H     1 <1>   0.4000 
 39 H       -3.2470     5.6630     2.3720 H     1 <1>   0.4000 
 40 H        0.2900     5.6560    -0.9120 H     1 <1>   0.0800 
 41 H        0.8620     5.9550     0.7000 H     1 <1>   0.0800 
 42 H        2.5890     2.6740    -1.3940 H     1 <1>   0.0800 
 43 H        1.1380     3.4010    -2.0260 H     1 <1>   0.0800 
 44 H        2.6110     5.0840    -0.9190 H     1 <1>   0.0800 
 45 H        2.4730     4.1970     0.5740 H     1 <1>   0.0800 
 46 H       -5.6440    -4.7780     0.7780 H     1 <1>   0.1500 
 47 H       -1.0510    -5.9340     0.6150 H     1 <1>   0.1500 
 48 H       -2.6020    -7.2060     1.9720 H     1 <1>   0.1500 
@<TRIPOS>BOND
  1   1   2  2   
  2   2   3  am  
  3   2   4  1   
  4   3   5  1   
  5   3   6  1   
  6   4   7  ar  
  7   4   8  ar  
  8   5   9  1   
  9   5  27  1   
 10   5  28  1   
 11   6  10  1   
 12   6  29  1   
 13   6  30  1   
 14   7  11  ar  
 15   8  12  ar  
 16   8  13  1   
 17   9  10  1   
 18   9  14  1   
 19   9  31  1   
 20  10  15  1   
 21  10  32  1   
 22  11  16  ar  
 23  11  17  1   
 24  12  16  ar  
 25  12  18  1   
 26  13  19  1   
 27  13  33  1   
 28  13  34  1   
 29  14  35  1   
 30  15  20  1   
 31  15  36  1   
 32  15  37  1   
 33  17  38  1   
 34  17  39  1   
 35  18  21  1   
 36  18  40  1   
 37  18  41  1   
 38  19  21  1   
 39  19  42  1   
 40  19  43  1   
 41  20  22  ar  
 42  20  23  ar  
 43  21  44  1   
 44  21  45  1   
 45  22  24  ar  
 46  23  25  ar  
 47  23  46  1   
 48  24  26  ar  
 49  24  47  1   
 50  25  26  ar  
 51  26  48  1   
@<TRIPOS>SUBSTRUCTURE
  1 ****   3 GROUP 4 **** **** 0

# MOE 2024.06 (io_trps.svl 2023.06)
