@<TRIPOS>MOLECULE
NONAME
50 54 1 0 0 
SMALL
USER_CHARGES


@<TRIPOS>ATOM
  1 O       -1.9570     1.9590    -2.5210 O.2   1 <1>  -0.5700 
  2 C       -2.5330     2.1060    -1.4670 C.2   1 <1>   0.5690 
  3 N       -3.6680     1.3880    -1.1630 N.am  1 <1>  -0.6600 
  4 C       -1.9400     3.1340    -0.5140 C.3   1 <1>   0.0810 
  5 C       -4.2170     0.3810    -2.1150 C.3   1 <1>   0.1400 
  6 C       -4.4270     1.4440     0.1190 C.3   1 <1>   0.1400 
  7 C       -1.0510     2.4900     0.5340 C.2   1 <1>  -0.0400 
  8 C       -4.1500    -1.0030    -1.4700 C.3   1 <1>  -0.1600 
  9 C       -4.3720     0.0730     0.7960 C.3   1 <1>  -0.1600 
 10 O       -1.5730     1.7870     1.5030 O.3   1 <1>  -0.0190 
 11 C        0.2800     2.4860     0.6960 C.2   1 <1>  -0.1500 
 12 C       -4.8880    -1.0360    -0.1290 C.3   1 <1>   0.4600 
 13 N       -0.6650     1.3090     2.3020 N.2   1 <1>  -0.4100 
 14 C        0.4630     1.7160     1.8410 C.2   1 <1>   0.1080 
 15 O       -6.2490    -0.7970    -0.4220 O.3   1 <1>  -0.5600 
 16 C       -4.7410    -2.4070     0.5200 C.2   1 <1>  -0.3320 
 17 C        1.8030     1.3950     2.4640 C.3   1 <1>  -0.0590 
 18 C       -7.2140    -1.2300     0.5070 C.3   1 <1>   0.1200 
 19 N       -3.5670    -3.0280     0.8440 N.pl3 1 <1>   0.0330 
 20 C       -5.7750    -3.1990     0.8660 C.2   1 <1>  -0.1810 
 21 C       -7.2010    -2.7610     0.6470 C.3   1 <1>   0.0210 
 22 C       -3.8730    -4.2490     1.3970 C.ar  1 <1>  -0.1520 
 23 C       -5.2580    -4.3880     1.4220 C.ar  1 <1>   0.0000 
 24 C       -3.0430    -5.2600     1.8880 C.ar  1 <1>  -0.1500 
 25 C       -5.8280    -5.5560     1.9390 C.ar  1 <1>  -0.1500 
 26 C       -3.6170    -6.4040     2.3950 C.ar  1 <1>  -0.1500 
 27 C       -5.0090    -6.5520     2.4200 C.ar  1 <1>  -0.1500 
 28 H       -2.7170     3.7060    -0.0460 H     1 <1>   0.0800 
 29 H       -1.3470     3.8180    -1.0920 H     1 <1>   0.0800 
 30 H       -3.6620     0.3770    -3.0370 H     1 <1>   0.0800 
 31 H       -5.2390     0.6310    -2.3460 H     1 <1>   0.0800 
 32 H       -5.4510     1.7020    -0.0920 H     1 <1>   0.0800 
 33 H       -4.0300     2.1870     0.7850 H     1 <1>   0.0800 
 34 H       -3.1170    -1.2600    -1.3260 H     1 <1>   0.0800 
 35 H       -4.5810    -1.7360    -2.1270 H     1 <1>   0.0800 
 36 H       -4.9380     0.0860     1.7080 H     1 <1>   0.0800 
 37 H       -3.3530    -0.1380     1.0610 H     1 <1>   0.0800 
 38 H        1.0480     2.9490     0.1050 H     1 <1>   0.1500 
 39 H        2.2910     2.3030     2.7690 H     1 <1>   0.0800 
 40 H        2.4230     0.8800     1.7530 H     1 <1>   0.0800 
 41 H        1.6670     0.7670     3.3260 H     1 <1>   0.0800 
 42 H       -8.1760    -0.8970     0.1600 H     1 <1>   0.0800 
 43 H       -7.0080    -0.7670     1.4550 H     1 <1>   0.0800 
 44 H       -2.6210    -2.6580     0.7110 H     1 <1>   0.2700 
 45 H       -7.5900    -3.2180    -0.2440 H     1 <1>   0.0800 
 46 H       -7.8100    -3.0540     1.4820 H     1 <1>   0.0800 
 47 H       -1.9750    -5.1380     1.8640 H     1 <1>   0.1500 
 48 H       -6.8970    -5.6550     1.9510 H     1 <1>   0.1500 
 49 H       -2.9990    -7.1970     2.7780 H     1 <1>   0.1500 
 50 H       -5.4320    -7.4560     2.8210 H     1 <1>   0.1500 
@<TRIPOS>BOND
  1   1   2  2   
  2   2   3  am  
  3   2   4  1   
  4   3   5  1   
  5   3   6  1   
  6   4   7  1   
  7   4  28  1   
  8   4  29  1   
  9   5   8  1   
 10   5  30  1   
 11   5  31  1   
 12   6   9  1   
 13   6  32  1   
 14   6  33  1   
 15   7  10  1   
 16   7  11  2   
 17   8  12  1   
 18   8  34  1   
 19   8  35  1   
 20   9  12  1   
 21   9  36  1   
 22   9  37  1   
 23  10  13  1   
 24  11  14  1   
 25  11  38  1   
 26  12  15  1   
 27  12  16  1   
 28  13  14  2   
 29  14  17  1   
 30  15  18  1   
 31  16  19  1   
 32  16  20  2   
 33  17  39  1   
 34  17  40  1   
 35  17  41  1   
 36  18  21  1   
 37  18  42  1   
 38  18  43  1   
 39  19  22  1   
 40  19  44  1   
 41  20  21  1   
 42  20  23  1   
 43  21  45  1   
 44  21  46  1   
 45  22  23  ar  
 46  22  24  ar  
 47  23  25  ar  
 48  24  26  ar  
 49  24  47  1   
 50  25  27  ar  
 51  25  48  1   
 52  26  27  ar  
 53  26  49  1   
 54  27  50  1   
@<TRIPOS>SUBSTRUCTURE
  1 ****   9 GROUP 4 **** **** 0

# MOE 2024.06 (io_trps.svl 2023.06)
