@<TRIPOS>MOLECULE
NONAME
43 45 1 0 0 
SMALL
USER_CHARGES


@<TRIPOS>ATOM
  1 O       -0.4580     0.7640     1.7760 O.2   1 <1>  -0.5700 
  2 C       -0.4330     1.5360     0.8380 C.2   1 <1>   0.5440 
  3 N       -1.6020     1.7600     0.1690 N.am  1 <1>  -0.7300 
  4 C        0.8050     2.1690     0.4170 C.ar  1 <1>   0.0860 
  5 C       -2.9400     1.2530     0.5680 C.3   1 <1>   0.2200 
  6 C        0.8190     3.4060    -0.2320 C.ar  1 <1>  -0.1500 
  7 C        2.0370     1.5550     0.6480 C.ar  1 <1>  -0.1500 
  8 C       -3.1430    -0.2200     0.1460 C.3   1 <1>   0.2000 
  9 C       -4.0010     2.1650    -0.0560 C.3   1 <1>  -0.1600 
 10 C        2.0030     3.9930    -0.6430 C.ar  1 <1>  -0.1500 
 11 C        3.2240     2.1370     0.2410 C.ar  1 <1>  -0.1500 
 12 O       -2.2820    -1.0410     0.8590 O.3   1 <1>  -0.6800 
 13 C       -4.5810    -0.6910     0.4040 C.3   1 <1>   0.1400 
 14 C       -5.4130     1.6620     0.2530 C.3   1 <1>   0.1400 
 15 C        3.2080     3.3580    -0.4080 C.ar  1 <1>  -0.1500 
 16 N       -5.5560     0.2590    -0.2270 N.am  1 <1>  -0.6600 
 17 C       -6.5340    -0.0880    -1.1310 C.2   1 <1>   0.5690 
 18 O       -7.2650     0.7430    -1.6180 O.2   1 <1>  -0.5700 
 19 C       -6.7520    -1.5160    -1.5780 C.3   1 <1>   0.1570 
 20 N       -7.4430    -2.2580    -0.5190 N.pl3 1 <1>   0.3140 
 21 N       -6.9070    -3.3280     0.0770 N.2   1 <1>  -0.4180 
 22 C       -8.6530    -2.0250    -0.0070 C.2   1 <1>  -0.3020 
 23 N       -7.7430    -3.7710     0.9510 N.2   1 <1>  -0.2270 
 24 C       -8.8230    -2.9840     0.9150 C.2   1 <1>   0.0770 
 25 H       -1.5680     2.2540    -0.7230 H     1 <1>   0.3700 
 26 H       -3.0320     1.3110     1.6410 H     1 <1>   0.0800 
 27 H       -0.1060     3.9240    -0.4120 H     1 <1>   0.1500 
 28 H        2.0590     0.6060     1.1550 H     1 <1>   0.1500 
 29 H       -2.9130    -0.3350    -0.8980 H     1 <1>   0.0800 
 30 H       -3.8950     3.1600     0.3370 H     1 <1>   0.0800 
 31 H       -3.8800     2.2030    -1.1250 H     1 <1>   0.0800 
 32 H        1.9900     4.9470    -1.1420 H     1 <1>   0.1500 
 33 H        4.1600     1.6400     0.4300 H     1 <1>   0.1500 
 34 H       -1.5240    -0.4960     1.2030 H     1 <1>   0.4000 
 35 H       -4.7620    -0.7190     1.4650 H     1 <1>   0.0800 
 36 H       -4.6920    -1.6880     0.0210 H     1 <1>   0.0800 
 37 H       -6.1350     2.3070    -0.2200 H     1 <1>   0.0800 
 38 H       -5.5930     1.6910     1.3150 H     1 <1>   0.0800 
 39 H        4.1310     3.8120    -0.7260 H     1 <1>   0.1500 
 40 H       -5.8180    -1.9900    -1.8020 H     1 <1>   0.0800 
 41 H       -7.3660    -1.5280    -2.4580 H     1 <1>   0.0800 
 42 H       -9.2930    -1.2190    -0.3160 H     1 <1>   0.1500 
 43 H       -9.6680    -3.1560     1.5600 H     1 <1>   0.1500 
@<TRIPOS>BOND
  1   1   2  2   
  2   2   3  am  
  3   2   4  1   
  4   3   5  1   
  5   3  25  1   
  6   4   6  ar  
  7   4   7  ar  
  8   5   8  1   
  9   5   9  1   
 10   5  26  1   
 11   6  10  ar  
 12   6  27  1   
 13   7  11  ar  
 14   7  28  1   
 15   8  12  1   
 16   8  13  1   
 17   8  29  1   
 18   9  14  1   
 19   9  30  1   
 20   9  31  1   
 21  10  15  ar  
 22  10  32  1   
 23  11  15  ar  
 24  11  33  1   
 25  12  34  1   
 26  13  16  1   
 27  13  35  1   
 28  13  36  1   
 29  14  16  1   
 30  14  37  1   
 31  14  38  1   
 32  15  39  1   
 33  16  17  am  
 34  17  18  2   
 35  17  19  1   
 36  19  20  1   
 37  19  40  1   
 38  19  41  1   
 39  20  21  1   
 40  20  22  1   
 41  21  23  2   
 42  22  24  2   
 43  22  42  1   
 44  23  24  1   
 45  24  43  1   
@<TRIPOS>SUBSTRUCTURE
  1 ****   8 GROUP 4 **** **** 0

# MOE 2024.06 (io_trps.svl 2023.06)
