@<TRIPOS>MOLECULE
NONAME
51 53 1 0 0 
SMALL
USER_CHARGES


@<TRIPOS>ATOM
  1 CL      -0.0020     0.4420    -0.2580 Cl    1 <1>  -0.1770 
  2 C        1.5100    -0.4300    -0.2430 C.ar  1 <1>   0.1770 
  3 C        2.6740     0.2220    -0.6020 C.ar  1 <1>  -0.1500 
  4 C        1.5200    -1.7600     0.1300 C.ar  1 <1>  -0.1500 
  5 C        3.8790    -0.4650    -0.5940 C.ar  1 <1>  -0.1440 
  6 C        2.7190    -2.4510     0.1440 C.ar  1 <1>  -0.1500 
  7 C        3.9040    -1.8070    -0.2170 C.ar  1 <1>   0.0830 
  8 C        5.1470     0.2740    -0.9970 C.3   1 <1>   0.3530 
  9 O        5.1070    -2.4370    -0.2160 O.3   1 <1>  -0.3630 
 10 N        5.4820     1.2390     0.0710 N.pl3 1 <1>  -0.8690 
 11 C        5.2470    -3.7860     0.1680 C.3   1 <1>   0.1200 
 12 C        6.5900     2.0360     0.0080 C.ar  1 <1>   0.4100 
 13 C        6.7270    -4.1570     0.0640 C.3   1 <1>  -0.1600 
 14 N        7.2030     2.1430    -1.1640 N.ar  1 <1>  -0.6200 
 15 C        7.0320     2.6930     1.1520 C.ar  1 <1>  -0.1500 
 16 C        6.9670    -5.6150     0.4700 C.3   1 <1>  -0.2400 
 17 C        8.2750     2.9160    -1.1930 C.ar  1 <1>   0.1600 
 18 C        8.1450     3.4970     1.1010 C.ar  1 <1>  -0.1500 
 19 C        8.7990     3.6330    -0.1200 C.ar  1 <1>   0.0860 
 20 C        9.9720     4.4570    -0.2950 C.2   1 <1>   0.5440 
 21 O       10.8880     4.0470    -0.9840 O.2   1 <1>  -0.5700 
 22 N       10.0880     5.7050     0.2820 N.am  1 <1>  -0.6600 
 23 C       11.4000     6.4190     0.3620 C.3   1 <1>   0.1400 
 24 C        8.9230     6.5900     0.5900 C.3   1 <1>   0.1400 
 25 C       11.3460     7.7390    -0.4230 C.3   1 <1>   0.1200 
 26 C        9.0190     7.9100    -0.1970 C.3   1 <1>   0.1200 
 27 O       10.2630     8.5190     0.0010 O.3   1 <1>  -0.5600 
 28 H        2.6360     1.2590    -0.8830 H     1 <1>   0.1500 
 29 H        0.5990    -2.2430     0.4040 H     1 <1>   0.1500 
 30 H        2.7090    -3.4830     0.4360 H     1 <1>   0.1500 
 31 H        4.9820     0.8060    -1.9190 H     1 <1>   0.0800 
 32 H        5.9740    -0.3990    -1.1450 H     1 <1>   0.0800 
 33 H        5.1870     0.9080     0.9890 H     1 <1>   0.4000 
 34 H        4.6560    -4.3920    -0.4970 H     1 <1>   0.0800 
 35 H        4.9000    -3.8900     1.1810 H     1 <1>   0.0800 
 36 H        7.2990    -3.5110     0.7080 H     1 <1>   0.0800 
 37 H        7.0570    -4.0120    -0.9500 H     1 <1>   0.0800 
 38 H        6.4920     2.5610     2.0700 H     1 <1>   0.1500 
 39 H        6.6600    -5.7790     1.4880 H     1 <1>   0.0800 
 40 H        8.0140    -5.8500     0.3880 H     1 <1>   0.0800 
 41 H        6.4180    -6.2810    -0.1720 H     1 <1>   0.0800 
 42 H        8.7870     2.9960    -2.1380 H     1 <1>   0.1500 
 43 H        8.5110     4.0070     1.9750 H     1 <1>   0.1500 
 44 H       12.1940     5.8060    -0.0270 H     1 <1>   0.0800 
 45 H       11.6240     6.6310     1.3920 H     1 <1>   0.0800 
 46 H        8.9120     6.8080     1.6430 H     1 <1>   0.0800 
 47 H        7.9980     6.1040     0.3360 H     1 <1>   0.0800 
 48 H       11.2450     7.5470    -1.4770 H     1 <1>   0.0800 
 49 H       12.2450     8.3060    -0.2580 H     1 <1>   0.0800 
 50 H        8.2610     8.5960     0.1350 H     1 <1>   0.0800 
 51 H        8.8870     7.7330    -1.2500 H     1 <1>   0.0800 
@<TRIPOS>BOND
  1   1   2  1   
  2   2   3  ar  
  3   2   4  ar  
  4   3   5  ar  
  5   3  28  1   
  6   4   6  ar  
  7   4  29  1   
  8   5   7  ar  
  9   5   8  1   
 10   6   7  ar  
 11   6  30  1   
 12   7   9  1   
 13   8  10  1   
 14   8  31  1   
 15   8  32  1   
 16   9  11  1   
 17  10  12  1   
 18  10  33  1   
 19  11  13  1   
 20  11  34  1   
 21  11  35  1   
 22  12  14  ar  
 23  12  15  ar  
 24  13  16  1   
 25  13  36  1   
 26  13  37  1   
 27  14  17  ar  
 28  15  18  ar  
 29  15  38  1   
 30  16  39  1   
 31  16  40  1   
 32  16  41  1   
 33  17  19  ar  
 34  17  42  1   
 35  18  19  ar  
 36  18  43  1   
 37  19  20  1   
 38  20  21  2   
 39  20  22  am  
 40  22  23  1   
 41  22  24  1   
 42  23  25  1   
 43  23  44  1   
 44  23  45  1   
 45  24  26  1   
 46  24  46  1   
 47  24  47  1   
 48  25  27  1   
 49  25  48  1   
 50  25  49  1   
 51  26  27  1   
 52  26  50  1   
 53  26  51  1   
@<TRIPOS>SUBSTRUCTURE
  1 ****  12 GROUP 4 **** **** 0

# MOE 2024.06 (io_trps.svl 2023.06)
