@<TRIPOS>MOLECULE
NONAME
58 61 1 0 0 
SMALL
USER_CHARGES


@<TRIPOS>ATOM
  1 O       -0.1640     0.1670    -1.0840 O.2   1 <1>  -0.5700 
  2 C       -0.6640     0.9730    -0.3220 C.2   1 <1>   0.6900 
  3 N       -2.0220     0.9960    -0.1280 N.am  1 <1>  -0.6600 
  4 N        0.1050     1.8660     0.3650 N.am  1 <1>  -0.5470 
  5 C       -2.7770     2.2230     0.2820 C.3   1 <1>   0.1400 
  6 C       -2.8930    -0.1000    -0.6380 C.3   1 <1>   0.1400 
  7 C        1.4510     2.2480     0.2360 C.ar  1 <1>   0.1170 
  8 C       -3.6040     2.7780    -0.8930 C.3   1 <1>   0.1430 
  9 C       -3.7390     0.4060    -1.8150 C.3   1 <1>  -0.1600 
 10 C        2.1150     2.8230     1.3230 C.ar  1 <1>  -0.1430 
 11 C        2.1380     2.0950    -0.9640 C.ar  1 <1>  -0.1500 
 12 C       -4.3690     3.9890    -0.3950 C.ar  1 <1>   0.1670 
 13 C       -4.5310     1.6730    -1.4450 C.3   1 <1>  -0.1600 
 14 C       -2.7020     3.3870    -2.0020 C.3   1 <1>  -0.1600 
 15 C        3.4340     3.2290     1.1940 C.ar  1 <1>  -0.1500 
 16 C        1.4140     3.0110     2.6640 C.3   1 <1>  -0.0970 
 17 C        3.4530     2.5010    -1.0860 C.ar  1 <1>  -0.1500 
 18 N       -5.4010     3.9530     0.4110 N.ar  1 <1>  -0.6200 
 19 C       -3.8340     5.1490    -0.8660 C.ar  1 <1>  -0.1430 
 20 C       -2.6380     4.9030    -1.7500 C.3   1 <1>  -0.0170 
 21 C        4.1110     3.0710    -0.0120 C.ar  1 <1>   0.0820 
 22 C       -5.9140     5.1440     0.7330 C.ar  1 <1>   0.7200 
 23 C       -4.4250     6.3260    -0.4790 C.ar  1 <1>   0.1600 
 24 O        5.4030     3.4460    -0.2150 O.3   1 <1>  -0.3630 
 25 N       -5.4650     6.3340     0.3210 N.ar  1 <1>  -0.6200 
 26 N       -7.0080     5.1440     1.5770 N.pl3 1 <1>  -0.8380 
 27 C        6.1750     3.9900     0.8320 C.3   1 <1>   0.0400 
 28 C       -7.5000     6.3880     2.2310 C.3   1 <1>   0.1290 
 29 C       -7.8220     3.9210     1.8180 C.3   1 <1>   0.1290 
 30 H       -0.3650     2.2290     1.1840 H     1 <1>   0.3700 
 31 H       -2.1130     2.9920     0.6350 H     1 <1>   0.0800 
 32 H       -3.4410     1.9670     1.0900 H     1 <1>   0.0800 
 33 H       -3.5380    -0.4300     0.1580 H     1 <1>   0.0800 
 34 H       -2.2990    -0.9420    -0.9520 H     1 <1>   0.0800 
 35 H       -4.4200    -0.3690    -2.1170 H     1 <1>   0.0800 
 36 H       -3.0860     0.6050    -2.6470 H     1 <1>   0.0800 
 37 H        1.6460     1.6570    -1.8120 H     1 <1>   0.1500 
 38 H       -5.0730     2.0370    -2.3010 H     1 <1>   0.0800 
 39 H       -5.2560     1.4200    -0.6910 H     1 <1>   0.0800 
 40 H       -3.1610     3.2310    -2.9620 H     1 <1>   0.0800 
 41 H       -1.7200     2.9500    -2.0300 H     1 <1>   0.0800 
 42 H        3.9290     3.6680     2.0380 H     1 <1>   0.1500 
 43 H        1.0240     2.0700     3.0110 H     1 <1>   0.0800 
 44 H        0.6080     3.7150     2.5640 H     1 <1>   0.0800 
 45 H        2.0960     3.3820     3.4070 H     1 <1>   0.0800 
 46 H        3.9760     2.3760    -2.0170 H     1 <1>   0.1500 
 47 H       -2.6990     5.4600    -2.6690 H     1 <1>   0.0800 
 48 H       -1.7360     5.1630    -1.2240 H     1 <1>   0.0800 
 49 H       -4.0410     7.2690    -0.8270 H     1 <1>   0.1500 
 50 H        7.1600     4.1900     0.4510 H     1 <1>   0.0800 
 51 H        6.2320     3.2730     1.6320 H     1 <1>   0.0800 
 52 H        5.7180     4.9050     1.1630 H     1 <1>   0.0800 
 53 H       -6.6840     7.0660     2.4140 H     1 <1>   0.0800 
 54 H       -7.9620     6.1530     3.1730 H     1 <1>   0.0800 
 55 H       -8.2180     6.8700     1.5910 H     1 <1>   0.0800 
 56 H       -7.7460     3.2430     0.9850 H     1 <1>   0.0800 
 57 H       -8.8580     4.1850     1.9430 H     1 <1>   0.0800 
 58 H       -7.4710     3.4250     2.7060 H     1 <1>   0.0800 
@<TRIPOS>BOND
  1   1   2  2   
  2   2   3  am  
  3   2   4  am  
  4   3   5  1   
  5   3   6  1   
  6   4   7  1   
  7   4  30  1   
  8   5   8  1   
  9   5  31  1   
 10   5  32  1   
 11   6   9  1   
 12   6  33  1   
 13   6  34  1   
 14   7  10  ar  
 15   7  11  ar  
 16   8  12  1   
 17   8  13  1   
 18   8  14  1   
 19   9  13  1   
 20   9  35  1   
 21   9  36  1   
 22  10  15  ar  
 23  10  16  1   
 24  11  17  ar  
 25  11  37  1   
 26  12  18  ar  
 27  12  19  ar  
 28  13  38  1   
 29  13  39  1   
 30  14  20  1   
 31  14  40  1   
 32  14  41  1   
 33  15  21  ar  
 34  15  42  1   
 35  16  43  1   
 36  16  44  1   
 37  16  45  1   
 38  17  21  ar  
 39  17  46  1   
 40  18  22  ar  
 41  19  20  1   
 42  19  23  ar  
 43  20  47  1   
 44  20  48  1   
 45  21  24  1   
 46  22  25  ar  
 47  22  26  1   
 48  23  25  ar  
 49  23  49  1   
 50  24  27  1   
 51  26  28  1   
 52  26  29  1   
 53  27  50  1   
 54  27  51  1   
 55  27  52  1   
 56  28  53  1   
 57  28  54  1   
 58  28  55  1   
 59  29  56  1   
 60  29  57  1   
 61  29  58  1   
@<TRIPOS>SUBSTRUCTURE
  1 ****   5 GROUP 4 **** **** 0

# MOE 2024.06 (io_trps.svl 2023.06)
