@<TRIPOS>MOLECULE
NONAME
48 51 1 0 0 
SMALL
USER_CHARGES


@<TRIPOS>ATOM
  1 S        0.1600    -0.2010    -0.4910 S.3   1 <1>  -0.0800 
  2 C       -1.5050     0.2540    -0.2990 C.2   1 <1>  -0.1400 
  3 C        0.6120     1.4240    -0.0090 C.2   1 <1>   0.1980 
  4 C       -1.5700     1.5270     0.1030 C.2   1 <1>   0.0460 
  5 C       -2.6470    -0.7010    -0.5640 C.3   1 <1>   0.0200 
  6 N       -0.3690     2.1950     0.2630 N.2   1 <1>  -0.5650 
  7 C        2.0990     1.7420     0.0340 C.3   1 <1>   0.3890 
  8 C       -2.8890     2.2230     0.3720 C.3   1 <1>   0.0210 
  9 C       -3.9590     0.1060    -0.6260 C.3   1 <1>  -0.1600 
 10 N        2.2880     3.1850     0.3460 N.pl3 1 <1>  -0.8690 
 11 C       -4.0370     1.1940     0.4700 C.3   1 <1>  -0.1600 
 12 C        3.2370     4.0930     0.1230 C.ar  1 <1>   0.7710 
 13 N        2.9380     5.3320     0.4460 N.ar  1 <1>  -0.6200 
 14 N        4.4240     3.7410    -0.4020 N.ar  1 <1>  -0.1790 
 15 C        3.8470     6.2700     0.2470 C.ar  1 <1>   0.4100 
 16 C        5.3780     4.6730    -0.6430 C.ar  1 <1>   0.2110 
 17 N        3.5320     7.5410     0.6090 N.pl3 1 <1>  -0.8380 
 18 C        5.0980     5.9580    -0.3230 C.ar  1 <1>  -0.1500 
 19 C        4.5220     8.5680     1.0750 C.3   1 <1>   0.2090 
 20 C        2.1180     8.0280     0.6850 C.3   1 <1>   0.2090 
 21 C        4.3960     9.8510     0.2360 C.3   1 <1>   0.2000 
 22 C        1.9670     9.3020    -0.1570 C.3   1 <1>  -0.1600 
 23 O        5.2420    10.8230     0.7410 O.3   1 <1>  -0.6800 
 24 C        2.9650    10.3990     0.2520 C.3   1 <1>  -0.1600 
 25 H       -2.6910    -1.4220     0.2330 H     1 <1>   0.0800 
 26 H       -2.4910    -1.2210    -1.4920 H     1 <1>   0.0800 
 27 H        2.5340     1.5030    -0.9200 H     1 <1>   0.0800 
 28 H        2.5570     1.1410     0.8000 H     1 <1>   0.0800 
 29 H       -3.0780     2.9140    -0.4300 H     1 <1>   0.0800 
 30 H       -2.8210     2.7800     1.2890 H     1 <1>   0.0800 
 31 H       -4.7960    -0.5650    -0.5360 H     1 <1>   0.0800 
 32 H       -4.0260     0.5850    -1.5880 H     1 <1>   0.0800 
 33 H        1.3990     3.5740     0.7030 H     1 <1>   0.4000 
 34 H       -4.9800     1.7080     0.4090 H     1 <1>   0.0800 
 35 H       -3.9880     0.7150     1.4330 H     1 <1>   0.0800 
 36 H        4.5610     2.7570    -0.6030 H     1 <1>   0.4570 
 37 H        6.3170     4.3700    -1.0790 H     1 <1>   0.1500 
 38 H        5.8030     6.7450    -0.5080 H     1 <1>   0.1500 
 39 H        5.5280     8.1970     1.0180 H     1 <1>   0.0800 
 40 H        4.3110     8.7970     2.1050 H     1 <1>   0.0800 
 41 H        1.8690     8.2310     1.7130 H     1 <1>   0.0800 
 42 H        1.4320     7.2840     0.3180 H     1 <1>   0.0800 
 43 H        4.7080     9.6460    -0.7730 H     1 <1>   0.0800 
 44 H        0.9630     9.6740    -0.0550 H     1 <1>   0.0800 
 45 H        2.1140     9.0460    -1.1920 H     1 <1>   0.0800 
 46 H        4.8700    11.2110     1.5560 H     1 <1>   0.4000 
 47 H        2.8880    11.2270    -0.4300 H     1 <1>   0.0800 
 48 H        2.7160    10.7390     1.2420 H     1 <1>   0.0800 
@<TRIPOS>BOND
  1   1   2  1   
  2   1   3  1   
  3   2   4  2   
  4   2   5  1   
  5   3   6  2   
  6   3   7  1   
  7   4   6  1   
  8   4   8  1   
  9   5   9  1   
 10   5  25  1   
 11   5  26  1   
 12   7  10  1   
 13   7  27  1   
 14   7  28  1   
 15   8  11  1   
 16   8  29  1   
 17   8  30  1   
 18   9  11  1   
 19   9  31  1   
 20   9  32  1   
 21  10  12  1   
 22  10  33  1   
 23  11  34  1   
 24  11  35  1   
 25  12  13  ar  
 26  12  14  ar  
 27  13  15  ar  
 28  14  16  ar  
 29  14  36  1   
 30  15  17  1   
 31  15  18  ar  
 32  16  18  ar  
 33  16  37  1   
 34  17  19  1   
 35  17  20  1   
 36  18  38  1   
 37  19  21  1   
 38  19  39  1   
 39  19  40  1   
 40  20  22  1   
 41  20  41  1   
 42  20  42  1   
 43  21  23  1   
 44  21  24  1   
 45  21  43  1   
 46  22  24  1   
 47  22  44  1   
 48  22  45  1   
 49  23  46  1   
 50  24  47  1   
 51  24  48  1   
@<TRIPOS>SUBSTRUCTURE
  1 ****  10 GROUP 4 **** **** 0

# MOE 2024.06 (io_trps.svl 2023.06)
