@<TRIPOS>MOLECULE
NONAME
48 49 1 0 0 
SMALL
USER_CHARGES


@<TRIPOS>ATOM
  1 O       -1.9200     0.0650     1.5500 O.2   1 <1>  -0.5700 
  2 C       -2.0530     0.9270     0.7030 C.2   1 <1>   0.5440 
  3 N       -2.4680     0.5380    -0.5540 N.am  1 <1>  -0.6600 
  4 C       -1.8800     2.3260     1.0490 C.ar  1 <1>   0.0860 
  5 C       -2.1610    -0.8290    -1.0530 C.3   1 <1>   0.3200 
  6 C       -3.4160     1.3550    -1.3880 C.3   1 <1>   0.1400 
  7 C       -1.2820     3.2280     0.1720 C.ar  1 <1>  -0.1500 
  8 C       -2.3330     2.8170     2.2720 C.ar  1 <1>  -0.1500 
  9 C       -3.3120    -1.7200    -0.6460 C.2   1 <1>  -0.3320 
 10 C       -4.6790     1.7620    -0.6000 C.3   1 <1>   0.3430 
 11 C       -1.1920     4.5810     0.4750 C.ar  1 <1>   0.0830 
 12 C       -2.2460     4.1610     2.5850 C.ar  1 <1>  -0.1500 
 13 N       -3.4660    -2.1540     0.6200 N.pl3 1 <1>   0.0330 
 14 C       -4.3440    -2.2240    -1.3560 C.2   1 <1>   0.0770 
 15 N       -5.2820     0.5770     0.0850 N.4   1 <1>  -0.9590 
 16 O       -0.6340     5.4790    -0.3750 O.3   1 <1>  -0.3620 
 17 C       -1.6870     5.0530     1.6860 C.ar  1 <1>  -0.1430 
 18 C       -4.6110    -2.8660     0.6070 C.2   1 <1>   0.0360 
 19 N       -5.1800    -2.9090    -0.5550 N.2   1 <1>  -0.5650 
 20 C       -6.4990     0.0550    -0.6090 C.3   1 <1>   0.2630 
 21 C       -5.5550     0.8360     1.5270 C.3   1 <1>   0.2630 
 22 C        0.2930     5.0830    -1.3620 C.3   1 <1>   0.0400 
 23 C       -1.6020     6.5320     2.0370 C.3   1 <1>  -0.0970 
 24 H       -1.2400    -1.1870    -0.6210 H     1 <1>   0.0800 
 25 H       -2.0480    -0.8160    -2.1240 H     1 <1>   0.0800 
 26 H       -3.7180     0.7900    -2.2530 H     1 <1>   0.0800 
 27 H       -2.9170     2.2390    -1.7450 H     1 <1>   0.0800 
 28 H       -0.8900     2.8550    -0.7540 H     1 <1>   0.1500 
 29 H       -2.7540     2.1370     2.9920 H     1 <1>   0.1500 
 30 H       -5.3950     2.2160    -1.2650 H     1 <1>   0.0800 
 31 H       -4.3990     2.5030     0.1310 H     1 <1>   0.0800 
 32 H       -2.6100     4.5110     3.5360 H     1 <1>   0.1500 
 33 H       -2.8390    -1.9490     1.4130 H     1 <1>   0.2700 
 34 H       -4.5440    -2.1210    -2.4110 H     1 <1>   0.1500 
 35 H       -4.5610    -0.1760     0.0350 H     1 <1>   0.4500 
 36 H       -4.9980    -3.3440     1.4920 H     1 <1>   0.1500 
 37 H       -7.2980     0.7770    -0.5690 H     1 <1>   0.0800 
 38 H       -6.8290    -0.8580    -0.1380 H     1 <1>   0.0800 
 39 H       -6.2760    -0.1650    -1.6400 H     1 <1>   0.0800 
 40 H       -6.2760     1.6300     1.6380 H     1 <1>   0.0800 
 41 H       -4.6450     1.1180     2.0320 H     1 <1>   0.0800 
 42 H       -5.9430    -0.0530     1.9970 H     1 <1>   0.0800 
 43 H        0.7310     5.9710    -1.7820 H     1 <1>   0.0800 
 44 H       -0.2220     4.5360    -2.1300 H     1 <1>   0.0800 
 45 H        1.0590     4.4830    -0.9030 H     1 <1>   0.0800 
 46 H       -2.1120     7.1150     1.2910 H     1 <1>   0.0800 
 47 H       -0.5720     6.8390     2.0660 H     1 <1>   0.0800 
 48 H       -2.0470     6.7350     2.9940 H     1 <1>   0.0800 
@<TRIPOS>BOND
  1   1   2  2   
  2   2   3  am  
  3   2   4  1   
  4   3   5  1   
  5   3   6  1   
  6   4   7  ar  
  7   4   8  ar  
  8   5   9  1   
  9   5  24  1   
 10   5  25  1   
 11   6  10  1   
 12   6  26  1   
 13   6  27  1   
 14   7  11  ar  
 15   7  28  1   
 16   8  12  ar  
 17   8  29  1   
 18   9  13  1   
 19   9  14  2   
 20  10  15  1   
 21  10  30  1   
 22  10  31  1   
 23  11  16  1   
 24  11  17  ar  
 25  12  17  ar  
 26  12  32  1   
 27  13  18  1   
 28  13  33  1   
 29  14  19  1   
 30  14  34  1   
 31  15  20  1   
 32  15  21  1   
 33  15  35  1   
 34  16  22  1   
 35  17  23  1   
 36  18  19  2   
 37  18  36  1   
 38  20  37  1   
 39  20  38  1   
 40  20  39  1   
 41  21  40  1   
 42  21  41  1   
 43  21  42  1   
 44  22  43  1   
 45  22  44  1   
 46  22  45  1   
 47  23  46  1   
 48  23  47  1   
 49  23  48  1   
@<TRIPOS>SUBSTRUCTURE
  1 ****   2 GROUP 4 **** **** 0

# MOE 2024.06 (io_trps.svl 2023.06)
