@<TRIPOS>MOLECULE
NONAME
56 59 1 0 0 
SMALL
USER_CHARGES


@<TRIPOS>ATOM
  1 O        0.5720     1.5970     2.2930 O.2   1 <1>  -0.5700 
  2 C       -0.0980     2.1880     1.4670 C.2   1 <1>   0.5440 
  3 N       -1.4620     1.9830     1.4440 N.am  1 <1>  -0.6600 
  4 C        0.5450     3.1110     0.5530 C.ar  1 <1>   0.0860 
  5 C       -2.3910     2.8010     0.5930 C.3   1 <1>   0.1400 
  6 C       -2.0920     1.0370     2.4130 C.3   1 <1>   0.1400 
  7 C        0.7610     2.8150    -0.7990 C.ar  1 <1>  -0.1440 
  8 C        0.9530     4.3590     1.0230 C.ar  1 <1>  -0.1500 
  9 C       -3.6470     3.2250     1.3760 C.3   1 <1>   0.1440 
 10 C       -3.5390     0.7180     2.0210 C.3   1 <1>  -0.1600 
 11 C        1.3370     3.7540    -1.6400 C.ar  1 <1>  -0.1500 
 12 C        0.3730     1.4520    -1.3610 C.3   1 <1>  -0.0970 
 13 C        1.5300     5.2910     0.1840 C.ar  1 <1>  -0.1500 
 14 C       -4.4790     4.1120     0.4650 C.ar  1 <1>   0.1670 
 15 C       -4.4210     1.9750     1.8800 C.3   1 <1>  -0.1600 
 16 C       -3.2770     4.2030     2.5300 C.3   1 <1>  -0.1600 
 17 C        1.7210     5.0010    -1.1550 C.ar  1 <1>   0.0830 
 18 N       -5.1980     3.6980    -0.5490 N.ar  1 <1>  -0.6200 
 19 C       -4.3680     5.4260     0.8040 C.ar  1 <1>  -0.1430 
 20 C       -3.4530     5.6300     1.9840 C.3   1 <1>  -0.0160 
 21 O        2.2820     5.9670    -1.9160 O.3   1 <1>  -0.3620 
 22 C       -5.8410     4.6540    -1.2230 C.ar  1 <1>   0.7200 
 23 C       -5.0600     6.3400     0.0520 C.ar  1 <1>   0.1600 
 24 C        2.5280     5.7820    -3.2920 C.3   1 <1>   0.0400 
 25 N       -5.8030     5.9650    -0.9620 N.ar  1 <1>  -0.6200 
 26 N       -6.6180     4.2500    -2.2920 N.pl3 1 <1>  -0.8380 
 27 C       -6.5520     2.8700    -2.8450 C.3   1 <1>   0.1290 
 28 C       -7.6000     5.1620    -2.9420 C.3   1 <1>   0.1290 
 29 H       -2.6920     2.2160    -0.2580 H     1 <1>   0.0800 
 30 H       -1.8940     3.6820     0.2250 H     1 <1>   0.0800 
 31 H       -2.0680     1.4800     3.3940 H     1 <1>   0.0800 
 32 H       -1.5160     0.1270     2.4450 H     1 <1>   0.0800 
 33 H        0.8120     4.5900     2.0640 H     1 <1>   0.1500 
 34 H       -3.9700     0.0540     2.7500 H     1 <1>   0.0800 
 35 H       -3.5200     0.1890     1.0840 H     1 <1>   0.0800 
 36 H        1.4850     3.5060    -2.6730 H     1 <1>   0.1500 
 37 H        0.7470     0.6690    -0.7240 H     1 <1>   0.0800 
 38 H        0.7840     1.3070    -2.3440 H     1 <1>   0.0800 
 39 H       -0.6960     1.3660    -1.4210 H     1 <1>   0.0800 
 40 H        1.8380     6.2500     0.5600 H     1 <1>   0.1500 
 41 H       -5.2110     1.7360     1.1890 H     1 <1>   0.0800 
 42 H       -4.8980     2.1860     2.8200 H     1 <1>   0.0800 
 43 H       -2.2820     4.0480     2.9080 H     1 <1>   0.0800 
 44 H       -3.9640     4.0830     3.3480 H     1 <1>   0.0800 
 45 H       -2.5110     6.0270     1.6470 H     1 <1>   0.0800 
 46 H       -3.8870     6.2850     2.7190 H     1 <1>   0.0800 
 47 H       -5.0040     7.3900     0.2830 H     1 <1>   0.1500 
 48 H        2.9740     6.6810    -3.6760 H     1 <1>   0.0800 
 49 H        1.5930     5.5950    -3.7910 H     1 <1>   0.0800 
 50 H        3.2050     4.9560    -3.4170 H     1 <1>   0.0800 
 51 H       -5.5650     2.4590    -2.7170 H     1 <1>   0.0800 
 52 H       -6.7800     2.8800    -3.8970 H     1 <1>   0.0800 
 53 H       -7.2610     2.2430    -2.3330 H     1 <1>   0.0800 
 54 H       -7.9810     5.8750    -2.2310 H     1 <1>   0.0800 
 55 H       -8.4290     4.5990    -3.3320 H     1 <1>   0.0800 
 56 H       -7.1190     5.6930    -3.7450 H     1 <1>   0.0800 
@<TRIPOS>BOND
  1   1   2  2   
  2   2   3  am  
  3   2   4  1   
  4   3   5  1   
  5   3   6  1   
  6   4   7  ar  
  7   4   8  ar  
  8   5   9  1   
  9   5  29  1   
 10   5  30  1   
 11   6  10  1   
 12   6  31  1   
 13   6  32  1   
 14   7  11  ar  
 15   7  12  1   
 16   8  13  ar  
 17   8  33  1   
 18   9  14  1   
 19   9  15  1   
 20   9  16  1   
 21  10  15  1   
 22  10  34  1   
 23  10  35  1   
 24  11  17  ar  
 25  11  36  1   
 26  12  37  1   
 27  12  38  1   
 28  12  39  1   
 29  13  17  ar  
 30  13  40  1   
 31  14  18  ar  
 32  14  19  ar  
 33  15  41  1   
 34  15  42  1   
 35  16  20  1   
 36  16  43  1   
 37  16  44  1   
 38  17  21  1   
 39  18  22  ar  
 40  19  20  1   
 41  19  23  ar  
 42  20  45  1   
 43  20  46  1   
 44  21  24  1   
 45  22  25  ar  
 46  22  26  1   
 47  23  25  ar  
 48  23  47  1   
 49  24  48  1   
 50  24  49  1   
 51  24  50  1   
 52  26  27  1   
 53  26  28  1   
 54  27  51  1   
 55  27  52  1   
 56  27  53  1   
 57  28  54  1   
 58  28  55  1   
 59  28  56  1   
@<TRIPOS>SUBSTRUCTURE
  1 ****   5 GROUP 4 **** **** 0

# MOE 2024.06 (io_trps.svl 2023.06)
