@<TRIPOS>MOLECULE
NONAME
45 46 1 0 0 
SMALL
USER_CHARGES


@<TRIPOS>ATOM
  1 S        1.0120     0.0100    -0.3200 S.o2  1 <1>   1.3330 
  2 O        0.7340    -0.2580    -1.7100 O.2   1 <1>  -0.6500 
  3 O        2.3520     0.3790     0.0780 O.2   1 <1>  -0.6500 
  4 N        0.4630    -1.2740     0.6380 N.am  1 <1>  -0.8490 
  5 C       -0.0310     1.3790     0.1780 C.3   1 <1>  -0.0550 
  6 C        1.5390    -2.2020     1.0070 C.3   1 <1>   0.1160 
  7 C       -0.6470    -2.0210     0.0330 C.3   1 <1>   0.1160 
  8 C        0.2430     2.6490    -0.6580 C.3   1 <1>  -0.0800 
  9 C       -0.5540     3.8900    -0.2590 C.3   1 <1>   0.2000 
 10 C        1.7100     3.1070    -0.6120 C.3   1 <1>   0.3430 
 11 O       -0.5450     4.0240     1.1280 O.3   1 <1>  -0.6800 
 12 C        0.2840     5.0210    -0.8610 C.3   1 <1>   0.3430 
 13 N        1.7120     4.5980    -0.6920 N.4   1 <1>  -0.9590 
 14 C        2.3050     5.1800     0.5480 C.3   1 <1>   0.4860 
 15 C        2.3850     6.6860     0.4030 C.ar  1 <1>  -0.1440 
 16 C        3.3440     7.3140    -0.3890 C.ar  1 <1>   0.1670 
 17 C        1.4600     7.4610     1.0790 C.ar  1 <1>  -0.1500 
 18 N        3.4050     8.6200    -0.5650 N.ar  1 <1>  -0.6200 
 19 C        4.4290     6.5580    -1.1410 C.3   1 <1>  -0.0970 
 20 C        1.5340     8.8250     0.9080 C.ar  1 <1>  -0.1500 
 21 C        2.5110     9.3470     0.0820 C.ar  1 <1>   0.1600 
 22 H       -1.0600     1.0970     0.0620 H     1 <1>   0.0800 
 23 H        0.1420     1.5740     1.2190 H     1 <1>   0.0800 
 24 H        1.1560    -2.9890     1.6340 H     1 <1>   0.0800 
 25 H        2.3060    -1.6810     1.5550 H     1 <1>   0.0800 
 26 H        1.9790    -2.6370     0.1240 H     1 <1>   0.0800 
 27 H       -1.0090    -2.7680     0.7190 H     1 <1>   0.0800 
 28 H       -0.3240    -2.5080    -0.8740 H     1 <1>   0.0800 
 29 H       -1.4600    -1.3560    -0.2040 H     1 <1>   0.0800 
 30 H        0.0150     2.4240    -1.6870 H     1 <1>   0.0800 
 31 H       -1.5730     3.8960    -0.6100 H     1 <1>   0.0800 
 32 H        2.2680     2.6700    -1.4260 H     1 <1>   0.0800 
 33 H        2.1590     2.7870     0.3160 H     1 <1>   0.0800 
 34 H       -1.3060     3.5590     1.5370 H     1 <1>   0.4000 
 35 H        0.0690     5.9640    -0.3870 H     1 <1>   0.0800 
 36 H        0.0590     5.1000    -1.9120 H     1 <1>   0.0800 
 37 H        2.2650     4.9330    -1.4900 H     1 <1>   0.4500 
 38 H        1.6950     4.9290     1.4010 H     1 <1>   0.0800 
 39 H        3.2920     4.7810     0.7140 H     1 <1>   0.0800 
 40 H        0.7060     7.0320     1.7190 H     1 <1>   0.1500 
 41 H        4.5370     5.5410    -0.8220 H     1 <1>   0.0800 
 42 H        5.3730     7.0520    -0.9830 H     1 <1>   0.0800 
 43 H        4.2190     6.5820    -2.1950 H     1 <1>   0.0800 
 44 H        0.8450     9.4830     1.4080 H     1 <1>   0.1500 
 45 H        2.5620    10.4150    -0.0510 H     1 <1>   0.1500 
@<TRIPOS>BOND
  1   1   2  2   
  2   1   3  2   
  3   1   4  am  
  4   1   5  1   
  5   4   6  1   
  6   4   7  1   
  7   5   8  1   
  8   5  22  1   
  9   5  23  1   
 10   6  24  1   
 11   6  25  1   
 12   6  26  1   
 13   7  27  1   
 14   7  28  1   
 15   7  29  1   
 16   8   9  1   
 17   8  10  1   
 18   8  30  1   
 19   9  11  1   
 20   9  12  1   
 21   9  31  1   
 22  10  13  1   
 23  10  32  1   
 24  10  33  1   
 25  11  34  1   
 26  12  13  1   
 27  12  35  1   
 28  12  36  1   
 29  13  14  1   
 30  13  37  1   
 31  14  15  1   
 32  14  38  1   
 33  14  39  1   
 34  15  16  ar  
 35  15  17  ar  
 36  16  18  ar  
 37  16  19  1   
 38  17  20  ar  
 39  17  40  1   
 40  18  21  ar  
 41  19  41  1   
 42  19  42  1   
 43  19  43  1   
 44  20  21  ar  
 45  20  44  1   
 46  21  45  1   
@<TRIPOS>SUBSTRUCTURE
  1 ****  10 GROUP 4 **** **** 0

# MOE 2024.06 (io_trps.svl 2023.06)
