@<TRIPOS>MOLECULE
NONAME
50 52 1 0 0 
SMALL
USER_CHARGES


@<TRIPOS>ATOM
  1 O       -2.7010     1.8250    -0.6270 O.2   1 <1>  -0.5700 
  2 C       -2.4980     0.7300    -0.1540 C.2   1 <1>   0.5690 
  3 N       -3.2110    -0.3570    -0.6050 N.am  1 <1>  -0.6600 
  4 C       -1.4280     0.6300     0.9410 C.3   1 <1>  -0.0190 
  5 C       -2.9840    -1.7710    -0.1310 C.3   1 <1>   0.3640 
  6 C       -4.2960    -0.1210    -1.6090 C.3   1 <1>   0.1400 
  7 C       -1.5460     1.7060     2.0450 C.3   1 <1>  -0.0220 
  8 C        0.0120     0.7340     0.3920 C.3   1 <1>  -0.0220 
  9 C       -1.5760    -2.2170    -0.5400 C.ar  1 <1>  -0.1440 
 10 C       -4.0110    -2.8470    -0.6130 C.3   1 <1>   0.2000 
 11 C       -4.7810    -1.4020    -2.2870 C.3   1 <1>   0.1200 
 12 C       -0.1050     2.0100     2.3710 C.2   1 <1>  -0.2880 
 13 C        0.7320     1.4900     1.4820 C.2   1 <1>  -0.2880 
 14 C       -0.7830    -2.9030     0.3670 C.ar  1 <1>  -0.1500 
 15 C       -1.0650    -1.9490    -1.8020 C.ar  1 <1>  -0.1500 
 16 O       -5.1120    -2.3280    -1.3080 O.3   1 <1>  -0.5600 
 17 C       -4.5880    -3.6630     0.5530 C.3   1 <1>   0.1200 
 18 C        0.4980    -3.3130     0.0380 C.ar  1 <1>   0.0830 
 19 C        0.2090    -2.3620    -2.1510 C.ar  1 <1>  -0.1500 
 20 O       -3.5760    -4.2660     1.2940 O.3   1 <1>  -0.6800 
 21 O        1.1720    -3.9620     1.0250 O.3   1 <1>  -0.3630 
 22 C        1.0070    -3.0540    -1.2430 C.ar  1 <1>   0.0830 
 23 C        2.5310    -3.6620     1.2590 C.3   1 <1>   0.0400 
 24 O        2.2550    -3.4940    -1.5760 O.3   1 <1>  -0.3630 
 25 C        2.7660    -3.3790    -2.8860 C.3   1 <1>   0.0400 
 26 H       -1.4960    -0.3080     1.4510 H     1 <1>   0.0800 
 27 H       -3.0290    -1.7540     0.9430 H     1 <1>   0.0800 
 28 H       -5.1290     0.3460    -1.1120 H     1 <1>   0.0800 
 29 H       -3.9450     0.5600    -2.3650 H     1 <1>   0.0800 
 30 H       -2.0290     2.6010     1.6920 H     1 <1>   0.0800 
 31 H       -2.0740     1.3240     2.9010 H     1 <1>   0.0800 
 32 H        0.4420    -0.2390     0.2380 H     1 <1>   0.0800 
 33 H        0.0440     1.2980    -0.5240 H     1 <1>   0.0800 
 34 H       -3.5210    -3.5270    -1.2870 H     1 <1>   0.0800 
 35 H       -4.0290    -1.8170    -2.9350 H     1 <1>   0.0800 
 36 H       -5.6660    -1.2010    -2.8650 H     1 <1>   0.0800 
 37 H        0.1180     2.6060     3.2400 H     1 <1>   0.1500 
 38 H        1.8060     1.5540     1.4460 H     1 <1>   0.1500 
 39 H       -1.1470    -3.1260     1.3540 H     1 <1>   0.1500 
 40 H       -1.6550    -1.4100    -2.5220 H     1 <1>   0.1500 
 41 H       -5.2420    -4.4350     0.1870 H     1 <1>   0.0800 
 42 H       -5.1360    -3.0170     1.2170 H     1 <1>   0.0800 
 43 H        0.5590    -2.1300    -3.1380 H     1 <1>   0.1500 
 44 H       -3.1510    -4.9910     0.7910 H     1 <1>   0.4000 
 45 H        2.7600    -3.9180     2.2780 H     1 <1>   0.0800 
 46 H        2.6950    -2.6110     1.0970 H     1 <1>   0.0800 
 47 H        3.1360    -4.2490     0.5930 H     1 <1>   0.0800 
 48 H        3.7350    -3.8440    -2.9070 H     1 <1>   0.0800 
 49 H        2.8560    -2.3370    -3.1360 H     1 <1>   0.0800 
 50 H        2.1040    -3.8850    -3.5650 H     1 <1>   0.0800 
@<TRIPOS>BOND
  1   1   2  2   
  2   2   3  am  
  3   2   4  1   
  4   3   5  1   
  5   3   6  1   
  6   4   7  1   
  7   4   8  1   
  8   4  26  1   
  9   5   9  1   
 10   5  10  1   
 11   5  27  1   
 12   6  11  1   
 13   6  28  1   
 14   6  29  1   
 15   7  12  1   
 16   7  30  1   
 17   7  31  1   
 18   8  13  1   
 19   8  32  1   
 20   8  33  1   
 21   9  14  ar  
 22   9  15  ar  
 23  10  16  1   
 24  10  17  1   
 25  10  34  1   
 26  11  16  1   
 27  11  35  1   
 28  11  36  1   
 29  12  13  2   
 30  12  37  1   
 31  13  38  1   
 32  14  18  ar  
 33  14  39  1   
 34  15  19  ar  
 35  15  40  1   
 36  17  20  1   
 37  17  41  1   
 38  17  42  1   
 39  18  21  1   
 40  18  22  ar  
 41  19  22  ar  
 42  19  43  1   
 43  20  44  1   
 44  21  23  1   
 45  22  24  1   
 46  23  45  1   
 47  23  46  1   
 48  23  47  1   
 49  24  25  1   
 50  25  48  1   
 51  25  49  1   
 52  25  50  1   
@<TRIPOS>SUBSTRUCTURE
  1 ****   9 GROUP 4 **** **** 0

# MOE 2024.06 (io_trps.svl 2023.06)
