@<TRIPOS>MOLECULE
NONAME
49 51 1 0 0 
SMALL
USER_CHARGES


@<TRIPOS>ATOM
  1 F        1.5510    -0.8760     2.9810 F     1 <1>  -0.3400 
  2 C        2.1800    -0.0040     2.1980 C.3   1 <1>   1.1640 
  3 F        1.2680     0.4560     1.3470 F     1 <1>  -0.3400 
  4 F        2.4880     1.0240     2.9870 F     1 <1>  -0.3400 
  5 C        3.4160    -0.6200     1.4920 C.ar  1 <1>   0.1660 
  6 N        3.2500    -1.6090     0.6220 N.ar  1 <1>  -0.6200 
  7 C        4.6770    -0.1430     1.7540 C.ar  1 <1>  -0.1500 
  8 C        4.3420    -2.0800     0.0320 C.ar  1 <1>   0.7200 
  9 C        5.7480    -0.6900     1.0790 C.ar  1 <1>   0.4100 
 10 N        5.5830    -1.6610     0.2170 N.ar  1 <1>  -0.6200 
 11 N        4.1580    -3.0830    -0.8910 N.pl3 1 <1>  -0.8380 
 12 N        7.0230    -0.1920     1.2530 N.pl3 1 <1>  -0.8380 
 13 C        5.2870    -3.8320    -1.4830 C.3   1 <1>   0.2090 
 14 C        2.8950    -3.8490    -1.0080 C.3   1 <1>   0.2090 
 15 C        8.0160    -0.2250     0.1310 C.3   1 <1>   0.3890 
 16 C        7.6000     0.0680     2.6010 C.3   1 <1>   0.1290 
 17 C        4.6320    -4.9600    -2.2700 C.3   1 <1>  -0.1600 
 18 C        3.3120    -5.2130    -1.5480 C.3   1 <1>  -0.1600 
 19 C        8.5090     1.1700    -0.2310 C.2   1 <1>   0.0070 
 20 N        9.7550     1.4410    -0.4290 N.2   1 <1>  -0.3380 
 21 N        7.7400     2.2570    -0.4040 N.pl3 1 <1>   0.0480 
 22 N        9.8340     2.7340    -0.7410 N.2   1 <1>  -0.3380 
 23 C        8.6340     3.1950    -0.7190 C.2   1 <1>   0.0370 
 24 C        6.2840     2.4670    -0.2430 C.3   1 <1>   0.0960 
 25 C        5.4790     1.7030    -1.2910 C.3   1 <1>   0.1200 
 26 O        4.1340     1.8290    -0.9550 O.3   1 <1>  -0.5600 
 27 C        3.2850     1.0580    -1.7450 C.3   1 <1>   0.0400 
 28 H        4.8520     0.6570     2.4450 H     1 <1>   0.1500 
 29 H        5.9030    -4.2290    -0.6940 H     1 <1>   0.0800 
 30 H        5.8780    -3.1940    -2.1180 H     1 <1>   0.0800 
 31 H        2.2460    -3.3470    -1.7050 H     1 <1>   0.0800 
 32 H        2.3990    -3.9450    -0.0570 H     1 <1>   0.0800 
 33 H        7.5870    -0.6650    -0.7520 H     1 <1>   0.0800 
 34 H        8.8540    -0.8360     0.4170 H     1 <1>   0.0800 
 35 H        6.8840    -0.1580     3.3720 H     1 <1>   0.0800 
 36 H        7.8910     1.1010     2.6790 H     1 <1>   0.0800 
 37 H        8.4680    -0.5500     2.7530 H     1 <1>   0.0800 
 38 H        5.2560    -5.8350    -2.3070 H     1 <1>   0.0800 
 39 H        4.4420    -4.6190    -3.2720 H     1 <1>   0.0800 
 40 H        2.5620    -5.6310    -2.1960 H     1 <1>   0.0800 
 41 H        3.4710    -5.8790    -0.7190 H     1 <1>   0.0800 
 42 H        8.3690     4.2160    -0.9250 H     1 <1>   0.1500 
 43 H        6.0710     3.5160    -0.3310 H     1 <1>   0.0800 
 44 H        6.0010     2.1450     0.7400 H     1 <1>   0.0800 
 45 H        5.7340     0.6580    -1.2890 H     1 <1>   0.0800 
 46 H        5.6300     2.1200    -2.2720 H     1 <1>   0.0800 
 47 H        2.2790     1.1870    -1.3840 H     1 <1>   0.0800 
 48 H        3.5630     0.0200    -1.6670 H     1 <1>   0.0800 
 49 H        3.3500     1.3890    -2.7660 H     1 <1>   0.0800 
@<TRIPOS>BOND
  1   1   2  1   
  2   2   3  1   
  3   2   4  1   
  4   2   5  1   
  5   5   6  ar  
  6   5   7  ar  
  7   6   8  ar  
  8   7   9  ar  
  9   7  28  1   
 10   8  10  ar  
 11   8  11  1   
 12   9  10  ar  
 13   9  12  1   
 14  11  13  1   
 15  11  14  1   
 16  12  15  1   
 17  12  16  1   
 18  13  17  1   
 19  13  29  1   
 20  13  30  1   
 21  14  18  1   
 22  14  31  1   
 23  14  32  1   
 24  15  19  1   
 25  15  33  1   
 26  15  34  1   
 27  16  35  1   
 28  16  36  1   
 29  16  37  1   
 30  17  18  1   
 31  17  38  1   
 32  17  39  1   
 33  18  40  1   
 34  18  41  1   
 35  19  20  2   
 36  19  21  1   
 37  20  22  1   
 38  21  23  1   
 39  21  24  1   
 40  22  23  2   
 41  23  42  1   
 42  24  25  1   
 43  24  43  1   
 44  24  44  1   
 45  25  26  1   
 46  25  45  1   
 47  25  46  1   
 48  26  27  1   
 49  27  47  1   
 50  27  48  1   
 51  27  49  1   
@<TRIPOS>SUBSTRUCTURE
  1 ****   9 GROUP 4 **** **** 0

# MOE 2024.06 (io_trps.svl 2023.06)
