@<TRIPOS>MOLECULE
NONAME
36 37 1 0 0 
SMALL
USER_CHARGES


@<TRIPOS>ATOM
  1 S        0.3400     0.4450     1.0670 S.3   1 <1>  -0.0800 
  2 C       -1.0990     1.2460     0.4960 C.2   1 <1>  -0.1400 
  3 C       -0.4490    -1.0930     0.8080 C.2   1 <1>   0.2280 
  4 C       -2.0100     0.3110     0.1730 C.2   1 <1>   0.0460 
  5 C       -1.0870     2.7640     0.4650 C.3   1 <1>   0.0200 
  6 N       -1.6330    -1.0080     0.3530 N.2   1 <1>  -0.5650 
  7 C       -3.4060     0.5340    -0.3690 C.3   1 <1>  -0.0590 
  8 C       -0.2160     3.2740    -0.6880 C.3   1 <1>  -0.0990 
  9 C       -0.1840     4.7870    -0.7020 C.2   1 <1>   0.5690 
 10 O       -1.1670     5.3670    -1.0860 O.2   1 <1>  -0.5700 
 11 N        0.9530     5.4050    -0.2670 N.am  1 <1>  -0.4940 
 12 C        1.2300     6.7720    -0.1510 C.2   1 <1>   0.2040 
 13 O        0.3490     7.6960    -0.4540 O.3   1 <1>  -0.0190 
 14 C        2.3510     7.3990     0.2600 C.2   1 <1>  -0.1810 
 15 N        0.8210     8.9010    -0.2660 N.2   1 <1>  -0.4100 
 16 C        2.0240     8.7510     0.1610 C.2   1 <1>   0.1080 
 17 C        3.6760     6.8180     0.7270 C.3   1 <1>  -0.0590 
 18 C        2.9330     9.9200     0.5010 C.3   1 <1>   0.0210 
 19 C        3.8180    10.3010    -0.6910 C.3   1 <1>  -0.2400 
 20 H        0.1120    -1.9800     1.0480 H     1 <1>   0.1500 
 21 H       -0.7160     3.1350     1.4050 H     1 <1>   0.0800 
 22 H       -2.0890     3.1340     0.3410 H     1 <1>   0.0800 
 23 H       -3.6090     1.5790    -0.5030 H     1 <1>   0.0800 
 24 H       -4.1260     0.1210     0.3130 H     1 <1>   0.0800 
 25 H       -3.5050     0.0380    -1.3170 H     1 <1>   0.0800 
 26 H       -0.6260     2.9330    -1.6210 H     1 <1>   0.0800 
 27 H        0.7810     2.8840    -0.6010 H     1 <1>   0.0800 
 28 H        1.7120     4.7930     0.0170 H     1 <1>   0.3700 
 29 H        3.6550     5.7450     0.6940 H     1 <1>   0.0800 
 30 H        3.8760     7.1270     1.7370 H     1 <1>   0.0800 
 31 H        4.4720     7.1650     0.0920 H     1 <1>   0.0800 
 32 H        3.5450     9.6670     1.3470 H     1 <1>   0.0800 
 33 H        2.3240    10.7630     0.7760 H     1 <1>   0.0800 
 34 H        4.4450     9.4750    -0.9740 H     1 <1>   0.0800 
 35 H        4.4400    11.1400    -0.4370 H     1 <1>   0.0800 
 36 H        3.2010    10.5690    -1.5310 H     1 <1>   0.0800 
@<TRIPOS>BOND
  1   1   2  1   
  2   1   3  1   
  3   2   4  2   
  4   2   5  1   
  5   3   6  2   
  6   3  20  1   
  7   4   6  1   
  8   4   7  1   
  9   5   8  1   
 10   5  21  1   
 11   5  22  1   
 12   7  23  1   
 13   7  24  1   
 14   7  25  1   
 15   8   9  1   
 16   8  26  1   
 17   8  27  1   
 18   9  10  2   
 19   9  11  am  
 20  11  12  1   
 21  11  28  1   
 22  12  13  1   
 23  12  14  2   
 24  13  15  1   
 25  14  16  1   
 26  14  17  1   
 27  15  16  2   
 28  16  18  1   
 29  17  29  1   
 30  17  30  1   
 31  17  31  1   
 32  18  19  1   
 33  18  32  1   
 34  18  33  1   
 35  19  34  1   
 36  19  35  1   
 37  19  36  1   
@<TRIPOS>SUBSTRUCTURE
  1 ****   9 GROUP 4 **** **** 0

# MOE 2024.06 (io_trps.svl 2023.06)
