@<TRIPOS>MOLECULE
NONAME
37 38 1 0 0 
SMALL
USER_CHARGES


@<TRIPOS>ATOM
  1 O       -0.2640     0.0300    -0.7950 O.2   1 <1>  -0.5700 
  2 C       -1.2300    -0.5990    -0.4110 C.2   1 <1>   0.7800 
  3 O       -1.1690    -1.9210    -0.2320 O.3   1 <1>  -0.4300 
  4 N       -2.4250     0.0120    -0.1540 N.am  1 <1>  -0.6600 
  5 C       -0.0560    -2.7620    -0.4370 C.3   1 <1>   0.2800 
  6 C       -3.6540    -0.7080     0.2800 C.3   1 <1>   0.2200 
  7 C       -2.5960     1.4870    -0.3360 C.3   1 <1>   0.1400 
  8 C        1.0870    -2.3710     0.5070 C.3   1 <1>  -0.2400 
  9 C       -0.5460    -4.1660    -0.0790 C.3   1 <1>  -0.2400 
 10 C        0.3660    -2.7350    -1.9110 C.3   1 <1>  -0.2400 
 11 C       -4.6940    -0.5440    -0.8410 C.3   1 <1>  -0.1600 
 12 C       -4.1740    -0.0020     1.5480 C.3   1 <1>  -0.1600 
 13 C       -4.0910     1.8360    -0.1870 C.3   1 <1>  -0.0800 
 14 C       -4.9150     0.9530    -1.1500 C.3   1 <1>   0.2000 
 15 C       -4.5070     1.4820     1.2580 C.3   1 <1>  -0.1600 
 16 O       -4.5070     1.1950    -2.4470 O.3   1 <1>  -0.6800 
 17 H       -3.4590    -1.7490     0.4760 H     1 <1>   0.0800 
 18 H       -2.0150     2.0050     0.4080 H     1 <1>   0.0800 
 19 H       -2.2300     1.7770    -1.3060 H     1 <1>   0.0800 
 20 H        1.8770    -3.0970     0.4480 H     1 <1>   0.0800 
 21 H        0.7360    -2.3300     1.5220 H     1 <1>   0.0800 
 22 H        1.5030    -1.4170     0.2390 H     1 <1>   0.0800 
 23 H        0.2440    -4.8820    -0.2070 H     1 <1>   0.0800 
 24 H       -1.3660    -4.4480    -0.7160 H     1 <1>   0.0800 
 25 H       -0.8700    -4.1970     0.9450 H     1 <1>   0.0800 
 26 H        1.1200    -3.4790    -2.0900 H     1 <1>   0.0800 
 27 H        0.7820    -1.7810    -2.1780 H     1 <1>   0.0800 
 28 H       -0.4770    -2.9430    -2.5450 H     1 <1>   0.0800 
 29 H       -5.6230    -0.9710    -0.5110 H     1 <1>   0.0800 
 30 H       -4.3780    -1.0880    -1.7140 H     1 <1>   0.0800 
 31 H       -5.0520    -0.5080     1.9080 H     1 <1>   0.0800 
 32 H       -3.4230    -0.0700     2.3150 H     1 <1>   0.0800 
 33 H       -4.2680     2.8780    -0.3840 H     1 <1>   0.0800 
 34 H       -5.9610     1.2020    -1.0900 H     1 <1>   0.0800 
 35 H       -3.9840     2.1140     1.9550 H     1 <1>   0.0800 
 36 H       -5.5620     1.6550     1.3850 H     1 <1>   0.0800 
 37 H       -3.5980     0.8550    -2.5600 H     1 <1>   0.4000 
@<TRIPOS>BOND
  1   1   2  2   
  2   2   3  1   
  3   2   4  am  
  4   3   5  1   
  5   4   6  1   
  6   4   7  1   
  7   5   8  1   
  8   5   9  1   
  9   5  10  1   
 10   6  11  1   
 11   6  12  1   
 12   6  17  1   
 13   7  13  1   
 14   7  18  1   
 15   7  19  1   
 16   8  20  1   
 17   8  21  1   
 18   8  22  1   
 19   9  23  1   
 20   9  24  1   
 21   9  25  1   
 22  10  26  1   
 23  10  27  1   
 24  10  28  1   
 25  11  14  1   
 26  11  29  1   
 27  11  30  1   
 28  12  15  1   
 29  12  31  1   
 30  12  32  1   
 31  13  14  1   
 32  13  15  1   
 33  13  33  1   
 34  14  16  1   
 35  14  34  1   
 36  15  35  1   
 37  15  36  1   
 38  16  37  1   
@<TRIPOS>SUBSTRUCTURE
  1 ****   4 GROUP 4 **** **** 0

# MOE 2024.06 (io_trps.svl 2023.06)
