@<TRIPOS>MOLECULE
NONAME
49 51 1 0 0 
SMALL
USER_CHARGES


@<TRIPOS>ATOM
  1 N       -1.9670    -0.7170    -1.2620 N.ar  1 <1>  -0.6200 
  2 C       -2.0280     0.0530    -0.1660 C.ar  1 <1>   0.6200 
  3 C       -1.7390    -1.9940    -1.0850 C.ar  1 <1>   0.1600 
  4 N       -1.7640    -0.3850     1.0740 N.ar  1 <1>  -0.6200 
  5 C       -2.4120     1.4510    -0.3430 C.ar  1 <1>   0.3100 
  6 C       -1.5330    -2.5330     0.1630 C.ar  1 <1>  -0.1440 
  7 C       -1.5150    -1.6580     1.2220 C.ar  1 <1>   0.1600 
  8 N       -3.4760     1.9360     0.3220 N.ar  1 <1>  -0.6200 
  9 C       -1.6700     2.2530    -1.2130 C.ar  1 <1>  -0.1500 
 10 C       -1.3760    -4.0210     0.3800 C.3   1 <1>   0.4860 
 11 C       -3.7760     3.2060     0.1250 C.ar  1 <1>   0.1600 
 12 C       -1.9970     3.5760    -1.4120 C.ar  1 <1>  -0.1500 
 13 N       -2.7000    -4.7120     0.2940 N.4   1 <1>  -0.9590 
 14 C       -3.0830     4.0580    -0.7160 C.ar  1 <1>  -0.1500 
 15 C       -3.8140    -4.0390     1.0510 C.3   1 <1>   0.4860 
 16 C       -2.6010    -6.1700     0.5610 C.3   1 <1>   0.3430 
 17 C       -4.5500    -3.1150     0.0840 C.ar  1 <1>   0.1670 
 18 C       -3.7840    -6.9040    -0.0730 C.3   1 <1>  -0.1600 
 19 N       -4.7320    -3.5910    -1.1460 N.ar  1 <1>  -0.6200 
 20 C       -4.9360    -1.8480     0.4970 C.ar  1 <1>  -0.1500 
 21 C       -3.6460    -8.4200     0.1140 C.3   1 <1>  -0.1600 
 22 C       -5.3360    -2.7640    -1.9900 C.ar  1 <1>   0.1600 
 23 C       -5.5510    -1.0010    -0.3990 C.ar  1 <1>  -0.1500 
 24 C       -4.8260    -9.1580    -0.5240 C.3   1 <1>  -0.2400 
 25 C       -5.7540    -1.4840    -1.6730 C.ar  1 <1>  -0.1500 
 26 H       -1.7370    -2.6170    -1.9650 H     1 <1>   0.1500 
 27 H       -1.3120    -2.0010     2.2230 H     1 <1>   0.1500 
 28 H       -0.8330     1.8250    -1.7330 H     1 <1>   0.1500 
 29 H       -0.9380    -4.1930     1.3500 H     1 <1>   0.0800 
 30 H       -0.7070    -4.4210    -0.3640 H     1 <1>   0.0800 
 31 H       -4.6240     3.5950     0.6630 H     1 <1>   0.1500 
 32 H       -1.4320     4.2040    -2.0790 H     1 <1>   0.1500 
 33 H       -3.0490    -4.5990    -0.6790 H     1 <1>   0.4500 
 34 H       -3.3920     5.0820    -0.8230 H     1 <1>   0.1500 
 35 H       -3.4330    -3.4810     1.8890 H     1 <1>   0.0800 
 36 H       -4.5160    -4.7700     1.4130 H     1 <1>   0.0800 
 37 H       -2.5760    -6.3570     1.6230 H     1 <1>   0.0800 
 38 H       -1.6920    -6.5570     0.1290 H     1 <1>   0.0800 
 39 H       -3.8210    -6.6860    -1.1270 H     1 <1>   0.0800 
 40 H       -4.7100    -6.5870     0.3730 H     1 <1>   0.0800 
 41 H       -4.7520    -1.5000     1.4990 H     1 <1>   0.1500 
 42 H       -3.6110    -8.6620     1.1640 H     1 <1>   0.0800 
 43 H       -2.7330    -8.7670    -0.3400 H     1 <1>   0.0800 
 44 H       -5.5080    -3.1210    -2.9920 H     1 <1>   0.1500 
 45 H       -5.8480    -0.0030    -0.1180 H     1 <1>   0.1500 
 46 H       -5.7550    -8.8570    -0.0720 H     1 <1>   0.0800 
 47 H       -4.7140   -10.2200    -0.3860 H     1 <1>   0.0800 
 48 H       -4.8750    -8.9580    -1.5800 H     1 <1>   0.0800 
 49 H       -6.2290    -0.8690    -2.4160 H     1 <1>   0.1500 
@<TRIPOS>BOND
  1   1   2  ar  
  2   1   3  ar  
  3   2   4  ar  
  4   2   5  1   
  5   3   6  ar  
  6   3  26  1   
  7   4   7  ar  
  8   5   8  ar  
  9   5   9  ar  
 10   6   7  ar  
 11   6  10  1   
 12   7  27  1   
 13   8  11  ar  
 14   9  12  ar  
 15   9  28  1   
 16  10  13  1   
 17  10  29  1   
 18  10  30  1   
 19  11  14  ar  
 20  11  31  1   
 21  12  14  ar  
 22  12  32  1   
 23  13  15  1   
 24  13  16  1   
 25  13  33  1   
 26  14  34  1   
 27  15  17  1   
 28  15  35  1   
 29  15  36  1   
 30  16  18  1   
 31  16  37  1   
 32  16  38  1   
 33  17  19  ar  
 34  17  20  ar  
 35  18  21  1   
 36  18  39  1   
 37  18  40  1   
 38  19  22  ar  
 39  20  23  ar  
 40  20  41  1   
 41  21  24  1   
 42  21  42  1   
 43  21  43  1   
 44  22  25  ar  
 45  22  44  1   
 46  23  25  ar  
 47  23  45  1   
 48  24  46  1   
 49  24  47  1   
 50  24  48  1   
 51  25  49  1   
@<TRIPOS>SUBSTRUCTURE
  1 ****   3 GROUP 4 **** **** 0

# MOE 2024.06 (io_trps.svl 2023.06)
