@<TRIPOS>MOLECULE
NONAME
49 50 1 0 0 
SMALL
USER_CHARGES


@<TRIPOS>ATOM
  1 S        0.4820     0.6230    -0.5720 S.o2  1 <1>   1.3330 
  2 O        0.2560     0.1430     0.7730 O.2   1 <1>  -0.6500 
  3 O        0.3530    -0.2920    -1.6840 O.2   1 <1>  -0.6500 
  4 N       -0.5670     1.9310    -0.8370 N.am  1 <1>  -0.8490 
  5 C        2.1080     1.3680    -0.6590 C.3   1 <1>  -0.0550 
  6 C       -1.8630     1.5000    -1.3680 C.3   1 <1>   0.1160 
  7 C       -0.7660     2.7700     0.3490 C.3   1 <1>   0.1160 
  8 C        3.2490     0.3310    -0.6240 C.3   1 <1>  -0.0800 
  9 C        4.6490     0.9090    -0.7520 C.3   1 <1>   0.2200 
 10 C        3.3370    -0.4930     0.6670 C.3   1 <1>   0.1200 
 11 N        4.8040     2.1140     0.0990 N.am  1 <1>  -0.7300 
 12 C        5.4650    -0.2210    -0.1400 C.3   1 <1>   0.1200 
 13 O        4.7000    -0.6700     0.9370 O.3   1 <1>  -0.5600 
 14 C        4.7550     3.4060    -0.3370 C.2   1 <1>   0.5440 
 15 O        4.4890     3.5990    -1.5060 O.2   1 <1>  -0.5700 
 16 C        5.0010     4.5160     0.5710 C.ar  1 <1>   0.0860 
 17 C        5.3590     5.7710     0.0800 C.ar  1 <1>  -0.1500 
 18 C        4.8910     4.3830     1.9580 C.ar  1 <1>  -0.1500 
 19 C        5.6070     6.8440     0.9180 C.ar  1 <1>   0.0820 
 20 C        5.1360     5.4460     2.8080 C.ar  1 <1>  -0.1500 
 21 O        5.9500     8.0150     0.3260 O.3   1 <1>  -0.3620 
 22 C        5.4950     6.6790     2.2950 C.ar  1 <1>  -0.1500 
 23 C        6.2350     9.1760     1.0980 C.3   1 <1>   0.1810 
 24 C        6.6000    10.3660     0.2160 C.2   1 <1>   0.5690 
 25 O        6.8930    11.4120     0.7350 O.2   1 <1>  -0.5700 
 26 N        6.5960    10.2610    -1.1290 N.am  1 <1>  -0.8000 
 27 H        2.1850     1.9270    -1.5720 H     1 <1>   0.0800 
 28 H        2.2190     2.0570     0.1540 H     1 <1>   0.0800 
 29 H       -2.4960     2.3520    -1.5450 H     1 <1>   0.0800 
 30 H       -2.3490     0.8320    -0.6760 H     1 <1>   0.0800 
 31 H       -1.7240     0.9850    -2.3050 H     1 <1>   0.0800 
 32 H       -1.3720     3.6240     0.0990 H     1 <1>   0.0800 
 33 H        0.1810     3.1240     0.7170 H     1 <1>   0.0800 
 34 H       -1.2550     2.2100     1.1300 H     1 <1>   0.0800 
 35 H        3.0990    -0.3580    -1.4380 H     1 <1>   0.0800 
 36 H        4.9290     1.1180    -1.7710 H     1 <1>   0.0800 
 37 H        2.8720    -1.4590     0.5600 H     1 <1>   0.0800 
 38 H        2.9040     0.0260     1.5060 H     1 <1>   0.0800 
 39 H        5.0330     1.8960     1.0710 H     1 <1>   0.3700 
 40 H        6.4320     0.0990     0.2050 H     1 <1>   0.0800 
 41 H        5.5720    -1.0360    -0.8350 H     1 <1>   0.0800 
 42 H        5.4470     5.9130    -0.9820 H     1 <1>   0.1500 
 43 H        4.6050     3.4390     2.3850 H     1 <1>   0.1500 
 44 H        5.0460     5.3160     3.8730 H     1 <1>   0.1500 
 45 H        5.6800     7.4860     2.9790 H     1 <1>   0.1500 
 46 H        5.3640     9.4220     1.6760 H     1 <1>   0.0800 
 47 H        7.0610     8.9570     1.7490 H     1 <1>   0.0800 
 48 H        6.8410    11.0610    -1.7110 H     1 <1>   0.3700 
 49 H        6.3550     9.3870    -1.6000 H     1 <1>   0.3700 
@<TRIPOS>BOND
  1   1   2  2   
  2   1   3  2   
  3   1   4  am  
  4   1   5  1   
  5   4   6  1   
  6   4   7  1   
  7   5   8  1   
  8   5  27  1   
  9   5  28  1   
 10   6  29  1   
 11   6  30  1   
 12   6  31  1   
 13   7  32  1   
 14   7  33  1   
 15   7  34  1   
 16   8   9  1   
 17   8  10  1   
 18   8  35  1   
 19   9  11  1   
 20   9  12  1   
 21   9  36  1   
 22  10  13  1   
 23  10  37  1   
 24  10  38  1   
 25  11  14  am  
 26  11  39  1   
 27  12  13  1   
 28  12  40  1   
 29  12  41  1   
 30  14  15  2   
 31  14  16  1   
 32  16  17  ar  
 33  16  18  ar  
 34  17  19  ar  
 35  17  42  1   
 36  18  20  ar  
 37  18  43  1   
 38  19  21  1   
 39  19  22  ar  
 40  20  22  ar  
 41  20  44  1   
 42  21  23  1   
 43  22  45  1   
 44  23  24  1   
 45  23  46  1   
 46  23  47  1   
 47  24  25  2   
 48  24  26  am  
 49  26  48  1   
 50  26  49  1   
@<TRIPOS>SUBSTRUCTURE
  1 ****  14 GROUP 4 **** **** 0

# MOE 2024.06 (io_trps.svl 2023.06)
