@<TRIPOS>MOLECULE
NONAME
37 38 1 0 0 
SMALL
USER_CHARGES


@<TRIPOS>ATOM
  1 F       -1.2270    -0.6670    -0.9070 F     1 <1>  -0.1900 
  2 C       -2.0880     0.2360    -0.5180 C.ar  1 <1>   0.1900 
  3 C       -3.2030    -0.1610     0.1990 C.ar  1 <1>  -0.1440 
  4 C       -1.8560     1.5550    -0.8520 C.ar  1 <1>  -0.1500 
  5 C       -4.1130     0.8120     0.5870 C.ar  1 <1>  -0.1500 
  6 C       -3.4250    -1.6180     0.5580 C.3   1 <1>   0.4870 
  7 C       -2.7740     2.5130    -0.4570 C.ar  1 <1>  -0.1500 
  8 C       -3.9140     2.1540     0.2630 C.ar  1 <1>  -0.1440 
  9 N       -3.6520    -2.4120    -0.6920 N.4   1 <1>  -0.9590 
 10 C       -4.9380     3.2160     0.7100 C.3   1 <1>   1.1630 
 11 C       -3.6160    -3.8830    -0.3600 C.3   1 <1>   0.3430 
 12 C       -4.9300    -1.9580    -1.3410 C.3   1 <1>   0.3430 
 13 F       -4.7880     3.5440     1.9850 F     1 <1>  -0.3400 
 14 F       -4.8490     4.3460     0.0180 F     1 <1>  -0.3400 
 15 F       -6.1890     2.7970     0.5730 F     1 <1>  -0.3400 
 16 C       -5.0030    -4.4410    -0.0630 C.3   1 <1>  -0.1860 
 17 C       -5.5240    -3.0780    -2.1870 C.3   1 <1>  -0.1600 
 18 C       -5.4100    -3.7520     1.2130 C.2   1 <1>   0.9060 
 19 C       -5.9100    -4.2720    -1.3020 C.3   1 <1>   0.2000 
 20 O       -4.6390    -3.8560     2.1670 O.co2 1 <1>  -0.9000 
 21 O       -6.3250    -2.9220     1.2040 O.co2 1 <1>  -0.9000 
 22 O       -7.2130    -4.0980    -0.9050 O.3   1 <1>  -0.6800 
 23 H       -0.9760     1.8260    -1.4090 H     1 <1>   0.1500 
 24 H       -4.9880     0.5200     1.1520 H     1 <1>   0.1500 
 25 H       -4.2750    -1.6960     1.2170 H     1 <1>   0.0800 
 26 H       -2.5650    -1.9970     1.0860 H     1 <1>   0.0800 
 27 H       -2.5900     3.5440    -0.7160 H     1 <1>   0.1500 
 28 H       -2.8620    -2.1940    -1.3080 H     1 <1>   0.4500 
 29 H       -3.2050    -4.4250    -1.1950 H     1 <1>   0.0800 
 30 H       -2.9760    -4.0540     0.4930 H     1 <1>   0.0800 
 31 H       -5.6500    -1.6910    -0.5820 H     1 <1>   0.0800 
 32 H       -4.7470    -1.0860    -1.9470 H     1 <1>   0.0800 
 33 H       -4.9170    -5.4860     0.1600 H     1 <1>   0.0800 
 34 H       -4.8000    -3.3840    -2.9190 H     1 <1>   0.0800 
 35 H       -6.3890    -2.7210    -2.7190 H     1 <1>   0.0800 
 36 H       -5.8900    -5.1670    -1.9010 H     1 <1>   0.0800 
 37 H       -7.1990    -3.5660    -0.0520 H     1 <1>   0.4000 
@<TRIPOS>BOND
  1   1   2  1   
  2   2   3  ar  
  3   2   4  ar  
  4   3   5  ar  
  5   3   6  1   
  6   4   7  ar  
  7   4  23  1   
  8   5   8  ar  
  9   5  24  1   
 10   6   9  1   
 11   6  25  1   
 12   6  26  1   
 13   7   8  ar  
 14   7  27  1   
 15   8  10  1   
 16   9  11  1   
 17   9  12  1   
 18   9  28  1   
 19  10  13  1   
 20  10  14  1   
 21  10  15  1   
 22  11  16  1   
 23  11  29  1   
 24  11  30  1   
 25  12  17  1   
 26  12  31  1   
 27  12  32  1   
 28  16  18  1   
 29  16  19  1   
 30  16  33  1   
 31  17  19  1   
 32  17  34  1   
 33  17  35  1   
 34  18  20  ar  
 35  18  21  ar  
 36  19  22  1   
 37  19  36  1   
 38  22  37  1   
@<TRIPOS>SUBSTRUCTURE
  1 ****   3 GROUP 4 **** **** 0

# MOE 2024.06 (io_trps.svl 2023.06)
