@<TRIPOS>MOLECULE
NONAME
47 49 1 0 0 
SMALL
USER_CHARGES


@<TRIPOS>ATOM
  1 S        0.2230    -0.0850    -1.1890 S.o2  1 <1>   1.3330 
  2 O        1.1510    -0.0910    -2.2970 O.2   1 <1>  -0.6500 
  3 O       -0.7650    -1.1340    -1.0750 O.2   1 <1>  -0.6500 
  4 N        1.1270    -0.0780     0.2500 N.am  1 <1>  -0.8490 
  5 C       -0.6040     1.5080    -1.1800 C.3   1 <1>  -0.0550 
  6 C        2.3210    -0.9240     0.1620 C.3   1 <1>   0.1160 
  7 C        0.3430    -0.4430     1.4350 C.3   1 <1>   0.1160 
  8 C        0.3460     2.7220    -1.2860 C.3   1 <1>  -0.0800 
  9 C       -0.3660     4.0560    -1.5240 C.3   1 <1>   0.2000 
 10 C        1.2100     2.9710    -0.0400 C.3   1 <1>   0.1400 
 11 O       -1.4550     4.1470    -0.6690 O.3   1 <1>  -0.6800 
 12 C        0.6640     5.0950    -1.0900 C.3   1 <1>   0.1400 
 13 N        1.3650     4.4450     0.0460 N.am  1 <1>  -0.6600 
 14 C        2.0100     5.0720     1.0900 C.2   1 <1>   0.6160 
 15 O        2.2940     4.3940     2.0630 O.2   1 <1>  -0.5700 
 16 C        2.2810     6.4780     1.1280 C.2   1 <1>   0.0290 
 17 C        2.9880     7.0980     0.0440 C.2   1 <1>   0.5650 
 18 C        1.8940     7.2310     2.2100 C.2   1 <1>  -0.0500 
 19 O        3.4020     6.4570    -0.9150 O.2   1 <1>  -0.5700 
 20 N        3.1950     8.5020     0.1270 N.pl3 1 <1>   0.5610 
 21 N        2.1190     8.5740     2.2780 N.pl3 1 <1>  -0.5840 
 22 N        3.7800     9.3620    -0.7740 N.2   1 <1>  -0.7070 
 23 C        2.7670     9.2180     1.2170 C.2   1 <1>  -0.0680 
 24 C        3.7090    10.5340    -0.2320 C.2   1 <1>   0.1080 
 25 C        3.0890    10.5130     1.0110 C.2   1 <1>  -0.1500 
 26 C        4.2550    11.7680    -0.9130 C.3   1 <1>  -0.0590 
 27 H       -1.2740     1.5380    -2.0170 H     1 <1>   0.0800 
 28 H       -1.2030     1.5930    -0.2940 H     1 <1>   0.0800 
 29 H        2.8780    -0.8800     1.0820 H     1 <1>   0.0800 
 30 H        2.9600    -0.5790    -0.6330 H     1 <1>   0.0800 
 31 H        2.0420    -1.9450    -0.0370 H     1 <1>   0.0800 
 32 H        0.9420    -0.3280     2.3230 H     1 <1>   0.0800 
 33 H        0.0100    -1.4660     1.3660 H     1 <1>   0.0800 
 34 H       -0.5190     0.1950     1.5230 H     1 <1>   0.0800 
 35 H        1.0160     2.5620    -2.1140 H     1 <1>   0.0800 
 36 H       -0.7070     4.1900    -2.5370 H     1 <1>   0.0800 
 37 H        2.1730     2.4950    -0.1270 H     1 <1>   0.0800 
 38 H        0.7210     2.6170     0.8520 H     1 <1>   0.0800 
 39 H       -1.1240     4.1970     0.2500 H     1 <1>   0.4000 
 40 H        0.2020     6.0260    -0.8100 H     1 <1>   0.0800 
 41 H        1.3670     5.2620    -1.8890 H     1 <1>   0.0800 
 42 H        1.3940     6.7640     3.0470 H     1 <1>   0.1500 
 43 H        1.8350     9.1300     3.0980 H     1 <1>   0.4000 
 44 H        2.9130    11.3590     1.6500 H     1 <1>   0.1500 
 45 H        4.1100    12.6360    -0.2980 H     1 <1>   0.0800 
 46 H        3.7520    11.9120    -1.8520 H     1 <1>   0.0800 
 47 H        5.3050    11.6390    -1.0990 H     1 <1>   0.0800 
@<TRIPOS>BOND
  1   1   2  2   
  2   1   3  2   
  3   1   4  am  
  4   1   5  1   
  5   4   6  1   
  6   4   7  1   
  7   5   8  1   
  8   5  27  1   
  9   5  28  1   
 10   6  29  1   
 11   6  30  1   
 12   6  31  1   
 13   7  32  1   
 14   7  33  1   
 15   7  34  1   
 16   8   9  1   
 17   8  10  1   
 18   8  35  1   
 19   9  11  1   
 20   9  12  1   
 21   9  36  1   
 22  10  13  1   
 23  10  37  1   
 24  10  38  1   
 25  11  39  1   
 26  12  13  1   
 27  12  40  1   
 28  12  41  1   
 29  13  14  am  
 30  14  15  2   
 31  14  16  1   
 32  16  17  1   
 33  16  18  2   
 34  17  19  2   
 35  17  20  1   
 36  18  21  1   
 37  18  42  1   
 38  20  22  1   
 39  20  23  1   
 40  21  23  1   
 41  21  43  1   
 42  22  24  2   
 43  23  25  2   
 44  24  25  1   
 45  24  26  1   
 46  25  44  1   
 47  26  45  1   
 48  26  46  1   
 49  26  47  1   
@<TRIPOS>SUBSTRUCTURE
  1 ****  13 GROUP 4 **** **** 0

# MOE 2024.06 (io_trps.svl 2023.06)
