@<TRIPOS>MOLECULE
NONAME
43 45 1 0 0 
SMALL
USER_CHARGES


@<TRIPOS>ATOM
  1 S        1.2930    -0.7130     1.5690 S.3   1 <1>  -0.2860 
  2 C        0.9670    -0.9520    -0.1830 C.2   1 <1>   0.2420 
  3 C        3.1460    -0.7710     1.7130 C.3   1 <1>   0.1310 
  4 N        1.8810    -1.0310    -1.0850 N.2   1 <1>  -0.3380 
  5 N       -0.2690    -1.0430    -0.6700 N.pl3 1 <1>   0.0480 
  6 C        3.7130     0.6080     2.0400 C.2   1 <1>   0.5690 
  7 N        1.2360    -1.1640    -2.2470 N.2   1 <1>  -0.3380 
  8 C       -0.0280    -1.1750    -1.9790 C.2   1 <1>   0.0360 
  9 C       -1.5590    -1.0080     0.0450 C.3   1 <1>   0.0160 
 10 O        4.3690     0.7200     3.0480 O.2   1 <1>  -0.5700 
 11 N        3.5540     1.6960     1.2180 N.am  1 <1>  -0.6600 
 12 C        3.7720     3.0740     1.7980 C.3   1 <1>   0.2200 
 13 C        3.3620     1.5630    -0.2580 C.3   1 <1>   0.1400 
 14 C        2.8160     4.1350     1.2300 C.3   1 <1>   0.1200 
 15 C        5.2460     3.5080     1.6350 C.3   1 <1>   0.3430 
 16 C        4.0000     2.6880    -1.0950 C.3   1 <1>  -0.0800 
 17 O        3.3360     4.6970     0.0620 O.3   1 <1>  -0.5600 
 18 N        5.9610     2.7090     0.5770 N.4   1 <1>  -0.9590 
 19 C        3.1400     3.9600    -1.0970 C.3   1 <1>   0.1200 
 20 C        5.4900     2.9920    -0.8190 C.3   1 <1>   0.3430 
 21 C        7.4390     2.8460     0.7050 C.3   1 <1>   0.2630 
 22 H        3.3640    -1.4520     2.5140 H     1 <1>   0.0800 
 23 H        3.5530    -1.1610     0.8010 H     1 <1>   0.0800 
 24 H       -0.8080    -1.2770    -2.7130 H     1 <1>   0.1500 
 25 H       -2.3660    -1.1370    -0.6530 H     1 <1>   0.0800 
 26 H       -1.6640    -0.0620     0.5450 H     1 <1>   0.0800 
 27 H       -1.5840    -1.8000     0.7720 H     1 <1>   0.0800 
 28 H        3.5610     3.0270     2.8530 H     1 <1>   0.0800 
 29 H        3.7920     0.6300    -0.5820 H     1 <1>   0.0800 
 30 H        2.3060     1.5240    -0.4670 H     1 <1>   0.0800 
 31 H        2.7250     4.9400     1.9390 H     1 <1>   0.0800 
 32 H        1.8320     3.7350     1.0500 H     1 <1>   0.0800 
 33 H        5.7350     3.3520     2.5820 H     1 <1>   0.0800 
 34 H        5.2940     4.5600     1.4100 H     1 <1>   0.0800 
 35 H        3.9550     2.3420    -2.1130 H     1 <1>   0.0800 
 36 H        5.6840     1.7380     0.7940 H     1 <1>   0.4500 
 37 H        2.0910     3.7360    -1.2000 H     1 <1>   0.0800 
 38 H        3.4260     4.5940    -1.9190 H     1 <1>   0.0800 
 39 H        5.6810     4.0260    -1.0590 H     1 <1>   0.0800 
 40 H        6.0750     2.3930    -1.4980 H     1 <1>   0.0800 
 41 H        7.7380     3.8650     0.5180 H     1 <1>   0.0800 
 42 H        7.9370     2.2030    -0.0010 H     1 <1>   0.0800 
 43 H        7.7530     2.5700     1.6990 H     1 <1>   0.0800 
@<TRIPOS>BOND
  1   1   2  1   
  2   1   3  1   
  3   2   4  2   
  4   2   5  1   
  5   3   6  1   
  6   3  22  1   
  7   3  23  1   
  8   4   7  1   
  9   5   8  1   
 10   5   9  1   
 11   6  10  2   
 12   6  11  am  
 13   7   8  2   
 14   8  24  1   
 15   9  25  1   
 16   9  26  1   
 17   9  27  1   
 18  11  12  1   
 19  11  13  1   
 20  12  14  1   
 21  12  15  1   
 22  12  28  1   
 23  13  16  1   
 24  13  29  1   
 25  13  30  1   
 26  14  17  1   
 27  14  31  1   
 28  14  32  1   
 29  15  18  1   
 30  15  33  1   
 31  15  34  1   
 32  16  19  1   
 33  16  20  1   
 34  16  35  1   
 35  17  19  1   
 36  18  20  1   
 37  18  21  1   
 38  18  36  1   
 39  19  37  1   
 40  19  38  1   
 41  20  39  1   
 42  20  40  1   
 43  21  41  1   
 44  21  42  1   
 45  21  43  1   
@<TRIPOS>SUBSTRUCTURE
  1 ****  13 GROUP 4 **** **** 0

# MOE 2024.06 (io_trps.svl 2023.06)
