@<TRIPOS>MOLECULE
NONAME
42 44 1 0 0 
SMALL
USER_CHARGES


@<TRIPOS>ATOM
  1 F        0.3330    -0.3900    -0.2340 F     1 <1>  -0.1900 
  2 C        0.2120    -1.6680    -0.0100 C.ar  1 <1>   0.1900 
  3 C       -0.8040    -2.1090     0.8160 C.ar  1 <1>  -0.1500 
  4 C        1.1040    -2.5390    -0.6040 C.ar  1 <1>  -0.1500 
  5 C       -0.9270    -3.4680     1.0450 C.ar  1 <1>  -0.1500 
  6 C        0.9650    -3.8950    -0.3630 C.ar  1 <1>  -0.1500 
  7 C       -0.0550    -4.3890     0.4550 C.ar  1 <1>   0.0860 
  8 C       -0.1920    -5.8150     0.6850 C.2   1 <1>   0.5440 
  9 O        0.7860    -6.4760     0.9780 O.2   1 <1>  -0.5700 
 10 N       -1.4080    -6.4480     0.5570 N.am  1 <1>  -0.6600 
 11 C       -2.5190    -5.9600    -0.3020 C.3   1 <1>   0.1400 
 12 C       -1.6120    -7.8830     0.8650 C.3   1 <1>   0.1400 
 13 C       -3.4550    -7.1610    -0.5060 C.3   1 <1>   0.2000 
 14 C       -2.5690    -8.3770    -0.2200 C.3   1 <1>  -0.0800 
 15 O       -4.4860    -7.1210     0.4400 O.3   1 <1>  -0.5600 
 16 C       -3.3350    -9.6550     0.1700 C.3   1 <1>   0.0200 
 17 C       -5.6040    -6.3760     0.0700 C.3   1 <1>   0.0400 
 18 C       -2.4420   -10.8800     0.2740 C.2   1 <1>  -0.0400 
 19 O       -2.9670   -12.0070     0.6770 O.3   1 <1>  -0.0190 
 20 C       -1.1400   -11.1030     0.0290 C.2   1 <1>  -0.1500 
 21 N       -2.0890   -12.9680     0.7180 N.2   1 <1>  -0.4100 
 22 C       -0.9780   -12.4510     0.3340 C.2   1 <1>   0.1080 
 23 C        0.3240   -13.2120     0.2300 C.3   1 <1>  -0.0590 
 24 H       -1.4750    -1.4010     1.2680 H     1 <1>   0.1500 
 25 H        1.8880    -2.1610    -1.2360 H     1 <1>   0.1500 
 26 H       -1.7040    -3.8310     1.6970 H     1 <1>   0.1500 
 27 H        1.6550    -4.5930    -0.8080 H     1 <1>   0.1500 
 28 H       -3.0340    -5.1400     0.1640 H     1 <1>   0.0800 
 29 H       -2.1160    -5.6460    -1.2490 H     1 <1>   0.0800 
 30 H       -0.6830    -8.4270     0.8590 H     1 <1>   0.0800 
 31 H       -2.0680    -7.9650     1.8370 H     1 <1>   0.0800 
 32 H       -3.8790    -7.1970    -1.4950 H     1 <1>   0.0800 
 33 H       -1.9890    -8.5760    -1.1040 H     1 <1>   0.0800 
 34 H       -4.0940    -9.8520    -0.5660 H     1 <1>   0.0800 
 35 H       -3.8290    -9.5100     1.1150 H     1 <1>   0.0800 
 36 H       -6.3090    -6.4090     0.8810 H     1 <1>   0.0800 
 37 H       -6.0470    -6.8130    -0.8090 H     1 <1>   0.0800 
 38 H       -5.3150    -5.3570    -0.1160 H     1 <1>   0.0800 
 39 H       -0.3710   -10.4390    -0.3180 H     1 <1>   0.1500 
 40 H        1.0740   -12.7370     0.8340 H     1 <1>   0.0800 
 41 H        0.6520   -13.2340    -0.7930 H     1 <1>   0.0800 
 42 H        0.1870   -14.2220     0.5740 H     1 <1>   0.0800 
@<TRIPOS>BOND
  1   1   2  1   
  2   2   3  ar  
  3   2   4  ar  
  4   3   5  ar  
  5   3  24  1   
  6   4   6  ar  
  7   4  25  1   
  8   5   7  ar  
  9   5  26  1   
 10   6   7  ar  
 11   6  27  1   
 12   7   8  1   
 13   8   9  2   
 14   8  10  am  
 15  10  11  1   
 16  10  12  1   
 17  11  13  1   
 18  11  28  1   
 19  11  29  1   
 20  12  14  1   
 21  12  30  1   
 22  12  31  1   
 23  13  14  1   
 24  13  15  1   
 25  13  32  1   
 26  14  16  1   
 27  14  33  1   
 28  15  17  1   
 29  16  18  1   
 30  16  34  1   
 31  16  35  1   
 32  17  36  1   
 33  17  37  1   
 34  17  38  1   
 35  18  19  1   
 36  18  20  2   
 37  19  21  1   
 38  20  22  1   
 39  20  39  1   
 40  21  22  2   
 41  22  23  1   
 42  23  40  1   
 43  23  41  1   
 44  23  42  1   
@<TRIPOS>SUBSTRUCTURE
  1 ****  10 GROUP 4 **** **** 0

# MOE 2024.06 (io_trps.svl 2023.06)
