@<TRIPOS>MOLECULE
NONAME
50 51 1 0 0 
SMALL
USER_CHARGES


@<TRIPOS>ATOM
  1 S       -0.4070     0.6340    -0.8400 S.o2  1 <1>   1.3330 
  2 O       -0.8390    -0.7280    -1.0470 O.2   1 <1>  -0.6500 
  3 O       -0.9060     1.6680    -1.7180 O.2   1 <1>  -0.6500 
  4 N        1.2890     0.6380    -0.9240 N.am  1 <1>  -0.8490 
  5 C       -0.7870     1.0860     0.8630 C.3   1 <1>  -0.0550 
  6 C        1.7700     0.8750    -2.2870 C.3   1 <1>   0.1160 
  7 C        1.8980    -0.5900    -0.4000 C.3   1 <1>   0.1160 
  8 C       -0.4110     2.4960     1.3860 C.3   1 <1>  -0.0800 
  9 C       -0.9620     3.6560     0.5460 C.3   1 <1>   0.2000 
 10 C        1.0980     2.7650     1.5150 C.3   1 <1>   0.2090 
 11 O       -1.3640     4.6480     1.4270 O.3   1 <1>  -0.6800 
 12 C        0.2330     4.1870    -0.2460 C.3   1 <1>   0.2090 
 13 N        1.4120     3.9140     0.6200 N.pl3 1 <1>  -0.8380 
 14 C        2.5940     4.5640     0.6160 C.ar  1 <1>   0.4100 
 15 N        3.5010     4.1950     1.5310 N.ar  1 <1>  -0.6200 
 16 C        2.8910     5.5880    -0.2930 C.ar  1 <1>  -0.1500 
 17 C        4.6420     4.8120     1.5580 C.ar  1 <1>   0.5280 
 18 C        4.1000     6.2150    -0.2380 C.ar  1 <1>   0.2180 
 19 N        4.9700     5.8070     0.7080 N.ar  1 <1>  -0.1790 
 20 C        5.6600     4.3920     2.5990 C.3   1 <1>  -0.0970 
 21 C        4.4980     7.3380    -1.1870 C.3   1 <1>  -0.0170 
 22 C        4.6300     8.6840    -0.4590 C.3   1 <1>  -0.1600 
 23 C        5.0090     9.8050    -1.4320 C.3   1 <1>  -0.2400 
 24 H       -1.8480     0.9840     0.9840 H     1 <1>   0.0800 
 25 H       -0.3400     0.3600     1.5130 H     1 <1>   0.0800 
 26 H        2.8460     0.8800    -2.3090 H     1 <1>   0.0800 
 27 H        1.4230     1.8310    -2.6410 H     1 <1>   0.0800 
 28 H        1.4050     0.1090    -2.9520 H     1 <1>   0.0800 
 29 H        2.9710    -0.4980    -0.3940 H     1 <1>   0.0800 
 30 H        1.6240    -1.4380    -1.0080 H     1 <1>   0.0800 
 31 H        1.5680    -0.7700     0.6090 H     1 <1>   0.0800 
 32 H       -0.8340     2.5500     2.3750 H     1 <1>   0.0800 
 33 H       -1.8040     3.3970    -0.0740 H     1 <1>   0.0800 
 34 H        1.6890     1.9100     1.2380 H     1 <1>   0.0800 
 35 H        1.3370     3.0280     2.5320 H     1 <1>   0.0800 
 36 H       -0.5760     4.9720     1.9090 H     1 <1>   0.4000 
 37 H        0.1110     5.2350    -0.4580 H     1 <1>   0.0800 
 38 H        0.3470     3.6510    -1.1700 H     1 <1>   0.0800 
 39 H        2.1590     5.8660    -1.0270 H     1 <1>   0.1500 
 40 H        5.8850     6.2500     0.7910 H     1 <1>   0.4570 
 41 H        5.2670     3.5830     3.1920 H     1 <1>   0.0800 
 42 H        5.8820     5.2120     3.2570 H     1 <1>   0.0800 
 43 H        6.5640     4.0540     2.1270 H     1 <1>   0.0800 
 44 H        5.4270     7.0900    -1.6720 H     1 <1>   0.0800 
 45 H        3.7520     7.4320    -1.9590 H     1 <1>   0.0800 
 46 H        3.6910     8.9340     0.0090 H     1 <1>   0.0800 
 47 H        5.3800     8.6290     0.3100 H     1 <1>   0.0800 
 48 H        4.2590     9.9180    -2.1960 H     1 <1>   0.0800 
 49 H        5.9550     9.6010    -1.9050 H     1 <1>   0.0800 
 50 H        5.0910    10.7390    -0.9040 H     1 <1>   0.0800 
@<TRIPOS>BOND
  1   1   2  2   
  2   1   3  2   
  3   1   4  am  
  4   1   5  1   
  5   4   6  1   
  6   4   7  1   
  7   5   8  1   
  8   5  24  1   
  9   5  25  1   
 10   6  26  1   
 11   6  27  1   
 12   6  28  1   
 13   7  29  1   
 14   7  30  1   
 15   7  31  1   
 16   8   9  1   
 17   8  10  1   
 18   8  32  1   
 19   9  11  1   
 20   9  12  1   
 21   9  33  1   
 22  10  13  1   
 23  10  34  1   
 24  10  35  1   
 25  11  36  1   
 26  12  13  1   
 27  12  37  1   
 28  12  38  1   
 29  13  14  1   
 30  14  15  ar  
 31  14  16  ar  
 32  15  17  ar  
 33  16  18  ar  
 34  16  39  1   
 35  17  19  ar  
 36  17  20  1   
 37  18  19  ar  
 38  18  21  1   
 39  19  40  1   
 40  20  41  1   
 41  20  42  1   
 42  20  43  1   
 43  21  22  1   
 44  21  44  1   
 45  21  45  1   
 46  22  23  1   
 47  22  46  1   
 48  22  47  1   
 49  23  48  1   
 50  23  49  1   
 51  23  50  1   
@<TRIPOS>SUBSTRUCTURE
  1 ****  13 GROUP 4 **** **** 0

# MOE 2024.06 (io_trps.svl 2023.06)
