@<TRIPOS>MOLECULE
NONAME
46 48 1 0 0 
SMALL
USER_CHARGES


@<TRIPOS>ATOM
  1 S        0.0540     0.0730     0.9870 S.o2  1 <1>   1.0900 
  2 O       -0.6900    -0.3000    -0.1960 O.2   1 <1>  -0.6500 
  3 O       -0.3840    -0.3900     2.2840 O.2   1 <1>  -0.6500 
  4 C        1.7490    -0.4080     0.7500 C.3   1 <1>  -0.0550 
  5 C        0.1890     1.8460     1.0240 C.3   1 <1>  -0.0550 
  6 C        2.3530     0.3360    -0.4350 C.3   1 <1>   0.1100 
  7 C        0.9620     2.3470    -0.1890 C.3   1 <1>   0.1100 
  8 N        2.3300     1.7880    -0.1850 N.3   1 <1>  -0.8100 
  9 C        3.1900     2.4850    -1.1640 C.3   1 <1>   0.2530 
 10 C        3.3910     3.9500    -0.7930 C.ar  1 <1>  -0.1430 
 11 C        3.8220     4.3000     0.4760 C.ar  1 <1>  -0.1500 
 12 C        3.1450     4.9540    -1.7160 C.ar  1 <1>  -0.1500 
 13 C        4.0070     5.6280     0.8130 C.ar  1 <1>  -0.1500 
 14 C        3.3320     6.2820    -1.3740 C.ar  1 <1>  -0.1500 
 15 C        3.7740     6.6530    -0.1030 C.ar  1 <1>   0.0860 
 16 C        3.9850     8.0430     0.2650 C.2   1 <1>   0.5440 
 17 O        3.8410     8.4130     1.4130 O.2   1 <1>  -0.5700 
 18 N        4.3720     8.9650    -0.6690 N.am  1 <1>  -0.7300 
 19 C        4.5640    10.4110    -0.3980 C.3   1 <1>   0.1400 
 20 C        5.9720    10.6680     0.1360 C.3   1 <1>   0.0200 
 21 C        6.1920    12.1520     0.3280 C.2   1 <1>   0.1980 
 22 S        5.5130    12.8960     1.7620 S.3   1 <1>  -0.0800 
 23 N        6.8170    12.9550    -0.4360 N.2   1 <1>  -0.5650 
 24 C        6.1590    14.4240     1.2400 C.2   1 <1>  -0.1100 
 25 C        6.8030    14.2440     0.0770 C.2   1 <1>   0.0770 
 26 H        1.8030    -1.4640     0.5730 H     1 <1>   0.0800 
 27 H        2.3250    -0.1870     1.6280 H     1 <1>   0.0800 
 28 H        0.6990     2.1630     1.9130 H     1 <1>   0.0800 
 29 H       -0.7900     2.2840     1.0280 H     1 <1>   0.0800 
 30 H        1.8100     0.1030    -1.3370 H     1 <1>   0.0800 
 31 H        3.3710     0.0060    -0.5570 H     1 <1>   0.0800 
 32 H        1.0000     3.4220    -0.1350 H     1 <1>   0.0800 
 33 H        0.4500     2.0740    -1.0970 H     1 <1>   0.0800 
 34 H        2.7590     2.4040    -2.1480 H     1 <1>   0.0800 
 35 H        4.1590     2.0150    -1.1860 H     1 <1>   0.0800 
 36 H        4.0080     3.5290     1.2050 H     1 <1>   0.1500 
 37 H        2.8040     4.7050    -2.7070 H     1 <1>   0.1500 
 38 H        4.3370     5.8830     1.8060 H     1 <1>   0.1500 
 39 H        3.1230     7.0430    -2.1040 H     1 <1>   0.1500 
 40 H        4.6330     8.6440    -1.6020 H     1 <1>   0.3700 
 41 H        3.8380    10.7380     0.3290 H     1 <1>   0.0800 
 42 H        4.4080    10.9690    -1.3050 H     1 <1>   0.0800 
 43 H        6.6980    10.3010    -0.5660 H     1 <1>   0.0800 
 44 H        6.1070    10.1620     1.0750 H     1 <1>   0.0800 
 45 H        5.9890    15.2870     1.8580 H     1 <1>   0.1500 
 46 H        7.3060    15.0110    -0.4870 H     1 <1>   0.1500 
@<TRIPOS>BOND
  1   1   2  2   
  2   1   3  2   
  3   1   4  1   
  4   1   5  1   
  5   4   6  1   
  6   4  26  1   
  7   4  27  1   
  8   5   7  1   
  9   5  28  1   
 10   5  29  1   
 11   6   8  1   
 12   6  30  1   
 13   6  31  1   
 14   7   8  1   
 15   7  32  1   
 16   7  33  1   
 17   8   9  1   
 18   9  10  1   
 19   9  34  1   
 20   9  35  1   
 21  10  11  ar  
 22  10  12  ar  
 23  11  13  ar  
 24  11  36  1   
 25  12  14  ar  
 26  12  37  1   
 27  13  15  ar  
 28  13  38  1   
 29  14  15  ar  
 30  14  39  1   
 31  15  16  1   
 32  16  17  2   
 33  16  18  am  
 34  18  19  1   
 35  18  40  1   
 36  19  20  1   
 37  19  41  1   
 38  19  42  1   
 39  20  21  1   
 40  20  43  1   
 41  20  44  1   
 42  21  22  1   
 43  21  23  2   
 44  22  24  1   
 45  23  25  1   
 46  24  25  2   
 47  24  45  1   
 48  25  46  1   
@<TRIPOS>SUBSTRUCTURE
  1 ****  15 GROUP 4 **** **** 0

# MOE 2024.06 (io_trps.svl 2023.06)
