@<TRIPOS>MOLECULE
NONAME
52 54 1 0 0 
SMALL
USER_CHARGES


@<TRIPOS>ATOM
  1 O       -3.6320    -0.8160     2.9810 O.2   1 <1>  -0.5700 
  2 C       -3.7860    -1.2930     1.8620 C.2   1 <1>   0.5410 
  3 C       -3.2900    -2.5780     1.5290 C.2   1 <1>  -0.1360 
  4 C       -4.4750    -0.5870     0.8450 C.2   1 <1>  -0.1360 
  5 C       -3.4960    -3.1060     0.2950 C.2   1 <1>  -0.0500 
  6 C       -4.6670    -1.1380    -0.3820 C.2   1 <1>  -0.0500 
  7 N       -4.1990    -2.4060    -0.6660 N.pl3 1 <1>  -0.5690 
  8 C       -4.4650    -3.0330    -2.0110 C.3   1 <1>   0.2700 
  9 C       -4.9310    -4.4970    -1.9680 C.2   1 <1>   0.5690 
 10 O       -4.3070    -5.2860    -2.6400 O.2   1 <1>  -0.5700 
 11 N       -6.0060    -4.9090    -1.2140 N.am  1 <1>  -0.6600 
 12 C       -6.3450    -6.3610    -1.0660 C.3   1 <1>   0.1400 
 13 C       -6.8370    -4.0180    -0.3450 C.3   1 <1>   0.1400 
 14 C       -7.8650    -6.6000    -1.0870 C.3   1 <1>   0.3430 
 15 C       -8.3380    -4.3880    -0.4050 C.3   1 <1>   0.2000 
 16 O       -8.4960    -5.7610    -0.1590 O.3   1 <1>  -0.5600 
 17 C       -8.1830    -8.0550    -0.7540 C.ar  1 <1>  -0.1430 
 18 C       -9.2400    -3.5820     0.5780 C.3   1 <1>   0.0000 
 19 C       -8.3230    -8.4800     0.5610 C.ar  1 <1>  -0.1500 
 20 C       -8.3220    -8.9800    -1.7790 C.ar  1 <1>  -0.1500 
 21 C       -8.8880    -3.8590     2.0520 C.3   1 <1>  -0.2400 
 22 C      -10.7140    -3.9710     0.3550 C.3   1 <1>  -0.2400 
 23 C       -9.1150    -2.0680     0.3270 C.3   1 <1>  -0.2400 
 24 C       -8.5960    -9.8070     0.8460 C.ar  1 <1>  -0.1500 
 25 C       -8.5960   -10.3070    -1.4950 C.ar  1 <1>  -0.1500 
 26 C       -8.7320   -10.7220    -0.1830 C.ar  1 <1>  -0.1500 
 27 H       -2.7520    -3.1010     2.2950 H     1 <1>   0.1500 
 28 H       -4.8270     0.3950     1.0970 H     1 <1>   0.1500 
 29 H       -3.1190    -4.0840     0.0340 H     1 <1>   0.1500 
 30 H       -5.1860    -0.6020    -1.1600 H     1 <1>   0.1500 
 31 H       -5.2120    -2.4630    -2.5310 H     1 <1>   0.0800 
 32 H       -3.5590    -2.9850    -2.5870 H     1 <1>   0.0800 
 33 H       -5.8940    -6.9360    -1.8550 H     1 <1>   0.0800 
 34 H       -5.9500    -6.7200    -0.1330 H     1 <1>   0.0800 
 35 H       -6.4810    -4.0980     0.6670 H     1 <1>   0.0800 
 36 H       -6.7280    -2.9970    -0.6550 H     1 <1>   0.0800 
 37 H       -8.2550    -6.3670    -2.0620 H     1 <1>   0.0800 
 38 H       -8.6890    -4.1990    -1.4050 H     1 <1>   0.0800 
 39 H       -8.2220    -7.7740     1.3670 H     1 <1>   0.1500 
 40 H       -8.2180    -8.6740    -2.8050 H     1 <1>   0.1500 
 41 H       -9.5690    -3.3430     2.7060 H     1 <1>   0.0800 
 42 H       -7.8920    -3.5310     2.2870 H     1 <1>   0.0800 
 43 H       -8.9570    -4.9120     2.2640 H     1 <1>   0.0800 
 44 H      -11.3620    -3.4080     1.0030 H     1 <1>   0.0800 
 45 H      -10.8630    -5.0170     0.5630 H     1 <1>   0.0800 
 46 H      -11.0060    -3.7860    -0.6630 H     1 <1>   0.0800 
 47 H       -9.8160    -1.5280     0.9390 H     1 <1>   0.0800 
 48 H       -9.3240    -1.8370    -0.7030 H     1 <1>   0.0800 
 49 H       -8.1310    -1.7110     0.5700 H     1 <1>   0.0800 
 50 H       -8.7040   -10.1240     1.8680 H     1 <1>   0.1500 
 51 H       -8.7020   -11.0180    -2.2960 H     1 <1>   0.1500 
 52 H       -8.9450   -11.7530     0.0390 H     1 <1>   0.1500 
@<TRIPOS>BOND
  1   1   2  2   
  2   2   3  1   
  3   2   4  1   
  4   3   5  2   
  5   3  27  1   
  6   4   6  2   
  7   4  28  1   
  8   5   7  1   
  9   5  29  1   
 10   6   7  1   
 11   6  30  1   
 12   7   8  1   
 13   8   9  1   
 14   8  31  1   
 15   8  32  1   
 16   9  10  2   
 17   9  11  am  
 18  11  12  1   
 19  11  13  1   
 20  12  14  1   
 21  12  33  1   
 22  12  34  1   
 23  13  15  1   
 24  13  35  1   
 25  13  36  1   
 26  14  16  1   
 27  14  17  1   
 28  14  37  1   
 29  15  16  1   
 30  15  18  1   
 31  15  38  1   
 32  17  19  ar  
 33  17  20  ar  
 34  18  21  1   
 35  18  22  1   
 36  18  23  1   
 37  19  24  ar  
 38  19  39  1   
 39  20  25  ar  
 40  20  40  1   
 41  21  41  1   
 42  21  42  1   
 43  21  43  1   
 44  22  44  1   
 45  22  45  1   
 46  22  46  1   
 47  23  47  1   
 48  23  48  1   
 49  23  49  1   
 50  24  26  ar  
 51  24  50  1   
 52  25  26  ar  
 53  25  51  1   
 54  26  52  1   
@<TRIPOS>SUBSTRUCTURE
  1 ****  13 GROUP 4 **** **** 0

# MOE 2024.06 (io_trps.svl 2023.06)
