@<TRIPOS>MOLECULE
NONAME
54 57 1 0 0 
SMALL
USER_CHARGES


@<TRIPOS>ATOM
  1 O        1.1080    -0.5360     1.5700 O.3   1 <1>  -0.0190 
  2 N        1.5130     0.6560     1.8800 N.2   1 <1>  -0.4100 
  3 C        1.4150    -0.8490     0.3410 C.2   1 <1>  -0.0400 
  4 C        2.1140     1.1200     0.8410 C.2   1 <1>   0.1080 
  5 C        2.0840     0.1850    -0.1930 C.2   1 <1>  -0.1500 
  6 C        0.9980    -2.2000    -0.1990 C.3   1 <1>   0.5230 
  7 C        2.7530     2.5020     0.7750 C.3   1 <1>   0.1010 
  8 N       -0.4430    -2.2240    -0.6260 N.4   1 <1>  -0.9590 
  9 C        2.0550     3.3830    -0.2760 C.3   1 <1>  -0.1600 
 10 C        4.2630     2.4010     0.4920 C.3   1 <1>  -0.1600 
 11 C       -1.3670    -1.8790     0.5120 C.3   1 <1>   0.4230 
 12 C       -0.7150    -3.5160    -1.3330 C.3   1 <1>   0.2630 
 13 C        2.7050     4.7710    -0.3660 C.3   1 <1>  -0.1600 
 14 C        4.9110     3.7900     0.4020 C.3   1 <1>  -0.1600 
 15 C       -2.7150    -2.6130     0.4980 C.3   1 <1>  -0.1600 
 16 C       -1.8090    -0.4230     0.3410 C.3   1 <1>  -0.1600 
 17 C        4.2100     4.6640    -0.6460 C.3   1 <1>  -0.1600 
 18 C       -3.5860    -1.8710    -0.5280 C.3   1 <1>  -0.0800 
 19 C       -2.9970    -0.4600    -0.6320 C.3   1 <1>  -0.0800 
 20 C       -5.0620    -1.7060    -0.1410 C.3   1 <1>  -0.1600 
 21 C       -4.1340     0.5210    -0.3150 C.3   1 <1>  -0.1600 
 22 C       -5.4040    -0.2830    -0.5610 C.3   1 <1>   0.2000 
 23 O       -6.4350     0.2060     0.2070 O.3   1 <1>  -0.6800 
 24 H        2.5130     0.3180    -1.1710 H     1 <1>   0.1500 
 25 H        1.1730    -2.9480     0.5570 H     1 <1>   0.0800 
 26 H        1.6230    -2.4310    -1.0460 H     1 <1>   0.0800 
 27 H        2.6270     2.9680     1.7380 H     1 <1>   0.0800 
 28 H       -0.5630    -1.4570    -1.3000 H     1 <1>   0.4500 
 29 H        2.1100     2.9090    -1.2400 H     1 <1>   0.0800 
 30 H        1.0160     3.4910    -0.0170 H     1 <1>   0.0800 
 31 H        4.7350     1.8360     1.2770 H     1 <1>   0.0800 
 32 H        4.4250     1.8790    -0.4340 H     1 <1>   0.0800 
 33 H       -0.8690    -2.0250     1.4580 H     1 <1>   0.0800 
 34 H       -0.6310    -4.3440    -0.6480 H     1 <1>   0.0800 
 35 H       -0.0140    -3.6600    -2.1400 H     1 <1>   0.0800 
 36 H       -1.7100    -3.5140    -1.7490 H     1 <1>   0.0800 
 37 H        2.2330     5.3410    -1.1480 H     1 <1>   0.0800 
 38 H        2.5530     5.2980     0.5610 H     1 <1>   0.0800 
 39 H        4.8560     4.2730     1.3630 H     1 <1>   0.0800 
 40 H        5.9520     3.6870     0.1470 H     1 <1>   0.0800 
 41 H       -2.6590    -3.6710     0.3250 H     1 <1>   0.0800 
 42 H       -3.1420    -2.4850     1.4770 H     1 <1>   0.0800 
 43 H       -2.1360    -0.0720     1.3050 H     1 <1>   0.0800 
 44 H       -1.0320     0.2380     0.0040 H     1 <1>   0.0800 
 45 H        4.6470     5.6480    -0.6440 H     1 <1>   0.0800 
 46 H        4.3620     4.2400    -1.6240 H     1 <1>   0.0800 
 47 H       -3.5230    -2.3450    -1.4930 H     1 <1>   0.0800 
 48 H       -2.6590    -0.3000    -1.6430 H     1 <1>   0.0800 
 49 H       -5.1940    -1.8100     0.9220 H     1 <1>   0.0800 
 50 H       -5.6860    -2.4200    -0.6490 H     1 <1>   0.0800 
 51 H       -4.0970     1.3880    -0.9510 H     1 <1>   0.0800 
 52 H       -4.0950     0.8310     0.7140 H     1 <1>   0.0800 
 53 H       -5.6940    -0.2440    -1.5990 H     1 <1>   0.0800 
 54 H       -6.1910     0.2010     1.1510 H     1 <1>   0.4000 
@<TRIPOS>BOND
  1   1   2  1   
  2   1   3  1   
  3   2   4  2   
  4   3   5  2   
  5   3   6  1   
  6   4   5  1   
  7   4   7  1   
  8   5  24  1   
  9   6   8  1   
 10   6  25  1   
 11   6  26  1   
 12   7   9  1   
 13   7  10  1   
 14   7  27  1   
 15   8  11  1   
 16   8  12  1   
 17   8  28  1   
 18   9  13  1   
 19   9  29  1   
 20   9  30  1   
 21  10  14  1   
 22  10  31  1   
 23  10  32  1   
 24  11  15  1   
 25  11  16  1   
 26  11  33  1   
 27  12  34  1   
 28  12  35  1   
 29  12  36  1   
 30  13  17  1   
 31  13  37  1   
 32  13  38  1   
 33  14  17  1   
 34  14  39  1   
 35  14  40  1   
 36  15  18  1   
 37  15  41  1   
 38  15  42  1   
 39  16  19  1   
 40  16  43  1   
 41  16  44  1   
 42  17  45  1   
 43  17  46  1   
 44  18  19  1   
 45  18  20  1   
 46  18  47  1   
 47  19  21  1   
 48  19  48  1   
 49  20  22  1   
 50  20  49  1   
 51  20  50  1   
 52  21  22  1   
 53  21  51  1   
 54  21  52  1   
 55  22  23  1   
 56  22  53  1   
 57  23  54  1   
@<TRIPOS>SUBSTRUCTURE
  1 ****  16 GROUP 4 **** **** 0

# MOE 2024.06 (io_trps.svl 2023.06)
