@<TRIPOS>MOLECULE
NONAME
57 60 1 0 0 
SMALL
USER_CHARGES


@<TRIPOS>ATOM
  1 O       -3.6100     3.0990    -2.0590 O.2   1 <1>  -0.5700 
  2 C       -2.8540     2.7570    -1.1820 C.2   1 <1>   0.5690 
  3 N       -2.5530     1.4510    -0.9660 N.am  1 <1>  -0.7300 
  4 C       -2.2330     3.8150    -0.2970 C.3   1 <1>   0.1570 
  5 C       -2.9960     0.2980    -1.7740 C.3   1 <1>   0.2200 
  6 N       -0.8410     3.4460     0.0030 N.pl3 1 <1>   0.3140 
  7 C       -3.6690    -0.7130    -0.8620 C.3   1 <1>  -0.0800 
  8 C       -1.7790    -0.4730    -2.2930 C.3   1 <1>   0.1200 
  9 N       -0.5650     2.5330     0.9550 N.2   1 <1>  -0.7070 
 10 C        0.2830     3.8530    -0.6300 C.2   1 <1>  -0.3320 
 11 C       -2.4650    -1.5050    -0.3560 C.3   1 <1>   0.1200 
 12 C       -4.6620    -1.5990    -1.6410 C.3   1 <1>  -0.0160 
 13 O       -1.5650    -1.5470    -1.4200 O.3   1 <1>  -0.5600 
 14 C        0.7210     2.3900     0.9180 C.2   1 <1>   0.1080 
 15 C        1.3120     3.1880    -0.0590 C.2   1 <1>  -0.1810 
 16 C        0.3030     4.8650    -1.7670 C.3   1 <1>  -0.0600 
 17 C       -5.3580    -2.6040    -0.7280 C.ar  1 <1>  -0.1440 
 18 C        1.4450     1.4410     1.8460 C.3   1 <1>  -0.0590 
 19 C        2.7930     3.2640    -0.3880 C.3   1 <1>   0.0210 
 20 C       -6.4070    -2.2350     0.1490 C.ar  1 <1>   0.0000 
 21 C       -4.9730    -3.9120    -0.7340 C.ar  1 <1>  -0.1500 
 22 C        3.4690     4.3560     0.4420 C.3   1 <1>  -0.2400 
 23 C       -6.9670    -3.2480     0.9650 C.ar  1 <1>   0.3100 
 24 C       -6.9340    -0.9270     0.2620 C.ar  1 <1>  -0.1500 
 25 C       -5.5980    -4.8370     0.1100 C.ar  1 <1>   0.1600 
 26 N       -6.5520    -4.5400     0.9340 N.ar  1 <1>  -0.6200 
 27 C       -8.0040    -2.9120     1.8500 C.ar  1 <1>  -0.1500 
 28 C       -7.9460    -0.6330     1.1340 C.ar  1 <1>  -0.1500 
 29 C       -8.4890    -1.6360     1.9410 C.ar  1 <1>  -0.1500 
 30 H       -1.8280     1.2520    -0.2560 H     1 <1>   0.3700 
 31 H       -2.7790     3.8780     0.6230 H     1 <1>   0.0800 
 32 H       -2.2580     4.7670    -0.7900 H     1 <1>   0.0800 
 33 H       -3.6320     0.6320    -2.5770 H     1 <1>   0.0800 
 34 H       -4.1790    -0.2300    -0.0480 H     1 <1>   0.0800 
 35 H       -0.8940     0.1390    -2.3270 H     1 <1>   0.0800 
 36 H       -1.9760    -0.8850    -3.2670 H     1 <1>   0.0800 
 37 H       -2.7050    -2.5080    -0.0510 H     1 <1>   0.0800 
 38 H       -1.9850    -0.9880     0.4570 H     1 <1>   0.0800 
 39 H       -4.1380    -2.1280    -2.4190 H     1 <1>   0.0800 
 40 H       -5.4020    -0.9870    -2.1260 H     1 <1>   0.0800 
 41 H        1.3060     5.0320    -2.1120 H     1 <1>   0.0800 
 42 H       -0.0980     5.8050    -1.4340 H     1 <1>   0.0800 
 43 H       -0.2840     4.5050    -2.5940 H     1 <1>   0.0800 
 44 H        2.3280     1.9090     2.2380 H     1 <1>   0.0800 
 45 H        1.7190     0.5520     1.3090 H     1 <1>   0.0800 
 46 H        0.8030     1.1710     2.6640 H     1 <1>   0.0800 
 47 H        3.2580     2.3140    -0.1930 H     1 <1>   0.0800 
 48 H        2.9200     3.4760    -1.4350 H     1 <1>   0.0800 
 49 H       -4.1860    -4.2640    -1.3770 H     1 <1>   0.1500 
 50 H        3.3590     4.1470     1.4910 H     1 <1>   0.0800 
 51 H        3.0160     5.3090     0.2330 H     1 <1>   0.0800 
 52 H        4.5160     4.4090     0.2050 H     1 <1>   0.0800 
 53 H       -6.5340    -0.1410    -0.3510 H     1 <1>   0.1500 
 54 H       -5.2610    -5.8590     0.0730 H     1 <1>   0.1500 
 55 H       -8.4070    -3.7000     2.4590 H     1 <1>   0.1500 
 56 H       -8.3370     0.3670     1.2100 H     1 <1>   0.1500 
 57 H       -9.2850    -1.3930     2.6240 H     1 <1>   0.1500 
@<TRIPOS>BOND
  1   1   2  2   
  2   2   3  am  
  3   2   4  1   
  4   3   5  1   
  5   3  30  1   
  6   4   6  1   
  7   4  31  1   
  8   4  32  1   
  9   5   7  1   
 10   5   8  1   
 11   5  33  1   
 12   6   9  1   
 13   6  10  1   
 14   7  11  1   
 15   7  12  1   
 16   7  34  1   
 17   8  13  1   
 18   8  35  1   
 19   8  36  1   
 20   9  14  2   
 21  10  15  2   
 22  10  16  1   
 23  11  13  1   
 24  11  37  1   
 25  11  38  1   
 26  12  17  1   
 27  12  39  1   
 28  12  40  1   
 29  14  15  1   
 30  14  18  1   
 31  15  19  1   
 32  16  41  1   
 33  16  42  1   
 34  16  43  1   
 35  17  20  ar  
 36  17  21  ar  
 37  18  44  1   
 38  18  45  1   
 39  18  46  1   
 40  19  22  1   
 41  19  47  1   
 42  19  48  1   
 43  20  23  ar  
 44  20  24  ar  
 45  21  25  ar  
 46  21  49  1   
 47  22  50  1   
 48  22  51  1   
 49  22  52  1   
 50  23  26  ar  
 51  23  27  ar  
 52  24  28  ar  
 53  24  53  1   
 54  25  26  ar  
 55  25  54  1   
 56  27  29  ar  
 57  27  55  1   
 58  28  29  ar  
 59  28  56  1   
 60  29  57  1   
@<TRIPOS>SUBSTRUCTURE
  1 ****   7 GROUP 4 **** **** 0

# MOE 2024.06 (io_trps.svl 2023.06)
