@<TRIPOS>MOLECULE
NONAME
56 59 1 0 0 
SMALL
USER_CHARGES


@<TRIPOS>ATOM
  1 O        3.8300    -1.2360    -2.0300 O.2   1 <1>  -0.5700 
  2 C        3.1120    -1.3930    -1.0570 C.2   1 <1>   0.5440 
  3 N        2.9650    -0.2950    -0.2470 N.am  1 <1>  -0.6600 
  4 C        2.5090    -2.6740    -0.7380 C.ar  1 <1>   0.0860 
  5 C        3.8990    -0.1860     0.9270 C.3   1 <1>   0.2200 
  6 C        2.3950     0.9510    -0.8480 C.3   1 <1>   0.1400 
  7 C        1.5680    -2.8150     0.2870 C.ar  1 <1>  -0.1500 
  8 C        2.8490    -3.8290    -1.4440 C.ar  1 <1>  -0.1500 
  9 C        3.3680     0.7420     2.0310 C.3   1 <1>   0.1200 
 10 C        5.3200     0.2470     0.4780 C.3   1 <1>   0.3430 
 11 C        3.1880     2.2400    -0.5590 C.3   1 <1>  -0.0800 
 12 C        1.0030    -4.0360     0.6050 C.ar  1 <1>  -0.1440 
 13 C        2.2900    -5.0530    -1.1370 C.ar  1 <1>  -0.1500 
 14 O        3.7440     2.0650     1.7870 O.3   1 <1>  -0.5600 
 15 N        5.3390     0.8770    -0.8880 N.4   1 <1>  -0.9590 
 16 C        2.9630     2.7550     0.8710 C.3   1 <1>   0.1200 
 17 C        4.6820     2.2190    -0.9500 C.3   1 <1>   0.3430 
 18 C        1.3630    -5.1800    -0.1100 C.ar  1 <1>   0.1000 
 19 C       -0.0140    -4.1320     1.7330 C.3   1 <1>  -0.0970 
 20 C        6.7100     0.9000    -1.4670 C.3   1 <1>   0.2630 
 21 N        0.8060    -6.4150     0.1850 N.pl3 1 <1>  -0.8380 
 22 C       -0.2480    -6.9270    -0.7370 C.3   1 <1>   0.2090 
 23 C        1.7070    -7.4990     0.6690 C.3   1 <1>   0.2090 
 24 C       -0.9640    -8.1430    -0.1220 C.3   1 <1>   0.1200 
 25 C        0.8870    -8.6830     1.2130 C.3   1 <1>   0.1200 
 26 O       -0.0440    -9.1290     0.2640 O.3   1 <1>  -0.5600 
 27 H        3.9800    -1.1650     1.3690 H     1 <1>   0.0800 
 28 H        2.3270     0.8220    -1.9160 H     1 <1>   0.0800 
 29 H        1.3870     1.0680    -0.4870 H     1 <1>   0.0800 
 30 H        1.2690    -1.9460     0.8420 H     1 <1>   0.1500 
 31 H        3.5620    -3.7640    -2.2480 H     1 <1>   0.1500 
 32 H        3.8190     0.4670     2.9690 H     1 <1>   0.0800 
 33 H        2.2990     0.6700     2.1390 H     1 <1>   0.0800 
 34 H        5.9380    -0.6350     0.4630 H     1 <1>   0.0800 
 35 H        5.7390     0.9230     1.2060 H     1 <1>   0.0800 
 36 H        2.7390     2.9930    -1.1820 H     1 <1>   0.0800 
 37 H        2.5650    -5.9270    -1.6980 H     1 <1>   0.1500 
 38 H        4.7530     0.2300    -1.4660 H     1 <1>   0.4500 
 39 H        1.9290     2.6830     1.1650 H     1 <1>   0.0800 
 40 H        3.2540     3.7900     0.9360 H     1 <1>   0.0800 
 41 H        5.2160     2.9110    -0.3190 H     1 <1>   0.0800 
 42 H        4.7600     2.5810    -1.9630 H     1 <1>   0.0800 
 43 H       -0.1710    -3.1810     2.2070 H     1 <1>   0.0800 
 44 H        0.3310    -4.8330     2.4720 H     1 <1>   0.0800 
 45 H       -0.9530    -4.4820     1.3430 H     1 <1>   0.0800 
 46 H        7.3550     1.5340    -0.8800 H     1 <1>   0.0800 
 47 H        6.6810     1.2740    -2.4780 H     1 <1>   0.0800 
 48 H        7.1220    -0.0960    -1.4850 H     1 <1>   0.0800 
 49 H       -0.9620    -6.1470    -0.9310 H     1 <1>   0.0800 
 50 H        0.2000    -7.2150    -1.6720 H     1 <1>   0.0800 
 51 H        2.3290    -7.8430    -0.1390 H     1 <1>   0.0800 
 52 H        2.3440    -7.1130     1.4450 H     1 <1>   0.0800 
 53 H       -1.6340    -8.5810    -0.8390 H     1 <1>   0.0800 
 54 H       -1.5280    -7.8430     0.7440 H     1 <1>   0.0800 
 55 H        0.3580    -8.3910     2.1030 H     1 <1>   0.0800 
 56 H        1.5360    -9.5070     1.4500 H     1 <1>   0.0800 
@<TRIPOS>BOND
  1   1   2  2   
  2   2   3  am  
  3   2   4  1   
  4   3   5  1   
  5   3   6  1   
  6   4   7  ar  
  7   4   8  ar  
  8   5   9  1   
  9   5  10  1   
 10   5  27  1   
 11   6  11  1   
 12   6  28  1   
 13   6  29  1   
 14   7  12  ar  
 15   7  30  1   
 16   8  13  ar  
 17   8  31  1   
 18   9  14  1   
 19   9  32  1   
 20   9  33  1   
 21  10  15  1   
 22  10  34  1   
 23  10  35  1   
 24  11  16  1   
 25  11  17  1   
 26  11  36  1   
 27  12  18  ar  
 28  12  19  1   
 29  13  18  ar  
 30  13  37  1   
 31  14  16  1   
 32  15  17  1   
 33  15  20  1   
 34  15  38  1   
 35  16  39  1   
 36  16  40  1   
 37  17  41  1   
 38  17  42  1   
 39  18  21  1   
 40  19  43  1   
 41  19  44  1   
 42  19  45  1   
 43  20  46  1   
 44  20  47  1   
 45  20  48  1   
 46  21  22  1   
 47  21  23  1   
 48  22  24  1   
 49  22  49  1   
 50  22  50  1   
 51  23  25  1   
 52  23  51  1   
 53  23  52  1   
 54  24  26  1   
 55  24  53  1   
 56  24  54  1   
 57  25  26  1   
 58  25  55  1   
 59  25  56  1   
@<TRIPOS>SUBSTRUCTURE
  1 ****   4 GROUP 4 **** **** 0

# MOE 2024.06 (io_trps.svl 2023.06)
