@<TRIPOS>MOLECULE
NONAME
53 54 1 0 0 
SMALL
USER_CHARGES


@<TRIPOS>ATOM
  1 S        0.6690    -3.3900     1.7040 S.o2  1 <1>   1.3330 
  2 O        1.1550    -3.7640     3.0080 O.2   1 <1>  -0.6500 
  3 O        0.7250    -2.0200     1.2530 O.2   1 <1>  -0.6500 
  4 N       -0.9300    -3.8950     1.6260 N.am  1 <1>  -0.9140 
  5 C        1.5070    -4.4020     0.5040 C.3   1 <1>  -0.1350 
  6 C       -1.6460    -3.5910     0.3930 C.3   1 <1>   0.1960 
  7 C       -3.1460    -3.6980     0.6540 C.3   1 <1>  -0.0990 
  8 C       -3.9180    -3.7150    -0.6550 C.2   1 <1>   0.5690 
  9 O       -4.0080    -2.6590    -1.2330 O.2   1 <1>  -0.5700 
 10 N       -4.4980    -4.8510    -1.1670 N.am  1 <1>  -0.6600 
 11 C       -4.3170    -6.2250    -0.5730 C.3   1 <1>   0.3640 
 12 C       -5.4530    -4.6950    -2.3100 C.3   1 <1>   0.1400 
 13 C       -2.8340    -6.5860    -0.6690 C.ar  1 <1>  -0.1430 
 14 C       -5.1680    -7.3760    -1.1940 C.3   1 <1>   0.2000 
 15 C       -5.8440    -6.0180    -2.9710 C.3   1 <1>   0.1200 
 16 C       -2.1180    -6.8970     0.4760 C.ar  1 <1>  -0.1500 
 17 C       -2.1730    -6.5820    -1.8890 C.ar  1 <1>  -0.1500 
 18 O       -6.2260    -6.9250    -1.9900 O.3   1 <1>  -0.5600 
 19 C       -5.7840    -8.2830    -0.1180 C.3   1 <1>   0.1200 
 20 C       -0.7620    -7.1640     0.4220 C.ar  1 <1>   0.0830 
 21 C       -0.8230    -6.8760    -1.9640 C.ar  1 <1>  -0.1500 
 22 O       -4.8050    -8.7750     0.7410 O.3   1 <1>  -0.6800 
 23 O       -0.1660    -7.3670     1.6260 O.3   1 <1>  -0.3630 
 24 C       -0.0960    -7.1640    -0.8120 C.ar  1 <1>   0.0830 
 25 C        0.7720    -8.4100     1.7830 C.3   1 <1>   0.0400 
 26 O        1.2450    -7.4120    -0.8560 O.3   1 <1>  -0.3630 
 27 C        1.9370    -7.5750    -2.0750 C.3   1 <1>   0.0400 
 28 H       -0.9380    -4.8950     1.8370 H     1 <1>   0.4200 
 29 H        1.4700    -5.4300     0.8020 H     1 <1>   0.0800 
 30 H        2.5360    -4.1090     0.4400 H     1 <1>   0.0800 
 31 H        1.0590    -4.2970    -0.4630 H     1 <1>   0.0800 
 32 H       -1.4260    -2.5850     0.0690 H     1 <1>   0.0800 
 33 H       -1.3440    -4.2710    -0.3840 H     1 <1>   0.0800 
 34 H       -3.4540    -2.8310     1.2090 H     1 <1>   0.0800 
 35 H       -3.3690    -4.5540     1.2530 H     1 <1>   0.0800 
 36 H       -4.5910    -6.1620     0.4660 H     1 <1>   0.0800 
 37 H       -6.3450    -4.2150    -1.9460 H     1 <1>   0.0800 
 38 H       -5.0200    -4.0490    -3.0540 H     1 <1>   0.0800 
 39 H       -4.5450    -7.9840    -1.8270 H     1 <1>   0.0800 
 40 H       -5.0290    -6.4290    -3.5410 H     1 <1>   0.0800 
 41 H       -6.6830    -5.8670    -3.6270 H     1 <1>   0.0800 
 42 H       -2.6090    -6.9260     1.4340 H     1 <1>   0.1500 
 43 H       -2.7090    -6.3380    -2.7900 H     1 <1>   0.1500 
 44 H       -6.2900    -9.1180    -0.5700 H     1 <1>   0.0800 
 45 H       -6.4850    -7.7210     0.4760 H     1 <1>   0.0800 
 46 H       -0.3590    -6.8610    -2.9320 H     1 <1>   0.1500 
 47 H       -4.2590    -9.4570     0.3000 H     1 <1>   0.4000 
 48 H        0.8030    -8.6790     2.8230 H     1 <1>   0.0800 
 49 H        1.7400    -8.0600     1.4720 H     1 <1>   0.0800 
 50 H        0.4640    -9.2550     1.1920 H     1 <1>   0.0800 
 51 H        2.9560    -7.8330    -1.8490 H     1 <1>   0.0800 
 52 H        1.9100    -6.6490    -2.6220 H     1 <1>   0.0800 
 53 H        1.4770    -8.3690    -2.6360 H     1 <1>   0.0800 
@<TRIPOS>BOND
  1   1   2  2   
  2   1   3  2   
  3   1   4  am  
  4   1   5  1   
  5   4   6  1   
  6   4  28  1   
  7   5  29  1   
  8   5  30  1   
  9   5  31  1   
 10   6   7  1   
 11   6  32  1   
 12   6  33  1   
 13   7   8  1   
 14   7  34  1   
 15   7  35  1   
 16   8   9  2   
 17   8  10  am  
 18  10  11  1   
 19  10  12  1   
 20  11  13  1   
 21  11  14  1   
 22  11  36  1   
 23  12  15  1   
 24  12  37  1   
 25  12  38  1   
 26  13  16  ar  
 27  13  17  ar  
 28  14  18  1   
 29  14  19  1   
 30  14  39  1   
 31  15  18  1   
 32  15  40  1   
 33  15  41  1   
 34  16  20  ar  
 35  16  42  1   
 36  17  21  ar  
 37  17  43  1   
 38  19  22  1   
 39  19  44  1   
 40  19  45  1   
 41  20  23  1   
 42  20  24  ar  
 43  21  24  ar  
 44  21  46  1   
 45  22  47  1   
 46  23  25  1   
 47  24  26  1   
 48  25  48  1   
 49  25  49  1   
 50  25  50  1   
 51  26  27  1   
 52  27  51  1   
 53  27  52  1   
 54  27  53  1   
@<TRIPOS>SUBSTRUCTURE
  1 ****  13 GROUP 4 **** **** 0

# MOE 2024.06 (io_trps.svl 2023.06)
