@<TRIPOS>MOLECULE
NONAME
48 50 1 0 0 
SMALL
USER_CHARGES


@<TRIPOS>ATOM
  1 O        0.0390    -0.4970    -0.1010 O.3   1 <1>  -0.3630 
  2 C       -0.0490    -1.8210    -0.1990 C.ar  1 <1>   0.3920 
  3 C        1.2490     0.2300    -0.0310 C.3   1 <1>   0.2000 
  4 N        1.0630    -2.5500    -0.2770 N.ar  1 <1>  -0.6200 
  5 C       -1.3130    -2.3710    -0.2140 C.ar  1 <1>  -0.1500 
  6 C        1.7250     0.2470     1.4220 C.3   1 <1>  -0.2400 
  7 C        0.9570     1.6410    -0.5350 C.3   1 <1>  -0.2400 
  8 C        0.8950    -3.8440    -0.3710 C.ar  1 <1>   0.7710 
  9 C       -1.4560    -3.7390    -0.3130 C.ar  1 <1>   0.4610 
 10 N       -0.3120    -4.4380    -0.3920 N.ar  1 <1>  -0.1790 
 11 N        2.0020    -4.5840    -0.4480 N.pl3 1 <1>  -0.9000 
 12 N       -2.6520    -4.3980    -0.3360 N.pl3 1 <1>  -0.8380 
 13 C       -3.9820    -3.7080    -0.2480 C.3   1 <1>   0.2090 
 14 C       -2.8780    -5.8710    -0.3940 C.3   1 <1>   0.2090 
 15 C       -5.0350    -4.8210    -0.2450 C.3   1 <1>   0.2000 
 16 C       -4.2850    -6.0860     0.1600 C.3   1 <1>  -0.0800 
 17 O       -6.0580    -4.5640     0.6530 O.3   1 <1>  -0.6800 
 18 C       -4.9470    -7.3840    -0.3320 C.3   1 <1>  -0.0170 
 19 C       -4.0030    -8.5630    -0.1470 C.ar  1 <1>  -0.1430 
 20 C       -3.6780    -9.0460     1.1050 C.ar  1 <1>  -0.1500 
 21 C       -3.4110    -9.2000    -1.2200 C.ar  1 <1>  -0.1500 
 22 C       -2.7800   -10.0940     1.2220 C.ar  1 <1>   0.1600 
 23 C       -2.5270   -10.2410    -0.9940 C.ar  1 <1>   0.1600 
 24 N       -2.1850   -10.6900     0.2020 N.ar  1 <1>  -0.6200 
 25 H        1.9790    -0.2360    -0.6710 H     1 <1>   0.0800 
 26 H       -2.1630    -1.7200    -0.1490 H     1 <1>   0.1500 
 27 H        0.9800     0.6890     2.0580 H     1 <1>   0.0800 
 28 H        2.6280     0.8250     1.5020 H     1 <1>   0.0800 
 29 H        1.9380    -0.7510     1.7590 H     1 <1>   0.0800 
 30 H        0.2110     2.1140     0.0780 H     1 <1>   0.0800 
 31 H        0.6130     1.6050    -1.5530 H     1 <1>   0.0800 
 32 H        1.8530     2.2340    -0.5030 H     1 <1>   0.0800 
 33 H       -0.3550    -5.4400    -0.4770 H     1 <1>   0.4570 
 34 H        2.0910    -5.5990    -0.5140 H     1 <1>   0.4000 
 35 H        2.9020    -4.0910    -0.4290 H     1 <1>   0.4000 
 36 H       -4.0360    -3.1360     0.6630 H     1 <1>   0.0800 
 37 H       -4.1290    -3.0610    -1.0970 H     1 <1>   0.0800 
 38 H       -2.8330    -6.1980    -1.4210 H     1 <1>   0.0800 
 39 H       -2.1590    -6.4160     0.1940 H     1 <1>   0.0800 
 40 H       -5.4670    -4.9150    -1.2270 H     1 <1>   0.0800 
 41 H       -4.1970    -6.1210     1.2320 H     1 <1>   0.0800 
 42 H       -5.7350    -4.5520     1.5750 H     1 <1>   0.4000 
 43 H       -5.2110    -7.2930    -1.3710 H     1 <1>   0.0800 
 44 H       -5.8570    -7.5580     0.2180 H     1 <1>   0.0800 
 45 H       -4.1140    -8.6220     1.9910 H     1 <1>   0.1500 
 46 H       -3.6280    -8.9030    -2.2300 H     1 <1>   0.1500 
 47 H       -2.5380   -10.4610     2.2050 H     1 <1>   0.1500 
 48 H       -2.0760   -10.7320    -1.8410 H     1 <1>   0.1500 
@<TRIPOS>BOND
  1   1   2  1   
  2   1   3  1   
  3   2   4  ar  
  4   2   5  ar  
  5   3   6  1   
  6   3   7  1   
  7   3  25  1   
  8   4   8  ar  
  9   5   9  ar  
 10   5  26  1   
 11   6  27  1   
 12   6  28  1   
 13   6  29  1   
 14   7  30  1   
 15   7  31  1   
 16   7  32  1   
 17   8  10  ar  
 18   8  11  1   
 19   9  10  ar  
 20   9  12  1   
 21  10  33  1   
 22  11  34  1   
 23  11  35  1   
 24  12  13  1   
 25  12  14  1   
 26  13  15  1   
 27  13  36  1   
 28  13  37  1   
 29  14  16  1   
 30  14  38  1   
 31  14  39  1   
 32  15  16  1   
 33  15  17  1   
 34  15  40  1   
 35  16  18  1   
 36  16  41  1   
 37  17  42  1   
 38  18  19  1   
 39  18  43  1   
 40  18  44  1   
 41  19  20  ar  
 42  19  21  ar  
 43  20  22  ar  
 44  20  45  1   
 45  21  23  ar  
 46  21  46  1   
 47  22  24  ar  
 48  22  47  1   
 49  23  24  ar  
 50  23  48  1   
@<TRIPOS>SUBSTRUCTURE
  1 ****  12 GROUP 4 **** **** 0

# MOE 2024.06 (io_trps.svl 2023.06)
