@<TRIPOS>MOLECULE
NONAME
46 48 1 0 0 
SMALL
USER_CHARGES


@<TRIPOS>ATOM
  1 O        0.9800    -0.8870    -3.1700 O.2   1 <1>  -0.5700 
  2 C        1.5000    -1.1420    -2.1130 C.2   1 <1>   0.5690 
  3 N        1.8320    -0.1760    -1.2290 N.am  1 <1>  -0.7300 
  4 C        1.7800    -2.5870    -1.7570 C.3   1 <1>  -0.0990 
  5 C        1.6930     1.2720    -1.4820 C.3   1 <1>   0.4000 
  6 C        0.6210    -3.2040    -0.9560 C.3   1 <1>  -0.1600 
  7 C        2.8100     2.0470    -0.7790 C.2   1 <1>   0.2980 
  8 C        0.3160     1.7060    -0.9790 C.3   1 <1>  -0.2400 
  9 C        0.8680    -4.6870    -0.6390 C.3   1 <1>   0.0200 
 10 O        3.0060     3.2930    -1.1270 O.3   1 <1>  -0.0190 
 11 N        3.5890     1.6050     0.1350 N.2   1 <1>  -0.5650 
 12 C       -0.2900    -5.2900     0.1330 C.2   1 <1>   0.2980 
 13 N        3.9890     3.6790    -0.3740 N.2   1 <1>  -0.4100 
 14 C        4.3210     2.6890     0.3550 C.2   1 <1>   0.3350 
 15 O       -0.5030    -4.8970     1.3610 O.3   1 <1>  -0.0190 
 16 N       -1.0960    -6.1650    -0.3070 N.2   1 <1>  -0.5650 
 17 C        5.4300     2.6650     1.3980 C.3   1 <1>   0.0210 
 18 N       -1.5390    -5.5800     1.7350 N.2   1 <1>  -0.4100 
 19 C       -1.8940    -6.3290     0.7520 C.2   1 <1>   0.4620 
 20 C        6.1780     3.9990     1.5470 C.3   1 <1>  -0.2400 
 21 C       -3.0130    -7.2500     0.7530 C.ar  1 <1>   0.0540 
 22 C       -3.3450    -7.9950    -0.3800 C.ar  1 <1>   0.1600 
 23 C       -3.8100    -7.4360     1.8770 C.ar  1 <1>  -0.1500 
 24 N       -4.3450    -8.8590    -0.4810 N.ar  1 <1>  -0.6200 
 25 C       -4.8560    -8.3300     1.7960 C.ar  1 <1>  -0.1500 
 26 C       -5.0780    -9.0070     0.6100 C.ar  1 <1>   0.1600 
 27 H        2.3540    -0.3840    -0.3750 H     1 <1>   0.3700 
 28 H        2.6930    -2.6410    -1.1930 H     1 <1>   0.0800 
 29 H        1.9210    -3.1350    -2.6720 H     1 <1>   0.0800 
 30 H        1.7610     1.4530    -2.5420 H     1 <1>   0.0800 
 31 H       -0.2880    -3.1150    -1.5290 H     1 <1>   0.0800 
 32 H        0.4860    -2.6560    -0.0390 H     1 <1>   0.0800 
 33 H        0.2320     1.5320     0.0790 H     1 <1>   0.0800 
 34 H       -0.4520     1.1610    -1.4960 H     1 <1>   0.0800 
 35 H        0.1730     2.7550    -1.1660 H     1 <1>   0.0800 
 36 H        1.7650    -4.7970    -0.0560 H     1 <1>   0.0800 
 37 H        0.9940    -5.2360    -1.5550 H     1 <1>   0.0800 
 38 H        6.1290     1.8960     1.1260 H     1 <1>   0.0800 
 39 H        4.9950     2.3960     2.3440 H     1 <1>   0.0800 
 40 H        6.6360     4.2740     0.6130 H     1 <1>   0.0800 
 41 H        6.9440     3.9140     2.2970 H     1 <1>   0.0800 
 42 H        5.4940     4.7780     1.8380 H     1 <1>   0.0800 
 43 H       -2.7420    -7.8660    -1.2630 H     1 <1>   0.1500 
 44 H       -3.6150    -6.8960     2.7880 H     1 <1>   0.1500 
 45 H       -5.4950    -8.5030     2.6420 H     1 <1>   0.1500 
 46 H       -5.8970    -9.7040     0.5550 H     1 <1>   0.1500 
@<TRIPOS>BOND
  1   1   2  2   
  2   2   3  am  
  3   2   4  1   
  4   3   5  1   
  5   3  27  1   
  6   4   6  1   
  7   4  28  1   
  8   4  29  1   
  9   5   7  1   
 10   5   8  1   
 11   5  30  1   
 12   6   9  1   
 13   6  31  1   
 14   6  32  1   
 15   7  10  1   
 16   7  11  2   
 17   8  33  1   
 18   8  34  1   
 19   8  35  1   
 20   9  12  1   
 21   9  36  1   
 22   9  37  1   
 23  10  13  1   
 24  11  14  1   
 25  12  15  1   
 26  12  16  2   
 27  13  14  2   
 28  14  17  1   
 29  15  18  1   
 30  16  19  1   
 31  17  20  1   
 32  17  38  1   
 33  17  39  1   
 34  18  19  2   
 35  19  21  1   
 36  20  40  1   
 37  20  41  1   
 38  20  42  1   
 39  21  22  ar  
 40  21  23  ar  
 41  22  24  ar  
 42  22  43  1   
 43  23  25  ar  
 44  23  44  1   
 45  24  26  ar  
 46  25  26  ar  
 47  25  45  1   
 48  26  46  1   
@<TRIPOS>SUBSTRUCTURE
  1 ****   6 GROUP 4 **** **** 0

# MOE 2024.06 (io_trps.svl 2023.06)
