@<TRIPOS>MOLECULE
NONAME
61 64 1 0 0 
SMALL
USER_CHARGES


@<TRIPOS>ATOM
  1 O       -0.6660    -0.0390    -0.3160 O.2   1 <1>  -0.5700 
  2 C       -1.5370     0.8050    -0.2370 C.2   1 <1>   0.7160 
  3 N       -2.8310     0.3810    -0.1570 N.am  1 <1>  -0.7300 
  4 C       -1.2380     2.2060    -0.2140 C.2   1 <1>  -0.0860 
  5 C       -3.3600    -0.9580     0.1430 C.3   1 <1>   0.3000 
  6 C       -2.1510     3.2370     0.0510 C.2   1 <1>   0.3720 
  7 C       -0.0660     2.8760    -0.3960 C.2   1 <1>   0.0870 
  8 C       -2.6030    -2.0550    -0.6710 C.3   1 <1>   0.3430 
  9 C       -3.2020    -1.1750     1.6510 C.3   1 <1>  -0.2400 
 10 C       -4.8500    -0.9000    -0.2090 C.3   1 <1>  -0.2400 
 11 N       -1.5790     4.3870     0.0350 N.2   1 <1>  -0.4100 
 12 N       -3.5180     3.0740     0.3190 N.pl3 1 <1>  -0.8210 
 13 O       -0.3240     4.1490    -0.2330 O.3   1 <1>  -0.0190 
 14 C        1.2810     2.4690    -0.7070 C.ar  1 <1>   0.0530 
 15 N       -3.1070    -3.4590    -0.4790 N.4   1 <1>  -0.9590 
 16 C       -3.8640     3.4210     1.7340 C.3   1 <1>   0.2090 
 17 C       -4.3920     3.8740    -0.5990 C.3   1 <1>   0.2090 
 18 C        2.3630     3.0390    -0.0370 C.ar  1 <1>  -0.1500 
 19 C        1.5600     1.5190    -1.6880 C.ar  1 <1>  -0.1500 
 20 C       -1.9790    -4.4490    -0.4150 C.3   1 <1>   0.3430 
 21 C       -4.1150    -3.8970    -1.5040 C.3   1 <1>   0.3430 
 22 C       -5.3690     3.2280     1.9960 C.3   1 <1>   0.1200 
 23 C       -5.8790     3.6650    -0.2610 C.3   1 <1>   0.1200 
 24 C        3.6650     2.6740    -0.3260 C.ar  1 <1>  -0.1500 
 25 C        2.8590     1.1490    -1.9830 C.ar  1 <1>  -0.1500 
 26 C       -2.5070    -5.8910    -0.2280 C.3   1 <1>   0.1200 
 27 C       -4.5530    -5.3620    -1.2710 C.3   1 <1>   0.1200 
 28 O       -6.1350     3.9640     1.0830 O.3   1 <1>  -0.5600 
 29 C        3.9160     1.7260    -1.3020 C.ar  1 <1>  -0.1500 
 30 O       -3.9080    -5.9150    -0.1540 O.3   1 <1>  -0.5600 
 31 H       -3.4900     1.1580     0.0080 H     1 <1>   0.3700 
 32 H       -1.5730    -2.0260    -0.3620 H     1 <1>   0.0800 
 33 H       -2.6350    -1.7970    -1.7160 H     1 <1>   0.0800 
 34 H       -2.1600    -1.2040     1.9190 H     1 <1>   0.0800 
 35 H       -3.6550    -2.0990     1.9600 H     1 <1>   0.0800 
 36 H       -3.6730    -0.3770     2.1980 H     1 <1>   0.0800 
 37 H       -4.9830    -0.7620    -1.2680 H     1 <1>   0.0800 
 38 H       -5.3270    -0.0840     0.3060 H     1 <1>   0.0800 
 39 H       -5.3510    -1.8030     0.0880 H     1 <1>   0.0800 
 40 H       -3.5770    -3.5390     0.4340 H     1 <1>   0.4500 
 41 H       -3.5990     4.4460     1.9350 H     1 <1>   0.0800 
 42 H       -3.3000     2.7960     2.4050 H     1 <1>   0.0800 
 43 H       -4.2090     3.5780    -1.6170 H     1 <1>   0.0800 
 44 H       -4.1570     4.9220    -0.5110 H     1 <1>   0.0800 
 45 H        2.1790     3.7790     0.7230 H     1 <1>   0.1500 
 46 H        0.7490     1.0670    -2.2290 H     1 <1>   0.1500 
 47 H       -1.3220    -4.2060     0.4050 H     1 <1>   0.0800 
 48 H       -1.3960    -4.4040    -1.3200 H     1 <1>   0.0800 
 49 H       -3.6930    -3.8140    -2.4920 H     1 <1>   0.0800 
 50 H       -4.9840    -3.2630    -1.4700 H     1 <1>   0.0800 
 51 H       -5.6190     3.5720     2.9830 H     1 <1>   0.0800 
 52 H       -5.6380     2.1900     1.9120 H     1 <1>   0.0800 
 53 H       -6.1700     2.6460    -0.4480 H     1 <1>   0.0800 
 54 H       -6.4900     4.3150    -0.8620 H     1 <1>   0.0800 
 55 H        4.4840     3.1270     0.2060 H     1 <1>   0.1500 
 56 H        3.0510     0.4130    -2.7440 H     1 <1>   0.1500 
 57 H       -2.1230    -6.3110     0.6860 H     1 <1>   0.0800 
 58 H       -2.1930    -6.5210    -1.0440 H     1 <1>   0.0800 
 59 H       -4.3310    -5.9690    -2.1320 H     1 <1>   0.0800 
 60 H       -5.6130    -5.4080    -1.0920 H     1 <1>   0.0800 
 61 H        4.9280     1.4390    -1.5300 H     1 <1>   0.1500 
@<TRIPOS>BOND
  1   1   2  2   
  2   2   3  am  
  3   2   4  1   
  4   3   5  1   
  5   3  31  1   
  6   4   6  1   
  7   4   7  2   
  8   5   8  1   
  9   5   9  1   
 10   5  10  1   
 11   6  11  2   
 12   6  12  1   
 13   7  13  1   
 14   7  14  1   
 15   8  15  1   
 16   8  32  1   
 17   8  33  1   
 18   9  34  1   
 19   9  35  1   
 20   9  36  1   
 21  10  37  1   
 22  10  38  1   
 23  10  39  1   
 24  11  13  1   
 25  12  16  1   
 26  12  17  1   
 27  14  18  ar  
 28  14  19  ar  
 29  15  20  1   
 30  15  21  1   
 31  15  40  1   
 32  16  22  1   
 33  16  41  1   
 34  16  42  1   
 35  17  23  1   
 36  17  43  1   
 37  17  44  1   
 38  18  24  ar  
 39  18  45  1   
 40  19  25  ar  
 41  19  46  1   
 42  20  26  1   
 43  20  47  1   
 44  20  48  1   
 45  21  27  1   
 46  21  49  1   
 47  21  50  1   
 48  22  28  1   
 49  22  51  1   
 50  22  52  1   
 51  23  28  1   
 52  23  53  1   
 53  23  54  1   
 54  24  29  ar  
 55  24  55  1   
 56  25  29  ar  
 57  25  56  1   
 58  26  30  1   
 59  26  57  1   
 60  26  58  1   
 61  27  30  1   
 62  27  59  1   
 63  27  60  1   
 64  29  61  1   
@<TRIPOS>SUBSTRUCTURE
  1 ****   2 GROUP 4 **** **** 0

# MOE 2024.06 (io_trps.svl 2023.06)
