@<TRIPOS>MOLECULE
NONAME
51 53 1 0 0 
SMALL
USER_CHARGES


@<TRIPOS>ATOM
  1 O        0.7230     0.7360    -0.5060 O.3   1 <1>  -0.2800 
  2 C        1.1080     0.2960     0.6680 C.2   1 <1>   0.4250 
  3 C       -0.0900     1.6860    -0.1450 C.2   1 <1>   0.2980 
  4 N        0.5560     0.9230     1.6520 N.2   1 <1>  -0.3380 
  5 C        2.0870    -0.7680     0.7520 C.ar  1 <1>   0.0530 
  6 N       -0.2290     1.8270     1.1150 N.2   1 <1>  -0.3380 
  7 C       -0.7510     2.5470    -1.2150 C.3   1 <1>   0.2900 
  8 C        2.5710    -1.4130    -0.3900 C.ar  1 <1>  -0.1500 
  9 C        2.5980    -1.1830     1.9830 C.ar  1 <1>  -0.1500 
 10 N        0.2010     3.4370    -1.9440 N.3   1 <1>  -0.8100 
 11 C        3.5220    -2.4130    -0.3070 C.ar  1 <1>  -0.1500 
 12 C        3.5500    -2.1820     2.0730 C.ar  1 <1>  -0.1500 
 13 C        0.8250     4.4610    -1.0840 C.3   1 <1>   0.1100 
 14 C       -0.4810     4.0550    -3.0900 C.3   1 <1>   0.0300 
 15 C        4.0150    -2.7990     0.9260 C.ar  1 <1>  -0.1500 
 16 C        2.1310     3.9440    -0.4530 C.3   1 <1>  -0.0800 
 17 C        2.9590     5.0520     0.1940 C.3   1 <1>   0.3430 
 18 C        3.0780     3.2690    -1.4470 C.3   1 <1>  -0.1600 
 19 N        4.3680     4.8580    -0.2740 N.4   1 <1>  -0.9590 
 20 C        4.4490     3.4900    -0.8460 C.3   1 <1>   0.3430 
 21 C        5.3980     5.0700     0.7940 C.3   1 <1>   0.3430 
 22 C        5.4580     6.5230     1.2820 C.3   1 <1>   0.1200 
 23 O        6.4600     6.5920     2.2380 O.3   1 <1>  -0.5600 
 24 C        6.6570     7.8610     2.7800 C.3   1 <1>   0.0400 
 25 H       -1.5220     3.1420    -0.7560 H     1 <1>   0.0800 
 26 H       -1.2230     1.8830    -1.9170 H     1 <1>   0.0800 
 27 H        2.1970    -1.1330    -1.3590 H     1 <1>   0.1500 
 28 H        2.2450    -0.7160     2.8870 H     1 <1>   0.1500 
 29 H        3.8780    -2.8970    -1.2010 H     1 <1>   0.1500 
 30 H        3.9270    -2.4830     3.0350 H     1 <1>   0.1500 
 31 H        0.1340     4.7800    -0.3200 H     1 <1>   0.0800 
 32 H        1.0660     5.3220    -1.6860 H     1 <1>   0.0800 
 33 H       -0.8890     3.2930    -3.7330 H     1 <1>   0.0800 
 34 H        0.2180     4.6350    -3.6680 H     1 <1>   0.0800 
 35 H       -1.2800     4.6970    -2.7580 H     1 <1>   0.0800 
 36 H        4.7550    -3.5780     0.9930 H     1 <1>   0.1500 
 37 H        1.9020     3.2550     0.3350 H     1 <1>   0.0800 
 38 H        2.8960     4.9640     1.2680 H     1 <1>   0.0800 
 39 H        2.5970     6.0230    -0.1010 H     1 <1>   0.0800 
 40 H        3.0250     3.7440    -2.4110 H     1 <1>   0.0800 
 41 H        2.8570     2.2230    -1.5670 H     1 <1>   0.0800 
 42 H        4.5400     5.5130    -1.0490 H     1 <1>   0.4500 
 43 H        5.2300     3.4050    -1.5850 H     1 <1>   0.0800 
 44 H        4.6150     2.7690    -0.0600 H     1 <1>   0.0800 
 45 H        6.3700     4.8070     0.4110 H     1 <1>   0.0800 
 46 H        5.1830     4.4320     1.6360 H     1 <1>   0.0800 
 47 H        4.5320     6.8180     1.7420 H     1 <1>   0.0800 
 48 H        5.7140     7.1870     0.4740 H     1 <1>   0.0800 
 49 H        7.4490     7.7970     3.5060 H     1 <1>   0.0800 
 50 H        5.7530     8.1900     3.2630 H     1 <1>   0.0800 
 51 H        6.9410     8.5450     1.9990 H     1 <1>   0.0800 
@<TRIPOS>BOND
  1   1   2  1   
  2   1   3  1   
  3   2   4  2   
  4   2   5  1   
  5   3   6  2   
  6   3   7  1   
  7   4   6  1   
  8   5   8  ar  
  9   5   9  ar  
 10   7  10  1   
 11   7  25  1   
 12   7  26  1   
 13   8  11  ar  
 14   8  27  1   
 15   9  12  ar  
 16   9  28  1   
 17  10  13  1   
 18  10  14  1   
 19  11  15  ar  
 20  11  29  1   
 21  12  15  ar  
 22  12  30  1   
 23  13  16  1   
 24  13  31  1   
 25  13  32  1   
 26  14  33  1   
 27  14  34  1   
 28  14  35  1   
 29  15  36  1   
 30  16  17  1   
 31  16  18  1   
 32  16  37  1   
 33  17  19  1   
 34  17  38  1   
 35  17  39  1   
 36  18  20  1   
 37  18  40  1   
 38  18  41  1   
 39  19  20  1   
 40  19  21  1   
 41  19  42  1   
 42  20  43  1   
 43  20  44  1   
 44  21  22  1   
 45  21  45  1   
 46  21  46  1   
 47  22  23  1   
 48  22  47  1   
 49  22  48  1   
 50  23  24  1   
 51  24  49  1   
 52  24  50  1   
 53  24  51  1   
@<TRIPOS>SUBSTRUCTURE
  1 ****  16 GROUP 4 **** **** 0

# MOE 2024.06 (io_trps.svl 2023.06)
