@<TRIPOS>MOLECULE
NONAME
43 45 1 0 0 
SMALL
USER_CHARGES


@<TRIPOS>ATOM
  1 S        0.3170     0.1240     0.4150 S.o2  1 <1>   1.3330 
  2 O        0.3300    -1.1460     1.1060 O.2   1 <1>  -0.6500 
  3 O       -0.2070     1.2950     1.0800 O.2   1 <1>  -0.6500 
  4 N       -0.5280    -0.0890    -1.0430 N.am  1 <1>  -0.8490 
  5 C        1.9790     0.4950    -0.1390 C.3   1 <1>  -0.0550 
  6 C       -1.9390     0.2940    -0.9300 C.3   1 <1>   0.1160 
  7 C       -0.4200    -1.4460    -1.5900 C.3   1 <1>   0.1160 
  8 C        2.9420     0.8370     1.0100 C.3   1 <1>  -0.0800 
  9 C        4.3470     1.1540     0.5140 C.3   1 <1>   0.2890 
 10 C        3.1730    -0.2910     2.0090 C.3   1 <1>   0.1200 
 11 N        4.5470     2.6210     0.4950 N.pl3 1 <1>  -0.8690 
 12 C        5.2630     0.4580     1.5240 C.3   1 <1>   0.1200 
 13 O        4.4390    -0.0480     2.5280 O.3   1 <1>  -0.5600 
 14 C        4.3220     3.4280    -0.5900 C.ar  1 <1>   0.4100 
 15 N        4.0560     2.8490    -1.7470 N.ar  1 <1>  -0.6200 
 16 C        4.3620     4.8160    -0.4710 C.ar  1 <1>   0.0000 
 17 C        3.8370     3.6610    -2.7760 C.ar  1 <1>   0.4700 
 18 C        4.1080     5.5060    -1.6290 C.ar  1 <1>   0.2970 
 19 C        4.6210     5.6790     0.6540 C.2   1 <1>  -0.1500 
 20 N        3.8420     4.9800    -2.8050 N.ar  1 <1>  -0.5670 
 21 S        4.1840     7.2430    -1.3350 S.3   1 <1>  -0.0800 
 22 C        4.5640     6.9920     0.3710 C.2   1 <1>  -0.1400 
 23 C        4.7600     8.2330     1.2170 C.3   1 <1>  -0.0600 
 24 H        2.3650    -0.3370    -0.6930 H     1 <1>   0.0800 
 25 H        1.9360     1.3370    -0.8040 H     1 <1>   0.0800 
 26 H       -2.4400     0.1590    -1.8730 H     1 <1>   0.0800 
 27 H       -2.0180     1.3320    -0.6530 H     1 <1>   0.0800 
 28 H       -2.4290    -0.3020    -0.1780 H     1 <1>   0.0800 
 29 H       -0.8950    -1.4950    -2.5540 H     1 <1>   0.0800 
 30 H       -0.8910    -2.1560    -0.9300 H     1 <1>   0.0800 
 31 H        0.6150    -1.7170    -1.7070 H     1 <1>   0.0800 
 32 H        2.5490     1.6760     1.5590 H     1 <1>   0.0800 
 33 H        4.5320     0.7370    -0.4620 H     1 <1>   0.0800 
 34 H        3.1880    -1.2560     1.5310 H     1 <1>   0.0800 
 35 H        2.4550    -0.2890     2.8120 H     1 <1>   0.0800 
 36 H        4.5660     3.0510     1.4220 H     1 <1>   0.4000 
 37 H        5.9790     1.1300     1.9630 H     1 <1>   0.0800 
 38 H        5.7690    -0.3720     1.0650 H     1 <1>   0.0800 
 39 H        3.6260     3.1760    -3.7140 H     1 <1>   0.1500 
 40 H        4.8370     5.2610     1.6200 H     1 <1>   0.1500 
 41 H        4.9880     7.9590     2.2320 H     1 <1>   0.0800 
 42 H        3.8640     8.8260     1.2100 H     1 <1>   0.0800 
 43 H        5.5710     8.8200     0.8250 H     1 <1>   0.0800 
@<TRIPOS>BOND
  1   1   2  2   
  2   1   3  2   
  3   1   4  am  
  4   1   5  1   
  5   4   6  1   
  6   4   7  1   
  7   5   8  1   
  8   5  24  1   
  9   5  25  1   
 10   6  26  1   
 11   6  27  1   
 12   6  28  1   
 13   7  29  1   
 14   7  30  1   
 15   7  31  1   
 16   8   9  1   
 17   8  10  1   
 18   8  32  1   
 19   9  11  1   
 20   9  12  1   
 21   9  33  1   
 22  10  13  1   
 23  10  34  1   
 24  10  35  1   
 25  11  14  1   
 26  11  36  1   
 27  12  13  1   
 28  12  37  1   
 29  12  38  1   
 30  14  15  ar  
 31  14  16  ar  
 32  15  17  ar  
 33  16  18  ar  
 34  16  19  1   
 35  17  20  ar  
 36  17  39  1   
 37  18  20  ar  
 38  18  21  1   
 39  19  22  2   
 40  19  40  1   
 41  21  22  1   
 42  22  23  1   
 43  23  41  1   
 44  23  42  1   
 45  23  43  1   
@<TRIPOS>SUBSTRUCTURE
  1 ****  11 GROUP 4 **** **** 0

# MOE 2024.06 (io_trps.svl 2023.06)
