@<TRIPOS>MOLECULE
NONAME
45 48 1 0 0 
SMALL
USER_CHARGES


@<TRIPOS>ATOM
  1 O       -0.3310    -0.6110    -1.0020 O.2   1 <1>  -0.5700 
  2 C       -1.4240    -0.2960    -0.6010 C.2   1 <1>   0.5690 
  3 N       -1.8130     0.9440    -0.2300 N.am  1 <1>  -0.6600 
  4 C       -2.5420    -1.2830    -0.4410 C.3   1 <1>  -0.0990 
  5 C       -0.9130     2.1280    -0.2410 C.3   1 <1>   0.2200 
  6 C       -3.2210     0.9830     0.2050 C.3   1 <1>   0.1400 
  7 C       -3.7770    -0.3960    -0.1870 C.3   1 <1>  -0.0800 
  8 C       -0.7970     2.7540     1.1460 C.3   1 <1>  -0.1600 
  9 C       -1.4710     3.2460    -1.1210 C.3   1 <1>  -0.1600 
 10 C       -4.7380    -0.9630     0.8630 C.3   1 <1>   0.2090 
 11 C       -1.8890     3.8240     1.2380 C.3   1 <1>  -0.1600 
 12 C       -2.2460     4.2020    -0.2040 C.3   1 <1>  -0.1600 
 13 N       -5.1910    -2.3070     0.4330 N.pl3 1 <1>  -0.8690 
 14 C       -6.4320    -2.8290     0.3340 C.2   1 <1>   0.2710 
 15 N       -6.4560    -4.0080    -0.2870 N.2   1 <1>  -0.6210 
 16 C       -7.5730    -2.2370     0.8190 C.2   1 <1>  -0.1410 
 17 C       -7.5940    -4.6040    -0.4390 C.2   1 <1>   0.9190 
 18 C       -8.7530    -2.9170     0.6310 C.cat 1 <1>   0.7910 
 19 N       -8.7630    -4.0920     0.0050 N.pl3 1 <1>  -0.6690 
 20 N       -7.6020    -5.7790    -1.0630 N.pl3 1 <1>  -0.8500 
 21 N      -10.0280    -2.6550     0.9630 N.pl3 1 <1>  -0.3930 
 22 C      -10.0750    -4.4940    -0.0140 C.2   1 <1>   0.5030 
 23 N      -10.8560    -3.6540     0.5530 N.2   1 <1>  -0.2600 
 24 H       -2.3150    -1.9130     0.3990 H     1 <1>   0.0800 
 25 H       -2.6500    -1.8770    -1.3300 H     1 <1>   0.0800 
 26 H        0.0590     1.8240    -0.5960 H     1 <1>   0.0800 
 27 H       -3.7570     1.7710    -0.2950 H     1 <1>   0.0800 
 28 H       -3.2560     1.1330     1.2710 H     1 <1>   0.0800 
 29 H       -4.3110    -0.2750    -1.1140 H     1 <1>   0.0800 
 30 H        0.1610     3.2390     1.2130 H     1 <1>   0.0800 
 31 H       -0.8620     2.0210     1.9300 H     1 <1>   0.0800 
 32 H       -2.0740     2.8620    -1.9250 H     1 <1>   0.0800 
 33 H       -0.6410     3.7810    -1.5470 H     1 <1>   0.0800 
 34 H       -5.5770    -0.3010     0.9780 H     1 <1>   0.0800 
 35 H       -4.2350    -1.0490     1.8120 H     1 <1>   0.0800 
 36 H       -1.5460     4.6790     1.7950 H     1 <1>   0.0800 
 37 H       -2.7560     3.4220     1.7320 H     1 <1>   0.0800 
 38 H       -3.3060     4.1010    -0.3620 H     1 <1>   0.0800 
 39 H       -1.9670     5.2220    -0.4110 H     1 <1>   0.0800 
 40 H       -4.4370    -2.9070     0.0750 H     1 <1>   0.4000 
 41 H       -7.5520    -1.2950     1.3250 H     1 <1>   0.1500 
 42 H       -6.7040    -6.1420    -1.3880 H     1 <1>   0.4000 
 43 H       -8.4100    -6.3640    -1.2470 H     1 <1>   0.4000 
 44 H      -10.3630    -1.8220     1.4620 H     1 <1>   0.4500 
 45 H      -10.3930    -5.4230    -0.4630 H     1 <1>   0.1500 
@<TRIPOS>BOND
  1   1   2  2   
  2   2   3  am  
  3   2   4  1   
  4   3   5  1   
  5   3   6  1   
  6   4   7  1   
  7   4  24  1   
  8   4  25  1   
  9   5   8  1   
 10   5   9  1   
 11   5  26  1   
 12   6   7  1   
 13   6  27  1   
 14   6  28  1   
 15   7  10  1   
 16   7  29  1   
 17   8  11  1   
 18   8  30  1   
 19   8  31  1   
 20   9  12  1   
 21   9  32  1   
 22   9  33  1   
 23  10  13  1   
 24  10  34  1   
 25  10  35  1   
 26  11  12  1   
 27  11  36  1   
 28  11  37  1   
 29  12  38  1   
 30  12  39  1   
 31  13  14  1   
 32  13  40  1   
 33  14  15  1   
 34  14  16  2   
 35  15  17  2   
 36  16  18  1   
 37  16  41  1   
 38  17  19  1   
 39  17  20  1   
 40  18  19  ar  
 41  18  21  ar  
 42  19  22  1   
 43  20  42  1   
 44  20  43  1   
 45  21  23  1   
 46  21  44  1   
 47  22  23  2   
 48  22  45  1   
@<TRIPOS>SUBSTRUCTURE
  1 ****  10 GROUP 4 **** **** 0

# MOE 2024.06 (io_trps.svl 2023.06)
