@<TRIPOS>MOLECULE
NONAME
48 51 1 0 0 
SMALL
USER_CHARGES


@<TRIPOS>ATOM
  1 O       -1.6150     0.9250    -2.5180 O.2   1 <1>  -0.5700 
  2 C       -2.0340     1.3120    -1.4410 C.2   1 <1>   0.5440 
  3 N       -2.9940     0.5700    -0.7830 N.am  1 <1>  -0.6600 
  4 C       -1.5570     2.5780    -0.9250 C.ar  1 <1>   0.0860 
  5 C       -3.2080    -0.8860    -1.0740 C.3   1 <1>   0.1400 
  6 C       -3.9250     1.1550     0.2300 C.3   1 <1>   0.1400 
  7 C       -0.9210     2.6880     0.3150 C.ar  1 <1>   0.0820 
  8 C       -1.7340     3.7450    -1.6700 C.ar  1 <1>  -0.1500 
  9 C       -3.0840    -1.7820     0.1920 C.3   1 <1>  -0.1060 
 10 C       -4.2750     0.1540     1.3380 C.3   1 <1>  -0.1600 
 11 O       -0.7180     1.5770     1.0630 O.3   1 <1>  -0.3630 
 12 C       -0.4980     3.9320     0.7890 C.ar  1 <1>   0.0820 
 13 C       -1.3200     4.9780    -1.2000 C.ar  1 <1>  -0.1500 
 14 C       -4.2340    -2.7990     0.1020 C.2   1 <1>   0.9060 
 15 C       -3.1750    -0.8970     1.4670 C.3   1 <1>   0.2000 
 16 C       -1.7640    -2.6030     0.1830 C.3   1 <1>  -0.0650 
 17 C       -0.3860     1.7330     2.4260 C.3   1 <1>   0.1200 
 18 O        0.1250     4.0560     1.9900 O.3   1 <1>  -0.3630 
 19 C       -0.7040     5.0730     0.0360 C.ar  1 <1>  -0.1500 
 20 O       -4.9410    -3.0480     1.0910 O.co2 1 <1>  -0.9000 
 21 O       -4.4290    -3.3820    -0.9710 O.co2 1 <1>  -0.9000 
 22 O       -3.4210    -1.6510     2.5960 O.3   1 <1>  -0.6800 
 23 C       -0.4510    -1.8030     0.2580 C.3   1 <1>  -0.1950 
 24 C        0.6250     2.8730     2.5850 C.3   1 <1>   0.1200 
 25 C        0.2220    -1.2630    -0.9620 C.3   1 <1>  -0.2000 
 26 C        0.8240    -2.4220    -0.2210 C.3   1 <1>  -0.2000 
 27 H       -4.1970    -0.9800    -1.4900 H     1 <1>   0.0800 
 28 H       -2.5280    -1.2290    -1.8320 H     1 <1>   0.0800 
 29 H       -3.4740     2.0180     0.6830 H     1 <1>   0.0800 
 30 H       -4.8260     1.4730    -0.2630 H     1 <1>   0.0800 
 31 H       -2.2060     3.6690    -2.6350 H     1 <1>   0.1500 
 32 H       -5.2080    -0.3270     1.1010 H     1 <1>   0.0800 
 33 H       -4.3950     0.6810     2.2660 H     1 <1>   0.0800 
 34 H       -1.4720     5.8630    -1.7930 H     1 <1>   0.1500 
 35 H       -2.2500    -0.3820     1.6360 H     1 <1>   0.0800 
 36 H       -1.7870    -3.2790     1.0210 H     1 <1>   0.0800 
 37 H       -1.7500    -3.2130    -0.7040 H     1 <1>   0.0800 
 38 H       -1.2900     1.9490     2.9690 H     1 <1>   0.0800 
 39 H        0.0220     0.8020     2.7770 H     1 <1>   0.0800 
 40 H       -0.3770     6.0240     0.4160 H     1 <1>   0.1500 
 41 H       -4.1170    -2.3180     2.3070 H     1 <1>   0.4000 
 42 H       -0.3650    -1.2350     1.1660 H     1 <1>   0.1000 
 43 H        1.5510     2.6200     2.0990 H     1 <1>   0.0800 
 44 H        0.8140     3.0780     3.6230 H     1 <1>   0.0800 
 45 H       -0.2270    -1.4370    -1.9250 H     1 <1>   0.1000 
 46 H        0.6650    -0.2850    -0.8930 H     1 <1>   0.1000 
 47 H        1.7230    -2.2610     0.3460 H     1 <1>   0.1000 
 48 H        0.7910    -3.3940    -0.6810 H     1 <1>   0.1000 
@<TRIPOS>BOND
  1   1   2  2   
  2   2   3  am  
  3   2   4  1   
  4   3   5  1   
  5   3   6  1   
  6   4   7  ar  
  7   4   8  ar  
  8   5   9  1   
  9   5  27  1   
 10   5  28  1   
 11   6  10  1   
 12   6  29  1   
 13   6  30  1   
 14   7  11  1   
 15   7  12  ar  
 16   8  13  ar  
 17   8  31  1   
 18   9  14  1   
 19   9  15  1   
 20   9  16  1   
 21  10  15  1   
 22  10  32  1   
 23  10  33  1   
 24  11  17  1   
 25  12  18  1   
 26  12  19  ar  
 27  13  19  ar  
 28  13  34  1   
 29  14  20  ar  
 30  14  21  ar  
 31  15  22  1   
 32  15  35  1   
 33  16  23  1   
 34  16  36  1   
 35  16  37  1   
 36  17  24  1   
 37  17  38  1   
 38  17  39  1   
 39  18  24  1   
 40  19  40  1   
 41  22  41  1   
 42  23  25  1   
 43  23  26  1   
 44  23  42  1   
 45  24  43  1   
 46  24  44  1   
 47  25  26  1   
 48  25  45  1   
 49  25  46  1   
 50  26  47  1   
 51  26  48  1   
@<TRIPOS>SUBSTRUCTURE
  1 ****   3 GROUP 4 **** **** 0

# MOE 2024.06 (io_trps.svl 2023.06)
