@<TRIPOS>MOLECULE
NONAME
49 50 1 0 0 
SMALL
USER_CHARGES


@<TRIPOS>ATOM
  1 O        0.7490     0.1620     2.1810 O.co2 1 <1>  -0.9000 
  2 C        1.1780    -0.0890     1.0490 C.2   1 <1>   0.9060 
  3 O        0.7910    -1.0820     0.4160 O.co2 1 <1>  -0.9000 
  4 C        2.2530     0.7890     0.4050 C.3   1 <1>  -0.1060 
  5 C        3.4600    -0.1720     0.1930 C.3   1 <1>   0.2000 
  6 C        2.7300     1.9350     1.3380 C.3   1 <1>  -0.1600 
  7 C        1.6680     1.3760    -0.9240 C.3   1 <1>  -0.0160 
  8 O        3.4820    -0.6650    -1.1060 O.3   1 <1>  -0.6800 
  9 C        4.8410     0.4140     0.5770 C.3   1 <1>   0.1100 
 10 C        3.9150     2.7120     0.7410 C.3   1 <1>   0.1100 
 11 C        0.7370     2.5810    -0.7790 C.ar  1 <1>  -0.1430 
 12 N        5.0320     1.8500     0.2670 N.3   1 <1>  -0.8100 
 13 C        1.0940     3.8060    -1.3250 C.ar  1 <1>  -0.1500 
 14 C       -0.4750     2.4690    -0.1130 C.ar  1 <1>  -0.1500 
 15 C        5.3630     2.0470    -1.1790 C.3   1 <1>   0.1710 
 16 C        0.2580     4.9020    -1.2020 C.ar  1 <1>  -0.1500 
 17 C       -1.3110     3.5640     0.0130 C.ar  1 <1>  -0.1500 
 18 C        5.8130     3.4660    -1.5440 C.2   1 <1>   0.5690 
 19 C       -0.9460     4.7830    -0.5310 C.ar  1 <1>  -0.1500 
 20 O        5.6390     3.8860    -2.6640 O.2   1 <1>  -0.5700 
 21 N        6.3950     4.2120    -0.5710 N.am  1 <1>  -0.7300 
 22 C        6.8140     5.6090    -0.6710 C.3   1 <1>   0.2200 
 23 C        8.2550     5.7110    -0.1850 C.3   1 <1>  -0.2400 
 24 C        5.8730     6.4460     0.1880 C.3   1 <1>  -0.2400 
 25 H        3.3300    -1.0380     0.8220 H     1 <1>   0.0800 
 26 H        3.0190     1.5270     2.2910 H     1 <1>   0.0800 
 27 H        1.9210     2.6130     1.5430 H     1 <1>   0.0800 
 28 H        2.4700     1.6620    -1.5700 H     1 <1>   0.0800 
 29 H        1.1280     0.6060    -1.4480 H     1 <1>   0.0800 
 30 H        2.6110    -1.1040    -1.2390 H     1 <1>   0.4000 
 31 H        5.6210    -0.1770     0.1290 H     1 <1>   0.0800 
 32 H        4.9450     0.3050     1.6420 H     1 <1>   0.0800 
 33 H        4.2960     3.3830     1.4910 H     1 <1>   0.0800 
 34 H        3.5510     3.3190    -0.0690 H     1 <1>   0.0800 
 35 H        2.0260     3.9110    -1.8520 H     1 <1>   0.1500 
 36 H       -0.7710     1.5250     0.3170 H     1 <1>   0.1500 
 37 H        6.1670     1.3850    -1.4430 H     1 <1>   0.0800 
 38 H        4.5260     1.7840    -1.7940 H     1 <1>   0.0800 
 39 H        0.5470     5.8460    -1.6290 H     1 <1>   0.1500 
 40 H       -2.2430     3.4590     0.5390 H     1 <1>   0.1500 
 41 H       -1.5970     5.6330    -0.4320 H     1 <1>   0.1500 
 42 H        6.4170     3.7810     0.3570 H     1 <1>   0.3700 
 43 H        6.7530     5.9330    -1.6990 H     1 <1>   0.0800 
 44 H        8.3370     5.3900     0.8380 H     1 <1>   0.0800 
 45 H        8.5920     6.7290    -0.2550 H     1 <1>   0.0800 
 46 H        8.8910     5.1020    -0.8020 H     1 <1>   0.0800 
 47 H        5.9180     6.1370     1.2170 H     1 <1>   0.0800 
 48 H        4.8650     6.3440    -0.1710 H     1 <1>   0.0800 
 49 H        6.1490     7.4830     0.1280 H     1 <1>   0.0800 
@<TRIPOS>BOND
  1   1   2  ar  
  2   2   3  ar  
  3   2   4  1   
  4   4   5  1   
  5   4   6  1   
  6   4   7  1   
  7   5   8  1   
  8   5   9  1   
  9   5  25  1   
 10   6  10  1   
 11   6  26  1   
 12   6  27  1   
 13   7  11  1   
 14   7  28  1   
 15   7  29  1   
 16   8  30  1   
 17   9  12  1   
 18   9  31  1   
 19   9  32  1   
 20  10  12  1   
 21  10  33  1   
 22  10  34  1   
 23  11  13  ar  
 24  11  14  ar  
 25  12  15  1   
 26  13  16  ar  
 27  13  35  1   
 28  14  17  ar  
 29  14  36  1   
 30  15  18  1   
 31  15  37  1   
 32  15  38  1   
 33  16  19  ar  
 34  16  39  1   
 35  17  19  ar  
 36  17  40  1   
 37  18  20  2   
 38  18  21  am  
 39  19  41  1   
 40  21  22  1   
 41  21  42  1   
 42  22  23  1   
 43  22  24  1   
 44  22  43  1   
 45  23  44  1   
 46  23  45  1   
 47  23  46  1   
 48  24  47  1   
 49  24  48  1   
 50  24  49  1   
@<TRIPOS>SUBSTRUCTURE
  1 ****  10 GROUP 4 **** **** 0

# MOE 2024.06 (io_trps.svl 2023.06)
