@<TRIPOS>MOLECULE
NONAME
56 59 1 0 0 
SMALL
USER_CHARGES


@<TRIPOS>ATOM
  1 N        0.8340     0.3500     0.9340 N.ar  1 <1>  -0.6200 
  2 C        0.0640     1.2140     1.6030 C.ar  1 <1>   0.7200 
  3 C        1.3610     0.8240    -0.1660 C.ar  1 <1>   0.1660 
  4 N       -0.1900     2.4790     1.2530 N.ar  1 <1>  -0.6200 
  5 N       -0.5170     0.7560     2.7670 N.pl3 1 <1>  -0.8380 
  6 C        1.1640     2.0930    -0.6120 C.ar  1 <1>  -0.1430 
  7 C        2.2690     0.0380    -1.0790 C.3   1 <1>   0.1430 
  8 C        0.3630     2.9110     0.1430 C.ar  1 <1>   0.1600 
  9 C       -1.0980     1.6930     3.7680 C.3   1 <1>   0.1290 
 10 C       -0.8220    -0.6830     2.9930 C.3   1 <1>   0.1290 
 11 C        1.9030     2.3550    -1.9010 C.3   1 <1>  -0.0160 
 12 C        3.3580    -0.6200    -0.2160 C.3   1 <1>   0.3430 
 13 C        1.4610    -1.0350    -1.8410 C.3   1 <1>  -0.1600 
 14 C        2.8370     1.1340    -2.0220 C.3   1 <1>  -0.1600 
 15 N        4.2170    -1.5470    -1.0270 N.4   1 <1>  -0.9590 
 16 C        2.3720    -2.0330    -2.5800 C.3   1 <1>  -0.1600 
 17 C        3.4350    -2.6410    -1.6590 C.3   1 <1>   0.3430 
 18 C        5.4010    -2.0060    -0.2510 C.3   1 <1>   0.5230 
 19 C        6.4380    -0.8910    -0.2720 C.2   1 <1>   0.0060 
 20 N        6.3940     0.0870    -1.1140 N.2   1 <1>  -0.3380 
 21 N        7.4940    -0.7890     0.5490 N.pl3 1 <1>   0.0480 
 22 N        7.4340     0.8710    -0.8580 N.2   1 <1>  -0.3380 
 23 C        8.0730     0.3380     0.1240 C.2   1 <1>   0.0360 
 24 C        7.9510    -1.6750     1.6530 C.3   1 <1>   0.1760 
 25 C        7.9850    -0.9030     2.9770 C.3   1 <1>  -0.2400 
 26 C        9.3290    -2.2620     1.3270 C.3   1 <1>  -0.2400 
 27 H        0.1720     3.9250    -0.1610 H     1 <1>   0.1500 
 28 H       -0.5490     2.6190     3.7780 H     1 <1>   0.0800 
 29 H       -1.0500     1.2600     4.7520 H     1 <1>   0.0800 
 30 H       -2.1240     1.8980     3.5180 H     1 <1>   0.0800 
 31 H       -0.7490    -1.2400     2.0750 H     1 <1>   0.0800 
 32 H       -1.8240    -0.7900     3.3710 H     1 <1>   0.0800 
 33 H       -0.1290    -1.0900     3.7070 H     1 <1>   0.0800 
 34 H        2.4590     3.2760    -1.8600 H     1 <1>   0.0800 
 35 H        1.2040     2.3860    -2.7190 H     1 <1>   0.0800 
 36 H        2.8780    -1.1680     0.5790 H     1 <1>   0.0800 
 37 H        3.9610     0.1550     0.2290 H     1 <1>   0.0800 
 38 H        0.7860    -0.5630    -2.5360 H     1 <1>   0.0800 
 39 H        0.8570    -1.5790    -1.1340 H     1 <1>   0.0800 
 40 H        2.9140     0.8100    -3.0450 H     1 <1>   0.0800 
 41 H        3.8160     1.4330    -1.6880 H     1 <1>   0.0800 
 42 H        4.6370    -0.9590    -1.7690 H     1 <1>   0.4500 
 43 H        2.8570    -1.5520    -3.4120 H     1 <1>   0.0800 
 44 H        1.7680    -2.8270    -2.9840 H     1 <1>   0.0800 
 45 H        2.9540    -3.2340    -0.8980 H     1 <1>   0.0800 
 46 H        4.0850    -3.2810    -2.2340 H     1 <1>   0.0800 
 47 H        5.8280    -2.8810    -0.7110 H     1 <1>   0.0800 
 48 H        5.1180    -2.2420     0.7610 H     1 <1>   0.0800 
 49 H        8.9700     0.7420     0.5600 H     1 <1>   0.1500 
 50 H        7.2530    -2.4860     1.7540 H     1 <1>   0.0800 
 51 H        8.7040    -0.1030     2.9400 H     1 <1>   0.0800 
 52 H        8.2620    -1.5630     3.7810 H     1 <1>   0.0800 
 53 H        7.0150    -0.4930     3.2010 H     1 <1>   0.0800 
 54 H       10.0720    -1.4860     1.2550 H     1 <1>   0.0800 
 55 H        9.2990    -2.8060     0.3990 H     1 <1>   0.0800 
 56 H        9.6330    -2.9420     2.1030 H     1 <1>   0.0800 
@<TRIPOS>BOND
  1   1   2  ar  
  2   1   3  ar  
  3   2   4  ar  
  4   2   5  1   
  5   3   6  ar  
  6   3   7  1   
  7   4   8  ar  
  8   5   9  1   
  9   5  10  1   
 10   6   8  ar  
 11   6  11  1   
 12   7  12  1   
 13   7  13  1   
 14   7  14  1   
 15   8  27  1   
 16   9  28  1   
 17   9  29  1   
 18   9  30  1   
 19  10  31  1   
 20  10  32  1   
 21  10  33  1   
 22  11  14  1   
 23  11  34  1   
 24  11  35  1   
 25  12  15  1   
 26  12  36  1   
 27  12  37  1   
 28  13  16  1   
 29  13  38  1   
 30  13  39  1   
 31  14  40  1   
 32  14  41  1   
 33  15  17  1   
 34  15  18  1   
 35  15  42  1   
 36  16  17  1   
 37  16  43  1   
 38  16  44  1   
 39  17  45  1   
 40  17  46  1   
 41  18  19  1   
 42  18  47  1   
 43  18  48  1   
 44  19  20  2   
 45  19  21  1   
 46  20  22  1   
 47  21  23  1   
 48  21  24  1   
 49  22  23  2   
 50  23  49  1   
 51  24  25  1   
 52  24  26  1   
 53  24  50  1   
 54  25  51  1   
 55  25  52  1   
 56  25  53  1   
 57  26  54  1   
 58  26  55  1   
 59  26  56  1   
@<TRIPOS>SUBSTRUCTURE
  1 ****  12 GROUP 4 **** **** 0

# MOE 2024.06 (io_trps.svl 2023.06)
