@<TRIPOS>MOLECULE
NONAME
42 44 1 0 0 
SMALL
USER_CHARGES


@<TRIPOS>ATOM
  1 CL      -0.0090    -1.4710     1.0260 Cl    1 <1>  -0.1770 
  2 C       -1.6250    -1.8850     0.5000 C.ar  1 <1>   0.1770 
  3 C       -2.1200    -3.1550     0.6710 C.ar  1 <1>   0.1600 
  4 C       -2.4390    -0.9530    -0.0940 C.ar  1 <1>   0.1600 
  5 N       -3.3350    -3.4900     0.2830 N.ar  1 <1>  -0.6200 
  6 N       -3.6550    -1.2570    -0.4920 N.ar  1 <1>  -0.6200 
  7 C       -4.0440    -2.5150    -0.3000 C.ar  1 <1>   0.7200 
  8 N       -5.3090    -2.8380    -0.7260 N.pl3 1 <1>  -0.8380 
  9 C       -5.7220    -4.2340    -0.9560 C.3   1 <1>   0.2090 
 10 C       -6.4600    -1.9640    -0.3890 C.3   1 <1>   0.2090 
 11 C       -6.4650    -4.6490     0.3280 C.3   1 <1>   0.4230 
 12 C       -7.3150    -2.6100     0.7320 C.3   1 <1>  -0.1600 
 13 N       -6.2390    -6.0800     0.7680 N.4   1 <1>  -0.9590 
 14 C       -7.9540    -4.0480     0.3290 C.3   1 <1>   0.0000 
 15 C       -6.6280    -7.0520    -0.2700 C.3   1 <1>   0.3430 
 16 C       -4.8240    -6.2840     1.2150 C.3   1 <1>   0.2630 
 17 C       -8.6280    -5.4420    -0.1450 C.3   1 <1>  -0.1600 
 18 C       -9.4220    -3.4120     0.4110 C.3   1 <1>   0.1200 
 19 C       -7.8740    -6.5260    -0.9560 C.3   1 <1>  -0.1600 
 20 O       -9.6770    -2.6950    -0.7550 O.3   1 <1>  -0.6800 
 21 H       -1.4980    -3.9000     1.1370 H     1 <1>   0.1500 
 22 H       -2.0840     0.0520    -0.2410 H     1 <1>   0.1500 
 23 H       -6.3730    -4.2670    -1.8110 H     1 <1>   0.0800 
 24 H       -4.8640    -4.8520    -1.1470 H     1 <1>   0.0800 
 25 H       -6.1160    -0.9940    -0.0670 H     1 <1>   0.0800 
 26 H       -7.0630    -1.8170    -1.2710 H     1 <1>   0.0800 
 27 H       -5.9050    -4.1310     1.0850 H     1 <1>   0.0800 
 28 H       -6.7430    -2.6510     1.6450 H     1 <1>   0.0800 
 29 H       -7.9750    -1.7890     0.9580 H     1 <1>   0.0800 
 30 H       -6.8600    -6.2240     1.5740 H     1 <1>   0.4500 
 31 H       -5.8390    -7.1730    -0.9950 H     1 <1>   0.0800 
 32 H       -6.8280    -8.0100     0.1840 H     1 <1>   0.0800 
 33 H       -4.1430    -6.1320     0.3930 H     1 <1>   0.0800 
 34 H       -4.6900    -7.2830     1.5970 H     1 <1>   0.0800 
 35 H       -4.5740    -5.5800     1.9920 H     1 <1>   0.0800 
 36 H       -9.0410    -5.9290     0.7250 H     1 <1>   0.0800 
 37 H       -9.4500    -5.2800    -0.8310 H     1 <1>   0.0800 
 38 H       -9.5830    -2.7660     1.2590 H     1 <1>   0.0800 
 39 H      -10.2470    -4.0970     0.5400 H     1 <1>   0.0800 
 40 H       -7.6080    -6.1360    -1.9230 H     1 <1>   0.0800 
 41 H       -8.5330    -7.3580    -1.1430 H     1 <1>   0.0800 
 42 H      -10.5700    -2.2920    -0.7370 H     1 <1>   0.4000 
@<TRIPOS>BOND
  1   1   2  1   
  2   2   3  ar  
  3   2   4  ar  
  4   3   5  ar  
  5   3  21  1   
  6   4   6  ar  
  7   4  22  1   
  8   5   7  ar  
  9   6   7  ar  
 10   7   8  1   
 11   8   9  1   
 12   8  10  1   
 13   9  11  1   
 14   9  23  1   
 15   9  24  1   
 16  10  12  1   
 17  10  25  1   
 18  10  26  1   
 19  11  13  1   
 20  11  14  1   
 21  11  27  1   
 22  12  14  1   
 23  12  28  1   
 24  12  29  1   
 25  13  15  1   
 26  13  16  1   
 27  13  30  1   
 28  14  17  1   
 29  14  18  1   
 30  15  19  1   
 31  15  31  1   
 32  15  32  1   
 33  16  33  1   
 34  16  34  1   
 35  16  35  1   
 36  17  19  1   
 37  17  36  1   
 38  17  37  1   
 39  18  20  1   
 40  18  38  1   
 41  18  39  1   
 42  19  40  1   
 43  19  41  1   
 44  20  42  1   
@<TRIPOS>SUBSTRUCTURE
  1 ****   8 GROUP 4 **** **** 0

# MOE 2024.06 (io_trps.svl 2023.06)
