@<TRIPOS>MOLECULE
NONAME
59 61 1 0 0 
SMALL
USER_CHARGES


@<TRIPOS>ATOM
  1 S       -0.5710     0.4820     1.8330 S.o2  1 <1>   1.4470 
  2 O       -0.3700    -0.8750     2.3070 O.2   1 <1>  -0.6500 
  3 O       -1.1250     1.4740     2.7250 O.2   1 <1>  -0.6500 
  4 N       -1.6690     0.3060     0.5470 N.am  1 <1>  -0.8490 
  5 C        0.9260     1.1050     1.0230 C.ar  1 <1>  -0.0090 
  6 C       -1.3870    -0.8930    -0.2700 C.3   1 <1>   0.1960 
  7 C       -3.0700     0.4170     1.0240 C.3   1 <1>   0.1960 
  8 C        0.8630     2.1370     0.0950 C.ar  1 <1>  -0.1500 
  9 C        2.1760     0.5680     1.3120 C.ar  1 <1>  -0.1500 
 10 C       -2.2260    -2.0730     0.2600 C.3   1 <1>   0.4230 
 11 C       -4.0590    -0.3370     0.1190 C.3   1 <1>  -0.1600 
 12 C        2.0020     2.6070    -0.5350 C.ar  1 <1>  -0.1500 
 13 C        3.3190     1.0340     0.6860 C.ar  1 <1>  -0.1500 
 14 N       -1.7200    -3.4740     0.0000 N.4   1 <1>  -0.9590 
 15 C       -3.7270    -1.8540    -0.0580 C.3   1 <1>   0.0000 
 16 C        3.2380     2.0550    -0.2450 C.ar  1 <1>  -0.1430 
 17 C       -2.7460    -4.5260     0.3240 C.3   1 <1>   0.3430 
 18 C       -1.1140    -3.7010    -1.3510 C.3   1 <1>   0.2630 
 19 C       -4.5120    -2.7340     0.9520 C.3   1 <1>  -0.1600 
 20 C       -4.0710    -2.2570    -1.5200 C.3   1 <1>   0.1200 
 21 C        4.4930     2.5720    -0.9320 C.3   1 <1>  -0.0170 
 22 C       -3.7630    -4.0260     1.3650 C.3   1 <1>  -0.1600 
 23 O       -5.3680    -1.8980    -1.8470 O.3   1 <1>  -0.6800 
 24 C        5.1180     3.7130    -0.1220 C.3   1 <1>  -0.1600 
 25 C        6.3870     4.2540    -0.7940 C.3   1 <1>  -0.1600 
 26 C        7.0000     5.3920     0.0260 C.3   1 <1>  -0.2400 
 27 H       -1.6490    -0.6840    -1.2920 H     1 <1>   0.0800 
 28 H       -0.3360    -1.1250    -0.2360 H     1 <1>   0.0800 
 29 H       -3.1530     0.0170     2.0230 H     1 <1>   0.0800 
 30 H       -3.3390     1.4610     1.0760 H     1 <1>   0.0800 
 31 H       -0.0900     2.5820    -0.1380 H     1 <1>   0.1500 
 32 H        2.2600    -0.2220     2.0390 H     1 <1>   0.1500 
 33 H       -2.1630    -1.9640     1.3310 H     1 <1>   0.0800 
 34 H       -5.0570    -0.2170     0.5030 H     1 <1>   0.0800 
 35 H       -4.0450     0.1650    -0.8340 H     1 <1>   0.0800 
 36 H        1.9240     3.4080    -1.2500 H     1 <1>   0.1500 
 37 H        4.2750     0.6020     0.9300 H     1 <1>   0.1500 
 38 H       -0.9650    -3.5950     0.6950 H     1 <1>   0.4500 
 39 H       -3.2820    -4.7990    -0.5700 H     1 <1>   0.0800 
 40 H       -2.2560    -5.4130     0.6930 H     1 <1>   0.0800 
 41 H       -1.8500    -3.5660    -2.1260 H     1 <1>   0.0800 
 42 H       -0.7250    -4.7040    -1.4210 H     1 <1>   0.0800 
 43 H       -0.3020    -3.0120    -1.5220 H     1 <1>   0.0800 
 44 H       -4.7030    -2.1710     1.8520 H     1 <1>   0.0800 
 45 H       -5.4760    -2.9910     0.5490 H     1 <1>   0.0800 
 46 H       -3.9840    -3.3140    -1.6870 H     1 <1>   0.0800 
 47 H       -3.4280    -1.7460    -2.2160 H     1 <1>   0.0800 
 48 H        5.2030     1.7700    -1.0380 H     1 <1>   0.0800 
 49 H        4.2460     2.9210    -1.9200 H     1 <1>   0.0800 
 50 H       -4.4820    -4.8050     1.5550 H     1 <1>   0.0800 
 51 H       -3.2410    -3.8580     2.2920 H     1 <1>   0.0800 
 52 H       -6.0330    -2.3650    -1.3050 H     1 <1>   0.4000 
 53 H        4.3980     4.5070    -0.0190 H     1 <1>   0.0800 
 54 H        5.3580     3.3550     0.8650 H     1 <1>   0.0800 
 55 H        7.1100     3.4620    -0.8950 H     1 <1>   0.0800 
 56 H        6.1490     4.6170    -1.7800 H     1 <1>   0.0800 
 57 H        7.2670     5.0470     1.0090 H     1 <1>   0.0800 
 58 H        6.3020     6.2060     0.1220 H     1 <1>   0.0800 
 59 H        7.8870     5.7590    -0.4600 H     1 <1>   0.0800 
@<TRIPOS>BOND
  1   1   2  2   
  2   1   3  2   
  3   1   4  am  
  4   1   5  1   
  5   4   6  1   
  6   4   7  1   
  7   5   8  ar  
  8   5   9  ar  
  9   6  10  1   
 10   6  27  1   
 11   6  28  1   
 12   7  11  1   
 13   7  29  1   
 14   7  30  1   
 15   8  12  ar  
 16   8  31  1   
 17   9  13  ar  
 18   9  32  1   
 19  10  14  1   
 20  10  15  1   
 21  10  33  1   
 22  11  15  1   
 23  11  34  1   
 24  11  35  1   
 25  12  16  ar  
 26  12  36  1   
 27  13  16  ar  
 28  13  37  1   
 29  14  17  1   
 30  14  18  1   
 31  14  38  1   
 32  15  19  1   
 33  15  20  1   
 34  16  21  1   
 35  17  22  1   
 36  17  39  1   
 37  17  40  1   
 38  18  41  1   
 39  18  42  1   
 40  18  43  1   
 41  19  22  1   
 42  19  44  1   
 43  19  45  1   
 44  20  23  1   
 45  20  46  1   
 46  20  47  1   
 47  21  24  1   
 48  21  48  1   
 49  21  49  1   
 50  22  50  1   
 51  22  51  1   
 52  23  52  1   
 53  24  25  1   
 54  24  53  1   
 55  24  54  1   
 56  25  26  1   
 57  25  55  1   
 58  25  56  1   
 59  26  57  1   
 60  26  58  1   
 61  26  59  1   
@<TRIPOS>SUBSTRUCTURE
  1 ****   4 GROUP 4 **** **** 0

# MOE 2024.06 (io_trps.svl 2023.06)
