@<TRIPOS>MOLECULE
NONAME
54 56 1 0 0 
SMALL
USER_CHARGES


@<TRIPOS>ATOM
  1 O        3.5480     0.6390    -1.1150 O.2   1 <1>  -0.5700 
  2 C        3.3400    -0.4630    -0.6770 C.2   1 <1>   0.5690 
  3 N        2.4530    -0.6490     0.3200 N.am  1 <1>  -0.7300 
  4 C        4.0910    -1.6490    -1.2270 C.3   1 <1>  -0.0990 
  5 C        1.8930    -1.9400     0.7790 C.3   1 <1>   0.1400 
  6 C        3.2490    -2.9400    -1.2360 C.3   1 <1>  -0.0800 
  7 C        2.5430    -3.1700     0.1110 C.3   1 <1>  -0.0800 
  8 C        4.1540    -4.1750    -1.4140 C.3   1 <1>  -0.1600 
  9 C        3.6000    -3.8820     0.9560 C.3   1 <1>  -0.1600 
 10 C        4.2260    -4.8590    -0.0380 C.3   1 <1>   0.2200 
 11 N        5.5670    -5.3610     0.3870 N.am  1 <1>  -0.6600 
 12 C        6.7800    -4.8190     0.0090 C.2   1 <1>   0.5440 
 13 C        5.5410    -6.7570     0.9060 C.3   1 <1>   0.0600 
 14 O        7.6430    -5.5680    -0.4110 O.2   1 <1>  -0.5700 
 15 C        7.0660    -3.4050     0.1180 C.ar  1 <1>   0.0860 
 16 C        7.5090    -2.6740    -0.9840 C.ar  1 <1>  -0.1500 
 17 C        6.9250    -2.7310     1.3310 C.ar  1 <1>  -0.1500 
 18 C        7.7560    -1.3170    -0.8940 C.ar  1 <1>   0.0830 
 19 C        7.1670    -1.3730     1.4340 C.ar  1 <1>  -0.1500 
 20 O        8.1700    -0.6740    -2.0120 O.3   1 <1>  -0.3630 
 21 C        7.5600    -0.6530     0.3200 C.ar  1 <1>   0.0830 
 22 C        9.4990    -0.2020    -1.9990 C.3   1 <1>   0.0400 
 23 O        7.7350     0.6800     0.4490 O.3   1 <1>  -0.3630 
 24 C        6.7420     1.5110    -0.1100 C.3   1 <1>   0.2000 
 25 C        7.4270     2.7760    -0.6180 C.3   1 <1>  -0.2400 
 26 C        5.7200     1.8280     0.9820 C.3   1 <1>  -0.2400 
 27 H        1.9960     0.1980     0.6640 H     1 <1>   0.3700 
 28 H        4.4330    -1.4230    -2.2210 H     1 <1>   0.0800 
 29 H        4.9500    -1.7720    -0.6020 H     1 <1>   0.0800 
 30 H        1.9900    -2.0100     1.8490 H     1 <1>   0.0800 
 31 H        0.8420    -1.9400     0.5450 H     1 <1>   0.0800 
 32 H        2.5220    -2.8740    -2.0280 H     1 <1>   0.0800 
 33 H        1.7530    -3.8850    -0.0530 H     1 <1>   0.0800 
 34 H        5.1160    -3.9060    -1.8070 H     1 <1>   0.0800 
 35 H        3.6950    -4.8550    -2.1100 H     1 <1>   0.0800 
 36 H        3.1650    -4.3980     1.7920 H     1 <1>   0.0800 
 37 H        4.3220    -3.1690     1.3040 H     1 <1>   0.0800 
 38 H        3.5610    -5.7060    -0.0950 H     1 <1>   0.0800 
 39 H        4.8160    -6.8440     1.6960 H     1 <1>   0.0800 
 40 H        6.5080    -7.0280     1.2960 H     1 <1>   0.0800 
 41 H        5.2900    -7.4350     0.1100 H     1 <1>   0.0800 
 42 H        7.6600    -3.1770    -1.9220 H     1 <1>   0.1500 
 43 H        6.6180    -3.2860     2.2000 H     1 <1>   0.1500 
 44 H        7.0460    -0.8620     2.3730 H     1 <1>   0.1500 
 45 H        9.7060     0.2440    -2.9550 H     1 <1>   0.0800 
 46 H       10.1600    -1.0340    -1.8280 H     1 <1>   0.0800 
 47 H        9.6110     0.5300    -1.2200 H     1 <1>   0.0800 
 48 H        6.2690     0.9950    -0.9310 H     1 <1>   0.0800 
 49 H        7.9350     3.2770     0.1850 H     1 <1>   0.0800 
 50 H        6.6940     3.4430    -1.0350 H     1 <1>   0.0800 
 51 H        8.1300     2.5250    -1.3900 H     1 <1>   0.0800 
 52 H        6.1950     2.3170     1.8130 H     1 <1>   0.0800 
 53 H        5.2460     0.9240     1.3160 H     1 <1>   0.0800 
 54 H        4.9580     2.4750     0.5860 H     1 <1>   0.0800 
@<TRIPOS>BOND
  1   1   2  2   
  2   2   3  am  
  3   2   4  1   
  4   3   5  1   
  5   3  27  1   
  6   4   6  1   
  7   4  28  1   
  8   4  29  1   
  9   5   7  1   
 10   5  30  1   
 11   5  31  1   
 12   6   7  1   
 13   6   8  1   
 14   6  32  1   
 15   7   9  1   
 16   7  33  1   
 17   8  10  1   
 18   8  34  1   
 19   8  35  1   
 20   9  10  1   
 21   9  36  1   
 22   9  37  1   
 23  10  11  1   
 24  10  38  1   
 25  11  12  am  
 26  11  13  1   
 27  12  14  2   
 28  12  15  1   
 29  13  39  1   
 30  13  40  1   
 31  13  41  1   
 32  15  16  ar  
 33  15  17  ar  
 34  16  18  ar  
 35  16  42  1   
 36  17  19  ar  
 37  17  43  1   
 38  18  20  1   
 39  18  21  ar  
 40  19  21  ar  
 41  19  44  1   
 42  20  22  1   
 43  21  23  1   
 44  22  45  1   
 45  22  46  1   
 46  22  47  1   
 47  23  24  1   
 48  24  25  1   
 49  24  26  1   
 50  24  48  1   
 51  25  49  1   
 52  25  50  1   
 53  25  51  1   
 54  26  52  1   
 55  26  53  1   
 56  26  54  1   
@<TRIPOS>SUBSTRUCTURE
  1 ****   4 GROUP 4 **** **** 0

# MOE 2024.06 (io_trps.svl 2023.06)
