@<TRIPOS>MOLECULE
NONAME
48 50 1 0 0 
SMALL
USER_CHARGES


@<TRIPOS>ATOM
  1 F        0.0470    -0.7230     0.2680 F     1 <1>  -0.1900 
  2 C       -0.6020    -1.8540     0.1520 C.ar  1 <1>   0.1900 
  3 C       -0.1210    -3.0450     0.7070 C.ar  1 <1>   0.0820 
  4 C       -1.7880    -1.8120    -0.5550 C.ar  1 <1>  -0.1500 
  5 O        1.0290    -3.2120     1.4230 O.3   1 <1>  -0.3630 
  6 C       -0.8780    -4.1910     0.5220 C.ar  1 <1>  -0.1500 
  7 C       -2.5160    -2.9760    -0.7210 C.ar  1 <1>  -0.1500 
  8 C        1.8630    -2.1380     1.7970 C.3   1 <1>   0.0400 
  9 C       -2.0830    -4.1890    -0.1860 C.ar  1 <1>   0.0530 
 10 C       -2.8260    -5.4140    -0.3680 C.2   1 <1>   0.0870 
 11 O       -2.1600    -6.5300    -0.5600 O.3   1 <1>  -0.0190 
 12 C       -4.1490    -5.7350    -0.3940 C.2   1 <1>  -0.2330 
 13 N       -2.9370    -7.5660    -0.7280 N.2   1 <1>  -0.4100 
 14 C       -4.1340    -7.1060    -0.6470 C.2   1 <1>   0.3720 
 15 C       -5.3410    -4.9660    -0.1790 C.2   1 <1>   1.0330 
 16 N       -5.2700    -7.8870    -0.7870 N.pl3 1 <1>  -0.8520 
 17 O       -5.2870    -3.7560     0.0870 O.co2 1 <1>  -0.9000 
 18 O       -6.4650    -5.5030    -0.2370 O.co2 1 <1>  -0.9000 
 19 C       -5.4000    -8.9500     0.2140 C.3   1 <1>   0.2090 
 20 C       -6.6600    -9.7530    -0.0890 C.3   1 <1>  -0.1600 
 21 C       -6.7300   -10.9950     0.8070 C.3   1 <1>   0.0960 
 22 N       -7.9150   -11.8200     0.4990 N.pl3 1 <1>   0.3140 
 23 N       -9.0160   -11.7650     1.2720 N.2   1 <1>  -0.7070 
 24 C       -8.0640   -12.7210    -0.5010 C.2   1 <1>  -0.3320 
 25 C       -9.8380   -12.6150     0.7460 C.2   1 <1>   0.1080 
 26 C       -9.2990   -13.2480    -0.3670 C.2   1 <1>  -0.1500 
 27 C       -7.0170   -13.0520    -1.5510 C.3   1 <1>  -0.0600 
 28 C      -11.2160   -12.8620     1.3120 C.3   1 <1>  -0.0590 
 29 H       -2.1410    -0.8850    -0.9680 H     1 <1>   0.1500 
 30 H       -0.5240    -5.1140     0.9430 H     1 <1>   0.1500 
 31 H       -3.4420    -2.9470    -1.2700 H     1 <1>   0.1500 
 32 H        2.6610    -2.5300     2.4000 H     1 <1>   0.0800 
 33 H        1.2870    -1.4310     2.3670 H     1 <1>   0.0800 
 34 H        2.2660    -1.6830     0.9100 H     1 <1>   0.0800 
 35 H       -6.0710    -7.2220    -0.6890 H     1 <1>   0.4000 
 36 H       -5.4580    -8.5120     1.1970 H     1 <1>   0.0800 
 37 H       -4.5310    -9.5850     0.1640 H     1 <1>   0.0800 
 38 H       -6.6390   -10.0510    -1.1220 H     1 <1>   0.0800 
 39 H       -7.5240    -9.1350     0.0820 H     1 <1>   0.0800 
 40 H       -6.7900   -10.6990     1.8380 H     1 <1>   0.0800 
 41 H       -5.8540   -11.6030     0.6760 H     1 <1>   0.0800 
 42 H       -9.7860   -13.9930    -0.9690 H     1 <1>   0.1500 
 43 H       -6.1150   -13.4020    -1.0830 H     1 <1>   0.0800 
 44 H       -6.7920   -12.1830    -2.1440 H     1 <1>   0.0800 
 45 H       -7.3820   -13.8230    -2.2060 H     1 <1>   0.0800 
 46 H      -11.7700   -11.9420     1.3100 H     1 <1>   0.0800 
 47 H      -11.1290   -13.2150     2.3230 H     1 <1>   0.0800 
 48 H      -11.7390   -13.5930     0.7250 H     1 <1>   0.0800 
@<TRIPOS>BOND
  1   1   2  1   
  2   2   3  ar  
  3   2   4  ar  
  4   3   5  1   
  5   3   6  ar  
  6   4   7  ar  
  7   4  29  1   
  8   5   8  1   
  9   6   9  ar  
 10   6  30  1   
 11   7   9  ar  
 12   7  31  1   
 13   8  32  1   
 14   8  33  1   
 15   8  34  1   
 16   9  10  1   
 17  10  11  1   
 18  10  12  2   
 19  11  13  1   
 20  12  14  1   
 21  12  15  1   
 22  13  14  2   
 23  14  16  1   
 24  15  17  ar  
 25  15  18  ar  
 26  16  19  1   
 27  16  35  1   
 28  19  20  1   
 29  19  36  1   
 30  19  37  1   
 31  20  21  1   
 32  20  38  1   
 33  20  39  1   
 34  21  22  1   
 35  21  40  1   
 36  21  41  1   
 37  22  23  1   
 38  22  24  1   
 39  23  25  2   
 40  24  26  2   
 41  24  27  1   
 42  25  26  1   
 43  25  28  1   
 44  26  42  1   
 45  27  43  1   
 46  27  44  1   
 47  27  45  1   
 48  28  46  1   
 49  28  47  1   
 50  28  48  1   
@<TRIPOS>SUBSTRUCTURE
  1 ****  14 GROUP 4 **** **** 0

# MOE 2024.06 (io_trps.svl 2023.06)
