@<TRIPOS>MOLECULE
NONAME
51 53 1 0 0 
SMALL
USER_CHARGES


@<TRIPOS>ATOM
  1 O       -0.8150    -0.0010    -3.4070 O.2   1 <1>  -0.5700 
  2 C       -1.3730     0.8250    -2.7200 C.2   1 <1>   0.5690 
  3 N       -2.4130     0.4750    -1.8860 N.am  1 <1>  -0.6600 
  4 C       -0.8630     2.2580    -2.8330 C.3   1 <1>   0.0440 
  5 C       -3.1390     1.4550    -1.0150 C.3   1 <1>   0.2200 
  6 C       -2.8060    -0.9650    -1.7790 C.3   1 <1>   0.0600 
  7 C       -0.2660     2.7870    -1.5260 C.ar  1 <1>  -0.1440 
  8 C       -2.7630     1.2980     0.4620 C.3   1 <1>  -0.1600 
  9 C       -4.6610     1.3320    -1.0840 C.3   1 <1>  -0.1600 
 10 C       -0.6590     4.0070    -0.9780 C.ar  1 <1>   0.0820 
 11 C        0.6890     2.0250    -0.8710 C.ar  1 <1>  -0.1500 
 12 C       -4.0580     1.4720     1.2760 C.3   1 <1>  -0.0800 
 13 C       -5.1560     1.8310     0.2740 C.3   1 <1>  -0.0800 
 14 O       -1.5900     4.7390    -1.6450 O.3   1 <1>  -0.3630 
 15 C       -0.1080     4.4320     0.2260 C.ar  1 <1>  -0.1500 
 16 C        1.2420     2.4540     0.3230 C.ar  1 <1>  -0.1500 
 17 C       -4.0220     2.6290     2.2770 C.3   1 <1>  -0.1600 
 18 C       -5.3430     3.3580     0.3560 C.3   1 <1>  -0.1600 
 19 C       -1.7490     6.1190    -1.3910 C.3   1 <1>   0.0400 
 20 C        0.8390     3.6630     0.8790 C.ar  1 <1>   0.0820 
 21 C       -4.4810     3.8650     1.5130 C.3   1 <1>   0.2000 
 22 O        1.3220     4.1520     2.0480 O.3   1 <1>  -0.3620 
 23 O       -3.3740     4.4980     0.9960 O.3   1 <1>  -0.6800 
 24 C        2.2720     3.4370     2.8050 C.3   1 <1>   0.0400 
 25 H       -0.0980     2.2890    -3.5870 H     1 <1>   0.0800 
 26 H       -1.6710     2.8680    -3.1860 H     1 <1>   0.0800 
 27 H       -2.9060     2.4610    -1.3090 H     1 <1>   0.0800 
 28 H       -3.1790    -1.1880    -0.7960 H     1 <1>   0.0800 
 29 H       -1.9580    -1.6010    -1.9690 H     1 <1>   0.0800 
 30 H       -3.5690    -1.1830    -2.5060 H     1 <1>   0.0800 
 31 H       -2.3470     0.3270     0.6570 H     1 <1>   0.0800 
 32 H       -2.0240     2.0320     0.7300 H     1 <1>   0.0800 
 33 H       -5.0660     1.9030    -1.9000 H     1 <1>   0.0800 
 34 H       -4.9670     0.3090    -1.1900 H     1 <1>   0.0800 
 35 H        1.0070     1.0840    -1.2900 H     1 <1>   0.1500 
 36 H       -4.2890     0.5450     1.7730 H     1 <1>   0.0800 
 37 H       -6.0810     1.3460     0.5410 H     1 <1>   0.0800 
 38 H       -0.4040     5.3550     0.6850 H     1 <1>   0.1500 
 39 H        1.9770     1.8350     0.8000 H     1 <1>   0.1500 
 40 H       -3.0630     2.7620     2.7470 H     1 <1>   0.0800 
 41 H       -4.7470     2.4290     3.0460 H     1 <1>   0.0800 
 42 H       -6.3750     3.5650     0.5780 H     1 <1>   0.0800 
 43 H       -5.0950     3.8590    -0.5650 H     1 <1>   0.0800 
 44 H       -2.4300     6.5170    -2.1210 H     1 <1>   0.0800 
 45 H       -0.7920     6.6030    -1.4790 H     1 <1>   0.0800 
 46 H       -2.1560     6.2560    -0.4060 H     1 <1>   0.0800 
 47 H       -5.0020     4.5690     2.1410 H     1 <1>   0.0800 
 48 H       -2.8630     3.8750     0.4410 H     1 <1>   0.4000 
 49 H        2.4950     4.0090     3.6870 H     1 <1>   0.0800 
 50 H        3.1630     3.3090     2.2160 H     1 <1>   0.0800 
 51 H        1.8520     2.4860     3.0830 H     1 <1>   0.0800 
@<TRIPOS>BOND
  1   1   2  2   
  2   2   3  am  
  3   2   4  1   
  4   3   5  1   
  5   3   6  1   
  6   4   7  1   
  7   4  25  1   
  8   4  26  1   
  9   5   8  1   
 10   5   9  1   
 11   5  27  1   
 12   6  28  1   
 13   6  29  1   
 14   6  30  1   
 15   7  10  ar  
 16   7  11  ar  
 17   8  12  1   
 18   8  31  1   
 19   8  32  1   
 20   9  13  1   
 21   9  33  1   
 22   9  34  1   
 23  10  14  1   
 24  10  15  ar  
 25  11  16  ar  
 26  11  35  1   
 27  12  13  1   
 28  12  17  1   
 29  12  36  1   
 30  13  18  1   
 31  13  37  1   
 32  14  19  1   
 33  15  20  ar  
 34  15  38  1   
 35  16  20  ar  
 36  16  39  1   
 37  17  21  1   
 38  17  40  1   
 39  17  41  1   
 40  18  21  1   
 41  18  42  1   
 42  18  43  1   
 43  19  44  1   
 44  19  45  1   
 45  19  46  1   
 46  20  22  1   
 47  21  23  1   
 48  21  47  1   
 49  22  24  1   
 50  23  48  1   
 51  24  49  1   
 52  24  50  1   
 53  24  51  1   
@<TRIPOS>SUBSTRUCTURE
  1 ****   8 GROUP 4 **** **** 0

# MOE 2024.06 (io_trps.svl 2023.06)
