@<TRIPOS>MOLECULE
NONAME
40 42 1 0 0 
SMALL
USER_CHARGES


@<TRIPOS>ATOM
  1 O        0.7830     0.5060    -0.6710 O.3   1 <1>  -0.6800 
  2 C        1.3970     0.1050     0.5010 C.3   1 <1>   0.2800 
  3 C        2.9470     0.1470     0.3420 C.3   1 <1>  -0.0800 
  4 C        0.9300    -1.3380     0.7680 C.3   1 <1>  -0.1600 
  5 C        0.8860     1.0390     1.6210 C.3   1 <1>  -0.1600 
  6 C        3.6040    -1.1890    -0.0400 C.3   1 <1>  -0.0800 
  7 C        3.4920     1.1300    -0.6980 C.3   1 <1>   0.2090 
  8 C        1.3490    -2.3380    -0.3320 C.3   1 <1>  -0.1600 
  9 C        1.2150     2.5320     1.4440 C.3   1 <1>  -0.2400 
 10 C        2.7010    -1.9970    -0.9870 C.3   1 <1>  -0.1600 
 11 C        4.9410    -0.8050    -0.6820 C.3   1 <1>   0.2090 
 12 N        4.8570     0.6370    -1.0230 N.pl3 1 <1>  -0.8380 
 13 C        5.9520     1.4350    -0.7230 C.ar  1 <1>   0.4100 
 14 N        5.9630     1.9360     0.5110 N.ar  1 <1>  -0.6200 
 15 C        6.9850     1.6780    -1.6600 C.ar  1 <1>   0.3830 
 16 C        7.0190     2.6850     0.7550 C.ar  1 <1>   0.1600 
 17 N        8.0490     2.4390    -1.3900 N.ar  1 <1>  -0.6200 
 18 C        6.8900     1.0710    -2.9590 C.1   1 <1>   0.4840 
 19 C        8.0280     2.9300    -0.1630 C.ar  1 <1>   0.1600 
 20 N        6.8400     0.5760    -3.9890 N.1   1 <1>  -0.5570 
 21 H       -0.1820     0.4220    -0.5730 H     1 <1>   0.4000 
 22 H        3.3730     0.4300     1.2880 H     1 <1>   0.0800 
 23 H        1.3700    -1.6580     1.6970 H     1 <1>   0.0800 
 24 H       -0.1360    -1.3730     0.9020 H     1 <1>   0.0800 
 25 H       -0.1810     0.9320     1.7050 H     1 <1>   0.0800 
 26 H        1.3050     0.7130     2.5570 H     1 <1>   0.0800 
 27 H        3.7920    -1.7800     0.8400 H     1 <1>   0.0800 
 28 H        3.5090     2.1380    -0.3230 H     1 <1>   0.0800 
 29 H        2.9110     1.1070    -1.6030 H     1 <1>   0.0800 
 30 H        1.3960    -3.3230     0.0990 H     1 <1>   0.0800 
 31 H        0.5970    -2.3580    -1.1020 H     1 <1>   0.0800 
 32 H        0.8650     2.8920     0.4920 H     1 <1>   0.0800 
 33 H        2.2750     2.7010     1.5110 H     1 <1>   0.0800 
 34 H        0.7380     3.1050     2.2190 H     1 <1>   0.0800 
 35 H        2.5200    -1.4100    -1.8720 H     1 <1>   0.0800 
 36 H        3.1930    -2.9030    -1.2930 H     1 <1>   0.0800 
 37 H        5.1310    -1.3830    -1.5700 H     1 <1>   0.0800 
 38 H        5.7430    -0.9650     0.0200 H     1 <1>   0.0800 
 39 H        7.0910     3.1280     1.7330 H     1 <1>   0.1500 
 40 H        8.8520     3.5580     0.1300 H     1 <1>   0.1500 
@<TRIPOS>BOND
  1   1   2  1   
  2   1  21  1   
  3   2   3  1   
  4   2   4  1   
  5   2   5  1   
  6   3   6  1   
  7   3   7  1   
  8   3  22  1   
  9   4   8  1   
 10   4  23  1   
 11   4  24  1   
 12   5   9  1   
 13   5  25  1   
 14   5  26  1   
 15   6  10  1   
 16   6  11  1   
 17   6  27  1   
 18   7  12  1   
 19   7  28  1   
 20   7  29  1   
 21   8  10  1   
 22   8  30  1   
 23   8  31  1   
 24   9  32  1   
 25   9  33  1   
 26   9  34  1   
 27  10  35  1   
 28  10  36  1   
 29  11  12  1   
 30  11  37  1   
 31  11  38  1   
 32  12  13  1   
 33  13  14  ar  
 34  13  15  ar  
 35  14  16  ar  
 36  15  17  ar  
 37  15  18  1   
 38  16  19  ar  
 39  16  39  1   
 40  17  19  ar  
 41  18  20  3   
 42  19  40  1   
@<TRIPOS>SUBSTRUCTURE
  1 ****  12 GROUP 4 **** **** 0

# MOE 2024.06 (io_trps.svl 2023.06)
