@<TRIPOS>MOLECULE
NONAME
41 43 1 0 0 
SMALL
USER_CHARGES


@<TRIPOS>ATOM
  1 CL      -0.1590    -1.0220     0.7170 Cl    1 <1>  -0.1770 
  2 C       -1.8430    -1.4500     0.9470 C.ar  1 <1>   0.1770 
  3 C       -2.5450    -2.2130     0.0150 C.ar  1 <1>   0.1310 
  4 C       -2.4420    -1.0130     2.1110 C.ar  1 <1>  -0.1500 
  5 N       -3.8410    -2.5320     0.2250 N.ar  1 <1>  -0.6200 
  6 C       -1.8550    -2.6850    -1.1850 C.2   1 <1>   0.9790 
  7 C       -3.7490    -1.3890     2.3170 C.ar  1 <1>  -0.1500 
  8 C       -4.4010    -2.1630     1.3650 C.ar  1 <1>   0.4100 
  9 O       -1.4720    -1.8870    -2.0630 O.co2 1 <1>  -0.9000 
 10 O       -1.6400    -3.9040    -1.3650 O.co2 1 <1>  -0.9000 
 11 N       -5.6890    -2.6120     1.6000 N.pl3 1 <1>  -0.8380 
 12 C       -6.7820    -1.8680     0.9000 C.3   1 <1>   0.2090 
 13 C       -5.8950    -4.0500     1.2740 C.3   1 <1>   0.2090 
 14 C       -7.5900    -2.8950     0.0790 C.3   1 <1>   0.2000 
 15 C       -6.6010    -4.0380    -0.0800 C.3   1 <1>  -0.0800 
 16 O       -8.7050    -3.3650     0.7900 O.3   1 <1>  -0.5600 
 17 C       -7.1340    -5.4140    -0.5000 C.3   1 <1>   0.0200 
 18 C       -9.8330    -2.5520     0.7190 C.3   1 <1>   0.0400 
 19 C       -5.9790    -6.3250    -0.8970 C.2   1 <1>  -0.0400 
 20 O       -6.1860    -7.5970    -1.1170 O.3   1 <1>  -0.0190 
 21 C       -4.6720    -6.0830    -1.0980 C.2   1 <1>  -0.1500 
 22 N       -5.0880    -8.2170    -1.4530 N.2   1 <1>  -0.4100 
 23 C       -4.1610    -7.3250    -1.4510 C.2   1 <1>   0.1080 
 24 C       -2.7060    -7.5670    -1.7850 C.3   1 <1>  -0.0590 
 25 H       -1.8970    -0.4190     2.8200 H     1 <1>   0.1500 
 26 H       -4.2810    -1.1120     3.2060 H     1 <1>   0.1500 
 27 H       -7.4020    -1.3590     1.6150 H     1 <1>   0.0800 
 28 H       -6.3440    -1.1460     0.2330 H     1 <1>   0.0800 
 29 H       -4.9640    -4.5910     1.2370 H     1 <1>   0.0800 
 30 H       -6.5260    -4.4930     2.0260 H     1 <1>   0.0800 
 31 H       -7.9080    -2.5070    -0.8730 H     1 <1>   0.0800 
 32 H       -5.8970    -3.7200    -0.8270 H     1 <1>   0.0800 
 33 H       -7.7930    -5.3070    -1.3420 H     1 <1>   0.0800 
 34 H       -7.6890    -5.8580     0.3080 H     1 <1>   0.0800 
 35 H      -10.6120    -3.0130     1.3010 H     1 <1>   0.0800 
 36 H      -10.1490    -2.4720    -0.3070 H     1 <1>   0.0800 
 37 H       -9.6070    -1.5820     1.1240 H     1 <1>   0.0800 
 38 H       -4.0930    -5.1750    -1.0280 H     1 <1>   0.1500 
 39 H       -2.1700    -6.6320    -1.8010 H     1 <1>   0.0800 
 40 H       -2.6270    -8.0300    -2.7500 H     1 <1>   0.0800 
 41 H       -2.2660    -8.2080    -1.0450 H     1 <1>   0.0800 
@<TRIPOS>BOND
  1   1   2  1   
  2   2   3  ar  
  3   2   4  ar  
  4   3   5  ar  
  5   3   6  1   
  6   4   7  ar  
  7   4  25  1   
  8   5   8  ar  
  9   6   9  ar  
 10   6  10  ar  
 11   7   8  ar  
 12   7  26  1   
 13   8  11  1   
 14  11  12  1   
 15  11  13  1   
 16  12  14  1   
 17  12  27  1   
 18  12  28  1   
 19  13  15  1   
 20  13  29  1   
 21  13  30  1   
 22  14  15  1   
 23  14  16  1   
 24  14  31  1   
 25  15  17  1   
 26  15  32  1   
 27  16  18  1   
 28  17  19  1   
 29  17  33  1   
 30  17  34  1   
 31  18  35  1   
 32  18  36  1   
 33  18  37  1   
 34  19  20  1   
 35  19  21  2   
 36  20  22  1   
 37  21  23  1   
 38  21  38  1   
 39  22  23  2   
 40  23  24  1   
 41  24  39  1   
 42  24  40  1   
 43  24  41  1   
@<TRIPOS>SUBSTRUCTURE
  1 ****   5 GROUP 4 **** **** 0

# MOE 2024.06 (io_trps.svl 2023.06)
