@<TRIPOS>MOLECULE
NONAME
42 45 1 0 0 
SMALL
USER_CHARGES


@<TRIPOS>ATOM
  1 O       -1.0680     0.3530    -1.2320 O.2   1 <1>  -0.5700 
  2 C       -1.8980     0.9040    -0.5320 C.2   1 <1>   0.5440 
  3 N       -2.8030     0.1540     0.1670 N.am  1 <1>  -0.6600 
  4 C       -1.9100     2.3460    -0.4530 C.ar  1 <1>   0.0860 
  5 C       -3.9600     0.6950     0.9350 C.3   1 <1>   0.2350 
  6 C       -2.8870    -1.3320     0.0950 C.3   1 <1>   0.2350 
  7 C       -1.2950     3.0270     0.6240 C.ar  1 <1>   0.1660 
  8 C       -2.5120     3.1030    -1.4220 C.ar  1 <1>  -0.1500 
  9 C       -5.0010    -0.4080     0.9230 C.3   1 <1>  -0.2420 
 10 C       -4.3350    -1.6650     0.4140 C.3   1 <1>  -0.2420 
 11 N       -1.2630     4.3200     0.7510 N.ar  1 <1>  -0.6200 
 12 C       -0.6130     2.2240     1.7200 C.3   1 <1>  -0.0970 
 13 C       -2.5010     4.5010    -1.3200 C.ar  1 <1>   0.0000 
 14 C       -6.0360    -0.1740     2.0250 C.2   1 <1>   0.9470 
 15 C       -5.4500    -1.0280    -0.3760 C.3   1 <1>  -0.2000 
 16 C       -4.4730    -3.1250     0.8530 C.2   1 <1>   0.9470 
 17 C       -1.8580     5.0850    -0.2060 C.ar  1 <1>   0.3100 
 18 C       -3.1020     5.3340    -2.2840 C.ar  1 <1>  -0.1500 
 19 O       -7.2310    -0.0490     1.7230 O.co2 1 <1>  -0.9000 
 20 O       -5.6400     0.0620     3.1750 O.co2 1 <1>  -0.9000 
 21 O       -3.7290    -3.5560     1.7440 O.co2 1 <1>  -0.9000 
 22 O       -5.2070    -3.8890     0.2090 O.co2 1 <1>  -0.9000 
 23 C       -1.8390     6.4940    -0.0980 C.ar  1 <1>  -0.1430 
 24 C       -3.0690     6.6940    -2.1560 C.ar  1 <1>  -0.1500 
 25 C       -2.4330     7.2770    -1.0560 C.ar  1 <1>  -0.1500 
 26 C       -1.1520     7.1510     1.0940 C.3   1 <1>  -0.0970 
 27 H       -3.6530     0.9000     1.9460 H     1 <1>   0.0800 
 28 H       -4.3560     1.5890     0.4860 H     1 <1>   0.0800 
 29 H       -2.6160    -1.6930    -0.8810 H     1 <1>   0.0800 
 30 H       -2.2330    -1.7600     0.8350 H     1 <1>   0.0800 
 31 H       -2.9920     2.6290    -2.2590 H     1 <1>   0.1500 
 32 H        0.1160     1.5600     1.2930 H     1 <1>   0.0800 
 33 H       -1.3410     1.6450     2.2590 H     1 <1>   0.0800 
 34 H       -0.1160     2.8780     2.4130 H     1 <1>   0.0800 
 35 H       -5.2280    -0.5400    -1.3050 H     1 <1>   0.1000 
 36 H       -6.4030    -1.5310    -0.3900 H     1 <1>   0.1000 
 37 H       -3.5890     4.8780    -3.1280 H     1 <1>   0.1500 
 38 H       -3.5270     7.3310    -2.8930 H     1 <1>   0.1500 
 39 H       -2.4220     8.3500    -0.9800 H     1 <1>   0.1500 
 40 H       -1.2160     8.2220     1.0420 H     1 <1>   0.0800 
 41 H       -0.1150     6.8690     1.1170 H     1 <1>   0.0800 
 42 H       -1.6160     6.8230     2.0070 H     1 <1>   0.0800 
@<TRIPOS>BOND
  1   1   2  2   
  2   2   3  am  
  3   2   4  1   
  4   3   5  1   
  5   3   6  1   
  6   4   7  ar  
  7   4   8  ar  
  8   5   9  1   
  9   5  27  1   
 10   5  28  1   
 11   6  10  1   
 12   6  29  1   
 13   6  30  1   
 14   7  11  ar  
 15   7  12  1   
 16   8  13  ar  
 17   8  31  1   
 18   9  10  1   
 19   9  14  1   
 20   9  15  1   
 21  10  15  1   
 22  10  16  1   
 23  11  17  ar  
 24  12  32  1   
 25  12  33  1   
 26  12  34  1   
 27  13  17  ar  
 28  13  18  ar  
 29  14  19  ar  
 30  14  20  ar  
 31  15  35  1   
 32  15  36  1   
 33  16  21  ar  
 34  16  22  ar  
 35  17  23  ar  
 36  18  24  ar  
 37  18  37  1   
 38  23  25  ar  
 39  23  26  1   
 40  24  25  ar  
 41  24  38  1   
 42  25  39  1   
 43  26  40  1   
 44  26  41  1   
 45  26  42  1   
@<TRIPOS>SUBSTRUCTURE
  1 ****   5 GROUP 4 **** **** 0

# MOE 2024.06 (io_trps.svl 2023.06)
