@<TRIPOS>MOLECULE
NONAME
51 54 1 0 0 
SMALL
USER_CHARGES


@<TRIPOS>ATOM
  1 O       -1.1730     1.0150    -0.8490 O.2   1 <1>  -0.5700 
  2 C       -0.7820     1.9320    -0.1730 C.2   1 <1>   0.5690 
  3 N       -1.3490     3.1550    -0.2800 N.am  1 <1>  -0.7300 
  4 C        0.3940     1.7280     0.7900 C.3   1 <1>   0.1810 
  5 C       -0.9360     4.3180     0.5410 C.3   1 <1>   0.3640 
  6 O        0.5250     2.7580     1.7480 O.3   1 <1>  -0.5600 
  7 C       -0.8570     5.5630    -0.3430 C.ar  1 <1>  -0.1440 
  8 C        0.4300     4.0730     1.2230 C.3   1 <1>   0.2610 
  9 C       -1.3230     6.7760     0.1440 C.ar  1 <1>  -0.1500 
 10 C       -0.3080     5.5170    -1.6190 C.ar  1 <1>  -0.1500 
 11 C        0.6810     5.1400     2.3020 C.2   1 <1>   0.5690 
 12 C       -1.2470     7.9220    -0.6290 C.ar  1 <1>  -0.1500 
 13 C       -0.2320     6.6620    -2.3930 C.ar  1 <1>  -0.1500 
 14 O       -0.2510     5.4800     3.0000 O.2   1 <1>  -0.5700 
 15 N        1.9120     5.7420     2.4280 N.am  1 <1>  -0.6600 
 16 C       -0.7030     7.8650    -1.8990 C.ar  1 <1>  -0.1500 
 17 C        3.1570     5.2980     1.7520 C.3   1 <1>   0.1400 
 18 C        2.0470     7.0720     3.0790 C.3   1 <1>   0.1400 
 19 C        3.4630     6.2800     0.6190 C.3   1 <1>  -0.1600 
 20 C        2.3390     8.1090     1.9890 C.3   1 <1>  -0.1600 
 21 C        3.5700     7.7220     1.1480 C.3   1 <1>   0.0630 
 22 C        3.7850     8.7060     0.0000 C.ar  1 <1>  -0.1430 
 23 C        4.9530     9.4520    -0.0680 C.ar  1 <1>  -0.1500 
 24 C        2.8260     8.8690    -0.9910 C.ar  1 <1>  -0.1500 
 25 C        5.1590    10.3440    -1.1060 C.ar  1 <1>  -0.1500 
 26 C        3.0300     9.7600    -2.0300 C.ar  1 <1>  -0.1500 
 27 C        4.1980    10.4990    -2.0890 C.ar  1 <1>  -0.1500 
 28 H       -2.1420     3.2830    -0.9100 H     1 <1>   0.3700 
 29 H        1.3070     1.6730     0.2280 H     1 <1>   0.0800 
 30 H        0.2590     0.8050     1.3220 H     1 <1>   0.0800 
 31 H       -1.6880     4.4670     1.2970 H     1 <1>   0.0800 
 32 H        1.1810     4.1670     0.4640 H     1 <1>   0.0800 
 33 H       -1.7450     6.8390     1.1350 H     1 <1>   0.1500 
 34 H        0.0630     4.5910    -2.0220 H     1 <1>   0.1500 
 35 H       -1.6110     8.8570    -0.2400 H     1 <1>   0.1500 
 36 H        0.1930     6.6170    -3.3810 H     1 <1>   0.1500 
 37 H       -0.6460     8.7560    -2.5000 H     1 <1>   0.1500 
 38 H        3.9630     5.3020     2.4670 H     1 <1>   0.0800 
 39 H        3.0650     4.2950     1.3780 H     1 <1>   0.0800 
 40 H        1.1440     7.3370     3.6030 H     1 <1>   0.0800 
 41 H        2.8500     7.0400     3.7940 H     1 <1>   0.0800 
 42 H        4.3890     6.0060     0.1450 H     1 <1>   0.0800 
 43 H        2.6840     6.2120    -0.1190 H     1 <1>   0.0800 
 44 H        1.4700     8.1910     1.3610 H     1 <1>   0.0800 
 45 H        2.5030     9.0690     2.4440 H     1 <1>   0.0800 
 46 H        4.4270     7.7640     1.7990 H     1 <1>   0.0800 
 47 H        5.7110     9.3450     0.6870 H     1 <1>   0.1500 
 48 H        1.9130     8.3020    -0.9590 H     1 <1>   0.1500 
 49 H        6.0680    10.9180    -1.1490 H     1 <1>   0.1500 
 50 H        2.2800     9.8780    -2.7920 H     1 <1>   0.1500 
 51 H        4.3580    11.1920    -2.8960 H     1 <1>   0.1500 
@<TRIPOS>BOND
  1   1   2  2   
  2   2   3  am  
  3   2   4  1   
  4   3   5  1   
  5   3  28  1   
  6   4   6  1   
  7   4  29  1   
  8   4  30  1   
  9   5   7  1   
 10   5   8  1   
 11   5  31  1   
 12   6   8  1   
 13   7   9  ar  
 14   7  10  ar  
 15   8  11  1   
 16   8  32  1   
 17   9  12  ar  
 18   9  33  1   
 19  10  13  ar  
 20  10  34  1   
 21  11  14  2   
 22  11  15  am  
 23  12  16  ar  
 24  12  35  1   
 25  13  16  ar  
 26  13  36  1   
 27  15  17  1   
 28  15  18  1   
 29  16  37  1   
 30  17  19  1   
 31  17  38  1   
 32  17  39  1   
 33  18  20  1   
 34  18  40  1   
 35  18  41  1   
 36  19  21  1   
 37  19  42  1   
 38  19  43  1   
 39  20  21  1   
 40  20  44  1   
 41  20  45  1   
 42  21  22  1   
 43  21  46  1   
 44  22  23  ar  
 45  22  24  ar  
 46  23  25  ar  
 47  23  47  1   
 48  24  26  ar  
 49  24  48  1   
 50  25  27  ar  
 51  25  49  1   
 52  26  27  ar  
 53  26  50  1   
 54  27  51  1   
@<TRIPOS>SUBSTRUCTURE
  1 ****  19 GROUP 4 **** **** 0

# MOE 2024.06 (io_trps.svl 2023.06)
