@<TRIPOS>MOLECULE
NONAME
50 51 1 0 0 
SMALL
USER_CHARGES


@<TRIPOS>ATOM
  1 S        1.6300    -0.4990    -0.4860 S.o2  1 <1>   1.3330 
  2 O        2.2750    -0.4980     0.8080 O.2   1 <1>  -0.6500 
  3 O        2.0320    -1.4680    -1.4810 O.2   1 <1>  -0.6500 
  4 N       -0.0380    -0.7170    -0.2370 N.am  1 <1>  -0.8490 
  5 C        1.7330     1.1510    -1.2000 C.3   1 <1>  -0.0550 
  6 C       -0.7550    -1.1610    -1.4390 C.3   1 <1>   0.1160 
  7 C       -0.3170    -1.6370     0.8700 C.3   1 <1>   0.1160 
  8 C        1.6630     2.3550    -0.2340 C.3   1 <1>  -0.0800 
  9 C        2.8890     2.4750     0.6750 C.3   1 <1>   0.2200 
 10 C        0.4790     2.4000     0.7390 C.3   1 <1>   0.1200 
 11 N        3.6190     3.7190     0.3500 N.am  1 <1>  -0.7300 
 12 C        2.2830     2.5490     2.0750 C.3   1 <1>   0.1200 
 13 O        0.9810     3.0000     1.8860 O.3   1 <1>  -0.5600 
 14 C        4.5600     3.8420    -0.6240 C.2   1 <1>   0.5690 
 15 O        4.8170     2.9040    -1.3440 O.2   1 <1>  -0.5700 
 16 C        5.2660     5.2060    -0.8340 C.3   1 <1>   0.2040 
 17 C        5.3030     6.0010     0.4950 C.ar  1 <1>  -0.1440 
 18 C        6.7220     5.0180    -1.3120 C.3   1 <1>  -0.2400 
 19 C        4.5140     5.9560    -1.9530 C.3   1 <1>  -0.2400 
 20 C        5.9020     5.4170     1.6080 C.ar  1 <1>  -0.1500 
 21 C        4.7610     7.2760     0.6440 C.ar  1 <1>  -0.1500 
 22 C        5.9570     6.0740     2.8240 C.ar  1 <1>  -0.1500 
 23 C        4.8130     7.9360     1.8600 C.ar  1 <1>  -0.1500 
 24 C        5.4110     7.3360     2.9520 C.ar  1 <1>  -0.1500 
 25 H        2.6660     1.2260    -1.7280 H     1 <1>   0.0800 
 26 H        0.9590     1.2570    -1.9330 H     1 <1>   0.0800 
 27 H       -1.8140    -1.1890    -1.2480 H     1 <1>   0.0800 
 28 H       -0.4260    -2.1450    -1.7320 H     1 <1>   0.0800 
 29 H       -0.5740    -0.4810    -2.2540 H     1 <1>   0.0800 
 30 H       -1.3790    -1.7480     1.0060 H     1 <1>   0.0800 
 31 H        0.0990    -1.2500     1.7860 H     1 <1>   0.0800 
 32 H        0.1190    -2.6030     0.6740 H     1 <1>   0.0800 
 33 H        1.5940     3.2390    -0.8430 H     1 <1>   0.0800 
 34 H        3.5620     1.6380     0.5970 H     1 <1>   0.0800 
 35 H        0.1280     1.4260     1.0210 H     1 <1>   0.0800 
 36 H       -0.3400     2.9890     0.3640 H     1 <1>   0.0800 
 37 H        3.4010     4.5300     0.9380 H     1 <1>   0.3700 
 38 H        2.8100     3.2200     2.7290 H     1 <1>   0.0800 
 39 H        2.2320     1.5680     2.5150 H     1 <1>   0.0800 
 40 H        7.2130     5.9700    -1.4000 H     1 <1>   0.0800 
 41 H        6.7430     4.5280    -2.2700 H     1 <1>   0.0800 
 42 H        7.2730     4.4090    -0.6200 H     1 <1>   0.0800 
 43 H        4.9930     6.8920    -2.1770 H     1 <1>   0.0800 
 44 H        3.4950     6.1370    -1.6630 H     1 <1>   0.0800 
 45 H        4.5020     5.3610    -2.8500 H     1 <1>   0.0800 
 46 H        6.3330     4.4330     1.5370 H     1 <1>   0.1500 
 47 H        4.2880     7.7870    -0.1730 H     1 <1>   0.1500 
 48 H        6.4260     5.6030     3.6710 H     1 <1>   0.1500 
 49 H        4.3880     8.9200     1.9550 H     1 <1>   0.1500 
 50 H        5.4510     7.8510     3.8970 H     1 <1>   0.1500 
@<TRIPOS>BOND
  1   1   2  2   
  2   1   3  2   
  3   1   4  am  
  4   1   5  1   
  5   4   6  1   
  6   4   7  1   
  7   5   8  1   
  8   5  25  1   
  9   5  26  1   
 10   6  27  1   
 11   6  28  1   
 12   6  29  1   
 13   7  30  1   
 14   7  31  1   
 15   7  32  1   
 16   8   9  1   
 17   8  10  1   
 18   8  33  1   
 19   9  11  1   
 20   9  12  1   
 21   9  34  1   
 22  10  13  1   
 23  10  35  1   
 24  10  36  1   
 25  11  14  am  
 26  11  37  1   
 27  12  13  1   
 28  12  38  1   
 29  12  39  1   
 30  14  15  2   
 31  14  16  1   
 32  16  17  1   
 33  16  18  1   
 34  16  19  1   
 35  17  20  ar  
 36  17  21  ar  
 37  18  40  1   
 38  18  41  1   
 39  18  42  1   
 40  19  43  1   
 41  19  44  1   
 42  19  45  1   
 43  20  22  ar  
 44  20  46  1   
 45  21  23  ar  
 46  21  47  1   
 47  22  24  ar  
 48  22  48  1   
 49  23  24  ar  
 50  23  49  1   
 51  24  50  1   
@<TRIPOS>SUBSTRUCTURE
  1 ****  11 GROUP 4 **** **** 0

# MOE 2024.06 (io_trps.svl 2023.06)
