@<TRIPOS>MOLECULE
NONAME
39 40 1 0 0 
SMALL
USER_CHARGES


@<TRIPOS>ATOM
  1 CL      -0.7700     0.8730    -2.0000 Cl    1 <1>  -0.1770 
  2 C       -0.3140     2.4380    -1.3730 C.ar  1 <1>   0.1770 
  3 C        0.3060     3.3470    -2.2070 C.ar  1 <1>  -0.1500 
  4 C       -0.5810     2.7440    -0.0490 C.ar  1 <1>  -0.1500 
  5 C        0.6510     4.5730    -1.6760 C.ar  1 <1>   0.1900 
  6 C       -0.2230     3.9840     0.4580 C.ar  1 <1>  -0.1500 
  7 F        1.2400     5.4370    -2.4670 F     1 <1>  -0.1900 
  8 C        0.4070     4.9320    -0.3480 C.ar  1 <1>   0.1170 
  9 N        0.7890     6.2050     0.1190 N.am  1 <1>  -0.5470 
 10 C        0.8760     6.7610     1.3630 C.2   1 <1>   0.5690 
 11 O        0.6020     6.1830     2.3860 O.2   1 <1>  -0.5700 
 12 C        1.3580     8.2120     1.4330 C.3   1 <1>   0.1710 
 13 N        2.1250     8.6610     0.2280 N.3   1 <1>  -0.8100 
 14 C        2.1750    10.1350     0.1670 C.3   1 <1>   0.1100 
 15 C        3.4800     8.0730     0.2360 C.3   1 <1>   0.0300 
 16 C        2.5500    10.6300    -1.2320 C.3   1 <1>   0.0200 
 17 C        2.4560    12.1400    -1.4280 C.2   1 <1>  -0.1400 
 18 S        2.7460    12.6360    -3.0760 S.3   1 <1>  -0.0800 
 19 C        2.2100    13.2490    -0.6960 C.2   1 <1>   0.0460 
 20 C        2.4980    14.2960    -2.6080 C.2   1 <1>   0.2280 
 21 N        2.2350    14.4560    -1.3760 N.2   1 <1>  -0.5650 
 22 C        1.9050    13.4030     0.7820 C.3   1 <1>  -0.0590 
 23 H        0.5100     3.1060    -3.2330 H     1 <1>   0.1500 
 24 H       -1.0660     2.0170     0.5780 H     1 <1>   0.1500 
 25 H       -0.4410     4.2080     1.4870 H     1 <1>   0.1500 
 26 H        1.1510     6.8470    -0.5980 H     1 <1>   0.3700 
 27 H        1.9550     8.3380     2.3190 H     1 <1>   0.0800 
 28 H        0.4770     8.8180     1.5440 H     1 <1>   0.0800 
 29 H        2.8760    10.5090     0.8930 H     1 <1>   0.0800 
 30 H        1.1980    10.5270     0.3950 H     1 <1>   0.0800 
 31 H        3.4260     7.0020     0.3260 H     1 <1>   0.0800 
 32 H        4.0550     8.4590     1.0610 H     1 <1>   0.0800 
 33 H        3.9920     8.2980    -0.6830 H     1 <1>   0.0800 
 34 H        1.8920    10.1600    -1.9410 H     1 <1>   0.0800 
 35 H        3.5560    10.3330    -1.4620 H     1 <1>   0.0800 
 36 H        2.5840    15.0430    -3.3770 H     1 <1>   0.1500 
 37 H        1.9480    12.4780     1.3150 H     1 <1>   0.0800 
 38 H        0.9220    13.8230     0.8990 H     1 <1>   0.0800 
 39 H        2.6160    14.0790     1.2200 H     1 <1>   0.0800 
@<TRIPOS>BOND
  1   1   2  1   
  2   2   3  ar  
  3   2   4  ar  
  4   3   5  ar  
  5   3  23  1   
  6   4   6  ar  
  7   4  24  1   
  8   5   7  1   
  9   5   8  ar  
 10   6   8  ar  
 11   6  25  1   
 12   8   9  1   
 13   9  10  am  
 14   9  26  1   
 15  10  11  2   
 16  10  12  1   
 17  12  13  1   
 18  12  27  1   
 19  12  28  1   
 20  13  14  1   
 21  13  15  1   
 22  14  16  1   
 23  14  29  1   
 24  14  30  1   
 25  15  31  1   
 26  15  32  1   
 27  15  33  1   
 28  16  17  1   
 29  16  34  1   
 30  16  35  1   
 31  17  18  1   
 32  17  19  2   
 33  18  20  1   
 34  19  21  1   
 35  19  22  1   
 36  20  21  2   
 37  20  36  1   
 38  22  37  1   
 39  22  38  1   
 40  22  39  1   
@<TRIPOS>SUBSTRUCTURE
  1 ****  13 GROUP 4 **** **** 0

# MOE 2024.06 (io_trps.svl 2023.06)
