@<TRIPOS>MOLECULE
NONAME
51 54 1 0 0 
SMALL
USER_CHARGES


@<TRIPOS>ATOM
  1 O       -1.9550     0.6660     3.0700 O.2   1 <1>  -0.5700 
  2 C       -2.3170     1.1680     2.0340 C.2   1 <1>   0.5690 
  3 N       -2.8420     0.4210     1.0180 N.am  1 <1>  -0.6600 
  4 C       -2.1440     2.6610     1.8750 C.3   1 <1>  -0.0990 
  5 C       -3.2500     0.9040    -0.3310 C.3   1 <1>   0.1400 
  6 C       -2.9840    -1.0530     1.0990 C.3   1 <1>   0.1400 
  7 C       -0.8830     2.9570     1.0540 C.3   1 <1>   0.0960 
  8 C       -4.0530    -0.2550    -0.9180 C.3   1 <1>   0.2000 
  9 C       -3.3820    -1.4970    -0.3160 C.3   1 <1>  -0.0800 
 10 N       -1.1510     4.0090     0.0570 N.pl3 1 <1>   0.3140 
 11 O       -5.3560    -0.1570    -0.4500 O.3   1 <1>  -0.6800 
 12 C       -4.2480    -2.7750    -0.3580 C.3   1 <1>  -0.0160 
 13 N       -1.7430     3.7090    -1.1160 N.2   1 <1>  -0.7070 
 14 C       -0.8990     5.3350     0.1560 C.2   1 <1>  -0.3320 
 15 C       -3.5760    -4.0790     0.0900 C.ar  1 <1>  -0.1440 
 16 C       -1.8470     4.8450    -1.7350 C.2   1 <1>   0.1390 
 17 C       -1.3370     5.8990    -0.9890 C.2   1 <1>  -0.1500 
 18 C       -0.2500     6.0170     1.3490 C.3   1 <1>  -0.0600 
 19 C       -4.3610    -5.2470     0.2620 C.ar  1 <1>   0.0000 
 20 C       -2.2350    -4.1970     0.3310 C.ar  1 <1>  -0.1500 
 21 C       -3.7100    -6.4310     0.6900 C.ar  1 <1>   0.3100 
 22 C       -5.7560    -5.3140     0.0270 C.ar  1 <1>  -0.1500 
 23 C       -1.6910    -5.4180     0.7460 C.ar  1 <1>   0.1600 
 24 N       -2.3780    -6.4990     0.9280 N.ar  1 <1>  -0.6200 
 25 C       -4.4680    -7.5990     0.8750 C.ar  1 <1>  -0.1500 
 26 C       -6.4650    -6.4690     0.2150 C.ar  1 <1>  -0.1500 
 27 C       -5.8170    -7.6270     0.6470 C.ar  1 <1>  -0.1500 
 28 H       -3.0210     3.0690     1.4080 H     1 <1>   0.0800 
 29 H       -2.0520     3.1080     2.8480 H     1 <1>   0.0800 
 30 H       -3.8310     1.8090    -0.2900 H     1 <1>   0.0800 
 31 H       -2.3690     1.0720    -0.9260 H     1 <1>   0.0800 
 32 H       -2.0600    -1.5030     1.4200 H     1 <1>   0.0800 
 33 H       -3.7570    -1.2920     1.8100 H     1 <1>   0.0800 
 34 H       -0.5690     2.0800     0.5170 H     1 <1>   0.0800 
 35 H       -0.0780     3.2620     1.6950 H     1 <1>   0.0800 
 36 H       -4.0720    -0.2530    -1.9940 H     1 <1>   0.0800 
 37 H       -2.4840    -1.6670    -0.8820 H     1 <1>   0.0800 
 38 H       -5.3280     0.0320     0.5100 H     1 <1>   0.4000 
 39 H       -4.6010    -2.9110    -1.3650 H     1 <1>   0.0800 
 40 H       -5.1090    -2.6120     0.2660 H     1 <1>   0.0800 
 41 H       -2.2800     4.9500    -2.7160 H     1 <1>   0.1500 
 42 H       -1.3130     6.9310    -1.2900 H     1 <1>   0.1500 
 43 H       -0.1850     7.0770     1.1790 H     1 <1>   0.0800 
 44 H        0.7440     5.6350     1.5010 H     1 <1>   0.0800 
 45 H       -0.8320     5.8490     2.2380 H     1 <1>   0.0800 
 46 H       -1.5480    -3.3830     0.2140 H     1 <1>   0.1500 
 47 H       -6.2800    -4.4400    -0.3110 H     1 <1>   0.1500 
 48 H       -0.6300    -5.4590     0.9270 H     1 <1>   0.1500 
 49 H       -3.9460    -8.4780     1.2050 H     1 <1>   0.1500 
 50 H       -7.5260    -6.5010     0.0330 H     1 <1>   0.1500 
 51 H       -6.3850    -8.5300     0.7930 H     1 <1>   0.1500 
@<TRIPOS>BOND
  1   1   2  2   
  2   2   3  am  
  3   2   4  1   
  4   3   5  1   
  5   3   6  1   
  6   4   7  1   
  7   4  28  1   
  8   4  29  1   
  9   5   8  1   
 10   5  30  1   
 11   5  31  1   
 12   6   9  1   
 13   6  32  1   
 14   6  33  1   
 15   7  10  1   
 16   7  34  1   
 17   7  35  1   
 18   8   9  1   
 19   8  11  1   
 20   8  36  1   
 21   9  12  1   
 22   9  37  1   
 23  10  13  1   
 24  10  14  1   
 25  11  38  1   
 26  12  15  1   
 27  12  39  1   
 28  12  40  1   
 29  13  16  2   
 30  14  17  2   
 31  14  18  1   
 32  15  19  ar  
 33  15  20  ar  
 34  16  17  1   
 35  16  41  1   
 36  17  42  1   
 37  18  43  1   
 38  18  44  1   
 39  18  45  1   
 40  19  21  ar  
 41  19  22  ar  
 42  20  23  ar  
 43  20  46  1   
 44  21  24  ar  
 45  21  25  ar  
 46  22  26  ar  
 47  22  47  1   
 48  23  24  ar  
 49  23  48  1   
 50  25  27  ar  
 51  25  49  1   
 52  26  27  ar  
 53  26  50  1   
 54  27  51  1   
@<TRIPOS>SUBSTRUCTURE
  1 ****   6 GROUP 4 **** **** 0

# MOE 2024.06 (io_trps.svl 2023.06)
