@<TRIPOS>MOLECULE
NONAME
46 49 1 0 0 
SMALL
USER_CHARGES


@<TRIPOS>ATOM
  1 O        0.2400     0.3510     0.5380 O.3   1 <1>  -0.6800 
  2 C        1.2150    -0.0160    -0.3820 C.3   1 <1>   0.2000 
  3 C        1.7220    -1.4050     0.0040 C.3   1 <1>  -0.0800 
  4 C        2.4400     0.8910    -0.1750 C.3   1 <1>   0.3430 
  5 C        2.6330    -1.0610     1.1850 C.3   1 <1>   0.3430 
  6 C        2.4620    -2.0710    -1.1860 C.3   1 <1>   0.0210 
  7 N        3.3680     0.1420     0.7320 N.4   1 <1>  -0.9590 
  8 C        3.7950    -2.6990    -0.8220 C.2   1 <1>   0.1080 
  9 C        3.9390     0.9580     1.8310 C.3   1 <1>   0.4860 
 10 N        4.8670    -1.9960    -0.6030 N.2   1 <1>  -0.7070 
 11 C        4.0230    -4.0640    -0.6950 C.2   1 <1>  -0.1500 
 12 C        4.5530     2.2170     1.2550 C.ar  1 <1>  -0.1440 
 13 N        5.8280    -2.9170    -0.3590 N.pl3 1 <1>   0.3000 
 14 C        5.3330    -4.1710    -0.3970 C.2   1 <1>  -0.3320 
 15 C        5.7130     2.1270     0.4750 C.ar  1 <1>   0.0000 
 16 C        3.9830     3.4540     1.4710 C.ar  1 <1>  -0.1500 
 17 C        6.1620    -5.4210    -0.1550 C.3   1 <1>  -0.0600 
 18 C        6.2560     3.2800    -0.0830 C.ar  1 <1>  -0.1520 
 19 C        6.5500     1.0630     0.0690 C.2   1 <1>  -0.1500 
 20 C        4.5430     4.6080     0.9120 C.ar  1 <1>  -0.1500 
 21 N        7.3690     2.9320    -0.8050 N.pl3 1 <1>   0.0330 
 22 C        5.6740     4.5300     0.1350 C.ar  1 <1>  -0.1500 
 23 C        7.5330     1.5800    -0.7030 C.2   1 <1>  -0.3020 
 24 H       -0.6250    -0.0590     0.3240 H     1 <1>   0.4000 
 25 H        0.8020     0.0580    -1.3740 H     1 <1>   0.0800 
 26 H        0.9250    -2.0510     0.3270 H     1 <1>   0.0800 
 27 H        2.1330     1.8300     0.2550 H     1 <1>   0.0800 
 28 H        2.9340     1.0760    -1.1140 H     1 <1>   0.0800 
 29 H        3.3030    -1.8680     1.4350 H     1 <1>   0.0800 
 30 H        2.0250    -0.8170     2.0410 H     1 <1>   0.0800 
 31 H        2.6630    -1.3530    -1.9620 H     1 <1>   0.0800 
 32 H        1.8280    -2.8230    -1.6210 H     1 <1>   0.0800 
 33 H        4.1510    -0.2230     0.1500 H     1 <1>   0.4500 
 34 H        3.1630     1.2260     2.5280 H     1 <1>   0.0800 
 35 H        4.6940     0.3960     2.3560 H     1 <1>   0.0800 
 36 H        3.2980    -4.8500    -0.8220 H     1 <1>   0.1500 
 37 H        6.8110    -2.6700    -0.1860 H     1 <1>   0.2700 
 38 H        3.0950     3.5620     2.0720 H     1 <1>   0.1500 
 39 H        5.5450    -6.2980    -0.2440 H     1 <1>   0.0800 
 40 H        6.5880    -5.4030     0.8330 H     1 <1>   0.0800 
 41 H        6.9550    -5.4880    -0.8780 H     1 <1>   0.0800 
 42 H        6.4130     0.0330     0.3400 H     1 <1>   0.1500 
 43 H        4.0790     5.5620     1.0980 H     1 <1>   0.1500 
 44 H        7.9680     3.5840    -1.3230 H     1 <1>   0.2700 
 45 H        6.1100     5.4130    -0.3000 H     1 <1>   0.1500 
 46 H        8.3480     1.0710    -1.1880 H     1 <1>   0.1500 
@<TRIPOS>BOND
  1   1   2  1   
  2   1  24  1   
  3   2   3  1   
  4   2   4  1   
  5   2  25  1   
  6   3   5  1   
  7   3   6  1   
  8   3  26  1   
  9   4   7  1   
 10   4  27  1   
 11   4  28  1   
 12   5   7  1   
 13   5  29  1   
 14   5  30  1   
 15   6   8  1   
 16   6  31  1   
 17   6  32  1   
 18   7   9  1   
 19   7  33  1   
 20   8  10  2   
 21   8  11  1   
 22   9  12  1   
 23   9  34  1   
 24   9  35  1   
 25  10  13  1   
 26  11  14  2   
 27  11  36  1   
 28  12  15  ar  
 29  12  16  ar  
 30  13  14  1   
 31  13  37  1   
 32  14  17  1   
 33  15  18  ar  
 34  15  19  1   
 35  16  20  ar  
 36  16  38  1   
 37  17  39  1   
 38  17  40  1   
 39  17  41  1   
 40  18  21  1   
 41  18  22  ar  
 42  19  23  2   
 43  19  42  1   
 44  20  22  ar  
 45  20  43  1   
 46  21  23  1   
 47  21  44  1   
 48  22  45  1   
 49  23  46  1   
@<TRIPOS>SUBSTRUCTURE
  1 ****   7 GROUP 4 **** **** 0

# MOE 2024.06 (io_trps.svl 2023.06)
