@<TRIPOS>MOLECULE
NONAME
57 61 1 0 0 
SMALL
USER_CHARGES


@<TRIPOS>ATOM
  1 O       -0.1810     0.5070    -1.0580 O.2   1 <1>  -0.5700 
  2 C       -0.8300     1.2080    -0.3180 C.2   1 <1>   0.6300 
  3 N       -2.1580     0.9580    -0.0610 N.am  1 <1>  -0.6600 
  4 C       -0.1240     2.3880     0.3450 C.3   1 <1>  -0.1000 
  5 C       -2.8470    -0.2100    -0.6920 C.3   1 <1>   0.1400 
  6 C       -2.9970     1.7930     0.8450 C.3   1 <1>   0.1400 
  7 C       -0.4180     3.8020    -0.0970 C.3   1 <1>  -0.1950 
  8 C        0.9100     3.1990    -0.3960 C.3   1 <1>  -0.1950 
  9 C       -4.0570     0.2090    -1.5410 C.3   1 <1>   0.1400 
 10 C       -3.8770     2.7330     0.0130 C.3   1 <1>  -0.1600 
 11 C       -0.0810     5.1040     0.6550 C.3   1 <1>   0.0150 
 12 C        1.9210     4.1950     0.2030 C.3   1 <1>   0.0150 
 13 N       -5.1930     0.6760    -0.6820 N.am  1 <1>  -0.6600 
 14 C       -5.2340     2.1410    -0.3930 C.3   1 <1>   0.1400 
 15 C        1.1800     4.7290     1.4240 C.3   1 <1>  -0.1600 
 16 C        0.5130     6.0700    -0.3870 C.3   1 <1>  -0.1600 
 17 C        1.8930     5.4420    -0.7000 C.3   1 <1>  -0.1600 
 18 C       -6.1720    -0.1540    -0.1920 C.2   1 <1>   0.5690 
 19 O       -7.0730     0.2620     0.4980 O.2   1 <1>  -0.5700 
 20 C       -6.1420    -1.6420    -0.4980 C.3   1 <1>  -0.0990 
 21 C       -7.3140    -2.4030     0.1400 C.3   1 <1>   0.0960 
 22 N       -7.1800    -3.8570    -0.0800 N.pl3 1 <1>   0.3140 
 23 N       -6.9180    -4.3850    -1.2910 N.2   1 <1>  -0.7070 
 24 C       -7.2900    -4.8190     0.8580 C.2   1 <1>  -0.3020 
 25 C       -6.8700    -5.6670    -1.0920 C.2   1 <1>   0.1390 
 26 C       -7.0960    -6.0010     0.2390 C.2   1 <1>  -0.1810 
 27 C       -7.1150    -7.3940     0.8330 C.3   1 <1>  -0.0590 
 28 H        0.0680     2.1740     1.3780 H     1 <1>   0.1000 
 29 H       -2.1620    -0.7390    -1.3310 H     1 <1>   0.0800 
 30 H       -3.1580    -0.8940     0.0760 H     1 <1>   0.0800 
 31 H       -3.6050     1.1610     1.4710 H     1 <1>   0.0800 
 32 H       -2.3710     2.3780     1.4950 H     1 <1>   0.0800 
 33 H       -1.0980     3.9400    -0.9190 H     1 <1>   0.1000 
 34 H        1.1360     2.8980    -1.4060 H     1 <1>   0.1000 
 35 H       -4.3700    -0.6290    -2.1370 H     1 <1>   0.0800 
 36 H       -3.7640     0.9860    -2.2250 H     1 <1>   0.0800 
 37 H       -4.0730     3.6170     0.5920 H     1 <1>   0.0800 
 38 H       -3.3430     3.0520    -0.8640 H     1 <1>   0.0800 
 39 H       -0.8850     5.5060     1.2470 H     1 <1>   0.0800 
 40 H        2.8980     3.7850     0.3920 H     1 <1>   0.0800 
 41 H       -5.6070     2.6590    -1.2600 H     1 <1>   0.0800 
 42 H       -5.9280     2.3270     0.4100 H     1 <1>   0.0800 
 43 H        1.0160     3.9870     2.1840 H     1 <1>   0.0800 
 44 H        1.6680     5.5830     1.8630 H     1 <1>   0.0800 
 45 H       -0.1050     6.1390    -1.2660 H     1 <1>   0.0800 
 46 H        0.6360     7.0510     0.0380 H     1 <1>   0.0800 
 47 H        2.6840     6.1200    -0.4290 H     1 <1>   0.0800 
 48 H        1.9890     5.1810    -1.7400 H     1 <1>   0.0800 
 49 H       -6.1910    -1.7730    -1.5630 H     1 <1>   0.0800 
 50 H       -5.2210    -2.0520    -0.1320 H     1 <1>   0.0800 
 51 H       -8.2430    -2.0790    -0.2920 H     1 <1>   0.0800 
 52 H       -7.3430    -2.2180     1.1980 H     1 <1>   0.0800 
 53 H       -7.4970    -4.6130     1.8910 H     1 <1>   0.1500 
 54 H       -6.6780    -6.3800    -1.8760 H     1 <1>   0.1500 
 55 H       -6.1640    -7.8710     0.6820 H     1 <1>   0.0800 
 56 H       -7.8820    -7.9830     0.3620 H     1 <1>   0.0800 
 57 H       -7.3150    -7.3440     1.8880 H     1 <1>   0.0800 
@<TRIPOS>BOND
  1   1   2  2   
  2   2   3  am  
  3   2   4  1   
  4   3   5  1   
  5   3   6  1   
  6   4   7  1   
  7   4   8  1   
  8   4  28  1   
  9   5   9  1   
 10   5  29  1   
 11   5  30  1   
 12   6  10  1   
 13   6  31  1   
 14   6  32  1   
 15   7   8  1   
 16   7  11  1   
 17   7  33  1   
 18   8  12  1   
 19   8  34  1   
 20   9  13  1   
 21   9  35  1   
 22   9  36  1   
 23  10  14  1   
 24  10  37  1   
 25  10  38  1   
 26  11  15  1   
 27  11  16  1   
 28  11  39  1   
 29  12  15  1   
 30  12  17  1   
 31  12  40  1   
 32  13  14  1   
 33  13  18  am  
 34  14  41  1   
 35  14  42  1   
 36  15  43  1   
 37  15  44  1   
 38  16  17  1   
 39  16  45  1   
 40  16  46  1   
 41  17  47  1   
 42  17  48  1   
 43  18  19  2   
 44  18  20  1   
 45  20  21  1   
 46  20  49  1   
 47  20  50  1   
 48  21  22  1   
 49  21  51  1   
 50  21  52  1   
 51  22  23  1   
 52  22  24  1   
 53  23  25  2   
 54  24  26  2   
 55  24  53  1   
 56  25  26  1   
 57  25  54  1   
 58  26  27  1   
 59  27  55  1   
 60  27  56  1   
 61  27  57  1   
@<TRIPOS>SUBSTRUCTURE
  1 ****   5 GROUP 4 **** **** 0

# MOE 2024.06 (io_trps.svl 2023.06)
