@<TRIPOS>MOLECULE
NONAME
49 51 1 0 0 
SMALL
USER_CHARGES


@<TRIPOS>ATOM
  1 O        3.7030    -1.3840    -2.0570 O.2   1 <1>  -0.5700 
  2 C        2.8980    -1.3960    -1.1420 C.2   1 <1>   0.7160 
  3 N        2.8790    -0.2840    -0.3410 N.am  1 <1>  -0.6600 
  4 C        2.1370    -2.5770    -0.8210 C.2   1 <1>  -0.0860 
  5 C        3.5000    -0.4410     1.0190 C.3   1 <1>   0.2200 
  6 C        2.8570     1.0700    -0.9790 C.3   1 <1>   0.1400 
  7 C        1.0240    -2.8070    -0.0590 C.2   1 <1>  -0.3320 
  8 C        2.4740    -3.8490    -1.2860 C.2   1 <1>   0.1390 
  9 C        3.0560     0.6400     2.0170 C.3   1 <1>   0.1200 
 10 C        5.0470    -0.4950     0.9110 C.3   1 <1>   0.3430 
 11 C        3.9380     2.0460    -0.4750 C.3   1 <1>  -0.0800 
 12 N        0.7810    -4.1350    -0.0940 N.pl3 1 <1>   0.3140 
 13 C        0.1440    -1.8180     0.6950 C.3   1 <1>  -0.0600 
 14 N        1.6880    -4.7750    -0.8470 N.2   1 <1>  -0.7070 
 15 O        3.8790     1.7630     1.9240 O.3   1 <1>  -0.5600 
 16 N        5.5710     0.0600    -0.3910 N.4   1 <1>  -0.9590 
 17 C        3.5830     2.6460     0.8950 C.3   1 <1>   0.1200 
 18 C        5.3970     1.5410    -0.5330 C.3   1 <1>   0.3430 
 19 C       -0.3170    -4.8840     0.5560 C.3   1 <1>   0.0960 
 20 C        6.9820    -0.3500    -0.6320 C.3   1 <1>   0.2630 
 21 C       -1.5340    -4.9910    -0.3740 C.3   1 <1>  -0.1600 
 22 C       -2.6880    -5.7400     0.3000 C.3   1 <1>  -0.2400 
 23 H        3.1660    -1.3800     1.4270 H     1 <1>   0.0800 
 24 H        2.9640     0.9610    -2.0470 H     1 <1>   0.0800 
 25 H        1.8850     1.5040    -0.8140 H     1 <1>   0.0800 
 26 H        3.3070    -4.0470    -1.9410 H     1 <1>   0.1500 
 27 H        3.1710     0.2630     3.0190 H     1 <1>   0.0800 
 28 H        2.0250     0.9180     1.8800 H     1 <1>   0.0800 
 29 H        5.3440    -1.5270     0.9930 H     1 <1>   0.0800 
 30 H        5.4850     0.0330     1.7420 H     1 <1>   0.0800 
 31 H        3.8970     2.8850    -1.1460 H     1 <1>   0.0800 
 32 H        0.4100    -0.8040     0.4620 H     1 <1>   0.0800 
 33 H        0.2410    -1.9660     1.7560 H     1 <1>   0.0800 
 34 H       -0.8870    -1.9550     0.4210 H     1 <1>   0.0800 
 35 H        4.9750    -0.3750    -1.1300 H     1 <1>   0.4500 
 36 H        2.5440     2.9230     0.9550 H     1 <1>   0.0800 
 37 H        4.1720     3.5310     1.0690 H     1 <1>   0.0800 
 38 H        5.9680     2.0440     0.2310 H     1 <1>   0.0800 
 39 H        5.8060     1.8350    -1.4860 H     1 <1>   0.0800 
 40 H        0.0470    -5.8670     0.7950 H     1 <1>   0.0800 
 41 H       -0.5840    -4.3880     1.4690 H     1 <1>   0.0800 
 42 H        7.6290     0.0710     0.1200 H     1 <1>   0.0800 
 43 H        7.3090    -0.0100    -1.6020 H     1 <1>   0.0800 
 44 H        7.0680    -1.4250    -0.6030 H     1 <1>   0.0800 
 45 H       -1.8660    -4.0060    -0.6530 H     1 <1>   0.0800 
 46 H       -1.2460    -5.5170    -1.2700 H     1 <1>   0.0800 
 47 H       -3.0080    -5.2250     1.1890 H     1 <1>   0.0800 
 48 H       -2.3850    -6.7380     0.5660 H     1 <1>   0.0800 
 49 H       -3.5240    -5.8080    -0.3740 H     1 <1>   0.0800 
@<TRIPOS>BOND
  1   1   2  2   
  2   2   3  am  
  3   2   4  1   
  4   3   5  1   
  5   3   6  1   
  6   4   7  2   
  7   4   8  1   
  8   5   9  1   
  9   5  10  1   
 10   5  23  1   
 11   6  11  1   
 12   6  24  1   
 13   6  25  1   
 14   7  12  1   
 15   7  13  1   
 16   8  14  2   
 17   8  26  1   
 18   9  15  1   
 19   9  27  1   
 20   9  28  1   
 21  10  16  1   
 22  10  29  1   
 23  10  30  1   
 24  11  17  1   
 25  11  18  1   
 26  11  31  1   
 27  12  14  1   
 28  12  19  1   
 29  13  32  1   
 30  13  33  1   
 31  13  34  1   
 32  15  17  1   
 33  16  18  1   
 34  16  20  1   
 35  16  35  1   
 36  17  36  1   
 37  17  37  1   
 38  18  38  1   
 39  18  39  1   
 40  19  21  1   
 41  19  40  1   
 42  19  41  1   
 43  20  42  1   
 44  20  43  1   
 45  20  44  1   
 46  21  22  1   
 47  21  45  1   
 48  21  46  1   
 49  22  47  1   
 50  22  48  1   
 51  22  49  1   
@<TRIPOS>SUBSTRUCTURE
  1 ****   2 GROUP 4 **** **** 0

# MOE 2024.06 (io_trps.svl 2023.06)
