@<TRIPOS>MOLECULE
NONAME
51 53 1 0 0 
SMALL
USER_CHARGES


@<TRIPOS>ATOM
  1 O       -0.5840    -0.2540    -0.3000 O.2   1 <1>  -0.5700 
  2 C       -1.5060     0.5310    -0.4080 C.2   1 <1>   0.7160 
  3 N       -2.6710     0.0790    -0.9460 N.am  1 <1>  -0.7300 
  4 C       -1.3990     1.8900     0.0370 C.2   1 <1>  -0.0860 
  5 C       -2.9940    -1.3340    -1.2750 C.3   1 <1>   0.1400 
  6 C       -2.4650     2.7870     0.2000 C.2   1 <1>   0.3720 
  7 C       -0.3190     2.6230     0.4290 C.2   1 <1>   0.0870 
  8 C       -3.2960    -2.1610    -0.0150 C.3   1 <1>   0.2000 
  9 N       -2.0590     3.9190     0.6540 N.2   1 <1>  -0.4100 
 10 N       -3.8140     2.5200    -0.0810 N.pl3 1 <1>  -0.8210 
 11 O       -0.7670     3.8000     0.7870 O.3   1 <1>  -0.0190 
 12 C        1.0970     2.3620     0.5060 C.ar  1 <1>   0.0530 
 13 O       -3.6740    -3.4340    -0.4380 O.3   1 <1>  -0.5600 
 14 C       -4.4460    -1.5840     0.8190 C.3   1 <1>  -0.2400 
 15 C       -4.7160     2.6670     1.0970 C.3   1 <1>   0.2090 
 16 C       -4.3650     3.3380    -1.1990 C.3   1 <1>   0.2090 
 17 C        1.7720     1.6230    -0.4660 C.ar  1 <1>  -0.1500 
 18 C        1.8540     2.8650     1.5650 C.ar  1 <1>  -0.1500 
 19 C       -3.3120    -4.4730     0.4160 C.3   1 <1>   0.0400 
 20 C       -5.7190     3.7530     0.7320 C.3   1 <1>  -0.1600 
 21 C       -5.7820     3.7050    -0.7860 C.3   1 <1>  -0.1600 
 22 C        3.1320     1.3860    -0.3860 C.ar  1 <1>  -0.1500 
 23 C        3.2150     2.6360     1.6520 C.ar  1 <1>  -0.1500 
 24 C        3.8670     1.8950     0.6810 C.ar  1 <1>   0.0830 
 25 O        5.1990     1.7110     0.8380 O.3   1 <1>  -0.3620 
 26 C        5.9470     0.9380    -0.0740 C.3   1 <1>   0.0400 
 27 H       -3.4640     0.7290    -0.8450 H     1 <1>   0.3700 
 28 H       -2.1550    -1.7750    -1.7870 H     1 <1>   0.0800 
 29 H       -3.8470    -1.3540    -1.9310 H     1 <1>   0.0800 
 30 H       -2.3940    -2.2350     0.5710 H     1 <1>   0.0800 
 31 H       -5.3340    -1.5030     0.2190 H     1 <1>   0.0800 
 32 H       -4.1840    -0.6070     1.1820 H     1 <1>   0.0800 
 33 H       -4.6450    -2.2080     1.6690 H     1 <1>   0.0800 
 34 H       -4.1720     2.9270     1.9910 H     1 <1>   0.0800 
 35 H       -5.2280     1.7340     1.2590 H     1 <1>   0.0800 
 36 H       -4.3600     2.7780    -2.1180 H     1 <1>   0.0800 
 37 H       -3.7790     4.2340    -1.3290 H     1 <1>   0.0800 
 38 H        1.2220     1.2260    -1.3010 H     1 <1>   0.1500 
 39 H        1.3680     3.4440     2.3300 H     1 <1>   0.1500 
 40 H       -3.6670    -5.3950    -0.0100 H     1 <1>   0.0800 
 41 H       -3.7640    -4.3230     1.3800 H     1 <1>   0.0800 
 42 H       -2.2390    -4.5040     0.5010 H     1 <1>   0.0800 
 43 H       -5.3300     4.7040     1.0540 H     1 <1>   0.0800 
 44 H       -6.6760     3.5880     1.1930 H     1 <1>   0.0800 
 45 H       -6.4550     2.9290    -1.1040 H     1 <1>   0.0800 
 46 H       -6.0930     4.6420    -1.2140 H     1 <1>   0.0800 
 47 H        3.5990     0.8060    -1.1580 H     1 <1>   0.1500 
 48 H        3.7830     3.0310     2.4740 H     1 <1>   0.1500 
 49 H        6.9690     0.9230     0.2610 H     1 <1>   0.0800 
 50 H        5.8870     1.3910    -1.0470 H     1 <1>   0.0800 
 51 H        5.5520    -0.0630    -0.0890 H     1 <1>   0.0800 
@<TRIPOS>BOND
  1   1   2  2   
  2   2   3  am  
  3   2   4  1   
  4   3   5  1   
  5   3  27  1   
  6   4   6  1   
  7   4   7  2   
  8   5   8  1   
  9   5  28  1   
 10   5  29  1   
 11   6   9  2   
 12   6  10  1   
 13   7  11  1   
 14   7  12  1   
 15   8  13  1   
 16   8  14  1   
 17   8  30  1   
 18   9  11  1   
 19  10  15  1   
 20  10  16  1   
 21  12  17  ar  
 22  12  18  ar  
 23  13  19  1   
 24  14  31  1   
 25  14  32  1   
 26  14  33  1   
 27  15  20  1   
 28  15  34  1   
 29  15  35  1   
 30  16  21  1   
 31  16  36  1   
 32  16  37  1   
 33  17  22  ar  
 34  17  38  1   
 35  18  23  ar  
 36  18  39  1   
 37  19  40  1   
 38  19  41  1   
 39  19  42  1   
 40  20  21  1   
 41  20  43  1   
 42  20  44  1   
 43  21  45  1   
 44  21  46  1   
 45  22  24  ar  
 46  22  47  1   
 47  23  24  ar  
 48  23  48  1   
 49  24  25  1   
 50  25  26  1   
 51  26  49  1   
 52  26  50  1   
 53  26  51  1   
@<TRIPOS>SUBSTRUCTURE
  1 ****   4 GROUP 4 **** **** 0

# MOE 2024.06 (io_trps.svl 2023.06)
