@<TRIPOS>MOLECULE
NONAME
54 57 1 0 0 
SMALL
USER_CHARGES


@<TRIPOS>ATOM
  1 O        1.6060    -0.9080    -1.1820 O.2   1 <1>  -0.5700 
  2 C        2.0180    -1.3370    -0.1310 C.2   1 <1>   0.5690 
  3 N        2.3790    -0.4860     0.8740 N.am  1 <1>  -0.6600 
  4 C        2.1570    -2.8420     0.0370 C.3   1 <1>  -0.0990 
  5 C        1.9500     0.9260     0.8930 C.3   1 <1>   0.1400 
  6 C        3.6820    -0.5340     1.5620 C.3   1 <1>   0.1400 
  7 C        0.7870    -3.5170     0.2150 C.3   1 <1>  -0.1600 
  8 C        3.2440     1.7320     0.6720 C.3   1 <1>   0.4230 
  9 C        4.3590     0.8030     1.1990 C.3   1 <1>  -0.0800 
 10 C        0.9120    -5.0420     0.3550 C.3   1 <1>   0.0200 
 11 N        3.6000     2.0040    -0.7730 N.4   1 <1>  -0.9590 
 12 C        5.3380     0.6430     0.0280 C.3   1 <1>  -0.1600 
 13 C       -0.4430    -5.7010     0.5320 C.2   1 <1>   0.2980 
 14 C        4.4960     0.9090    -1.2050 C.3   1 <1>   0.3430 
 15 C        2.4580     2.1700    -1.7290 C.3   1 <1>   0.2630 
 16 O       -1.1100    -5.4820     1.6340 O.3   1 <1>  -0.0190 
 17 N       -1.0050    -6.4690    -0.3050 N.2   1 <1>  -0.5650 
 18 N       -2.1970    -6.1720     1.4870 N.2   1 <1>  -0.4100 
 19 C       -2.1460    -6.7470     0.3370 C.2   1 <1>   0.4620 
 20 C       -3.1410    -7.6310    -0.2370 C.ar  1 <1>   0.0540 
 21 C       -4.5100    -7.3250    -0.2510 C.ar  1 <1>   0.0820 
 22 C       -2.7390    -8.8410    -0.8040 C.ar  1 <1>  -0.1500 
 23 O       -4.9010    -6.1320     0.2680 O.3   1 <1>  -0.3630 
 24 C       -5.4240    -8.2230    -0.7990 C.ar  1 <1>  -0.1500 
 25 C       -3.6480    -9.7260    -1.3500 C.ar  1 <1>  -0.1500 
 26 C       -6.2550    -5.7610     0.3880 C.3   1 <1>   0.0400 
 27 C       -4.9950    -9.4180    -1.3450 C.ar  1 <1>  -0.1500 
 28 H        2.6400    -3.2340    -0.8400 H     1 <1>   0.0800 
 29 H        2.7730    -3.0640     0.8870 H     1 <1>   0.0800 
 30 H        1.1740     1.1280     0.1770 H     1 <1>   0.0800 
 31 H        1.5600     1.1430     1.8720 H     1 <1>   0.0800 
 32 H        3.5130    -0.5950     2.6250 H     1 <1>   0.0800 
 33 H        4.2660    -1.3840     1.2540 H     1 <1>   0.0800 
 34 H        0.3020    -3.1150     1.0890 H     1 <1>   0.0800 
 35 H        0.1650    -3.2940    -0.6360 H     1 <1>   0.0800 
 36 H        3.1970     2.6590     1.2210 H     1 <1>   0.0800 
 37 H        4.8530     1.2090     2.0650 H     1 <1>   0.0800 
 38 H        1.5250    -5.2890     1.2030 H     1 <1>   0.0800 
 39 H        1.3770    -5.4490    -0.5250 H     1 <1>   0.0800 
 40 H        4.1600     2.8660    -0.7840 H     1 <1>   0.4500 
 41 H        5.8000    -0.3280    -0.0130 H     1 <1>   0.0800 
 42 H        6.1150     1.3850     0.0900 H     1 <1>   0.0800 
 43 H        3.9130     0.0340    -1.4480 H     1 <1>   0.0800 
 44 H        5.0980     1.1920    -2.0540 H     1 <1>   0.0800 
 45 H        1.8930     1.2550    -1.8050 H     1 <1>   0.0800 
 46 H        2.8260     2.4210    -2.7110 H     1 <1>   0.0800 
 47 H        1.8000     2.9560    -1.3980 H     1 <1>   0.0800 
 48 H       -1.6910    -9.0870    -0.8130 H     1 <1>   0.1500 
 49 H       -6.4750    -8.0080    -0.8150 H     1 <1>   0.1500 
 50 H       -3.3090   -10.6540    -1.7780 H     1 <1>   0.1500 
 51 H       -6.2940    -4.7980     0.8640 H     1 <1>   0.0800 
 52 H       -6.7640    -6.4890     0.9940 H     1 <1>   0.0800 
 53 H       -6.6900    -5.7000    -0.5940 H     1 <1>   0.0800 
 54 H       -5.7070   -10.1070    -1.7670 H     1 <1>   0.1500 
@<TRIPOS>BOND
  1   1   2  2   
  2   2   3  am  
  3   2   4  1   
  4   3   5  1   
  5   3   6  1   
  6   4   7  1   
  7   4  28  1   
  8   4  29  1   
  9   5   8  1   
 10   5  30  1   
 11   5  31  1   
 12   6   9  1   
 13   6  32  1   
 14   6  33  1   
 15   7  10  1   
 16   7  34  1   
 17   7  35  1   
 18   8   9  1   
 19   8  11  1   
 20   8  36  1   
 21   9  12  1   
 22   9  37  1   
 23  10  13  1   
 24  10  38  1   
 25  10  39  1   
 26  11  14  1   
 27  11  15  1   
 28  11  40  1   
 29  12  14  1   
 30  12  41  1   
 31  12  42  1   
 32  13  16  1   
 33  13  17  2   
 34  14  43  1   
 35  14  44  1   
 36  15  45  1   
 37  15  46  1   
 38  15  47  1   
 39  16  18  1   
 40  17  19  1   
 41  18  19  2   
 42  19  20  1   
 43  20  21  ar  
 44  20  22  ar  
 45  21  23  1   
 46  21  24  ar  
 47  22  25  ar  
 48  22  48  1   
 49  23  26  1   
 50  24  27  ar  
 51  24  49  1   
 52  25  27  ar  
 53  25  50  1   
 54  26  51  1   
 55  26  52  1   
 56  26  53  1   
 57  27  54  1   
@<TRIPOS>SUBSTRUCTURE
  1 ****   7 GROUP 4 **** **** 0

# MOE 2024.06 (io_trps.svl 2023.06)
