@<TRIPOS>MOLECULE
NONAME
40 41 1 0 0 
SMALL
USER_CHARGES


@<TRIPOS>ATOM
  1 CL      -1.5960    -0.7820    -2.6720 Cl    1 <1>  -0.1770 
  2 C       -2.3350     0.2370    -1.4550 C.ar  1 <1>   0.1770 
  3 C       -3.1730    -0.3190    -0.4940 C.ar  1 <1>   0.0830 
  4 C       -2.0630     1.5920    -1.4800 C.ar  1 <1>  -0.1500 
  5 O       -3.3930    -1.6610    -0.5350 O.3   1 <1>  -0.3630 
  6 C       -3.7450     0.5220     0.4590 C.ar  1 <1>  -0.1500 
  7 C       -2.6370     2.4180    -0.5270 C.ar  1 <1>  -0.1500 
  8 C       -4.2240    -2.3120     0.3900 C.3   1 <1>   0.1200 
  9 C       -3.4740     1.8820     0.4370 C.ar  1 <1>  -0.1500 
 10 C       -4.2130    -3.7960     0.0210 C.3   1 <1>  -0.1600 
 11 C       -5.0970    -4.6070     0.9650 C.3   1 <1>   0.3430 
 12 N       -5.1500    -6.0300     0.5250 N.4   1 <1>  -0.9590 
 13 C       -6.3020    -6.7420     1.1530 C.3   1 <1>   0.5230 
 14 C       -3.8560    -6.7510     0.7680 C.3   1 <1>   0.2630 
 15 C       -6.5700    -8.0250     0.4010 C.2   1 <1>  -0.1400 
 16 S       -5.7970    -9.4820     0.9700 S.3   1 <1>  -0.0800 
 17 C       -7.3300    -8.3300    -0.6640 C.2   1 <1>   0.0460 
 18 C       -6.5820   -10.3680    -0.3170 C.2   1 <1>   0.2280 
 19 N       -7.3210    -9.6510    -1.0640 N.2   1 <1>  -0.5650 
 20 C       -8.2060    -7.4040    -1.4840 C.3   1 <1>  -0.0590 
 21 H       -1.4110     1.9920    -2.2350 H     1 <1>   0.1500 
 22 H       -4.3980     0.1460     1.2220 H     1 <1>   0.1500 
 23 H       -2.4320     3.4760    -0.5370 H     1 <1>   0.1500 
 24 H       -5.2120    -1.8920     0.3080 H     1 <1>   0.0800 
 25 H       -3.8230    -2.1490     1.3770 H     1 <1>   0.0800 
 26 H       -3.9180     2.5280     1.1760 H     1 <1>   0.1500 
 27 H       -3.1960    -4.1410     0.0720 H     1 <1>   0.0800 
 28 H       -4.5730    -3.8940    -0.9880 H     1 <1>   0.0800 
 29 H       -6.0900    -4.1870     0.9510 H     1 <1>   0.0800 
 30 H       -4.7170    -4.5430     1.9730 H     1 <1>   0.0800 
 31 H       -5.3260    -6.0510    -0.4900 H     1 <1>   0.4500 
 32 H       -7.1830    -6.1240     1.0940 H     1 <1>   0.0800 
 33 H       -6.1050    -6.9550     2.1910 H     1 <1>   0.0800 
 34 H       -3.6500    -6.8130     1.8250 H     1 <1>   0.0800 
 35 H       -3.0400    -6.2380     0.2870 H     1 <1>   0.0800 
 36 H       -3.9020    -7.7510     0.3670 H     1 <1>   0.0800 
 37 H       -6.3890   -11.4250    -0.3830 H     1 <1>   0.1500 
 38 H       -8.1710    -6.3970    -1.1150 H     1 <1>   0.0800 
 39 H       -9.2240    -7.7510    -1.4490 H     1 <1>   0.0800 
 40 H       -7.8810    -7.4150    -2.5090 H     1 <1>   0.0800 
@<TRIPOS>BOND
  1   1   2  1   
  2   2   3  ar  
  3   2   4  ar  
  4   3   5  1   
  5   3   6  ar  
  6   4   7  ar  
  7   4  21  1   
  8   5   8  1   
  9   6   9  ar  
 10   6  22  1   
 11   7   9  ar  
 12   7  23  1   
 13   8  10  1   
 14   8  24  1   
 15   8  25  1   
 16   9  26  1   
 17  10  11  1   
 18  10  27  1   
 19  10  28  1   
 20  11  12  1   
 21  11  29  1   
 22  11  30  1   
 23  12  13  1   
 24  12  14  1   
 25  12  31  1   
 26  13  15  1   
 27  13  32  1   
 28  13  33  1   
 29  14  34  1   
 30  14  35  1   
 31  14  36  1   
 32  15  16  1   
 33  15  17  2   
 34  16  18  1   
 35  17  19  1   
 36  17  20  1   
 37  18  19  2   
 38  18  37  1   
 39  20  38  1   
 40  20  39  1   
 41  20  40  1   
@<TRIPOS>SUBSTRUCTURE
  1 ****  10 GROUP 4 **** **** 0

# MOE 2024.06 (io_trps.svl 2023.06)
