@<TRIPOS>MOLECULE
NONAME
52 55 1 0 0 
SMALL
USER_CHARGES


@<TRIPOS>ATOM
  1 O       -0.7750    -0.0680     0.1290 O.2   1 <1>  -0.5700 
  2 C       -1.6190     0.7280     0.5190 C.2   1 <1>   0.5440 
  3 N       -2.8310     0.2110     0.9430 N.am  1 <1>  -0.6600 
  4 C       -1.3720     2.1440     0.4880 C.ar  1 <1>   0.0860 
  5 C       -2.9910    -1.2510     1.2090 C.3   1 <1>   0.1400 
  6 C       -4.1210     0.8520     0.5370 C.3   1 <1>   0.1400 
  7 C       -1.9070     3.0080     1.4470 C.ar  1 <1>  -0.1500 
  8 C       -0.5960     2.7310    -0.5150 C.ar  1 <1>  -0.1500 
  9 C       -3.6900    -1.9380     0.0240 C.3   1 <1>   0.3440 
 10 C       -4.7990     0.0530    -0.5970 C.3   1 <1>   0.2950 
 11 C       -1.7500     4.3700     1.3950 C.ar  1 <1>   0.0820 
 12 C       -0.4070     4.0880    -0.6100 C.ar  1 <1>   0.0820 
 13 O       -4.9130    -1.3010    -0.2430 O.3   1 <1>  -0.5600 
 14 C       -3.9360    -3.4140     0.3260 C.ar  1 <1>  -0.1440 
 15 C       -6.1980     0.6180    -0.9050 C.3   1 <1>  -0.1950 
 16 O       -2.3570     5.0390     2.4320 O.3   1 <1>  -0.3620 
 17 C       -1.0170     4.9720     0.3300 C.ar  1 <1>  -0.1710 
 18 O        0.3910     4.4680    -1.6630 O.3   1 <1>  -0.3630 
 19 C       -5.1080    -3.8480     0.9310 C.ar  1 <1>  -0.1500 
 20 C       -2.9600    -4.3460     0.0030 C.ar  1 <1>  -0.1500 
 21 C       -7.4110     0.2340    -0.1150 C.3   1 <1>  -0.2000 
 22 C       -7.2750    -0.2030    -1.5470 C.3   1 <1>  -0.2000 
 23 C       -1.9550     6.3540     2.7380 C.3   1 <1>   0.0400 
 24 O       -0.9370     6.2300     0.2050 O.3   1 <1>  -0.8290 
 25 C        1.0380     5.7190    -1.6210 C.3   1 <1>   0.0400 
 26 C       -5.3010    -5.1900     1.2080 C.ar  1 <1>  -0.1500 
 27 C       -3.1520    -5.6890     0.2790 C.ar  1 <1>  -0.1500 
 28 C       -4.3230    -6.1120     0.8830 C.ar  1 <1>  -0.1500 
 29 H       -2.0330    -1.7110     1.3760 H     1 <1>   0.0800 
 30 H       -3.5800    -1.3910     2.0970 H     1 <1>   0.0800 
 31 H       -4.7790     0.8940     1.3860 H     1 <1>   0.0800 
 32 H       -3.9560     1.8590     0.1980 H     1 <1>   0.0800 
 33 H       -2.4670     2.5920     2.2620 H     1 <1>   0.1500 
 34 H       -0.1340     2.0940    -1.2450 H     1 <1>   0.1500 
 35 H       -3.0720    -1.8540    -0.8540 H     1 <1>   0.0800 
 36 H       -4.1960     0.1130    -1.4870 H     1 <1>   0.0800 
 37 H       -6.1370     1.6450    -1.2220 H     1 <1>   0.1000 
 38 H       -5.8770    -3.1390     1.1850 H     1 <1>   0.1500 
 39 H       -2.0440    -4.0310    -0.4660 H     1 <1>   0.1500 
 40 H       -7.3240    -0.5160     0.6530 H     1 <1>   0.1000 
 41 H       -8.1340     0.9930     0.1290 H     1 <1>   0.1000 
 42 H       -7.9030     0.2540    -2.2910 H     1 <1>   0.1000 
 43 H       -7.0930    -1.2460    -1.7460 H     1 <1>   0.1000 
 44 H       -2.3420     6.6140     3.7050 H     1 <1>   0.0800 
 45 H       -2.3520     7.0140     1.9880 H     1 <1>   0.0800 
 46 H       -0.8800     6.3970     2.7350 H     1 <1>   0.0800 
 47 H        1.8150     5.7270    -2.3600 H     1 <1>   0.0800 
 48 H        1.4470     5.8640    -0.6370 H     1 <1>   0.0800 
 49 H        0.3120     6.4830    -1.8340 H     1 <1>   0.0800 
 50 H       -6.2140    -5.5150     1.6750 H     1 <1>   0.1500 
 51 H       -2.3900    -6.4050     0.0240 H     1 <1>   0.1500 
 52 H       -4.4730    -7.1550     1.0970 H     1 <1>   0.1500 
@<TRIPOS>BOND
  1   1   2  2   
  2   2   3  am  
  3   2   4  1   
  4   3   5  1   
  5   3   6  1   
  6   4   7  ar  
  7   4   8  ar  
  8   5   9  1   
  9   5  29  1   
 10   5  30  1   
 11   6  10  1   
 12   6  31  1   
 13   6  32  1   
 14   7  11  ar  
 15   7  33  1   
 16   8  12  ar  
 17   8  34  1   
 18   9  13  1   
 19   9  14  1   
 20   9  35  1   
 21  10  13  1   
 22  10  15  1   
 23  10  36  1   
 24  11  16  1   
 25  11  17  ar  
 26  12  17  ar  
 27  12  18  1   
 28  14  19  ar  
 29  14  20  ar  
 30  15  21  1   
 31  15  22  1   
 32  15  37  1   
 33  16  23  1   
 34  17  24  1   
 35  18  25  1   
 36  19  26  ar  
 37  19  38  1   
 38  20  27  ar  
 39  20  39  1   
 40  21  22  1   
 41  21  40  1   
 42  21  41  1   
 43  22  42  1   
 44  22  43  1   
 45  23  44  1   
 46  23  45  1   
 47  23  46  1   
 48  25  47  1   
 49  25  48  1   
 50  25  49  1   
 51  26  28  ar  
 52  26  50  1   
 53  27  28  ar  
 54  27  51  1   
 55  28  52  1   
@<TRIPOS>SUBSTRUCTURE
  1 ****   3 GROUP 4 **** **** 0

# MOE 2024.06 (io_trps.svl 2023.06)
