@<TRIPOS>MOLECULE
NONAME
49 51 1 0 0 
SMALL
USER_CHARGES


@<TRIPOS>ATOM
  1 S        0.1510    -0.2620     1.5280 S.3   1 <1>  -0.0800 
  2 C        1.1910    -1.2720     0.5440 C.2   1 <1>   0.1980 
  3 C        1.5330     0.7100     1.9400 C.2   1 <1>  -0.1100 
  4 N        2.4130    -0.9180     0.5360 N.2   1 <1>  -0.5650 
  5 C        0.5570    -2.4410    -0.1770 C.3   1 <1>   0.0200 
  6 C        2.6120     0.2050     1.3240 C.2   1 <1>   0.0770 
  7 C        0.3640    -3.6080     0.7890 C.3   1 <1>   0.1400 
  8 N       -0.2210    -4.7670     0.0760 N.am  1 <1>  -0.7300 
  9 C       -1.5490    -5.0120    -0.0830 C.2   1 <1>   0.5690 
 10 O       -2.3780    -4.2470     0.3500 O.2   1 <1>  -0.5700 
 11 C       -1.9930    -6.2810    -0.8220 C.3   1 <1>   0.2610 
 12 O       -0.8570    -7.0380    -1.2180 O.3   1 <1>  -0.5600 
 13 C       -2.9900    -7.0760     0.0690 C.3   1 <1>   0.3640 
 14 C       -1.1720    -8.2800    -1.7910 C.3   1 <1>   0.1810 
 15 N       -2.8110    -8.5680     0.0650 N.am  1 <1>  -0.6600 
 16 C       -4.4250    -6.7390    -0.3470 C.ar  1 <1>  -0.1430 
 17 C       -1.9500    -9.1640    -0.8210 C.2   1 <1>   0.5690 
 18 C       -3.5680    -9.2880     1.1270 C.3   1 <1>   0.2200 
 19 C       -5.1500    -5.8010     0.3750 C.ar  1 <1>  -0.1500 
 20 C       -5.0200    -7.3450    -1.4470 C.ar  1 <1>  -0.1500 
 21 O       -1.7700   -10.3570    -0.8880 O.2   1 <1>  -0.5700 
 22 C       -2.6000    -9.9030     2.1360 C.3   1 <1>  -0.2400 
 23 C       -4.5140   -10.3330     0.5320 C.3   1 <1>  -0.2400 
 24 C       -6.4460    -5.4800     0.0090 C.ar  1 <1>  -0.1500 
 25 C       -6.3150    -7.0250    -1.8140 C.ar  1 <1>  -0.1500 
 26 C       -7.0300    -6.0920    -1.0850 C.ar  1 <1>  -0.1500 
 27 H        1.3870     1.5500     2.5940 H     1 <1>   0.1500 
 28 H       -0.3910    -2.1380    -0.5830 H     1 <1>   0.0800 
 29 H        1.2040    -2.7410    -0.9810 H     1 <1>   0.0800 
 30 H        3.6130     0.5970     1.3900 H     1 <1>   0.1500 
 31 H       -0.2960    -3.3090     1.5870 H     1 <1>   0.0800 
 32 H        1.3100    -3.8900     1.2190 H     1 <1>   0.0800 
 33 H        0.4290    -5.4530    -0.3250 H     1 <1>   0.3700 
 34 H       -2.4940    -5.9700    -1.7210 H     1 <1>   0.0800 
 35 H       -2.8500    -6.7470     1.0850 H     1 <1>   0.0800 
 36 H       -1.7460    -8.1180    -2.6840 H     1 <1>   0.0800 
 37 H       -0.2480    -8.7640    -2.0500 H     1 <1>   0.0800 
 38 H       -4.1790    -8.5760     1.6570 H     1 <1>   0.0800 
 39 H       -4.7100    -5.3060     1.2240 H     1 <1>   0.1500 
 40 H       -4.4810    -8.0780    -2.0220 H     1 <1>   0.1500 
 41 H       -2.0100   -10.6770     1.6780 H     1 <1>   0.0800 
 42 H       -3.1500   -10.3400     2.9490 H     1 <1>   0.0800 
 43 H       -1.9470    -9.1480     2.5330 H     1 <1>   0.0800 
 44 H       -3.9690   -11.1280     0.0570 H     1 <1>   0.0800 
 45 H       -5.1710    -9.8740    -0.1830 H     1 <1>   0.0800 
 46 H       -5.1150   -10.7620     1.3120 H     1 <1>   0.0800 
 47 H       -6.9980    -4.7500     0.5760 H     1 <1>   0.1500 
 48 H       -6.7670    -7.5030    -2.6650 H     1 <1>   0.1500 
 49 H       -8.0370    -5.8410    -1.3690 H     1 <1>   0.1500 
@<TRIPOS>BOND
  1   1   2  1   
  2   1   3  1   
  3   2   4  2   
  4   2   5  1   
  5   3   6  2   
  6   3  27  1   
  7   4   6  1   
  8   5   7  1   
  9   5  28  1   
 10   5  29  1   
 11   6  30  1   
 12   7   8  1   
 13   7  31  1   
 14   7  32  1   
 15   8   9  am  
 16   8  33  1   
 17   9  10  2   
 18   9  11  1   
 19  11  12  1   
 20  11  13  1   
 21  11  34  1   
 22  12  14  1   
 23  13  15  1   
 24  13  16  1   
 25  13  35  1   
 26  14  17  1   
 27  14  36  1   
 28  14  37  1   
 29  15  17  am  
 30  15  18  1   
 31  16  19  ar  
 32  16  20  ar  
 33  17  21  2   
 34  18  22  1   
 35  18  23  1   
 36  18  38  1   
 37  19  24  ar  
 38  19  39  1   
 39  20  25  ar  
 40  20  40  1   
 41  22  41  1   
 42  22  42  1   
 43  22  43  1   
 44  23  44  1   
 45  23  45  1   
 46  23  46  1   
 47  24  26  ar  
 48  24  47  1   
 49  25  26  ar  
 50  25  48  1   
 51  26  49  1   
@<TRIPOS>SUBSTRUCTURE
  1 ****   9 GROUP 4 **** **** 0

# MOE 2024.06 (io_trps.svl 2023.06)
