@<TRIPOS>MOLECULE
NONAME
38 40 1 0 0 
SMALL
USER_CHARGES


@<TRIPOS>ATOM
  1 O        0.2490     1.5000    -0.0180 O.3   1 <1>  -0.2800 
  2 C        0.9800     2.2000    -0.8280 C.2   1 <1>   0.5620 
  3 C       -0.6380     0.9640    -0.8020 C.2   1 <1>   0.2980 
  4 N        0.5720     2.1080    -2.0470 N.2   1 <1>  -0.3380 
  5 N        2.0340     2.9150    -0.3300 N.pl3 1 <1>  -0.8530 
  6 N       -0.4870     1.2980    -2.0210 N.2   1 <1>  -0.3380 
  7 C       -1.7360     0.0850    -0.2200 C.3   1 <1>   0.5230 
  8 C        3.0810     3.4700    -1.2170 C.3   1 <1>   0.2890 
  9 N       -2.7450     0.8920     0.5610 N.4   1 <1>  -0.9590 
 10 C        4.1690     2.4020    -1.4280 C.3   1 <1>  -0.0170 
 11 C        3.7820     4.6170    -0.4700 C.3   1 <1>  -0.0170 
 12 C       -3.7580     0.0150     1.2250 C.3   1 <1>   0.2630 
 13 C       -3.4080     1.9160    -0.3150 C.3   1 <1>   0.2630 
 14 C        5.1340     2.6720    -0.2980 C.ar  1 <1>  -0.1430 
 15 C        4.9160     3.9160     0.2410 C.ar  1 <1>  -0.1430 
 16 C        6.1260     1.8480     0.2010 C.ar  1 <1>  -0.1500 
 17 C        5.6840     4.3750     1.2950 C.ar  1 <1>  -0.1500 
 18 C        6.9010     2.2990     1.2580 C.ar  1 <1>  -0.1500 
 19 C        6.6810     3.5560     1.8030 C.ar  1 <1>  -0.1500 
 20 H        2.4070     2.6150     0.5750 H     1 <1>   0.4000 
 21 H       -1.2800    -0.6540     0.4180 H     1 <1>   0.0800 
 22 H       -2.2280    -0.4270    -1.0310 H     1 <1>   0.0800 
 23 H        2.6500     3.8010    -2.1480 H     1 <1>   0.0800 
 24 H       -2.2150     1.4000     1.2870 H     1 <1>   0.4500 
 25 H        4.6710     2.5700    -2.3640 H     1 <1>   0.0800 
 26 H        3.7740     1.4020    -1.4060 H     1 <1>   0.0800 
 27 H        3.1200     5.1270     0.2070 H     1 <1>   0.0800 
 28 H        4.1910     5.3190    -1.1740 H     1 <1>   0.0800 
 29 H       -4.3250    -0.5320     0.4890 H     1 <1>   0.0800 
 30 H       -4.4410     0.6110     1.8090 H     1 <1>   0.0800 
 31 H       -3.2740    -0.6900     1.8830 H     1 <1>   0.0800 
 32 H       -3.9510     1.4360    -1.1130 H     1 <1>   0.0800 
 33 H       -2.6720     2.5740    -0.7510 H     1 <1>   0.0800 
 34 H       -4.0970     2.5120     0.2610 H     1 <1>   0.0800 
 35 H        6.2950     0.8740    -0.2240 H     1 <1>   0.1500 
 36 H        5.5120     5.3510     1.7150 H     1 <1>   0.1500 
 37 H        7.6770     1.6700     1.6590 H     1 <1>   0.1500 
 38 H        7.2870     3.8980     2.6230 H     1 <1>   0.1500 
@<TRIPOS>BOND
  1   1   2  1   
  2   1   3  1   
  3   2   4  2   
  4   2   5  1   
  5   3   6  2   
  6   3   7  1   
  7   4   6  1   
  8   5   8  1   
  9   5  20  1   
 10   7   9  1   
 11   7  21  1   
 12   7  22  1   
 13   8  10  1   
 14   8  11  1   
 15   8  23  1   
 16   9  12  1   
 17   9  13  1   
 18   9  24  1   
 19  10  14  1   
 20  10  25  1   
 21  10  26  1   
 22  11  15  1   
 23  11  27  1   
 24  11  28  1   
 25  12  29  1   
 26  12  30  1   
 27  12  31  1   
 28  13  32  1   
 29  13  33  1   
 30  13  34  1   
 31  14  15  ar  
 32  14  16  ar  
 33  15  17  ar  
 34  16  18  ar  
 35  16  35  1   
 36  17  19  ar  
 37  17  36  1   
 38  18  19  ar  
 39  18  37  1   
 40  19  38  1   
@<TRIPOS>SUBSTRUCTURE
  1 ****   5 GROUP 4 **** **** 0

# MOE 2024.06 (io_trps.svl 2023.06)
