@<TRIPOS>MOLECULE
NONAME
55 57 1 0 0 
SMALL
USER_CHARGES


@<TRIPOS>ATOM
  1 S        0.6910    -0.1710     0.8700 S.3   1 <1>  -0.3320 
  2 C        0.5300    -1.7820     0.0790 C.ar  1 <1>   0.1020 
  3 C        1.9330     0.7860    -0.0990 C.3   1 <1>   0.1500 
  4 C        0.1060    -2.8320     0.8740 C.ar  1 <1>  -0.1500 
  5 C        0.8110    -1.9740    -1.2640 C.ar  1 <1>  -0.1500 
  6 C        3.2950     0.1100     0.0800 C.3   1 <1>  -0.1600 
  7 C        1.9390     2.2090     0.4590 C.3   1 <1>  -0.1600 
  8 C       -0.0250    -4.1000     0.3310 C.ar  1 <1>  -0.1430 
  9 C        0.6790    -3.2410    -1.8060 C.ar  1 <1>  -0.1500 
 10 C        4.4150     0.9630    -0.5090 C.3   1 <1>   0.3430 
 11 C        3.0770     3.0300    -0.1400 C.3   1 <1>   0.3430 
 12 C        0.2660    -4.2980    -1.0110 C.ar  1 <1>  -0.1500 
 13 C       -0.4870    -5.2610     1.1920 C.3   1 <1>  -0.0960 
 14 N        4.3780     2.3280     0.0900 N.4   1 <1>  -0.9590 
 15 C        5.5640     3.1830    -0.3140 C.3   1 <1>   0.4040 
 16 C        5.8550     4.3590     0.6490 C.2   1 <1>   0.5690 
 17 O        5.1310     4.4560     1.6120 O.2   1 <1>  -0.5700 
 18 N        6.8900     5.2500     0.4540 N.am  1 <1>  -0.6600 
 19 C        7.8140     5.2830    -0.7300 C.3   1 <1>   0.1400 
 20 C        7.2510     6.2280     1.5430 C.3   1 <1>   0.1400 
 21 C        8.0650     6.7260    -1.2340 C.3   1 <1>   0.3430 
 22 C        7.4870     7.6500     0.9970 C.3   1 <1>   0.3430 
 23 N        8.4840     7.6580    -0.1310 N.4   1 <1>  -0.9590 
 24 C        8.6850     9.0490    -0.6490 C.3   1 <1>   0.2630 
 25 H        1.6170     0.7870    -1.1270 H     1 <1>   0.0800 
 26 H       -0.1190    -2.6520     1.9100 H     1 <1>   0.1500 
 27 H        1.1140    -1.1640    -1.8950 H     1 <1>   0.1500 
 28 H        3.2910    -0.8500    -0.4050 H     1 <1>   0.0800 
 29 H        3.4860    -0.0570     1.1260 H     1 <1>   0.0800 
 30 H        2.0440     2.1870     1.5300 H     1 <1>   0.0800 
 31 H        1.0000     2.6840     0.2330 H     1 <1>   0.0800 
 32 H        0.8920    -3.4100    -2.8480 H     1 <1>   0.1500 
 33 H        4.2930     1.0280    -1.5780 H     1 <1>   0.0800 
 34 H        5.3640     0.4920    -0.3020 H     1 <1>   0.0800 
 35 H        3.0930     4.0020     0.3280 H     1 <1>   0.0800 
 36 H        2.9110     3.1610    -1.1970 H     1 <1>   0.0800 
 37 H        0.1650    -5.2780    -1.4430 H     1 <1>   0.1500 
 38 H       -0.2670    -5.0750     2.2280 H     1 <1>   0.0800 
 39 H        0.0110    -6.1670     0.8970 H     1 <1>   0.0800 
 40 H       -1.5480    -5.3950     1.0820 H     1 <1>   0.0800 
 41 H        4.4480     2.2340     1.1190 H     1 <1>   0.4500 
 42 H        5.4040     3.5740    -1.3030 H     1 <1>   0.0800 
 43 H        6.4460     2.5670    -0.3370 H     1 <1>   0.0800 
 44 H        7.4090     4.7050    -1.5420 H     1 <1>   0.0800 
 45 H        8.7560     4.8410    -0.4530 H     1 <1>   0.0800 
 46 H        8.1410     5.8870     2.0430 H     1 <1>   0.0800 
 47 H        6.4720     6.2800     2.2850 H     1 <1>   0.0800 
 48 H        7.1590     7.0930    -1.6870 H     1 <1>   0.0800 
 49 H        8.8250     6.7040    -1.9990 H     1 <1>   0.0800 
 50 H        7.8360     8.2800     1.7990 H     1 <1>   0.0800 
 51 H        6.5450     8.0460     0.6550 H     1 <1>   0.0800 
 52 H        9.3850     7.3260     0.2470 H     1 <1>   0.4500 
 53 H        7.7620     9.4390    -1.0480 H     1 <1>   0.0800 
 54 H        9.4280     9.0550    -1.4300 H     1 <1>   0.0800 
 55 H        9.0190     9.7000     0.1440 H     1 <1>   0.0800 
@<TRIPOS>BOND
  1   1   2  1   
  2   1   3  1   
  3   2   4  ar  
  4   2   5  ar  
  5   3   6  1   
  6   3   7  1   
  7   3  25  1   
  8   4   8  ar  
  9   4  26  1   
 10   5   9  ar  
 11   5  27  1   
 12   6  10  1   
 13   6  28  1   
 14   6  29  1   
 15   7  11  1   
 16   7  30  1   
 17   7  31  1   
 18   8  12  ar  
 19   8  13  1   
 20   9  12  ar  
 21   9  32  1   
 22  10  14  1   
 23  10  33  1   
 24  10  34  1   
 25  11  14  1   
 26  11  35  1   
 27  11  36  1   
 28  12  37  1   
 29  13  38  1   
 30  13  39  1   
 31  13  40  1   
 32  14  15  1   
 33  14  41  1   
 34  15  16  1   
 35  15  42  1   
 36  15  43  1   
 37  16  17  2   
 38  16  18  am  
 39  18  19  1   
 40  18  20  1   
 41  19  21  1   
 42  19  44  1   
 43  19  45  1   
 44  20  22  1   
 45  20  46  1   
 46  20  47  1   
 47  21  23  1   
 48  21  48  1   
 49  21  49  1   
 50  22  23  1   
 51  22  50  1   
 52  22  51  1   
 53  23  24  1   
 54  23  52  1   
 55  24  53  1   
 56  24  54  1   
 57  24  55  1   
@<TRIPOS>SUBSTRUCTURE
  1 ****  14 GROUP 4 **** **** 0

# MOE 2024.06 (io_trps.svl 2023.06)
