@<TRIPOS>MOLECULE
NONAME
54 56 1 0 0 
SMALL
USER_CHARGES


@<TRIPOS>ATOM
  1 F       -1.8970    -0.8770    -2.4950 F     1 <1>  -0.1900 
  2 C       -1.8350     0.1790    -1.7260 C.ar  1 <1>   0.1900 
  3 C       -2.0310     0.0430    -0.3580 C.ar  1 <1>  -0.1440 
  4 C       -1.5770     1.3990    -2.3240 C.ar  1 <1>  -0.1500 
  5 C       -1.9640     1.1900     0.4210 C.ar  1 <1>  -0.1500 
  6 C       -2.3180    -1.3070     0.2880 C.3   1 <1>  -0.0160 
  7 C       -1.5140     2.5300    -1.5290 C.ar  1 <1>  -0.1500 
  8 C       -1.7080     2.4230    -0.1610 C.ar  1 <1>  -0.1500 
  9 C       -3.8030    -1.6700     0.1380 C.3   1 <1>  -0.0990 
 10 C       -4.2010    -2.9660     0.8340 C.2   1 <1>   0.5690 
 11 O       -3.3240    -3.6370     1.3280 O.2   1 <1>  -0.5700 
 12 N       -5.5210    -3.3510     0.9010 N.am  1 <1>  -0.6600 
 13 C       -6.6300    -2.6120     0.2220 C.3   1 <1>   0.2200 
 14 C       -5.8730    -4.5820     1.6780 C.3   1 <1>   0.0600 
 15 C       -7.4970    -1.8320     1.2070 C.3   1 <1>  -0.1600 
 16 C       -7.6150    -3.4990    -0.5430 C.3   1 <1>  -0.1600 
 17 C       -8.8140    -1.5950     0.4550 C.3   1 <1>  -0.0800 
 18 C       -8.8800    -2.6380    -0.6670 C.3   1 <1>  -0.0800 
 19 C      -10.0910    -1.7930     1.2850 C.3   1 <1>  -0.1600 
 20 C      -10.2080    -3.3870    -0.4680 C.3   1 <1>  -0.1600 
 21 C      -11.1040    -2.4310     0.3280 C.3   1 <1>   0.4230 
 22 N      -11.7140    -1.3990    -0.5730 N.4   1 <1>  -0.9590 
 23 C      -12.4860    -0.3570     0.1800 C.3   1 <1>   0.2630 
 24 C      -12.6180    -1.9960    -1.6090 C.3   1 <1>   0.2630 
 25 H       -1.4310     1.4560    -3.3870 H     1 <1>   0.1500 
 26 H       -2.1110     1.1290     1.4850 H     1 <1>   0.1500 
 27 H       -1.7100    -2.0690    -0.1700 H     1 <1>   0.0800 
 28 H       -2.0580    -1.2740     1.3320 H     1 <1>   0.0800 
 29 H       -1.3150     3.4910    -1.9730 H     1 <1>   0.1500 
 30 H       -1.6580     3.3030     0.4560 H     1 <1>   0.1500 
 31 H       -4.0270    -1.7630    -0.9080 H     1 <1>   0.0800 
 32 H       -4.3910    -0.8700     0.5480 H     1 <1>   0.0800 
 33 H       -6.2310    -1.9110    -0.4890 H     1 <1>   0.0800 
 34 H       -6.8320    -4.4780     2.1510 H     1 <1>   0.0800 
 35 H       -5.1420    -4.7660     2.4460 H     1 <1>   0.0800 
 36 H       -5.8920    -5.4310     1.0170 H     1 <1>   0.0800 
 37 H       -7.6630    -2.4170     2.0930 H     1 <1>   0.0800 
 38 H       -7.0290    -0.9040     1.4830 H     1 <1>   0.0800 
 39 H       -7.2230    -3.7670    -1.5080 H     1 <1>   0.0800 
 40 H       -7.8320    -4.3930     0.0080 H     1 <1>   0.0800 
 41 H       -8.8040    -0.6110     0.0150 H     1 <1>   0.0800 
 42 H       -8.8760    -2.1290    -1.6170 H     1 <1>   0.0800 
 43 H      -10.4190    -0.8870     1.7560 H     1 <1>   0.0800 
 44 H       -9.9020    -2.5080     2.0670 H     1 <1>   0.0800 
 45 H      -10.0430    -4.2520     0.1510 H     1 <1>   0.0800 
 46 H      -10.6230    -3.7350    -1.3940 H     1 <1>   0.0800 
 47 H      -11.8730    -2.9650     0.8640 H     1 <1>   0.0800 
 48 H      -10.9270    -0.9390    -1.0530 H     1 <1>   0.4500 
 49 H      -13.2620    -0.8180     0.7690 H     1 <1>   0.0800 
 50 H      -12.9420     0.3370    -0.5080 H     1 <1>   0.0800 
 51 H      -11.8390     0.2010     0.8360 H     1 <1>   0.0800 
 52 H      -13.4040    -2.5640    -1.1380 H     1 <1>   0.0800 
 53 H      -12.0690    -2.6470    -2.2680 H     1 <1>   0.0800 
 54 H      -13.0670    -1.2190    -2.2050 H     1 <1>   0.0800 
@<TRIPOS>BOND
  1   1   2  1   
  2   2   3  ar  
  3   2   4  ar  
  4   3   5  ar  
  5   3   6  1   
  6   4   7  ar  
  7   4  25  1   
  8   5   8  ar  
  9   5  26  1   
 10   6   9  1   
 11   6  27  1   
 12   6  28  1   
 13   7   8  ar  
 14   7  29  1   
 15   8  30  1   
 16   9  10  1   
 17   9  31  1   
 18   9  32  1   
 19  10  11  2   
 20  10  12  am  
 21  12  13  1   
 22  12  14  1   
 23  13  15  1   
 24  13  16  1   
 25  13  33  1   
 26  14  34  1   
 27  14  35  1   
 28  14  36  1   
 29  15  17  1   
 30  15  37  1   
 31  15  38  1   
 32  16  18  1   
 33  16  39  1   
 34  16  40  1   
 35  17  18  1   
 36  17  19  1   
 37  17  41  1   
 38  18  20  1   
 39  18  42  1   
 40  19  21  1   
 41  19  43  1   
 42  19  44  1   
 43  20  21  1   
 44  20  45  1   
 45  20  46  1   
 46  21  22  1   
 47  21  47  1   
 48  22  23  1   
 49  22  24  1   
 50  22  48  1   
 51  23  49  1   
 52  23  50  1   
 53  23  51  1   
 54  24  52  1   
 55  24  53  1   
 56  24  54  1   
@<TRIPOS>SUBSTRUCTURE
  1 ****  13 GROUP 4 **** **** 0

# MOE 2024.06 (io_trps.svl 2023.06)
