@<TRIPOS>MOLECULE
NONAME
29 29 1 0 0 
SMALL
USER_CHARGES


@<TRIPOS>ATOM
  1 O        4.5420     1.2430    -1.1100 O.3   1 <1>  -0.5380 
  2 C        5.6660     0.9950    -0.3120 C.3   1 <1>   0.5160 
  3 C        3.6610     2.2260    -0.6440 C.3   1 <1>   0.0400 
  4 O        6.2340     2.2090     0.0990 O.3   1 <1>  -0.5380 
  5 C        6.5990    -0.0730    -0.9700 C.3   1 <1>   0.0000 
  6 C        5.3610    -0.0550     0.7990 C.3   1 <1>   0.0000 
  7 C        7.5260     2.2330     0.6250 C.3   1 <1>   0.0400 
  8 C        5.7590    -1.1620    -0.2320 C.3   1 <1>   0.0000 
  9 C        4.6020    -1.6810    -1.1170 C.3   1 <1>   0.3430 
 10 C        6.6170    -2.2870     0.3740 C.3   1 <1>  -0.2400 
 11 N        3.5960    -2.4110    -0.3040 N.4   1 <1>  -0.8530 
 12 H        2.7780     2.2100    -1.2590 H     1 <1>   0.0800 
 13 H        4.1330     3.1900    -0.7290 H     1 <1>   0.0800 
 14 H        3.4010     2.0300     0.3810 H     1 <1>   0.0800 
 15 H        7.6170    -0.0630    -0.6250 H     1 <1>   0.0000 
 16 H        6.5220    -0.1210    -2.0420 H     1 <1>   0.0000 
 17 H        4.3300    -0.0930     1.1050 H     1 <1>   0.0000 
 18 H        6.0420    -0.0110     1.6310 H     1 <1>   0.0000 
 19 H        7.7090     3.2230     1.0050 H     1 <1>   0.0800 
 20 H        8.2340     2.0230    -0.1580 H     1 <1>   0.0800 
 21 H        7.6160     1.5230     1.4270 H     1 <1>   0.0800 
 22 H        5.0080    -2.3360    -1.8730 H     1 <1>   0.0800 
 23 H        4.1260    -0.8580    -1.6240 H     1 <1>   0.0800 
 24 H        7.4530    -1.8760     0.9160 H     1 <1>   0.0800 
 25 H        7.0110    -2.9220    -0.4010 H     1 <1>   0.0800 
 26 H        6.0490    -2.8870     1.0610 H     1 <1>   0.0800 
 27 H        4.0260    -3.2070     0.1790 H     1 <1>   0.4500 
 28 H        2.8310    -2.7590    -0.8930 H     1 <1>   0.4500 
 29 H        3.1940    -1.7830     0.4020 H     1 <1>   0.4500 
@<TRIPOS>BOND
  1   1   2  1   
  2   1   3  1   
  3   2   4  1   
  4   2   5  1   
  5   2   6  1   
  6   3  12  1   
  7   3  13  1   
  8   3  14  1   
  9   4   7  1   
 10   5   8  1   
 11   5  15  1   
 12   5  16  1   
 13   6   8  1   
 14   6  17  1   
 15   6  18  1   
 16   7  19  1   
 17   7  20  1   
 18   7  21  1   
 19   8   9  1   
 20   8  10  1   
 21   9  11  1   
 22   9  22  1   
 23   9  23  1   
 24  10  24  1   
 25  10  25  1   
 26  10  26  1   
 27  11  27  1   
 28  11  28  1   
 29  11  29  1   
@<TRIPOS>SUBSTRUCTURE
  1 ****   2 GROUP 4 **** **** 0

# MOE 2024.06 (io_trps.svl 2023.06)
