@<TRIPOS>MOLECULE
NONAME
41 43 1 0 0 
SMALL
USER_CHARGES


@<TRIPOS>ATOM
  1 O       -0.3660     0.6600     0.4630 O.2   1 <1>  -0.5700 
  2 C       -0.3100     1.8680     0.4170 C.2   1 <1>   0.5770 
  3 N       -1.4080     2.6380     0.7290 N.am  1 <1>  -0.6600 
  4 C        1.0230     2.4880     0.0100 C.3   1 <1>   0.0530 
  5 C       -2.7420     2.0060     0.9730 C.3   1 <1>   0.1400 
  6 C       -1.4470     4.1220     0.8410 C.3   1 <1>   0.1400 
  7 C        0.9240     3.3940    -1.2270 C.3   1 <1>   0.2580 
  8 C        1.8050     1.5980    -0.9740 C.3   1 <1>   0.2580 
  9 C        1.8950     3.0220     1.1720 C.3   1 <1>  -0.2400 
 10 C       -3.7940     2.5060    -0.0480 C.3   1 <1>   0.0000 
 11 C       -2.4420     4.6810    -0.1790 C.3   1 <1>  -0.1600 
 12 O        2.1090     2.7790    -1.7080 O.3   1 <1>  -0.5160 
 13 C       -5.1470     1.8410     0.2790 C.3   1 <1>   0.2000 
 14 C       -3.8370     4.0550    -0.0090 C.3   1 <1>  -0.1600 
 15 C       -3.4780     1.9620    -1.4570 C.3   1 <1>  -0.1600 
 16 O       -6.1810     2.5100    -0.3530 O.3   1 <1>  -0.6800 
 17 C       -5.0690     0.4480    -0.3430 C.3   1 <1>  -0.1600 
 18 C       -4.1010     0.5610    -1.5300 C.3   1 <1>  -0.1600 
 19 H       -2.6640     0.9340     0.9230 H     1 <1>   0.0800 
 20 H       -3.0610     2.2580     1.9690 H     1 <1>   0.0800 
 21 H       -1.7640     4.3860     1.8360 H     1 <1>   0.0800 
 22 H       -0.4800     4.5590     0.6820 H     1 <1>   0.0800 
 23 H        1.0920     4.4410    -1.0480 H     1 <1>   0.0000 
 24 H        0.1020     3.1770    -1.8900 H     1 <1>   0.0000 
 25 H        1.2100     0.9390    -1.5830 H     1 <1>   0.0000 
 26 H        2.7050     1.1570    -0.5830 H     1 <1>   0.0000 
 27 H        2.8190     3.4300     0.7990 H     1 <1>   0.0800 
 28 H        2.1260     2.2170     1.8480 H     1 <1>   0.0800 
 29 H        1.3780     3.7870     1.7190 H     1 <1>   0.0800 
 30 H       -2.5130     5.7470    -0.0560 H     1 <1>   0.0800 
 31 H       -2.0740     4.4930    -1.1720 H     1 <1>   0.0800 
 32 H       -5.3640     1.8170     1.3340 H     1 <1>   0.0800 
 33 H       -4.4880     4.4350    -0.7770 H     1 <1>   0.0800 
 34 H       -4.2450     4.3660     0.9370 H     1 <1>   0.0800 
 35 H       -3.9440     2.5860    -2.2000 H     1 <1>   0.0800 
 36 H       -2.4230     1.9310    -1.6630 H     1 <1>   0.0800 
 37 H       -6.0260     2.4850    -1.3160 H     1 <1>   0.4000 
 38 H       -4.6540    -0.2320     0.3800 H     1 <1>   0.0800 
 39 H       -6.0370     0.0780    -0.6330 H     1 <1>   0.0800 
 40 H       -3.3340    -0.1910    -1.4480 H     1 <1>   0.0800 
 41 H       -4.6180     0.4270    -2.4640 H     1 <1>   0.0800 
@<TRIPOS>BOND
  1   1   2  2   
  2   2   3  am  
  3   2   4  1   
  4   3   5  1   
  5   3   6  1   
  6   4   7  1   
  7   4   8  1   
  8   4   9  1   
  9   5  10  1   
 10   5  19  1   
 11   5  20  1   
 12   6  11  1   
 13   6  21  1   
 14   6  22  1   
 15   7  12  1   
 16   7  23  1   
 17   7  24  1   
 18   8  12  1   
 19   8  25  1   
 20   8  26  1   
 21   9  27  1   
 22   9  28  1   
 23   9  29  1   
 24  10  13  1   
 25  10  14  1   
 26  10  15  1   
 27  11  14  1   
 28  11  30  1   
 29  11  31  1   
 30  13  16  1   
 31  13  17  1   
 32  13  32  1   
 33  14  33  1   
 34  14  34  1   
 35  15  18  1   
 36  15  35  1   
 37  15  36  1   
 38  16  37  1   
 39  17  18  1   
 40  17  38  1   
 41  17  39  1   
 42  18  40  1   
 43  18  41  1   
@<TRIPOS>SUBSTRUCTURE
  1 ****   3 GROUP 4 **** **** 0

# MOE 2024.06 (io_trps.svl 2023.06)
