@<TRIPOS>MOLECULE
NONAME
46 48 1 0 0 
SMALL
USER_CHARGES


@<TRIPOS>ATOM
  1 CL       2.0450     1.3890     2.6380 Cl    1 <1>  -0.1770 
  2 C        2.3600     1.5240     0.9180 C.ar  1 <1>   0.1770 
  3 C        2.3400     0.3840     0.1080 C.ar  1 <1>   0.1000 
  4 C        2.6260     2.7770     0.4120 C.ar  1 <1>  -0.1500 
  5 N        2.0710    -0.8850     0.6200 N.pl3 1 <1>  -0.8380 
  6 C        2.6130     0.5670    -1.2450 C.ar  1 <1>  -0.1500 
  7 C        2.9070     2.9570    -0.9420 C.ar  1 <1>   0.0860 
  8 C        1.1320    -1.8050    -0.0640 C.3   1 <1>   0.2090 
  9 C        3.1960    -1.6470     1.2110 C.3   1 <1>   0.2090 
 10 C        2.8840     1.8230    -1.7550 C.ar  1 <1>  -0.1500 
 11 C        3.2030     4.2650    -1.4860 C.2   1 <1>   0.5440 
 12 C        1.9050    -3.1070    -0.2160 C.3   1 <1>  -0.1600 
 13 C        2.8600    -3.1150     0.9730 C.3   1 <1>  -0.1600 
 14 O        2.6860     4.6150    -2.5310 O.2   1 <1>  -0.5700 
 15 N        4.0820     5.1280    -0.8610 N.am  1 <1>  -0.6600 
 16 C        3.9800     6.6090    -1.1730 C.3   1 <1>   0.2200 
 17 C        5.4480     4.6010    -0.5720 C.3   1 <1>   0.1400 
 18 C        4.7640     7.5100    -0.2150 C.3   1 <1>   0.2000 
 19 C        2.5410     7.1390    -0.9660 C.3   1 <1>   0.1200 
 20 C        5.6560     4.3960     0.9290 C.3   1 <1>  -0.2400 
 21 O        5.0520     8.7140    -0.8470 O.3   1 <1>  -0.6800 
 22 C        3.7340     7.7840     0.8700 C.3   1 <1>   0.1200 
 23 O        2.5360     7.9470     0.1820 O.3   1 <1>  -0.5600 
 24 H        2.6150     3.6270     1.0690 H     1 <1>   0.1500 
 25 H        2.6170    -0.2860    -1.8980 H     1 <1>   0.1500 
 26 H        0.2760    -1.9530     0.5720 H     1 <1>   0.0800 
 27 H        0.8020    -1.4180    -1.0120 H     1 <1>   0.0800 
 28 H        4.1120    -1.3840     0.7100 H     1 <1>   0.0800 
 29 H        3.2850    -1.4310     2.2620 H     1 <1>   0.0800 
 30 H        3.0830     1.9400    -2.8070 H     1 <1>   0.1500 
 31 H        1.2520    -3.9610    -0.2260 H     1 <1>   0.0800 
 32 H        2.4630    -3.0750    -1.1350 H     1 <1>   0.0800 
 33 H        3.7420    -3.7020     0.7900 H     1 <1>   0.0800 
 34 H        2.3560    -3.4990     1.8430 H     1 <1>   0.0800 
 35 H        4.3000     6.7600    -2.1900 H     1 <1>   0.0800 
 36 H        5.5890     3.6600    -1.0770 H     1 <1>   0.0800 
 37 H        6.1900     5.2780    -0.9610 H     1 <1>   0.0800 
 38 H        5.6860     7.1030     0.1510 H     1 <1>   0.0800 
 39 H        1.8210     6.3530    -0.8290 H     1 <1>   0.0800 
 40 H        2.2430     7.7520    -1.7980 H     1 <1>   0.0800 
 41 H        5.0330     3.6010     1.2940 H     1 <1>   0.0800 
 42 H        5.4470     5.2900     1.4830 H     1 <1>   0.0800 
 43 H        6.6790     4.1180     1.1110 H     1 <1>   0.0800 
 44 H        4.2150     9.2140    -0.9510 H     1 <1>   0.4000 
 45 H        3.9530     8.6670     1.4430 H     1 <1>   0.0800 
 46 H        3.6290     6.9340     1.5220 H     1 <1>   0.0800 
@<TRIPOS>BOND
  1   1   2  1   
  2   2   3  ar  
  3   2   4  ar  
  4   3   5  1   
  5   3   6  ar  
  6   4   7  ar  
  7   4  24  1   
  8   5   8  1   
  9   5   9  1   
 10   6  10  ar  
 11   6  25  1   
 12   7  10  ar  
 13   7  11  1   
 14   8  12  1   
 15   8  26  1   
 16   8  27  1   
 17   9  13  1   
 18   9  28  1   
 19   9  29  1   
 20  10  30  1   
 21  11  14  2   
 22  11  15  am  
 23  12  13  1   
 24  12  31  1   
 25  12  32  1   
 26  13  33  1   
 27  13  34  1   
 28  15  16  1   
 29  15  17  1   
 30  16  18  1   
 31  16  19  1   
 32  16  35  1   
 33  17  20  1   
 34  17  36  1   
 35  17  37  1   
 36  18  21  1   
 37  18  22  1   
 38  18  38  1   
 39  19  23  1   
 40  19  39  1   
 41  19  40  1   
 42  20  41  1   
 43  20  42  1   
 44  20  43  1   
 45  21  44  1   
 46  22  23  1   
 47  22  45  1   
 48  22  46  1   
@<TRIPOS>SUBSTRUCTURE
  1 ****   7 GROUP 4 **** **** 0

# MOE 2024.06 (io_trps.svl 2023.06)
