@<TRIPOS>MOLECULE
NONAME
52 55 1 0 0 
SMALL
USER_CHARGES


@<TRIPOS>ATOM
  1 O       -0.8670     0.0000    -0.1490 O.2   1 <1>  -0.5700 
  2 C       -1.9520     0.5290    -0.0680 C.2   1 <1>   0.5690 
  3 N       -3.0980    -0.2000    -0.2450 N.am  1 <1>  -0.6600 
  4 C       -2.0190     2.0350     0.2150 C.3   1 <1>  -0.0190 
  5 C       -4.4850     0.3200    -0.3380 C.3   1 <1>   0.1400 
  6 C       -3.0610    -1.6540    -0.5270 C.3   1 <1>   0.1400 
  7 C       -1.8540     2.8420    -1.0890 C.3   1 <1>  -0.1600 
  8 C       -0.9720     2.4810     1.2590 C.3   1 <1>  -0.1600 
  9 C       -5.3020    -0.8420    -0.9020 C.3   1 <1>   0.2000 
 10 C       -4.5230    -2.1050    -0.5410 C.3   1 <1>  -0.0800 
 11 C       -1.9190     4.3560    -0.8330 C.3   1 <1>  -0.1600 
 12 C       -1.0400     3.9940     1.5220 C.3   1 <1>  -0.1600 
 13 O       -6.5700    -0.8890    -0.3450 O.3   1 <1>  -0.6800 
 14 C       -4.7940    -3.2700    -1.5070 C.3   1 <1>  -0.0170 
 15 C       -0.8860     4.7780     0.2160 C.3   1 <1>   0.2000 
 16 C       -4.0310    -4.5220    -1.0850 C.ar  1 <1>  -0.1440 
 17 O       -1.0690     6.1150     0.4890 O.3   1 <1>  -0.6800 
 18 C       -4.4720    -5.3570    -0.0310 C.ar  1 <1>   0.0000 
 19 C       -2.8760    -4.8680    -1.7230 C.ar  1 <1>  -0.1500 
 20 C       -3.6740    -6.4820     0.2940 C.ar  1 <1>   0.3100 
 21 C       -5.6530    -5.1460     0.7180 C.ar  1 <1>  -0.1500 
 22 C       -2.1650    -6.0070    -1.3260 C.ar  1 <1>   0.1600 
 23 N       -2.5280    -6.7920    -0.3620 N.ar  1 <1>  -0.6200 
 24 C       -4.0790    -7.3220     1.3430 C.ar  1 <1>  -0.1500 
 25 C       -6.0210    -5.9860     1.7330 C.ar  1 <1>  -0.1500 
 26 C       -5.2240    -7.0880     2.0540 C.ar  1 <1>  -0.1500 
 27 H       -2.9830     2.2600     0.6290 H     1 <1>   0.0800 
 28 H       -4.8280     0.5870     0.6460 H     1 <1>   0.0800 
 29 H       -4.5300     1.1690    -0.9960 H     1 <1>   0.0800 
 30 H       -2.5970    -1.8070    -1.4860 H     1 <1>   0.0800 
 31 H       -2.4940    -2.1750     0.2260 H     1 <1>   0.0800 
 32 H       -0.9030     2.5980    -1.5330 H     1 <1>   0.0800 
 33 H       -2.6210     2.5640    -1.7890 H     1 <1>   0.0800 
 34 H       -1.1320     1.9470     2.1800 H     1 <1>   0.0800 
 35 H        0.0150     2.2310     0.9060 H     1 <1>   0.0800 
 36 H       -5.4020    -0.7320    -1.9680 H     1 <1>   0.0800 
 37 H       -4.7680    -2.4000     0.4640 H     1 <1>   0.0800 
 38 H       -2.9080     4.6120    -0.4930 H     1 <1>   0.0800 
 39 H       -1.7250     4.8810    -1.7520 H     1 <1>   0.0800 
 40 H       -0.2510     4.2720     2.1980 H     1 <1>   0.0800 
 41 H       -1.9850     4.2280     1.9800 H     1 <1>   0.0800 
 42 H       -6.5150    -1.0390     0.6190 H     1 <1>   0.4000 
 43 H       -4.4980    -2.9850    -2.5010 H     1 <1>   0.0800 
 44 H       -5.8480    -3.4800    -1.5480 H     1 <1>   0.0800 
 45 H        0.1110     4.6550    -0.1750 H     1 <1>   0.0800 
 46 H       -1.9580     6.2600     0.8590 H     1 <1>   0.4000 
 47 H       -2.4810    -4.2840    -2.5340 H     1 <1>   0.1500 
 48 H       -6.2830    -4.3080     0.4870 H     1 <1>   0.1500 
 49 H       -1.2580    -6.2430    -1.8560 H     1 <1>   0.1500 
 50 H       -3.4510    -8.1640     1.5700 H     1 <1>   0.1500 
 51 H       -6.9230    -5.8130     2.2950 H     1 <1>   0.1500 
 52 H       -5.5220    -7.7410     2.8550 H     1 <1>   0.1500 
@<TRIPOS>BOND
  1   1   2  2   
  2   2   3  am  
  3   2   4  1   
  4   3   5  1   
  5   3   6  1   
  6   4   7  1   
  7   4   8  1   
  8   4  27  1   
  9   5   9  1   
 10   5  28  1   
 11   5  29  1   
 12   6  10  1   
 13   6  30  1   
 14   6  31  1   
 15   7  11  1   
 16   7  32  1   
 17   7  33  1   
 18   8  12  1   
 19   8  34  1   
 20   8  35  1   
 21   9  10  1   
 22   9  13  1   
 23   9  36  1   
 24  10  14  1   
 25  10  37  1   
 26  11  15  1   
 27  11  38  1   
 28  11  39  1   
 29  12  15  1   
 30  12  40  1   
 31  12  41  1   
 32  13  42  1   
 33  14  16  1   
 34  14  43  1   
 35  14  44  1   
 36  15  17  1   
 37  15  45  1   
 38  16  18  ar  
 39  16  19  ar  
 40  17  46  1   
 41  18  20  ar  
 42  18  21  ar  
 43  19  22  ar  
 44  19  47  1   
 45  20  23  ar  
 46  20  24  ar  
 47  21  25  ar  
 48  21  48  1   
 49  22  23  ar  
 50  22  49  1   
 51  24  26  ar  
 52  24  50  1   
 53  25  26  ar  
 54  25  51  1   
 55  26  52  1   
@<TRIPOS>SUBSTRUCTURE
  1 ****   6 GROUP 4 **** **** 0

# MOE 2024.06 (io_trps.svl 2023.06)
