@<TRIPOS>MOLECULE
NONAME
45 47 1 0 0 
SMALL
USER_CHARGES


@<TRIPOS>ATOM
  1 F       -1.8580    -0.9160     0.7920 F     1 <1>  -0.3400 
  2 C       -1.3950    -1.6670     1.7810 C.3   1 <1>   1.1640 
  3 F       -2.4370    -2.3190     2.2800 F     1 <1>  -0.3400 
  4 F       -0.9800    -0.8380     2.7290 F     1 <1>  -0.3400 
  5 C       -0.3110    -2.6560     1.3110 C.ar  1 <1>  -0.1440 
  6 C       -0.5050    -3.4030     0.1530 C.ar  1 <1>  -0.1500 
  7 C        0.8720    -2.8340     2.0230 C.ar  1 <1>  -0.1500 
  8 C        0.4530    -4.3050    -0.2860 C.ar  1 <1>  -0.1440 
  9 C        1.8360    -3.7230     1.5820 C.ar  1 <1>  -0.1500 
 10 C        1.6310    -4.4540     0.4280 C.ar  1 <1>  -0.1500 
 11 C        0.1910    -5.1580    -1.5160 C.3   1 <1>   0.3530 
 12 N       -0.6280    -6.3900    -1.2340 N.pl3 1 <1>  -0.8380 
 13 C       -1.0610    -6.9260    -0.0490 C.ar  1 <1>   0.7710 
 14 C       -0.9970    -7.0820    -2.5180 C.3   1 <1>   0.1290 
 15 N       -1.8230    -8.0120    -0.0920 N.ar  1 <1>  -0.6200 
 16 N       -0.7270    -6.3710     1.1330 N.ar  1 <1>  -0.1790 
 17 C       -2.2530    -8.5450     1.0370 C.ar  1 <1>   0.4100 
 18 C       -1.1440    -6.8770     2.3160 C.ar  1 <1>   0.2110 
 19 N       -3.0240    -9.6580     0.9470 N.pl3 1 <1>  -0.8380 
 20 C       -1.9200    -7.9830     2.2830 C.ar  1 <1>  -0.1500 
 21 C       -3.7020   -10.3800     2.0650 C.3   1 <1>   0.2090 
 22 C       -3.3220   -10.3500    -0.3390 C.3   1 <1>   0.2090 
 23 C       -4.7620   -11.2460     1.3840 C.3   1 <1>   0.2000 
 24 C       -4.1380   -11.5860     0.0390 C.3   1 <1>  -0.1600 
 25 O       -5.8800   -10.4680     1.1430 O.3   1 <1>  -0.6800 
 26 H       -1.4180    -3.2780    -0.4120 H     1 <1>   0.1500 
 27 H        1.0600    -2.2710     2.9250 H     1 <1>   0.1500 
 28 H        2.7550    -3.8350     2.1360 H     1 <1>   0.1500 
 29 H        2.3980    -5.1360     0.0920 H     1 <1>   0.1500 
 30 H        1.1320    -5.4550    -1.9510 H     1 <1>   0.0800 
 31 H       -0.3230    -4.5560    -2.2480 H     1 <1>   0.0800 
 32 H       -0.4200    -6.7090    -3.3470 H     1 <1>   0.0800 
 33 H       -2.0430    -6.9280    -2.7280 H     1 <1>   0.0800 
 34 H       -0.8150    -8.1420    -2.4400 H     1 <1>   0.0800 
 35 H       -0.1490    -5.5320     1.0720 H     1 <1>   0.4570 
 36 H       -0.8490    -6.3890     3.2310 H     1 <1>   0.1500 
 37 H       -2.2820    -8.4390     3.1850 H     1 <1>   0.1500 
 38 H       -4.1530    -9.7070     2.7740 H     1 <1>   0.0800 
 39 H       -2.9860   -11.0100     2.5630 H     1 <1>   0.0800 
 40 H       -2.4120   -10.6220    -0.8480 H     1 <1>   0.0800 
 41 H       -3.9020    -9.6960    -0.9690 H     1 <1>   0.0800 
 42 H       -5.0550   -12.1070     1.9620 H     1 <1>   0.0800 
 43 H       -3.4660   -12.4160     0.1600 H     1 <1>   0.0800 
 44 H       -4.8700   -11.8430    -0.7050 H     1 <1>   0.0800 
 45 H       -5.5940    -9.6460     0.6970 H     1 <1>   0.4000 
@<TRIPOS>BOND
  1   1   2  1   
  2   2   3  1   
  3   2   4  1   
  4   2   5  1   
  5   5   6  ar  
  6   5   7  ar  
  7   6   8  ar  
  8   6  26  1   
  9   7   9  ar  
 10   7  27  1   
 11   8  10  ar  
 12   8  11  1   
 13   9  10  ar  
 14   9  28  1   
 15  10  29  1   
 16  11  12  1   
 17  11  30  1   
 18  11  31  1   
 19  12  13  1   
 20  12  14  1   
 21  13  15  ar  
 22  13  16  ar  
 23  14  32  1   
 24  14  33  1   
 25  14  34  1   
 26  15  17  ar  
 27  16  18  ar  
 28  16  35  1   
 29  17  19  1   
 30  17  20  ar  
 31  18  20  ar  
 32  18  36  1   
 33  19  21  1   
 34  19  22  1   
 35  20  37  1   
 36  21  23  1   
 37  21  38  1   
 38  21  39  1   
 39  22  24  1   
 40  22  40  1   
 41  22  41  1   
 42  23  24  1   
 43  23  25  1   
 44  23  42  1   
 45  24  43  1   
 46  24  44  1   
 47  25  45  1   
@<TRIPOS>SUBSTRUCTURE
  1 ****  16 GROUP 4 **** **** 0

# MOE 2024.06 (io_trps.svl 2023.06)
