@<TRIPOS>MOLECULE
NONAME
40 40 1 0 0 
SMALL
USER_CHARGES


@<TRIPOS>ATOM
  1 O        0.8590    -0.2610     1.1150 O.2   1 <1>  -0.5700 
  2 C        1.4800    -1.0510     0.4310 C.2   1 <1>   0.5440 
  3 N        2.5660    -0.6000    -0.2670 N.am  1 <1>  -0.7300 
  4 C        1.0640    -2.4390     0.3430 C.ar  1 <1>   0.0860 
  5 C        3.0900     0.7790    -0.2230 C.3   1 <1>   0.1400 
  6 C       -0.2380    -2.8350     0.5870 C.ar  1 <1>  -0.1500 
  7 C        1.9320    -3.4740     0.0140 C.ar  1 <1>  -0.1500 
  8 C        4.6100     0.7250    -0.3130 C.3   1 <1>  -0.2400 
  9 C       -0.6280    -4.1650     0.4800 C.ar  1 <1>   0.4100 
 10 C        1.4680    -4.7700    -0.0600 C.ar  1 <1>   0.1600 
 11 N        0.2200    -5.1380     0.1620 N.ar  1 <1>  -0.6200 
 12 N       -1.9480    -4.5230     0.7100 N.pl3 1 <1>  -0.8380 
 13 C       -2.2740    -5.9290     1.1190 C.3   1 <1>   0.2090 
 14 C       -3.0320    -3.8340    -0.0440 C.3   1 <1>   0.1290 
 15 C       -2.4980    -6.8790    -0.0760 C.3   1 <1>   0.2000 
 16 O       -3.7950    -6.7630    -0.5710 O.3   1 <1>  -0.6800 
 17 C       -2.2770    -8.3470     0.3120 C.3   1 <1>   0.1200 
 18 O       -2.7740    -9.1830    -0.6970 O.3   1 <1>  -0.5600 
 19 C       -2.5910   -10.5380    -0.4440 C.3   1 <1>   0.0400 
 20 H        3.0000    -1.2070    -0.9620 H     1 <1>   0.3700 
 21 H        2.7910     1.2560     0.6960 H     1 <1>   0.0800 
 22 H        2.6840     1.3410    -1.0470 H     1 <1>   0.0800 
 23 H       -0.9650    -2.1010     0.8760 H     1 <1>   0.1500 
 24 H        2.9700    -3.2720    -0.1740 H     1 <1>   0.1500 
 25 H        5.0100     0.1640     0.5130 H     1 <1>   0.0800 
 26 H        5.0070     1.7230    -0.2690 H     1 <1>   0.0800 
 27 H        4.9190     0.2760    -1.2400 H     1 <1>   0.0800 
 28 H        2.1610    -5.5540    -0.3140 H     1 <1>   0.1500 
 29 H       -3.1450    -5.9300     1.7490 H     1 <1>   0.0800 
 30 H       -1.4540    -6.3010     1.7080 H     1 <1>   0.0800 
 31 H       -2.8910    -2.7680    -0.0310 H     1 <1>   0.0800 
 32 H       -3.9870    -4.0590     0.3980 H     1 <1>   0.0800 
 33 H       -3.0350    -4.1740    -1.0650 H     1 <1>   0.0800 
 34 H       -1.8140    -6.6270    -0.8670 H     1 <1>   0.0800 
 35 H       -3.9620    -7.5870    -1.0810 H     1 <1>   0.4000 
 36 H       -2.7950    -8.5690     1.2290 H     1 <1>   0.0800 
 37 H       -1.2240    -8.5350     0.4390 H     1 <1>   0.0800 
 38 H       -3.0040   -11.0910    -1.2690 H     1 <1>   0.0800 
 39 H       -3.1050   -10.8040     0.4640 H     1 <1>   0.0800 
 40 H       -1.5380   -10.7460    -0.3600 H     1 <1>   0.0800 
@<TRIPOS>BOND
  1   1   2  2   
  2   2   3  am  
  3   2   4  1   
  4   3   5  1   
  5   3  20  1   
  6   4   6  ar  
  7   4   7  ar  
  8   5   8  1   
  9   5  21  1   
 10   5  22  1   
 11   6   9  ar  
 12   6  23  1   
 13   7  10  ar  
 14   7  24  1   
 15   8  25  1   
 16   8  26  1   
 17   8  27  1   
 18   9  11  ar  
 19   9  12  1   
 20  10  11  ar  
 21  10  28  1   
 22  12  13  1   
 23  12  14  1   
 24  13  15  1   
 25  13  29  1   
 26  13  30  1   
 27  14  31  1   
 28  14  32  1   
 29  14  33  1   
 30  15  16  1   
 31  15  17  1   
 32  15  34  1   
 33  16  35  1   
 34  17  18  1   
 35  17  36  1   
 36  17  37  1   
 37  18  19  1   
 38  19  38  1   
 39  19  39  1   
 40  19  40  1   
@<TRIPOS>SUBSTRUCTURE
  1 ****   9 GROUP 4 **** **** 0

# MOE 2024.06 (io_trps.svl 2023.06)
