@<TRIPOS>MOLECULE
NONAME
43 44 1 0 0 
SMALL
USER_CHARGES


@<TRIPOS>ATOM
  1 S        0.3620     1.5890     2.2190 S.3   1 <1>  -0.0800 
  2 C       -0.7300     1.6620     0.8610 C.2   1 <1>  -0.1400 
  3 C        0.4080    -0.1510     2.0490 C.2   1 <1>   0.2280 
  4 C       -0.9580     0.4140     0.4210 C.2   1 <1>   0.0460 
  5 C       -1.2060     3.0290     0.4330 C.3   1 <1>   0.5230 
  6 N       -0.3040    -0.5990     1.0950 N.2   1 <1>  -0.5650 
  7 C       -1.8450    -0.0280    -0.7250 C.3   1 <1>  -0.0590 
  8 N       -0.0380     3.7930    -0.0760 N.4   1 <1>  -0.9590 
  9 C       -0.3170     5.2520    -0.1540 C.3   1 <1>   0.4860 
 10 C        0.4900     3.2380    -1.3510 C.3   1 <1>   0.3430 
 11 C        0.9940     5.9870    -0.3440 C.ar  1 <1>  -0.1430 
 12 C        1.9300     2.7960    -1.1310 C.3   1 <1>  -0.2400 
 13 C        1.3310     6.5050    -1.5870 C.ar  1 <1>  -0.1500 
 14 C        1.8730     6.1430     0.7200 C.ar  1 <1>  -0.1500 
 15 C        2.5390     7.1550    -1.7640 C.ar  1 <1>  -0.1500 
 16 C        3.0810     6.7940     0.5420 C.ar  1 <1>  -0.1500 
 17 C        3.4220     7.3010    -0.7080 C.ar  1 <1>   0.0820 
 18 O        4.5830     7.9470    -0.9720 O.3   1 <1>  -0.3620 
 19 C        5.5330     8.2060     0.0350 C.3   1 <1>   0.1200 
 20 C        6.6960     8.9640    -0.5970 C.3   1 <1>  -0.2400 
 21 H        1.0200    -0.7020     2.7440 H     1 <1>   0.1500 
 22 H       -1.6400     3.5290     1.2830 H     1 <1>   0.0800 
 23 H       -1.9570     2.9370    -0.3350 H     1 <1>   0.0800 
 24 H       -2.3260     0.8070    -1.1980 H     1 <1>   0.0800 
 25 H       -2.5990    -0.6990    -0.3550 H     1 <1>   0.0800 
 26 H       -1.2550    -0.5530    -1.4550 H     1 <1>   0.0800 
 27 H        0.7150     3.6720     0.6140 H     1 <1>   0.4500 
 28 H       -0.7780     5.5940     0.7590 H     1 <1>   0.0800 
 29 H       -0.9830     5.4660    -0.9740 H     1 <1>   0.0800 
 30 H        0.4570     3.9830    -2.1310 H     1 <1>   0.0800 
 31 H       -0.0970     2.3900    -1.6660 H     1 <1>   0.0800 
 32 H        2.5500     3.6250    -0.8390 H     1 <1>   0.0800 
 33 H        2.3220     2.4010    -2.0510 H     1 <1>   0.0800 
 34 H        1.9860     2.0180    -0.3900 H     1 <1>   0.0800 
 35 H        0.6670     6.4140    -2.4300 H     1 <1>   0.1500 
 36 H        1.6320     5.7640     1.6990 H     1 <1>   0.1500 
 37 H        2.8100     7.5580    -2.7240 H     1 <1>   0.1500 
 38 H        3.7440     6.8990     1.3810 H     1 <1>   0.1500 
 39 H        5.8680     7.2660     0.4390 H     1 <1>   0.0800 
 40 H        5.0650     8.7990     0.8020 H     1 <1>   0.0800 
 41 H        7.1460     8.3710    -1.3730 H     1 <1>   0.0800 
 42 H        7.4410     9.1780     0.1480 H     1 <1>   0.0800 
 43 H        6.3490     9.8940    -1.0120 H     1 <1>   0.0800 
@<TRIPOS>BOND
  1   1   2  1   
  2   1   3  1   
  3   2   4  2   
  4   2   5  1   
  5   3   6  2   
  6   3  21  1   
  7   4   6  1   
  8   4   7  1   
  9   5   8  1   
 10   5  22  1   
 11   5  23  1   
 12   7  24  1   
 13   7  25  1   
 14   7  26  1   
 15   8   9  1   
 16   8  10  1   
 17   8  27  1   
 18   9  11  1   
 19   9  28  1   
 20   9  29  1   
 21  10  12  1   
 22  10  30  1   
 23  10  31  1   
 24  11  13  ar  
 25  11  14  ar  
 26  12  32  1   
 27  12  33  1   
 28  12  34  1   
 29  13  15  ar  
 30  13  35  1   
 31  14  16  ar  
 32  14  36  1   
 33  15  17  ar  
 34  15  37  1   
 35  16  17  ar  
 36  16  38  1   
 37  17  18  1   
 38  18  19  1   
 39  19  20  1   
 40  19  39  1   
 41  19  40  1   
 42  20  41  1   
 43  20  42  1   
 44  20  43  1   
@<TRIPOS>SUBSTRUCTURE
  1 ****   8 GROUP 4 **** **** 0

# MOE 2024.06 (io_trps.svl 2023.06)
