@<TRIPOS>MOLECULE
NONAME
52 55 1 0 0 
SMALL
USER_CHARGES


@<TRIPOS>ATOM
  1 O        0.2530     1.4270    -0.5820 O.2   1 <1>  -0.5700 
  2 C       -0.0630     2.5910    -0.6730 C.2   1 <1>   0.5690 
  3 N       -1.1340     3.1410    -0.0210 N.am  1 <1>  -0.5090 
  4 C        0.7810     3.5020    -1.5550 C.3   1 <1>   0.1810 
  5 C       -1.4800     4.5900    -0.2000 C.3   1 <1>   0.3640 
  6 C       -1.8470     2.4220     1.0650 C.3   1 <1>   0.0490 
  7 O        0.8900     4.7800    -0.9850 O.3   1 <1>  -0.5600 
  8 C       -2.7340     4.7240    -1.0650 C.ar  1 <1>  -0.1440 
  9 C       -0.3470     5.4610    -0.8190 C.3   1 <1>   0.2610 
 10 C       -2.4960     1.1100     0.7530 C.3   1 <1>  -0.2000 
 11 C       -3.3420     2.3030     1.0550 C.3   1 <1>  -0.2000 
 12 C       -3.6750     5.6990    -0.7550 C.ar  1 <1>   0.1600 
 13 C       -2.9690     3.9090    -2.1590 C.ar  1 <1>  -0.1500 
 14 C       -0.1540     6.7220     0.0290 C.2   1 <1>   0.5690 
 15 N       -4.7950     5.9130    -1.4260 N.ar  1 <1>  -0.6200 
 16 C       -4.1310     4.1220    -2.8680 C.ar  1 <1>  -0.1500 
 17 O       -1.1200     7.3880     0.3200 O.2   1 <1>  -0.5700 
 18 N        1.0960     7.0600     0.4430 N.am  1 <1>  -0.7300 
 19 C       -4.9970     5.1220    -2.4650 C.ar  1 <1>   0.1600 
 20 C        1.4670     8.2490     1.2350 C.3   1 <1>   0.1400 
 21 C        2.5640     9.0110     0.4950 C.3   1 <1>  -0.1600 
 22 C        2.9890    10.2700     1.2640 C.3   1 <1>  -0.0170 
 23 C        4.1160    10.9940     0.5450 C.ar  1 <1>   0.1670 
 24 N        5.3180    10.4470     0.6450 N.ar  1 <1>  -0.6200 
 25 C        3.8490    12.1570    -0.1630 C.ar  1 <1>  -0.1500 
 26 C        6.2920    11.0840     0.0150 C.ar  1 <1>   0.1600 
 27 C        4.8740    12.8100    -0.8140 C.ar  1 <1>  -0.1500 
 28 C        6.1280    12.2480    -0.7160 C.ar  1 <1>  -0.1500 
 29 H        0.3450     3.5880    -2.5330 H     1 <1>   0.0800 
 30 H        1.7730     3.0960    -1.6440 H     1 <1>   0.0800 
 31 H       -1.7090     4.9780     0.7780 H     1 <1>   0.0800 
 32 H       -1.3450     2.5160     2.0140 H     1 <1>   0.1000 
 33 H       -0.6510     5.7880    -1.7970 H     1 <1>   0.0800 
 34 H       -2.4460     0.7430    -0.2580 H     1 <1>   0.1000 
 35 H       -2.4340     0.3220     1.4820 H     1 <1>   0.1000 
 36 H       -3.8690     2.3210     1.9920 H     1 <1>   0.1000 
 37 H       -3.9290     2.7040     0.2490 H     1 <1>   0.1000 
 38 H       -3.5010     6.3440     0.0910 H     1 <1>   0.1500 
 39 H       -2.2880     3.1300    -2.4530 H     1 <1>   0.1500 
 40 H       -4.3680     3.5180    -3.7250 H     1 <1>   0.1500 
 41 H        1.8640     6.4390     0.1620 H     1 <1>   0.3700 
 42 H       -5.9040     5.2790    -3.0250 H     1 <1>   0.1500 
 43 H        0.6050     8.8800     1.3740 H     1 <1>   0.0800 
 44 H        1.8200     7.9340     2.2030 H     1 <1>   0.0800 
 45 H        3.4220     8.3730     0.3720 H     1 <1>   0.0800 
 46 H        2.2070     9.2980    -0.4790 H     1 <1>   0.0800 
 47 H        3.3310    10.0000     2.2470 H     1 <1>   0.0800 
 48 H        2.1460    10.9280     1.3770 H     1 <1>   0.0800 
 49 H        2.8500    12.5500    -0.2080 H     1 <1>   0.1500 
 50 H        7.2760    10.6530     0.0840 H     1 <1>   0.1500 
 51 H        4.7030    13.7140    -1.3720 H     1 <1>   0.1500 
 52 H        6.9720    12.7050    -1.1990 H     1 <1>   0.1500 
@<TRIPOS>BOND
  1   1   2  2   
  2   2   3  am  
  3   2   4  1   
  4   3   5  1   
  5   3   6  1   
  6   4   7  1   
  7   4  29  1   
  8   4  30  1   
  9   5   8  1   
 10   5   9  1   
 11   5  31  1   
 12   6  10  1   
 13   6  11  1   
 14   6  32  1   
 15   7   9  1   
 16   8  12  ar  
 17   8  13  ar  
 18   9  14  1   
 19   9  33  1   
 20  10  11  1   
 21  10  34  1   
 22  10  35  1   
 23  11  36  1   
 24  11  37  1   
 25  12  15  ar  
 26  12  38  1   
 27  13  16  ar  
 28  13  39  1   
 29  14  17  2   
 30  14  18  am  
 31  15  19  ar  
 32  16  19  ar  
 33  16  40  1   
 34  18  20  1   
 35  18  41  1   
 36  19  42  1   
 37  20  21  1   
 38  20  43  1   
 39  20  44  1   
 40  21  22  1   
 41  21  45  1   
 42  21  46  1   
 43  22  23  1   
 44  22  47  1   
 45  22  48  1   
 46  23  24  ar  
 47  23  25  ar  
 48  24  26  ar  
 49  25  27  ar  
 50  25  49  1   
 51  26  28  ar  
 52  26  50  1   
 53  27  28  ar  
 54  27  51  1   
 55  28  52  1   
@<TRIPOS>SUBSTRUCTURE
  1 ****  14 GROUP 4 **** **** 0

# MOE 2024.06 (io_trps.svl 2023.06)
