@<TRIPOS>MOLECULE
NONAME
54 57 1 0 0 
SMALL
USER_CHARGES


@<TRIPOS>ATOM
  1 S        0.0300     1.2050     2.4620 S.3   1 <1>  -0.0800 
  2 C       -0.9820     1.4930     1.0550 C.2   1 <1>  -0.1400 
  3 C       -1.1070     0.0120     3.0750 C.2   1 <1>  -0.1100 
  4 C       -2.0840     0.7330     1.1010 C.2   1 <1>  -0.1810 
  5 C       -0.6100     2.4860    -0.0410 C.3   1 <1>   0.4600 
  6 C       -2.1610    -0.1200     2.2460 C.2   1 <1>  -0.1500 
  7 C       -3.1060     0.8350    -0.0080 C.3   1 <1>   0.0210 
  8 O       -1.5490     2.3660    -1.0940 O.3   1 <1>  -0.5600 
  9 C       -0.6250     3.9330     0.4750 C.3   1 <1>  -0.1600 
 10 C        0.7570     2.1490    -0.6470 C.3   1 <1>  -0.1600 
 11 C       -2.9020     2.1650    -0.7590 C.3   1 <1>   0.1200 
 12 C       -0.2110     4.9160    -0.6200 C.3   1 <1>   0.1400 
 13 C        1.1690     3.1620    -1.7160 C.3   1 <1>   0.1400 
 14 N        1.1360     4.5320    -1.1300 N.am  1 <1>  -0.6600 
 15 C        2.2650     5.3120    -1.0760 C.2   1 <1>   0.5690 
 16 O        3.3010     4.9640    -1.5950 O.2   1 <1>  -0.5700 
 17 C        2.2350     6.6580    -0.3720 C.3   1 <1>  -0.0990 
 18 C        3.6340     7.1910    -0.0580 C.3   1 <1>   0.1400 
 19 N        3.5280     8.5390     0.5710 N.am  1 <1>  -0.6600 
 20 C        3.3520     8.6590     1.9240 C.2   1 <1>   0.5690 
 21 C        3.6320     9.6970    -0.3540 C.3   1 <1>   0.1400 
 22 O        3.2340     7.6940     2.6410 O.2   1 <1>  -0.5700 
 23 C        3.2820    10.0290     2.5760 C.3   1 <1>  -0.0990 
 24 C        2.3240    10.4960    -0.3870 C.3   1 <1>  -0.1600 
 25 C        2.0380    10.8300     2.1600 C.3   1 <1>  -0.1600 
 26 C        2.1680    11.4860     0.7790 C.3   1 <1>  -0.1600 
 27 H       -0.8610    -0.4710     4.0030 H     1 <1>   0.1500 
 28 H       -2.9940    -0.7850     2.3930 H     1 <1>   0.1500 
 29 H       -4.1000     0.8040     0.4000 H     1 <1>   0.0800 
 30 H       -2.9900     0.0090    -0.6870 H     1 <1>   0.0800 
 31 H        0.0640     4.0220     1.2950 H     1 <1>   0.0800 
 32 H       -1.5990     4.1820     0.8500 H     1 <1>   0.0800 
 33 H        0.7240     1.1620    -1.0690 H     1 <1>   0.0800 
 34 H        1.5060     2.1490     0.1240 H     1 <1>   0.0800 
 35 H       -3.2300     2.9900    -0.1520 H     1 <1>   0.0800 
 36 H       -3.4690     2.1650    -1.6730 H     1 <1>   0.0800 
 37 H       -0.2200     5.9180    -0.2340 H     1 <1>   0.0800 
 38 H       -0.9160     4.8730    -1.4340 H     1 <1>   0.0800 
 39 H        0.4890     3.1170    -2.5500 H     1 <1>   0.0800 
 40 H        2.1550     2.9230    -2.0780 H     1 <1>   0.0800 
 41 H        1.7120     6.5540     0.5590 H     1 <1>   0.0800 
 42 H        1.7160     7.3540    -1.0010 H     1 <1>   0.0800 
 43 H        4.2270     7.2460    -0.9550 H     1 <1>   0.0800 
 44 H        4.1300     6.5130     0.6180 H     1 <1>   0.0800 
 45 H        3.8420     9.3410    -1.3480 H     1 <1>   0.0800 
 46 H        4.4520    10.3280    -0.0570 H     1 <1>   0.0800 
 47 H        4.1800    10.5770     2.3590 H     1 <1>   0.0800 
 48 H        3.2510     9.8800     3.6400 H     1 <1>   0.0800 
 49 H        1.4850     9.8240    -0.4250 H     1 <1>   0.0800 
 50 H        2.3160    11.0680    -1.2980 H     1 <1>   0.0800 
 51 H        1.8780    11.6080     2.8860 H     1 <1>   0.0800 
 52 H        1.1740    10.1870     2.1820 H     1 <1>   0.0800 
 53 H        1.2830    12.0740     0.6040 H     1 <1>   0.0800 
 54 H        3.0030    12.1660     0.7840 H     1 <1>   0.0800 
@<TRIPOS>BOND
  1   1   2  1   
  2   1   3  1   
  3   2   4  2   
  4   2   5  1   
  5   3   6  2   
  6   3  27  1   
  7   4   6  1   
  8   4   7  1   
  9   5   8  1   
 10   5   9  1   
 11   5  10  1   
 12   6  28  1   
 13   7  11  1   
 14   7  29  1   
 15   7  30  1   
 16   8  11  1   
 17   9  12  1   
 18   9  31  1   
 19   9  32  1   
 20  10  13  1   
 21  10  33  1   
 22  10  34  1   
 23  11  35  1   
 24  11  36  1   
 25  12  14  1   
 26  12  37  1   
 27  12  38  1   
 28  13  14  1   
 29  13  39  1   
 30  13  40  1   
 31  14  15  am  
 32  15  16  2   
 33  15  17  1   
 34  17  18  1   
 35  17  41  1   
 36  17  42  1   
 37  18  19  1   
 38  18  43  1   
 39  18  44  1   
 40  19  20  am  
 41  19  21  1   
 42  20  22  2   
 43  20  23  1   
 44  21  24  1   
 45  21  45  1   
 46  21  46  1   
 47  23  25  1   
 48  23  47  1   
 49  23  48  1   
 50  24  26  1   
 51  24  49  1   
 52  24  50  1   
 53  25  26  1   
 54  25  51  1   
 55  25  52  1   
 56  26  53  1   
 57  26  54  1   
@<TRIPOS>SUBSTRUCTURE
  1 ****  12 GROUP 4 **** **** 0

# MOE 2024.06 (io_trps.svl 2023.06)
