@<TRIPOS>MOLECULE
NONAME
53 55 1 0 0 
SMALL
USER_CHARGES


@<TRIPOS>ATOM
  1 O       -0.8280     0.1590     1.7200 O.2   1 <1>  -0.5700 
  2 C       -1.2890     0.6750     0.7310 C.2   1 <1>   0.5690 
  3 N       -1.8010    -0.0580    -0.2930 N.am  1 <1>  -0.7300 
  4 C       -1.3040     2.1980     0.6330 C.3   1 <1>  -0.0190 
  5 C       -1.8370    -1.5390    -0.3440 C.3   1 <1>   0.1400 
  6 C       -2.7250     2.7530     0.4140 C.3   1 <1>  -0.1600 
  7 C       -0.3240     2.7160    -0.4480 C.3   1 <1>  -0.1600 
  8 C       -3.2520    -2.0370    -0.0320 C.3   1 <1>  -0.0170 
  9 C       -2.7580     4.2900     0.4930 C.3   1 <1>   0.2000 
 10 C       -0.6860     4.1110    -0.9970 C.3   1 <1>  -0.1600 
 11 C       -3.5710    -3.5360    -0.2080 C.ar  1 <1>  -0.1440 
 12 O       -3.8130     4.7090    -0.3350 O.3   1 <1>  -0.5600 
 13 C       -1.4260     4.9540     0.0460 C.3   1 <1>   0.2000 
 14 C       -2.6160    -4.5140    -0.4190 C.ar  1 <1>   0.0820 
 15 C       -4.9450    -3.9140    -0.1440 C.ar  1 <1>   0.0000 
 16 C       -4.7450     5.5430     0.2810 C.3   1 <1>   0.0400 
 17 O       -1.6860     6.1870    -0.5160 O.3   1 <1>  -0.6800 
 18 O       -1.2920    -4.2580    -0.4400 O.3   1 <1>  -0.3630 
 19 C       -2.9820    -5.8480    -0.6370 C.ar  1 <1>  -0.1500 
 20 C       -5.3020    -5.2670    -0.3660 C.ar  1 <1>   0.0000 
 21 C       -6.0070    -3.0160     0.1400 C.ar  1 <1>  -0.1500 
 22 C       -0.5500    -4.6880     0.6810 C.3   1 <1>   0.0400 
 23 C       -4.2930    -6.2140    -0.6140 C.ar  1 <1>  -0.1500 
 24 C       -6.6570    -5.6500    -0.3320 C.ar  1 <1>  -0.1500 
 25 C       -7.3150    -3.4140     0.1730 C.ar  1 <1>  -0.1500 
 26 C       -7.6480    -4.7480    -0.0710 C.ar  1 <1>  -0.1500 
 27 H       -2.1850     0.4240    -1.1070 H     1 <1>   0.3700 
 28 H       -0.9640     2.5680     1.5850 H     1 <1>   0.0800 
 29 H       -1.5360    -1.8670    -1.3240 H     1 <1>   0.0800 
 30 H       -1.1450    -1.9350     0.3790 H     1 <1>   0.0800 
 31 H       -3.3900     2.3500     1.1580 H     1 <1>   0.0800 
 32 H       -3.0750     2.4400    -0.5540 H     1 <1>   0.0800 
 33 H        0.6630     2.7460    -0.0190 H     1 <1>   0.0800 
 34 H       -0.2850     2.0310    -1.2770 H     1 <1>   0.0800 
 35 H       -3.4790    -1.7630     0.9830 H     1 <1>   0.0800 
 36 H       -3.9080    -1.4920    -0.6860 H     1 <1>   0.0800 
 37 H       -2.9540     4.5830     1.5110 H     1 <1>   0.0800 
 38 H       -1.3250     3.9940    -1.8550 H     1 <1>   0.0800 
 39 H        0.2100     4.6190    -1.3100 H     1 <1>   0.0800 
 40 H       -0.7830     5.1080     0.8960 H     1 <1>   0.0800 
 41 H       -5.4830     5.8210    -0.4510 H     1 <1>   0.0800 
 42 H       -4.2470     6.4240     0.6490 H     1 <1>   0.0800 
 43 H       -5.2180     5.0100     1.0880 H     1 <1>   0.0800 
 44 H       -2.5380     6.0930    -0.9980 H     1 <1>   0.4000 
 45 H       -2.2110    -6.5710    -0.8280 H     1 <1>   0.1500 
 46 H       -5.7950    -1.9850     0.3450 H     1 <1>   0.1500 
 47 H        0.4610    -4.3400     0.5680 H     1 <1>   0.0800 
 48 H       -0.5670    -5.7620     0.7260 H     1 <1>   0.0800 
 49 H       -0.9880    -4.2670     1.5690 H     1 <1>   0.0800 
 50 H       -4.5760    -7.2360    -0.7860 H     1 <1>   0.1500 
 51 H       -6.9030    -6.6810    -0.5170 H     1 <1>   0.1500 
 52 H       -8.1010    -2.7120     0.3870 H     1 <1>   0.1500 
 53 H       -8.6810    -5.0470    -0.0460 H     1 <1>   0.1500 
@<TRIPOS>BOND
  1   1   2  2   
  2   2   3  am  
  3   2   4  1   
  4   3   5  1   
  5   3  27  1   
  6   4   6  1   
  7   4   7  1   
  8   4  28  1   
  9   5   8  1   
 10   5  29  1   
 11   5  30  1   
 12   6   9  1   
 13   6  31  1   
 14   6  32  1   
 15   7  10  1   
 16   7  33  1   
 17   7  34  1   
 18   8  11  1   
 19   8  35  1   
 20   8  36  1   
 21   9  12  1   
 22   9  13  1   
 23   9  37  1   
 24  10  13  1   
 25  10  38  1   
 26  10  39  1   
 27  11  14  ar  
 28  11  15  ar  
 29  12  16  1   
 30  13  17  1   
 31  13  40  1   
 32  14  18  1   
 33  14  19  ar  
 34  15  20  ar  
 35  15  21  ar  
 36  16  41  1   
 37  16  42  1   
 38  16  43  1   
 39  17  44  1   
 40  18  22  1   
 41  19  23  ar  
 42  19  45  1   
 43  20  23  ar  
 44  20  24  ar  
 45  21  25  ar  
 46  21  46  1   
 47  22  47  1   
 48  22  48  1   
 49  22  49  1   
 50  23  50  1   
 51  24  26  ar  
 52  24  51  1   
 53  25  26  ar  
 54  25  52  1   
 55  26  53  1   
@<TRIPOS>SUBSTRUCTURE
  1 ****   8 GROUP 4 **** **** 0

# MOE 2024.06 (io_trps.svl 2023.06)
