@<TRIPOS>MOLECULE
NONAME
40 42 1 0 0 
SMALL
USER_CHARGES


@<TRIPOS>ATOM
  1 O        1.3530     1.2940    -1.5410 O.3   1 <1>  -0.0190 
  2 N        2.2170     0.3220    -1.5010 N.2   1 <1>  -0.4100 
  3 C        0.9110     1.6010    -0.3510 C.2   1 <1>  -0.0400 
  4 C        2.3270    -0.0070    -0.2630 C.2   1 <1>   0.1080 
  5 C        1.5070     0.7880     0.5330 C.2   1 <1>  -0.1500 
  6 C       -0.0950     2.7220    -0.1740 C.3   1 <1>   0.0200 
  7 C        3.2290    -1.1080     0.2470 C.3   1 <1>  -0.0590 
  8 C        0.4490     4.0490    -0.7350 C.3   1 <1>  -0.0800 
  9 C       -0.4610     5.2610    -0.5410 C.3   1 <1>   0.2000 
 10 C        1.7760     4.4750    -0.1090 C.3   1 <1>   0.2090 
 11 O       -1.0000     5.2200     0.7530 O.3   1 <1>  -0.5600 
 12 C        0.5000     6.4520    -0.6780 C.3   1 <1>   0.2090 
 13 N        1.8590     5.9510    -0.3050 N.pl3 1 <1>  -0.8380 
 14 C       -2.1530     5.9790     0.9410 C.3   1 <1>   0.0400 
 15 C        2.9620     6.7170    -0.0890 C.ar  1 <1>   0.1000 
 16 C        2.9710     8.0940    -0.3580 C.ar  1 <1>  -0.1500 
 17 C        4.1530     6.1750     0.4170 C.ar  1 <1>  -0.1500 
 18 C        4.0880     8.8540    -0.1300 C.ar  1 <1>   0.2110 
 19 C        5.2550     6.9580     0.6340 C.ar  1 <1>   0.2110 
 20 N        5.2170     8.2860     0.3620 N.ar  1 <1>  -0.1790 
 21 H        1.4020     0.7330     1.6010 H     1 <1>   0.1500 
 22 H       -1.0050     2.4620    -0.6840 H     1 <1>   0.0800 
 23 H       -0.3180     2.8200     0.8740 H     1 <1>   0.0800 
 24 H        2.6480    -1.8360     0.7830 H     1 <1>   0.0800 
 25 H        3.9740    -0.6950     0.9020 H     1 <1>   0.0800 
 26 H        3.7190    -1.5930    -0.5780 H     1 <1>   0.0800 
 27 H        0.6200     3.9290    -1.7900 H     1 <1>   0.0800 
 28 H       -1.2600     5.2840    -1.2610 H     1 <1>   0.0800 
 29 H        2.6000     3.9680    -0.5820 H     1 <1>   0.0800 
 30 H        1.7710     4.2620     0.9470 H     1 <1>   0.0800 
 31 H        0.2000     7.2680    -0.0450 H     1 <1>   0.0800 
 32 H        0.5220     6.7760    -1.7040 H     1 <1>   0.0800 
 33 H       -2.4560     5.8740     1.9680 H     1 <1>   0.0800 
 34 H       -2.9310     5.6090     0.2960 H     1 <1>   0.0800 
 35 H       -1.9450     7.0130     0.7320 H     1 <1>   0.0800 
 36 H        2.0850     8.5560    -0.7520 H     1 <1>   0.1500 
 37 H        4.1970     5.1250     0.6410 H     1 <1>   0.1500 
 38 H        4.0880     9.9130    -0.3390 H     1 <1>   0.1500 
 39 H        6.1660     6.5330     1.0250 H     1 <1>   0.1500 
 40 H        6.0470     8.8650     0.5300 H     1 <1>   0.4570 
@<TRIPOS>BOND
  1   1   2  1   
  2   1   3  1   
  3   2   4  2   
  4   3   5  2   
  5   3   6  1   
  6   4   5  1   
  7   4   7  1   
  8   5  21  1   
  9   6   8  1   
 10   6  22  1   
 11   6  23  1   
 12   7  24  1   
 13   7  25  1   
 14   7  26  1   
 15   8   9  1   
 16   8  10  1   
 17   8  27  1   
 18   9  11  1   
 19   9  12  1   
 20   9  28  1   
 21  10  13  1   
 22  10  29  1   
 23  10  30  1   
 24  11  14  1   
 25  12  13  1   
 26  12  31  1   
 27  12  32  1   
 28  13  15  1   
 29  14  33  1   
 30  14  34  1   
 31  14  35  1   
 32  15  16  ar  
 33  15  17  ar  
 34  16  18  ar  
 35  16  36  1   
 36  17  19  ar  
 37  17  37  1   
 38  18  20  ar  
 39  18  38  1   
 40  19  20  ar  
 41  19  39  1   
 42  20  40  1   
@<TRIPOS>SUBSTRUCTURE
  1 ****  10 GROUP 4 **** **** 0

# MOE 2024.06 (io_trps.svl 2023.06)
