@<TRIPOS>MOLECULE
NONAME
46 48 1 0 0 
SMALL
USER_CHARGES


@<TRIPOS>ATOM
  1 CL      -0.5240    -1.0320    -0.2570 Cl    1 <1>  -0.1770 
  2 C       -1.8190    -0.0290     0.3470 C.ar  1 <1>   0.1770 
  3 C       -2.9900     0.1010    -0.3900 C.ar  1 <1>  -0.1440 
  4 C       -1.6540     0.5980     1.5670 C.ar  1 <1>  -0.1500 
  5 C       -4.0310     0.8700     0.1230 C.ar  1 <1>  -0.1500 
  6 C       -3.1350    -0.5990    -1.7300 C.3   1 <1>   0.4870 
  7 C       -2.7040     1.3570     2.0450 C.ar  1 <1>   0.1900 
  8 C       -3.8890     1.5010     1.3480 C.ar  1 <1>  -0.1500 
  9 N       -4.2050    -1.6180    -1.6230 N.4   1 <1>  -0.9590 
 10 F       -2.5720     1.9530     3.1980 F     1 <1>  -0.1900 
 11 C       -4.0660    -2.5780    -0.4620 C.3   1 <1>   0.3430 
 12 C       -4.5980    -2.2580    -2.9030 C.3   1 <1>   0.3430 
 13 C       -5.1140    -3.7420    -0.4830 C.3   1 <1>   0.4230 
 14 C       -5.9260    -3.0280    -2.7330 C.3   1 <1>  -0.1600 
 15 N       -5.5410    -4.2650     0.8630 N.4   1 <1>  -0.9590 
 16 C       -6.3730    -3.2960    -1.2590 C.3   1 <1>  -0.1060 
 17 C       -6.3930    -5.4950     0.7870 C.3   1 <1>   0.3430 
 18 C       -4.4980    -4.3750     1.9240 C.3   1 <1>   0.2630 
 19 C       -6.8410    -2.0170    -0.5430 C.2   1 <1>   0.9060 
 20 C       -7.4980    -4.3730    -1.2240 C.3   1 <1>  -0.1600 
 21 C       -7.0180    -5.6940    -0.6030 C.3   1 <1>  -0.1600 
 22 O       -7.0510    -2.0930     0.6690 O.co2 1 <1>  -0.9000 
 23 O       -6.7210    -0.9290    -1.1120 O.co2 1 <1>  -0.9000 
 24 H       -0.7440     0.5010     2.1310 H     1 <1>   0.1500 
 25 H       -4.9630     0.9820    -0.4140 H     1 <1>   0.1500 
 26 H       -2.2080    -1.0630    -2.0210 H     1 <1>   0.0800 
 27 H       -3.4000     0.1290    -2.4800 H     1 <1>   0.0800 
 28 H       -4.6880     2.0960     1.7590 H     1 <1>   0.1500 
 29 H       -5.0650    -1.0500    -1.3870 H     1 <1>   0.4500 
 30 H       -3.0750    -2.9980    -0.4550 H     1 <1>   0.0800 
 31 H       -4.2070    -2.0190     0.4490 H     1 <1>   0.0800 
 32 H       -4.7260    -1.5060    -3.6670 H     1 <1>   0.0800 
 33 H       -3.8210    -2.9340    -3.2230 H     1 <1>   0.0800 
 34 H       -4.6650    -4.5580    -1.0230 H     1 <1>   0.0800 
 35 H       -6.7040    -2.4730    -3.2320 H     1 <1>   0.0800 
 36 H       -5.8320    -3.9590    -3.2650 H     1 <1>   0.0800 
 37 H       -6.2140    -3.5050     1.1670 H     1 <1>   0.4500 
 38 H       -5.8090    -6.3670     1.0340 H     1 <1>   0.0800 
 39 H       -7.1840    -5.4090     1.5160 H     1 <1>   0.0800 
 40 H       -3.7510    -5.1000     1.6460 H     1 <1>   0.0800 
 41 H       -4.9510    -4.6840     2.8520 H     1 <1>   0.0800 
 42 H       -4.0240    -3.4210     2.0860 H     1 <1>   0.0800 
 43 H       -8.3250    -4.0090    -0.6340 H     1 <1>   0.0800 
 44 H       -7.8910    -4.5560    -2.2100 H     1 <1>   0.0800 
 45 H       -6.3000    -6.1630    -1.2520 H     1 <1>   0.0800 
 46 H       -7.8490    -6.3720    -0.5150 H     1 <1>   0.0800 
@<TRIPOS>BOND
  1   1   2  1   
  2   2   3  ar  
  3   2   4  ar  
  4   3   5  ar  
  5   3   6  1   
  6   4   7  ar  
  7   4  24  1   
  8   5   8  ar  
  9   5  25  1   
 10   6   9  1   
 11   6  26  1   
 12   6  27  1   
 13   7   8  ar  
 14   7  10  1   
 15   8  28  1   
 16   9  11  1   
 17   9  12  1   
 18   9  29  1   
 19  11  13  1   
 20  11  30  1   
 21  11  31  1   
 22  12  14  1   
 23  12  32  1   
 24  12  33  1   
 25  13  15  1   
 26  13  16  1   
 27  13  34  1   
 28  14  16  1   
 29  14  35  1   
 30  14  36  1   
 31  15  17  1   
 32  15  18  1   
 33  15  37  1   
 34  16  19  1   
 35  16  20  1   
 36  17  21  1   
 37  17  38  1   
 38  17  39  1   
 39  18  40  1   
 40  18  41  1   
 41  18  42  1   
 42  19  22  ar  
 43  19  23  ar  
 44  20  21  1   
 45  20  43  1   
 46  20  44  1   
 47  21  45  1   
 48  21  46  1   
@<TRIPOS>SUBSTRUCTURE
  1 ****  11 GROUP 4 **** **** 0

# MOE 2024.06 (io_trps.svl 2023.06)
