@<TRIPOS>MOLECULE
NONAME
54 56 1 0 0 
SMALL
USER_CHARGES


@<TRIPOS>ATOM
  1 F       -1.7060    -0.6180     0.0750 F     1 <1>  -0.1900 
  2 C       -2.6790     0.2480    -0.0140 C.ar  1 <1>   0.1900 
  3 C       -2.4430     1.5560     0.3640 C.ar  1 <1>  -0.1500 
  4 C       -3.9080    -0.1740    -0.4830 C.ar  1 <1>  -0.1500 
  5 C       -3.4780     2.4720     0.2670 C.ar  1 <1>  -0.1500 
  6 C       -4.9330     0.7510    -0.5750 C.ar  1 <1>  -0.1500 
  7 C       -4.7250     2.0750    -0.2020 C.ar  1 <1>  -0.1430 
  8 C       -5.8610     3.0860    -0.3170 C.3   1 <1>   0.2540 
  9 N       -7.1060     2.5760     0.2820 N.3   1 <1>  -0.8100 
 10 C       -8.2660     3.4580    -0.0420 C.3   1 <1>   0.1710 
 11 C       -6.9740     2.3680     1.7330 C.3   1 <1>   0.0300 
 12 C       -9.6850     2.9800     0.3430 C.2   1 <1>   0.5690 
 13 O       -9.8750     1.8090     0.5930 O.2   1 <1>  -0.5700 
 14 N      -10.7240     3.8840     0.3800 N.am  1 <1>  -0.6600 
 15 C      -12.0940     3.4720     0.8260 C.3   1 <1>   0.1400 
 16 C      -10.6710     5.2950    -0.0940 C.3   1 <1>   0.1400 
 17 C      -13.1190     3.6120    -0.3270 C.3   1 <1>   0.0000 
 18 C      -11.6510     5.4820    -1.2590 C.3   1 <1>  -0.1600 
 19 C      -14.5350     3.2250     0.1340 C.3   1 <1>   0.2000 
 20 C      -13.0780     5.0530    -0.8790 C.3   1 <1>  -0.1600 
 21 C      -12.8510     2.5570    -1.4150 C.3   1 <1>  -0.1600 
 22 O      -14.8100     3.7130     1.4140 O.3   1 <1>  -0.5600 
 23 C      -14.5810     1.6940     0.0940 C.3   1 <1>  -0.1600 
 24 C      -13.4920     1.2650    -0.9000 C.3   1 <1>  -0.1600 
 25 C      -16.1520     3.6690     1.7850 C.3   1 <1>   0.0400 
 26 H       -1.4730     1.8450     0.7240 H     1 <1>   0.1500 
 27 H       -4.0580    -1.2000    -0.7660 H     1 <1>   0.1500 
 28 H       -3.3080     3.4930     0.5590 H     1 <1>   0.1500 
 29 H       -5.9040     0.4470    -0.9290 H     1 <1>   0.1500 
 30 H       -6.0260     3.2810    -1.3620 H     1 <1>   0.0800 
 31 H       -5.5850     4.0110     0.1580 H     1 <1>   0.0800 
 32 H       -8.0980     4.4070     0.4320 H     1 <1>   0.0800 
 33 H       -8.2820     3.6160    -1.1050 H     1 <1>   0.0800 
 34 H       -6.1690     1.6830     1.9390 H     1 <1>   0.0800 
 35 H       -7.8760     1.9360     2.1310 H     1 <1>   0.0800 
 36 H       -6.7790     3.3000     2.2350 H     1 <1>   0.0800 
 37 H      -12.0860     2.4610     1.1940 H     1 <1>   0.0800 
 38 H      -12.3850     4.1040     1.6470 H     1 <1>   0.0800 
 39 H      -10.9490     5.9440     0.7200 H     1 <1>   0.0800 
 40 H       -9.6850     5.5680    -0.4170 H     1 <1>   0.0800 
 41 H      -11.6560     6.5170    -1.5530 H     1 <1>   0.0800 
 42 H      -11.3070     4.9060    -2.1000 H     1 <1>   0.0800 
 43 H      -15.2540     3.6310    -0.5580 H     1 <1>   0.0800 
 44 H      -13.7230     5.1430    -1.7360 H     1 <1>   0.0800 
 45 H      -13.4510     5.7210    -0.1210 H     1 <1>   0.0800 
 46 H      -13.3390     2.8460    -2.3290 H     1 <1>   0.0800 
 47 H      -11.8020     2.4200    -1.6160 H     1 <1>   0.0800 
 48 H      -14.3570     1.2890     1.0660 H     1 <1>   0.0800 
 49 H      -15.5480     1.3530    -0.2270 H     1 <1>   0.0800 
 50 H      -12.7500     0.6740    -0.3880 H     1 <1>   0.0800 
 51 H      -13.8980     0.6840    -1.7100 H     1 <1>   0.0800 
 52 H      -16.2390     4.0880     2.7710 H     1 <1>   0.0800 
 53 H      -16.4880     2.6470     1.7970 H     1 <1>   0.0800 
 54 H      -16.7320     4.2520     1.0910 H     1 <1>   0.0800 
@<TRIPOS>BOND
  1   1   2  1   
  2   2   3  ar  
  3   2   4  ar  
  4   3   5  ar  
  5   3  26  1   
  6   4   6  ar  
  7   4  27  1   
  8   5   7  ar  
  9   5  28  1   
 10   6   7  ar  
 11   6  29  1   
 12   7   8  1   
 13   8   9  1   
 14   8  30  1   
 15   8  31  1   
 16   9  10  1   
 17   9  11  1   
 18  10  12  1   
 19  10  32  1   
 20  10  33  1   
 21  11  34  1   
 22  11  35  1   
 23  11  36  1   
 24  12  13  2   
 25  12  14  am  
 26  14  15  1   
 27  14  16  1   
 28  15  17  1   
 29  15  37  1   
 30  15  38  1   
 31  16  18  1   
 32  16  39  1   
 33  16  40  1   
 34  17  19  1   
 35  17  20  1   
 36  17  21  1   
 37  18  20  1   
 38  18  41  1   
 39  18  42  1   
 40  19  22  1   
 41  19  23  1   
 42  19  43  1   
 43  20  44  1   
 44  20  45  1   
 45  21  24  1   
 46  21  46  1   
 47  21  47  1   
 48  22  25  1   
 49  23  24  1   
 50  23  48  1   
 51  23  49  1   
 52  24  50  1   
 53  24  51  1   
 54  25  52  1   
 55  25  53  1   
 56  25  54  1   
@<TRIPOS>SUBSTRUCTURE
  1 ****  12 GROUP 4 **** **** 0

# MOE 2024.06 (io_trps.svl 2023.06)
