@<TRIPOS>MOLECULE
NONAME
48 51 1 0 0 
SMALL
USER_CHARGES


@<TRIPOS>ATOM
  1 O       -0.2670     1.0380     1.5200 O.2   1 <1>  -0.5700 
  2 C       -0.0260     2.1890     1.2030 C.2   1 <1>   0.5440 
  3 N       -1.0720     3.0720     1.0170 N.am  1 <1>  -0.6600 
  4 C        1.3530     2.5950     1.0180 C.ar  1 <1>   0.0860 
  5 C       -2.4870     2.6750     1.2860 C.3   1 <1>   0.1400 
  6 C       -0.8980     4.3950     0.3450 C.3   1 <1>   0.1400 
  7 C        2.1780     1.9080     0.1210 C.ar  1 <1>  -0.1500 
  8 C        1.9000     3.6750     1.7240 C.ar  1 <1>  -0.1500 
  9 C       -3.3180     2.5700    -0.0240 C.3   1 <1>   0.0000 
 10 C       -2.1730     4.8360    -0.3920 C.3   1 <1>  -0.1600 
 11 C        3.4850     2.3120    -0.0630 C.ar  1 <1>  -0.1430 
 12 C        3.2120     4.0770     1.5360 C.ar  1 <1>  -0.1500 
 13 C       -4.8150     2.6390     0.3570 C.3   1 <1>   0.2000 
 14 C       -2.8560     3.6360    -1.0610 C.3   1 <1>  -0.1600 
 15 C       -3.1950     1.1500    -0.6040 C.3   1 <1>  -0.1600 
 16 C        3.9880     3.3800     0.6310 C.ar  1 <1>   0.0830 
 17 C        4.5650     1.7650    -0.9480 C.3   1 <1>  -0.0170 
 18 O       -5.6010     2.8550    -0.7820 O.3   1 <1>  -0.5600 
 19 C       -5.1400     1.2400     0.8940 C.3   1 <1>  -0.1600 
 20 C       -4.1870     0.2760     0.1740 C.3   1 <1>  -0.1600 
 21 O        5.2670     3.6400     0.3340 O.3   1 <1>  -0.3630 
 22 C        5.7410     2.7050    -0.6260 C.3   1 <1>   0.1200 
 23 C       -6.8440     3.4360    -0.5430 C.3   1 <1>   0.0400 
 24 H       -2.5200     1.7460     1.8280 H     1 <1>   0.0800 
 25 H       -2.9160     3.4250     1.9250 H     1 <1>   0.0800 
 26 H       -0.6260     5.1380     1.0750 H     1 <1>   0.0800 
 27 H       -0.0990     4.3180    -0.3730 H     1 <1>   0.0800 
 28 H        1.7810     1.0650    -0.4170 H     1 <1>   0.1500 
 29 H        1.2810     4.1970     2.4310 H     1 <1>   0.1500 
 30 H       -2.8510     5.3020     0.3010 H     1 <1>   0.0800 
 31 H       -1.9140     5.5710    -1.1330 H     1 <1>   0.0800 
 32 H        3.6340     4.9060     2.0740 H     1 <1>   0.1500 
 33 H       -5.0100     3.4190     1.0730 H     1 <1>   0.0800 
 34 H       -2.1400     3.1860    -1.7270 H     1 <1>   0.0800 
 35 H       -3.6720     3.9770    -1.6730 H     1 <1>   0.0800 
 36 H       -3.4930     1.1630    -1.6380 H     1 <1>   0.0800 
 37 H       -2.1890     0.7720    -0.5390 H     1 <1>   0.0800 
 38 H        4.2920     1.8300    -1.9860 H     1 <1>   0.0800 
 39 H        4.8020     0.7480    -0.6920 H     1 <1>   0.0800 
 40 H       -4.9340     1.2110     1.9490 H     1 <1>   0.0800 
 41 H       -6.1690     0.9710     0.7400 H     1 <1>   0.0800 
 42 H       -3.6660    -0.3370     0.8900 H     1 <1>   0.0800 
 43 H       -4.7270    -0.3620    -0.5050 H     1 <1>   0.0800 
 44 H        6.0630     3.2510    -1.4950 H     1 <1>   0.0800 
 45 H        6.5680     2.1710    -0.1920 H     1 <1>   0.0800 
 46 H       -7.3580     3.5190    -1.4840 H     1 <1>   0.0800 
 47 H       -6.7000     4.4160    -0.1210 H     1 <1>   0.0800 
 48 H       -7.4110     2.8140     0.1260 H     1 <1>   0.0800 
@<TRIPOS>BOND
  1   1   2  2   
  2   2   3  am  
  3   2   4  1   
  4   3   5  1   
  5   3   6  1   
  6   4   7  ar  
  7   4   8  ar  
  8   5   9  1   
  9   5  24  1   
 10   5  25  1   
 11   6  10  1   
 12   6  26  1   
 13   6  27  1   
 14   7  11  ar  
 15   7  28  1   
 16   8  12  ar  
 17   8  29  1   
 18   9  13  1   
 19   9  14  1   
 20   9  15  1   
 21  10  14  1   
 22  10  30  1   
 23  10  31  1   
 24  11  16  ar  
 25  11  17  1   
 26  12  16  ar  
 27  12  32  1   
 28  13  18  1   
 29  13  19  1   
 30  13  33  1   
 31  14  34  1   
 32  14  35  1   
 33  15  20  1   
 34  15  36  1   
 35  15  37  1   
 36  16  21  1   
 37  17  22  1   
 38  17  38  1   
 39  17  39  1   
 40  18  23  1   
 41  19  20  1   
 42  19  40  1   
 43  19  41  1   
 44  20  42  1   
 45  20  43  1   
 46  21  22  1   
 47  22  44  1   
 48  22  45  1   
 49  23  46  1   
 50  23  47  1   
 51  23  48  1   
@<TRIPOS>SUBSTRUCTURE
  1 ****   3 GROUP 4 **** **** 0

# MOE 2024.06 (io_trps.svl 2023.06)
