@<TRIPOS>MOLECULE
NONAME
24 25 1 0 0 
SMALL
USER_CHARGES


@<TRIPOS>ATOM
  1 F       -0.2570    -0.2230     0.6650 F     1 <1>  -0.1900 
  2 C       -0.1160    -1.5080     0.4760 C.ar  1 <1>   0.1900 
  3 C        1.1480    -2.0760     0.4870 C.ar  1 <1>  -0.0320 
  4 C       -1.2640    -2.2510     0.2760 C.ar  1 <1>  -0.1500 
  5 C        1.2390    -3.4470     0.3060 C.ar  1 <1>  -0.1500 
  6 C        2.4010    -1.2380     0.6910 C.3   1 <1>  -0.0680 
  7 C       -1.1660    -3.6240     0.0810 C.ar  1 <1>  -0.1440 
  8 C        0.0990    -4.2100     0.1050 C.ar  1 <1>  -0.1500 
  9 C        2.8300    -0.2910    -0.3910 C.3   1 <1>  -0.2470 
 10 C        3.6510    -1.5130    -0.0920 C.3   1 <1>  -0.2000 
 11 C       -2.4170    -4.4810    -0.1450 C.3   1 <1>   1.1640 
 12 C        3.3260     1.1060    -0.0540 C.2   1 <1>   0.9470 
 13 F       -2.8270    -5.0610     0.9750 F     1 <1>  -0.3400 
 14 F       -3.4500    -3.7840    -0.6060 F     1 <1>  -0.3400 
 15 F       -2.2120    -5.4590    -1.0190 F     1 <1>  -0.3400 
 16 O        3.1760     1.9960    -0.8960 O.co2 1 <1>  -0.9000 
 17 O        3.8740     1.3060     1.0360 O.co2 1 <1>  -0.9000 
 18 H       -2.2130    -1.7430     0.2770 H     1 <1>   0.1500 
 19 H        2.2050    -3.9190     0.3210 H     1 <1>   0.1500 
 20 H        2.5110    -0.8890     1.7040 H     1 <1>   0.1000 
 21 H        0.2070    -5.2730    -0.0340 H     1 <1>   0.1500 
 22 H        2.2580    -0.2810    -1.2980 H     1 <1>   0.1000 
 23 H        3.6760    -2.2840    -0.8390 H     1 <1>   0.1000 
 24 H        4.6030    -1.3650     0.3890 H     1 <1>   0.1000 
@<TRIPOS>BOND
  1   1   2  1   
  2   2   3  ar  
  3   2   4  ar  
  4   3   5  ar  
  5   3   6  1   
  6   4   7  ar  
  7   4  18  1   
  8   5   8  ar  
  9   5  19  1   
 10   6   9  1   
 11   6  10  1   
 12   6  20  1   
 13   7   8  ar  
 14   7  11  1   
 15   8  21  1   
 16   9  10  1   
 17   9  12  1   
 18   9  22  1   
 19  10  23  1   
 20  10  24  1   
 21  11  13  1   
 22  11  14  1   
 23  11  15  1   
 24  12  16  ar  
 25  12  17  ar  
@<TRIPOS>SUBSTRUCTURE
  1 ****   3 GROUP 4 **** **** 0

# MOE 2024.06 (io_trps.svl 2023.06)
