@<TRIPOS>MOLECULE
NONAME
55 57 1 0 0 
SMALL
USER_CHARGES


@<TRIPOS>ATOM
  1 O       -0.8080    -0.3990    -0.7490 O.2   1 <1>  -0.5700 
  2 C       -1.8310     0.2220    -0.5240 C.2   1 <1>   0.5440 
  3 N       -1.7280     1.4960    -0.0050 N.am  1 <1>  -0.6600 
  4 C       -3.1020    -0.4030    -0.7990 C.ar  1 <1>   0.0860 
  5 C       -0.4210     2.2160     0.0490 C.3   1 <1>   0.1400 
  6 C       -2.8110     2.2060     0.7390 C.3   1 <1>   0.1400 
  7 C       -3.3670    -1.6900    -0.3390 C.ar  1 <1>   0.1600 
  8 C       -4.1070     0.2190    -1.5340 C.ar  1 <1>  -0.1500 
  9 C       -0.6040     3.7000    -0.3130 C.3   1 <1>   0.1200 
 10 C       -2.8660     3.6870     0.3270 C.3   1 <1>   0.1200 
 11 N       -4.4940    -2.3610    -0.5100 N.ar  1 <1>  -0.6200 
 12 C       -5.2820    -0.4650    -1.7290 C.ar  1 <1>  -0.1500 
 13 O       -1.6080     4.2850     0.4690 O.3   1 <1>  -0.5600 
 14 C       -5.4420    -1.7460    -1.2060 C.ar  1 <1>   0.4100 
 15 N       -6.6220    -2.4140    -1.4040 N.pl3 1 <1>  -0.8690 
 16 C       -6.7920    -3.8790    -1.1710 C.3   1 <1>   0.2090 
 17 C       -7.1360    -4.1680     0.2930 C.3   1 <1>   0.2090 
 18 N       -7.3770    -5.6330     0.4820 N.pl3 1 <1>  -0.8380 
 19 C       -8.7030    -6.0340     0.6000 C.ar  1 <1>   0.1000 
 20 C       -6.4080    -6.3180     1.3700 C.3   1 <1>   0.2090 
 21 C       -9.2840    -6.7960    -0.4040 C.ar  1 <1>  -0.1500 
 22 C       -9.4690    -5.6910     1.7080 C.ar  1 <1>  -0.1500 
 23 C       -5.1340    -6.6110     0.5870 C.3   1 <1>  -0.2400 
 24 C      -10.6020    -7.2100    -0.3160 C.ar  1 <1>  -0.1430 
 25 C      -10.7860    -6.1000     1.8060 C.ar  1 <1>  -0.1500 
 26 C      -11.3530    -6.8580     0.7950 C.ar  1 <1>  -0.1500 
 27 C      -11.2290    -8.0430    -1.4190 C.3   1 <1>  -0.0970 
 28 H        0.2820     1.7710    -0.6350 H     1 <1>   0.0800 
 29 H       -0.0130     2.1380     1.0420 H     1 <1>   0.0800 
 30 H       -2.6040     2.1490     1.7940 H     1 <1>   0.0800 
 31 H       -3.7670     1.7480     0.5690 H     1 <1>   0.0800 
 32 H       -2.5860    -2.1880     0.2100 H     1 <1>   0.1500 
 33 H       -3.9540     1.2050    -1.9360 H     1 <1>   0.1500 
 34 H       -0.8710     3.8030    -1.3500 H     1 <1>   0.0800 
 35 H        0.3080     4.2400    -0.1350 H     1 <1>   0.0800 
 36 H       -3.5560     4.2220     0.9540 H     1 <1>   0.0800 
 37 H       -3.1800     3.7860    -0.6980 H     1 <1>   0.0800 
 38 H       -6.0860    -0.0260    -2.2860 H     1 <1>   0.1500 
 39 H       -7.3010    -2.0060    -2.0470 H     1 <1>   0.4000 
 40 H       -5.8840    -4.3950    -1.4300 H     1 <1>   0.0800 
 41 H       -7.5860    -4.2480    -1.7950 H     1 <1>   0.0800 
 42 H       -8.0220    -3.6180     0.5560 H     1 <1>   0.0800 
 43 H       -6.3270    -3.8360     0.9180 H     1 <1>   0.0800 
 44 H       -6.8360    -7.2440     1.7180 H     1 <1>   0.0800 
 45 H       -6.1910    -5.7020     2.2270 H     1 <1>   0.0800 
 46 H       -8.6790    -7.0570    -1.2510 H     1 <1>   0.1500 
 47 H       -9.0240    -5.1050     2.4890 H     1 <1>   0.1500 
 48 H       -5.3680    -7.1990    -0.2820 H     1 <1>   0.0800 
 49 H       -4.4490    -7.1620     1.2030 H     1 <1>   0.0800 
 50 H       -4.6600    -5.6950     0.2830 H     1 <1>   0.0800 
 51 H      -11.3710    -5.8290     2.6670 H     1 <1>   0.1500 
 52 H      -12.3780    -7.1740     0.8760 H     1 <1>   0.1500 
 53 H      -10.5720    -8.1110    -2.2670 H     1 <1>   0.0800 
 54 H      -12.1540    -7.5970    -1.7370 H     1 <1>   0.0800 
 55 H      -11.4270    -9.0360    -1.0570 H     1 <1>   0.0800 
@<TRIPOS>BOND
  1   1   2  2   
  2   2   3  am  
  3   2   4  1   
  4   3   5  1   
  5   3   6  1   
  6   4   7  ar  
  7   4   8  ar  
  8   5   9  1   
  9   5  28  1   
 10   5  29  1   
 11   6  10  1   
 12   6  30  1   
 13   6  31  1   
 14   7  11  ar  
 15   7  32  1   
 16   8  12  ar  
 17   8  33  1   
 18   9  13  1   
 19   9  34  1   
 20   9  35  1   
 21  10  13  1   
 22  10  36  1   
 23  10  37  1   
 24  11  14  ar  
 25  12  14  ar  
 26  12  38  1   
 27  14  15  1   
 28  15  16  1   
 29  15  39  1   
 30  16  17  1   
 31  16  40  1   
 32  16  41  1   
 33  17  18  1   
 34  17  42  1   
 35  17  43  1   
 36  18  19  1   
 37  18  20  1   
 38  19  21  ar  
 39  19  22  ar  
 40  20  23  1   
 41  20  44  1   
 42  20  45  1   
 43  21  24  ar  
 44  21  46  1   
 45  22  25  ar  
 46  22  47  1   
 47  23  48  1   
 48  23  49  1   
 49  23  50  1   
 50  24  26  ar  
 51  24  27  1   
 52  25  26  ar  
 53  25  51  1   
 54  26  52  1   
 55  27  53  1   
 56  27  54  1   
 57  27  55  1   
@<TRIPOS>SUBSTRUCTURE
  1 ****  11 GROUP 4 **** **** 0

# MOE 2024.06 (io_trps.svl 2023.06)
