@<TRIPOS>MOLECULE
NONAME
51 53 1 0 0 
SMALL
USER_CHARGES


@<TRIPOS>ATOM
  1 O        0.9580     0.3890    -0.0600 O.2   1 <1>  -0.5700 
  2 C        1.8060    -0.4540    -0.2960 C.2   1 <1>   0.7150 
  3 N        3.0120    -0.0280    -0.8240 N.am  1 <1>  -0.6600 
  4 C        1.5190    -1.8450    -0.0060 C.2   1 <1>   0.0550 
  5 C        4.0640    -0.9340    -1.3830 C.3   1 <1>   0.1400 
  6 C        3.3710     1.4150    -0.8820 C.3   1 <1>   0.1400 
  7 O        2.4650    -2.6690     0.4320 O.3   1 <1>  -0.2800 
  8 C        0.3590    -2.5310    -0.0790 C.2   1 <1>   0.0460 
  9 C        5.2440    -1.1210    -0.4160 C.3   1 <1>   0.1400 
 10 C        4.0120     1.8740     0.4350 C.3   1 <1>  -0.1600 
 11 C        1.8040    -3.7980     0.5880 C.2   1 <1>   0.2980 
 12 N        0.5550    -3.7870     0.3000 N.2   1 <1>  -0.5650 
 13 C       -1.0260    -2.0850    -0.5050 C.3   1 <1>  -0.0590 
 14 N        5.8220     0.1860     0.0330 N.am  1 <1>  -0.6600 
 15 C        5.0050     0.8850     1.0660 C.3   1 <1>   0.1400 
 16 C        2.5970    -4.9940     1.0960 C.3   1 <1>   0.0200 
 17 C        6.9800     0.6680    -0.5190 C.2   1 <1>   0.5690 
 18 C        1.7640    -6.2760     1.2460 C.3   1 <1>  -0.2400 
 19 O        7.5300     0.0910    -1.4280 O.2   1 <1>  -0.5700 
 20 C        7.5930     1.9610     0.0010 C.3   1 <1>  -0.0990 
 21 C        8.9150     2.3370    -0.6810 C.3   1 <1>   0.0210 
 22 C        9.4580     3.6280    -0.0990 C.2   1 <1>  -0.1810 
 23 C        8.9950     4.9160    -0.3550 C.2   1 <1>   0.1390 
 24 C       10.4770     3.7980     0.7690 C.2   1 <1>  -0.3020 
 25 N        9.6610     5.8170     0.3000 N.2   1 <1>  -0.7070 
 26 N       10.5820     5.1220     0.9940 N.pl3 1 <1>   0.3000 
 27 H        4.4370    -0.5220    -2.3050 H     1 <1>   0.0800 
 28 H        3.6420    -1.8940    -1.6220 H     1 <1>   0.0800 
 29 H        2.4950     2.0080    -1.0860 H     1 <1>   0.0800 
 30 H        4.0640     1.5770    -1.6900 H     1 <1>   0.0800 
 31 H        6.0020    -1.7080    -0.9070 H     1 <1>   0.0800 
 32 H        4.9190    -1.6830     0.4410 H     1 <1>   0.0800 
 33 H        3.2280     2.0640     1.1470 H     1 <1>   0.0800 
 34 H        4.5040     2.8130     0.2630 H     1 <1>   0.0800 
 35 H       -1.0190    -1.0650    -0.8410 H     1 <1>   0.0800 
 36 H       -1.7010    -2.1730     0.3260 H     1 <1>   0.0800 
 37 H       -1.3760    -2.7120    -1.3050 H     1 <1>   0.0800 
 38 H        4.4510     0.1510     1.6260 H     1 <1>   0.0800 
 39 H        5.6400     1.4000     1.7660 H     1 <1>   0.0800 
 40 H        3.0210    -4.7360     2.0490 H     1 <1>   0.0800 
 41 H        3.4050    -5.1770     0.4110 H     1 <1>   0.0800 
 42 H        0.9590    -6.1140     1.9410 H     1 <1>   0.0800 
 43 H        2.3790    -7.0810     1.6060 H     1 <1>   0.0800 
 44 H        1.3440    -6.5570     0.2960 H     1 <1>   0.0800 
 45 H        7.7730     1.8550     1.0550 H     1 <1>   0.0800 
 46 H        6.8890     2.7570    -0.1460 H     1 <1>   0.0800 
 47 H        8.7650     2.4560    -1.7400 H     1 <1>   0.0800 
 48 H        9.6340     1.5480    -0.5340 H     1 <1>   0.0800 
 49 H        8.1800     5.1510    -1.0180 H     1 <1>   0.1500 
 50 H       11.1190     3.0690     1.2290 H     1 <1>   0.1500 
 51 H       11.2650     5.5820     1.6080 H     1 <1>   0.2700 
@<TRIPOS>BOND
  1   1   2  2   
  2   2   3  am  
  3   2   4  1   
  4   3   5  1   
  5   3   6  1   
  6   4   7  1   
  7   4   8  2   
  8   5   9  1   
  9   5  27  1   
 10   5  28  1   
 11   6  10  1   
 12   6  29  1   
 13   6  30  1   
 14   7  11  1   
 15   8  12  1   
 16   8  13  1   
 17   9  14  1   
 18   9  31  1   
 19   9  32  1   
 20  10  15  1   
 21  10  33  1   
 22  10  34  1   
 23  11  12  2   
 24  11  16  1   
 25  13  35  1   
 26  13  36  1   
 27  13  37  1   
 28  14  15  1   
 29  14  17  am  
 30  15  38  1   
 31  15  39  1   
 32  16  18  1   
 33  16  40  1   
 34  16  41  1   
 35  17  19  2   
 36  17  20  1   
 37  18  42  1   
 38  18  43  1   
 39  18  44  1   
 40  20  21  1   
 41  20  45  1   
 42  20  46  1   
 43  21  22  1   
 44  21  47  1   
 45  21  48  1   
 46  22  23  1   
 47  22  24  2   
 48  23  25  2   
 49  23  49  1   
 50  24  26  1   
 51  24  50  1   
 52  25  26  1   
 53  26  51  1   
@<TRIPOS>SUBSTRUCTURE
  1 ****  14 GROUP 4 **** **** 0

# MOE 2024.06 (io_trps.svl 2023.06)
