@<TRIPOS>MOLECULE
NONAME
54 57 1 0 0 
SMALL
USER_CHARGES


@<TRIPOS>ATOM
  1 O        0.2390     0.8970     0.1280 O.2   1 <1>  -0.5700 
  2 C        0.0910     2.0730    -0.1040 C.2   1 <1>   0.5690 
  3 N       -1.0250     2.7660     0.2830 N.am  1 <1>  -0.6600 
  4 C        1.1930     2.8010    -0.8730 C.3   1 <1>   0.1810 
  5 C       -1.1990     4.2230    -0.0420 C.3   1 <1>   0.3640 
  6 C       -2.1120     2.1350     1.0870 C.3   1 <1>   0.0600 
  7 O        1.1960     4.1840    -0.6180 O.3   1 <1>  -0.5600 
  8 C       -2.5480     4.4230    -0.7450 C.ar  1 <1>  -0.1440 
  9 C       -0.0450     4.8160    -0.8950 C.3   1 <1>   0.2610 
 10 C       -3.5080     5.3260    -0.2860 C.ar  1 <1>  -0.1440 
 11 C       -2.8200     3.6720    -1.8840 C.ar  1 <1>  -0.1500 
 12 C        0.0640     6.3160    -0.6250 C.2   1 <1>   0.5690 
 13 C       -4.7060     5.4590    -0.9750 C.ar  1 <1>  -0.1500 
 14 C       -3.2990     6.1880     0.9530 C.3   1 <1>  -0.0960 
 15 C       -4.0160     3.8110    -2.5620 C.ar  1 <1>  -0.1500 
 16 O       -0.6910     7.0780    -1.1800 O.2   1 <1>  -0.5700 
 17 N        1.0180     6.7440     0.2480 N.am  1 <1>  -0.5790 
 18 C       -4.9610     4.7080    -2.1070 C.ar  1 <1>  -0.1500 
 19 C        1.2260     8.1160     0.7360 C.3   1 <1>   0.0540 
 20 C        1.6840     8.2140     2.1560 C.3   1 <1>  -0.2000 
 21 C        0.2740     8.5740     1.7940 C.3   1 <1>  -0.2000 
 22 C        1.7520     9.0540    -0.3720 C.3   1 <1>   0.0780 
 23 C        2.0360    10.4820     0.0860 C.ar  1 <1>  -0.1440 
 24 C        1.0410    11.4460     0.0210 C.ar  1 <1>  -0.1500 
 25 C        3.2910    10.8340     0.5610 C.ar  1 <1>  -0.1500 
 26 C        1.2940    12.7430     0.4310 C.ar  1 <1>  -0.1500 
 27 C        3.5450    12.1310     0.9720 C.ar  1 <1>  -0.1500 
 28 C        2.5470    13.0870     0.9080 C.ar  1 <1>  -0.1500 
 29 H        1.0640     2.6430    -1.9280 H     1 <1>   0.0800 
 30 H        2.1490     2.4100    -0.5760 H     1 <1>   0.0800 
 31 H       -1.1990     4.7460     0.8960 H     1 <1>   0.0800 
 32 H       -2.3300     2.7400     1.9490 H     1 <1>   0.0800 
 33 H       -1.8180     1.1540     1.4220 H     1 <1>   0.0800 
 34 H       -3.0020     2.0390     0.4890 H     1 <1>   0.0800 
 35 H       -0.2550     4.6810    -1.9410 H     1 <1>   0.0800 
 36 H       -2.1000     2.9610    -2.2490 H     1 <1>   0.1500 
 37 H       -5.4530     6.1540    -0.6350 H     1 <1>   0.1500 
 38 H       -4.1650     6.7940     1.1500 H     1 <1>   0.0800 
 39 H       -2.4630     6.8480     0.8090 H     1 <1>   0.0800 
 40 H       -3.1240     5.5700     1.8140 H     1 <1>   0.0800 
 41 H       -4.2120     3.2230    -3.4410 H     1 <1>   0.1500 
 42 H        1.6940     6.0460     0.5740 H     1 <1>   0.3700 
 43 H       -5.8940     4.8230    -2.6310 H     1 <1>   0.1500 
 44 H        1.8510     7.3150     2.7220 H     1 <1>   0.1000 
 45 H        2.3270     9.0180     2.4660 H     1 <1>   0.1000 
 46 H       -0.0040     9.6110     1.8510 H     1 <1>   0.1000 
 47 H       -0.5270     7.9190     2.0840 H     1 <1>   0.1000 
 48 H        2.6550     8.6360    -0.7770 H     1 <1>   0.0800 
 49 H        1.0290     9.0910    -1.1670 H     1 <1>   0.0800 
 50 H        0.0640    11.1860    -0.3480 H     1 <1>   0.1500 
 51 H        4.0740    10.0990     0.6140 H     1 <1>   0.1500 
 52 H        0.5160    13.4850     0.3790 H     1 <1>   0.1500 
 53 H        4.5210    12.3970     1.3410 H     1 <1>   0.1500 
 54 H        2.7440    14.0950     1.2270 H     1 <1>   0.1500 
@<TRIPOS>BOND
  1   1   2  2   
  2   2   3  am  
  3   2   4  1   
  4   3   5  1   
  5   3   6  1   
  6   4   7  1   
  7   4  29  1   
  8   4  30  1   
  9   5   8  1   
 10   5   9  1   
 11   5  31  1   
 12   6  32  1   
 13   6  33  1   
 14   6  34  1   
 15   7   9  1   
 16   8  10  ar  
 17   8  11  ar  
 18   9  12  1   
 19   9  35  1   
 20  10  13  ar  
 21  10  14  1   
 22  11  15  ar  
 23  11  36  1   
 24  12  16  2   
 25  12  17  am  
 26  13  18  ar  
 27  13  37  1   
 28  14  38  1   
 29  14  39  1   
 30  14  40  1   
 31  15  18  ar  
 32  15  41  1   
 33  17  19  1   
 34  17  42  1   
 35  18  43  1   
 36  19  20  1   
 37  19  21  1   
 38  19  22  1   
 39  20  21  1   
 40  20  44  1   
 41  20  45  1   
 42  21  46  1   
 43  21  47  1   
 44  22  23  1   
 45  22  48  1   
 46  22  49  1   
 47  23  24  ar  
 48  23  25  ar  
 49  24  26  ar  
 50  24  50  1   
 51  25  27  ar  
 52  25  51  1   
 53  26  28  ar  
 54  26  52  1   
 55  27  28  ar  
 56  27  53  1   
 57  28  54  1   
@<TRIPOS>SUBSTRUCTURE
  1 ****  12 GROUP 4 **** **** 0

# MOE 2024.06 (io_trps.svl 2023.06)
