@<TRIPOS>MOLECULE
NONAME
59 61 1 0 0 
SMALL
USER_CHARGES


@<TRIPOS>ATOM
  1 O       -0.1470     0.9030     0.3810 O.2   1 <1>  -0.5700 
  2 C       -0.2340     2.0990     0.2390 C.2   1 <1>   0.5690 
  3 N       -1.4170     2.7920     0.3200 N.am  1 <1>  -0.6600 
  4 C        1.0640     2.8490    -0.0610 C.3   1 <1>   0.1810 
  5 C       -1.4360     4.2880     0.1820 C.3   1 <1>   0.3640 
  6 C       -2.7050     2.1940     0.7790 C.3   1 <1>   0.2200 
  7 O        1.0260     4.2050     0.3180 O.3   1 <1>  -0.5600 
  8 C       -2.4850     4.7150    -0.8480 C.ar  1 <1>  -0.1440 
  9 C       -0.0740     4.9080    -0.2310 C.3   1 <1>   0.2610 
 10 C       -2.5780     1.7040     2.2210 C.3   1 <1>  -0.2400 
 11 C       -3.1740     1.0840    -0.1630 C.3   1 <1>  -0.2400 
 12 C       -2.5750     4.0890    -2.0850 C.ar  1 <1>  -0.1500 
 13 C       -3.3570     5.7540    -0.5550 C.ar  1 <1>  -0.1500 
 14 C        0.0240     6.3960     0.1510 C.2   1 <1>   0.5690 
 15 C       -3.5190     4.4950    -3.0120 C.ar  1 <1>  -0.1500 
 16 C       -4.3010     6.1610    -1.4810 C.ar  1 <1>  -0.1500 
 17 O       -0.7170     6.8410     0.9970 O.2   1 <1>  -0.5700 
 18 N        0.9870     7.2120    -0.4040 N.am  1 <1>  -0.6600 
 19 C       -4.3830     5.5320    -2.7100 C.ar  1 <1>  -0.1500 
 20 C        1.1410     8.6280     0.0670 C.3   1 <1>   0.1400 
 21 C        2.2030     6.7370    -1.1400 C.3   1 <1>   0.1400 
 22 C        2.2950     8.7530     1.1130 C.3   1 <1>   0.5030 
 23 C        3.5000     7.1610    -0.4050 C.3   1 <1>   0.3430 
 24 N        3.2300     7.5730     1.0190 N.4   1 <1>  -0.9590 
 25 C        1.7050     8.7460     2.5260 C.3   1 <1>  -0.2400 
 26 C        3.0590    10.0630     0.8830 C.3   1 <1>  -0.2400 
 27 C        4.4900     7.6580     1.8230 C.3   1 <1>   0.2630 
 28 H        1.2740     2.7890    -1.1130 H     1 <1>   0.0800 
 29 H        1.8680     2.3820     0.4790 H     1 <1>   0.0800 
 30 H       -1.7170     4.6800     1.1440 H     1 <1>   0.0800 
 31 H       -3.4660     2.9570     0.7690 H     1 <1>   0.0800 
 32 H        0.0100     4.8450    -1.3010 H     1 <1>   0.0800 
 33 H       -1.8860     0.8840     2.2890 H     1 <1>   0.0800 
 34 H       -3.5340     1.3640     2.5750 H     1 <1>   0.0800 
 35 H       -2.2450     2.5030     2.8580 H     1 <1>   0.0800 
 36 H       -2.5120     0.2380    -0.1310 H     1 <1>   0.0800 
 37 H       -3.2350     1.4500    -1.1700 H     1 <1>   0.0800 
 38 H       -4.1510     0.7510     0.1320 H     1 <1>   0.0800 
 39 H       -1.9150     3.2750    -2.3330 H     1 <1>   0.1500 
 40 H       -3.3050     6.2580     0.3960 H     1 <1>   0.1500 
 41 H       -3.5850     4.0020    -3.9660 H     1 <1>   0.1500 
 42 H       -4.9720     6.9690    -1.2450 H     1 <1>   0.1500 
 43 H       -5.1180     5.8490    -3.4300 H     1 <1>   0.1500 
 44 H        1.3540     9.2460    -0.7880 H     1 <1>   0.0800 
 45 H        0.2180     8.9980     0.4810 H     1 <1>   0.0800 
 46 H        2.2020     5.6680    -1.2470 H     1 <1>   0.0800 
 47 H        2.2040     7.1520    -2.1330 H     1 <1>   0.0800 
 48 H        3.9520     7.9810    -0.9370 H     1 <1>   0.0800 
 49 H        4.1950     6.3370    -0.4270 H     1 <1>   0.0800 
 50 H        2.6560     6.8070     1.4030 H     1 <1>   0.4500 
 51 H        0.9960     9.5490     2.6300 H     1 <1>   0.0800 
 52 H        2.4600     8.8860     3.2770 H     1 <1>   0.0800 
 53 H        1.1810     7.8260     2.7160 H     1 <1>   0.0800 
 54 H        2.3690    10.8890     0.8950 H     1 <1>   0.0800 
 55 H        3.5520    10.0630    -0.0720 H     1 <1>   0.0800 
 56 H        3.7820    10.2450     1.6570 H     1 <1>   0.0800 
 57 H        5.1250     8.4430     1.4460 H     1 <1>   0.0800 
 58 H        5.0290     6.7260     1.7720 H     1 <1>   0.0800 
 59 H        4.2650     7.8630     2.8570 H     1 <1>   0.0800 
@<TRIPOS>BOND
  1   1   2  2   
  2   2   3  am  
  3   2   4  1   
  4   3   5  1   
  5   3   6  1   
  6   4   7  1   
  7   4  28  1   
  8   4  29  1   
  9   5   8  1   
 10   5   9  1   
 11   5  30  1   
 12   6  10  1   
 13   6  11  1   
 14   6  31  1   
 15   7   9  1   
 16   8  12  ar  
 17   8  13  ar  
 18   9  14  1   
 19   9  32  1   
 20  10  33  1   
 21  10  34  1   
 22  10  35  1   
 23  11  36  1   
 24  11  37  1   
 25  11  38  1   
 26  12  15  ar  
 27  12  39  1   
 28  13  16  ar  
 29  13  40  1   
 30  14  17  2   
 31  14  18  am  
 32  15  19  ar  
 33  15  41  1   
 34  16  19  ar  
 35  16  42  1   
 36  18  20  1   
 37  18  21  1   
 38  19  43  1   
 39  20  22  1   
 40  20  44  1   
 41  20  45  1   
 42  21  23  1   
 43  21  46  1   
 44  21  47  1   
 45  22  24  1   
 46  22  25  1   
 47  22  26  1   
 48  23  24  1   
 49  23  48  1   
 50  23  49  1   
 51  24  27  1   
 52  24  50  1   
 53  25  51  1   
 54  25  52  1   
 55  25  53  1   
 56  26  54  1   
 57  26  55  1   
 58  26  56  1   
 59  27  57  1   
 60  27  58  1   
 61  27  59  1   
@<TRIPOS>SUBSTRUCTURE
  1 ****   9 GROUP 4 **** **** 0

# MOE 2024.06 (io_trps.svl 2023.06)
