@<TRIPOS>MOLECULE
NONAME
43 44 1 0 0 
SMALL
USER_CHARGES


@<TRIPOS>ATOM
  1 O        0.1650    -0.1630    -0.1450 O.2   1 <1>  -0.5700 
  2 C        1.2660    -0.4670    -0.5350 C.2   1 <1>   0.5690 
  3 N        2.2990     0.4220    -0.6540 N.am  1 <1>  -0.4940 
  4 C        1.5350    -1.9070    -0.9160 C.3   1 <1>  -0.0990 
  5 C        2.4070     1.8050    -0.3760 C.2   1 <1>  -0.0880 
  6 C        0.7940    -2.8770     0.0010 C.3   1 <1>   0.1200 
  7 N        1.4370     2.7610    -0.3930 N.pl3 1 <1>   0.3140 
  8 C        3.5730     2.4400    -0.0640 C.2   1 <1>  -0.0540 
  9 O        1.1560    -4.1680    -0.3660 O.3   1 <1>  -0.5600 
 10 N        1.9420     3.9790    -0.0990 N.2   1 <1>  -0.7070 
 11 C        0.0170     2.6470    -0.7520 C.3   1 <1>   0.0160 
 12 C        4.8910     1.8700     0.0640 C.ar  1 <1>   0.0540 
 13 C        3.2020     3.7780     0.1010 C.2   1 <1>   0.1080 
 14 C        0.5120    -5.1610     0.3650 C.3   1 <1>   0.0400 
 15 C        5.1510     0.8780     1.0040 C.ar  1 <1>  -0.1500 
 16 C        5.9380     2.2910    -0.7510 C.ar  1 <1>  -0.1500 
 17 C        4.1390     4.9040     0.4770 C.3   1 <1>  -0.0590 
 18 C        6.4120     0.3250     1.1250 C.ar  1 <1>  -0.1500 
 19 C        7.2040     1.7450    -0.6340 C.ar  1 <1>  -0.1500 
 20 C        7.4480     0.7520     0.3110 C.ar  1 <1>   0.0830 
 21 O        8.6560     0.1620     0.4950 O.3   1 <1>  -0.3630 
 22 C        9.7850     0.5580    -0.2520 C.3   1 <1>   0.0400 
 23 H        3.1940    -0.0050    -0.9030 H     1 <1>   0.3700 
 24 H        2.5890    -2.1080    -0.8530 H     1 <1>   0.0800 
 25 H        1.2090    -2.0590    -1.9280 H     1 <1>   0.0800 
 26 H       -0.2720    -2.7650    -0.1120 H     1 <1>   0.0800 
 27 H        1.0710    -2.7170     1.0290 H     1 <1>   0.0800 
 28 H       -0.0880     1.9700    -1.5780 H     1 <1>   0.0800 
 29 H       -0.3560     3.6140    -1.0300 H     1 <1>   0.0800 
 30 H       -0.5300     2.2810     0.0960 H     1 <1>   0.0800 
 31 H        0.8600    -6.1160     0.0120 H     1 <1>   0.0800 
 32 H       -0.5510    -5.0840     0.2120 H     1 <1>   0.0800 
 33 H        0.7540    -5.0500     1.4080 H     1 <1>   0.0800 
 34 H        4.3540     0.5460     1.6470 H     1 <1>   0.1500 
 35 H        5.7500     3.0540    -1.4850 H     1 <1>   0.1500 
 36 H        4.9280     4.5400     1.1080 H     1 <1>   0.0800 
 37 H        3.5940     5.6640     1.0080 H     1 <1>   0.0800 
 38 H        4.5600     5.3350    -0.4110 H     1 <1>   0.0800 
 39 H        6.6050    -0.4400     1.8560 H     1 <1>   0.1500 
 40 H        7.9810     2.0990    -1.2830 H     1 <1>   0.1500 
 41 H       10.6240    -0.0310     0.0750 H     1 <1>   0.0800 
 42 H        9.9780     1.6000    -0.0690 H     1 <1>   0.0800 
 43 H        9.5960     0.3760    -1.2950 H     1 <1>   0.0800 
@<TRIPOS>BOND
  1   1   2  2   
  2   2   3  am  
  3   2   4  1   
  4   3   5  1   
  5   3  23  1   
  6   4   6  1   
  7   4  24  1   
  8   4  25  1   
  9   5   7  1   
 10   5   8  2   
 11   6   9  1   
 12   6  26  1   
 13   6  27  1   
 14   7  10  1   
 15   7  11  1   
 16   8  12  1   
 17   8  13  1   
 18   9  14  1   
 19  10  13  2   
 20  11  28  1   
 21  11  29  1   
 22  11  30  1   
 23  12  15  ar  
 24  12  16  ar  
 25  13  17  1   
 26  14  31  1   
 27  14  32  1   
 28  14  33  1   
 29  15  18  ar  
 30  15  34  1   
 31  16  19  ar  
 32  16  35  1   
 33  17  36  1   
 34  17  37  1   
 35  17  38  1   
 36  18  20  ar  
 37  18  39  1   
 38  19  20  ar  
 39  19  40  1   
 40  20  21  1   
 41  21  22  1   
 42  22  41  1   
 43  22  42  1   
 44  22  43  1   
@<TRIPOS>SUBSTRUCTURE
  1 ****   3 GROUP 4 **** **** 0

# MOE 2024.06 (io_trps.svl 2023.06)
