@<TRIPOS>MOLECULE
NONAME
56 59 1 0 0 
SMALL
USER_CHARGES


@<TRIPOS>ATOM
  1 S        0.8880    -3.4380     3.1240 S.3   1 <1>  -0.0800 
  2 C        2.1180    -3.0200     1.9530 C.2   1 <1>  -0.1400 
  3 C       -0.3220    -3.5090     1.8610 C.2   1 <1>  -0.1100 
  4 C        1.6090    -2.9610     0.7150 C.2   1 <1>  -0.1810 
  5 C        3.5490    -2.7790     2.3810 C.3   1 <1>   0.0200 
  6 C        0.1970    -3.2460     0.6350 C.2   1 <1>  -0.0860 
  7 C        2.4760    -2.6220    -0.4880 C.3   1 <1>   0.0210 
  8 C        4.3160    -2.1130     1.2230 C.3   1 <1>  -0.1600 
  9 C       -0.5330    -3.2570    -0.6170 C.2   1 <1>   0.7160 
 10 C        3.9730    -2.7500    -0.1390 C.3   1 <1>  -0.1600 
 11 O       -0.6880    -2.2170    -1.2310 O.2   1 <1>  -0.5700 
 12 N       -1.0720    -4.4150    -1.1320 N.am  1 <1>  -0.6600 
 13 C       -0.7180    -5.7600    -0.5600 C.3   1 <1>   0.3640 
 14 C       -2.0920    -4.3320    -2.2200 C.3   1 <1>   0.1400 
 15 C        0.7820    -5.9960    -0.7490 C.ar  1 <1>  -0.1430 
 16 C       -1.5020    -6.9800    -1.1340 C.3   1 <1>   0.2000 
 17 C       -2.4130    -5.6870    -2.8550 C.3   1 <1>   0.1200 
 18 C        1.5780    -6.2880     0.3490 C.ar  1 <1>  -0.1500 
 19 C        1.3700    -5.9180    -2.0010 C.ar  1 <1>  -0.1500 
 20 O       -2.6510    -6.6210    -1.8520 O.3   1 <1>  -0.5600 
 21 C       -1.9540    -7.9500    -0.0320 C.3   1 <1>   0.1200 
 22 C        2.9500    -6.4960     0.2230 C.ar  1 <1>   0.0830 
 23 C        2.7280    -6.1280    -2.1460 C.ar  1 <1>  -0.1500 
 24 O       -0.8800    -8.3500     0.7600 O.3   1 <1>  -0.6800 
 25 O        3.7150    -6.7780     1.3190 O.3   1 <1>  -0.3630 
 26 C        3.5330    -6.4120    -1.0550 C.ar  1 <1>   0.0830 
 27 C        3.1800    -6.8070     2.6250 C.3   1 <1>   0.0400 
 28 O        4.8520    -6.5730    -1.3710 O.3   1 <1>  -0.3630 
 29 C        5.8730    -6.6820    -0.4060 C.3   1 <1>   0.0400 
 30 H       -1.3280    -3.7460     2.1570 H     1 <1>   0.1500 
 31 H        3.5750    -2.1470     3.2500 H     1 <1>   0.0800 
 32 H        4.0020    -3.7230     2.6250 H     1 <1>   0.0800 
 33 H        2.2470    -3.2790    -1.3070 H     1 <1>   0.0800 
 34 H        2.2550    -1.6150    -0.7950 H     1 <1>   0.0800 
 35 H        4.0540    -1.0690     1.1900 H     1 <1>   0.0800 
 36 H        5.3740    -2.1840     1.4060 H     1 <1>   0.0800 
 37 H        4.2300    -3.7940    -0.1060 H     1 <1>   0.0800 
 38 H        4.5580    -2.2930    -0.9170 H     1 <1>   0.0800 
 39 H       -0.9250    -5.7220     0.4950 H     1 <1>   0.0800 
 40 H       -2.9980    -3.9190    -1.8110 H     1 <1>   0.0800 
 41 H       -1.7470    -3.6600    -2.9870 H     1 <1>   0.0800 
 42 H       -0.8710    -7.5220    -1.8170 H     1 <1>   0.0800 
 43 H       -1.6040    -6.0290    -3.4770 H     1 <1>   0.0800 
 44 H       -3.3020    -5.6120    -3.4550 H     1 <1>   0.0800 
 45 H        1.1000    -6.3420     1.3080 H     1 <1>   0.1500 
 46 H        0.7760    -5.6840    -2.8670 H     1 <1>   0.1500 
 47 H       -2.3990    -8.8290    -0.4640 H     1 <1>   0.0800 
 48 H       -2.6690    -7.4670     0.6110 H     1 <1>   0.0800 
 49 H        3.1800    -6.0640    -3.1190 H     1 <1>   0.1500 
 50 H       -0.2390    -8.8810     0.2450 H     1 <1>   0.4000 
 51 H        3.9820    -7.0070     3.3120 H     1 <1>   0.0800 
 52 H        2.4450    -7.5900     2.6850 H     1 <1>   0.0800 
 53 H        2.7410    -5.8500     2.8450 H     1 <1>   0.0800 
 54 H        6.8180    -6.6920    -0.9190 H     1 <1>   0.0800 
 55 H        5.7430    -7.6020     0.1350 H     1 <1>   0.0800 
 56 H        5.8220    -5.8350     0.2540 H     1 <1>   0.0800 
@<TRIPOS>BOND
  1   1   2  1   
  2   1   3  1   
  3   2   4  2   
  4   2   5  1   
  5   3   6  2   
  6   3  30  1   
  7   4   6  1   
  8   4   7  1   
  9   5   8  1   
 10   5  31  1   
 11   5  32  1   
 12   6   9  1   
 13   7  10  1   
 14   7  33  1   
 15   7  34  1   
 16   8  10  1   
 17   8  35  1   
 18   8  36  1   
 19   9  11  2   
 20   9  12  am  
 21  10  37  1   
 22  10  38  1   
 23  12  13  1   
 24  12  14  1   
 25  13  15  1   
 26  13  16  1   
 27  13  39  1   
 28  14  17  1   
 29  14  40  1   
 30  14  41  1   
 31  15  18  ar  
 32  15  19  ar  
 33  16  20  1   
 34  16  21  1   
 35  16  42  1   
 36  17  20  1   
 37  17  43  1   
 38  17  44  1   
 39  18  22  ar  
 40  18  45  1   
 41  19  23  ar  
 42  19  46  1   
 43  21  24  1   
 44  21  47  1   
 45  21  48  1   
 46  22  25  1   
 47  22  26  ar  
 48  23  26  ar  
 49  23  49  1   
 50  24  50  1   
 51  25  27  1   
 52  26  28  1   
 53  27  51  1   
 54  27  52  1   
 55  27  53  1   
 56  28  29  1   
 57  29  54  1   
 58  29  55  1   
 59  29  56  1   
@<TRIPOS>SUBSTRUCTURE
  1 ****  15 GROUP 4 **** **** 0

# MOE 2024.06 (io_trps.svl 2023.06)
