@<TRIPOS>MOLECULE
NONAME
51 55 1 0 0 
SMALL
USER_CHARGES


@<TRIPOS>ATOM
  1 F       -2.2880     0.3790    -2.1640 F     1 <1>  -0.1900 
  2 C       -2.1430     1.6170    -1.7590 C.ar  1 <1>   0.1900 
  3 C       -3.0380     2.1080    -0.8050 C.ar  1 <1>   0.1000 
  4 C       -1.1240     2.3700    -2.2920 C.ar  1 <1>  -0.1500 
  5 N       -4.0650     1.3190    -0.2790 N.pl3 1 <1>  -0.6000 
  6 C       -2.8810     3.4350    -0.3730 C.ar  1 <1>   0.0860 
  7 C       -0.9740     3.6820    -1.8610 C.ar  1 <1>  -0.1500 
  8 C       -4.9500     1.8020     0.6640 C.2   1 <1>  -0.0380 
  9 C       -3.8010     3.9430     0.6100 C.2   1 <1>   0.4690 
 10 C       -1.8400     4.2000    -0.9180 C.ar  1 <1>  -0.1500 
 11 C       -4.8070     3.0760     1.1080 C.2   1 <1>  -0.1360 
 12 C       -6.0700     0.8960     1.1670 C.3   1 <1>   0.4810 
 13 O       -3.7590     5.0960     1.0100 O.2   1 <1>  -0.5700 
 14 N       -6.9800     0.5680     0.0290 N.4   1 <1>  -0.9590 
 15 C       -7.6780     1.7800    -0.5410 C.3   1 <1>   0.3430 
 16 C       -7.9320    -0.5420     0.3730 C.3   1 <1>   0.3430 
 17 C       -8.7590     2.3960     0.3830 C.3   1 <1>   0.1430 
 18 C       -9.3240    -0.0480     0.8020 C.3   1 <1>  -0.1600 
 19 C       -9.8780     2.9140    -0.5000 C.ar  1 <1>   0.1670 
 20 C       -9.3250     1.3700     1.3950 C.3   1 <1>  -0.1600 
 21 C       -8.2940     3.6930     1.0980 C.3   1 <1>  -0.1600 
 22 N      -10.4170     2.2500    -1.4930 N.ar  1 <1>  -0.6200 
 23 C      -10.2600     4.1740    -0.1470 C.ar  1 <1>  -0.1430 
 24 C       -9.4640     4.6920     1.0230 C.3   1 <1>  -0.0170 
 25 C      -11.3680     2.9200    -2.1310 C.ar  1 <1>   0.7200 
 26 C      -11.2660     4.7640    -0.8750 C.ar  1 <1>   0.1600 
 27 N      -11.8330     4.1340    -1.8790 N.ar  1 <1>  -0.6200 
 28 N      -11.9450     2.2840    -3.1500 N.pl3 1 <1>  -0.9000 
 29 H       -0.4570     1.9510    -3.0250 H     1 <1>   0.1500 
 30 H       -4.0350     0.3330    -0.5770 H     1 <1>   0.4000 
 31 H       -0.1820     4.2910    -2.2650 H     1 <1>   0.1500 
 32 H       -1.7200     5.2190    -0.5860 H     1 <1>   0.1500 
 33 H       -5.4460     3.5070     1.8550 H     1 <1>   0.1500 
 34 H       -6.6170     1.3910     1.9510 H     1 <1>   0.0800 
 35 H       -5.6390    -0.0050     1.5710 H     1 <1>   0.0800 
 36 H       -6.3640     0.2290    -0.7200 H     1 <1>   0.4500 
 37 H       -8.1650     1.4790    -1.4550 H     1 <1>   0.0800 
 38 H       -6.9590     2.5360    -0.8080 H     1 <1>   0.0800 
 39 H       -7.5120    -1.1410     1.1650 H     1 <1>   0.0800 
 40 H       -8.0570    -1.1870    -0.4840 H     1 <1>   0.0800 
 41 H       -9.7360    -0.7420     1.5140 H     1 <1>   0.0800 
 42 H       -9.9740    -0.0720    -0.0560 H     1 <1>   0.0800 
 43 H      -10.3300     1.6450     1.6710 H     1 <1>   0.0800 
 44 H       -8.7400     1.3640     2.2960 H     1 <1>   0.0800 
 45 H       -7.4710     4.1270     0.5570 H     1 <1>   0.0800 
 46 H       -7.9860     3.5330     2.1160 H     1 <1>   0.0800 
 47 H       -9.1200     5.6990     0.8600 H     1 <1>   0.0800 
 48 H      -10.0640     4.6510     1.9160 H     1 <1>   0.0800 
 49 H      -11.6060     5.7570    -0.6350 H     1 <1>   0.1500 
 50 H      -12.8170     2.6980    -3.4710 H     1 <1>   0.4000 
 51 H      -11.9070     1.2700    -3.1330 H     1 <1>   0.4000 
@<TRIPOS>BOND
  1   1   2  1   
  2   2   3  ar  
  3   2   4  ar  
  4   3   5  1   
  5   3   6  ar  
  6   4   7  ar  
  7   4  29  1   
  8   5   8  1   
  9   5  30  1   
 10   6   9  1   
 11   6  10  ar  
 12   7  10  ar  
 13   7  31  1   
 14   8  11  2   
 15   8  12  1   
 16   9  11  1   
 17   9  13  2   
 18  10  32  1   
 19  11  33  1   
 20  12  14  1   
 21  12  34  1   
 22  12  35  1   
 23  14  15  1   
 24  14  16  1   
 25  14  36  1   
 26  15  17  1   
 27  15  37  1   
 28  15  38  1   
 29  16  18  1   
 30  16  39  1   
 31  16  40  1   
 32  17  19  1   
 33  17  20  1   
 34  17  21  1   
 35  18  20  1   
 36  18  41  1   
 37  18  42  1   
 38  19  22  ar  
 39  19  23  ar  
 40  20  43  1   
 41  20  44  1   
 42  21  24  1   
 43  21  45  1   
 44  21  46  1   
 45  22  25  ar  
 46  23  24  1   
 47  23  26  ar  
 48  24  47  1   
 49  24  48  1   
 50  25  27  ar  
 51  25  28  1   
 52  26  27  ar  
 53  26  49  1   
 54  28  50  1   
 55  28  51  1   
@<TRIPOS>SUBSTRUCTURE
  1 ****  15 GROUP 4 **** **** 0

# MOE 2024.06 (io_trps.svl 2023.06)
