@<TRIPOS>MOLECULE
NONAME
25 26 1 0 0 
SMALL
USER_CHARGES


@<TRIPOS>ATOM
  1 O       -0.6260    -0.0370     1.2510 O.2   1 <1>  -0.5700 
  2 C       -1.1600     0.8890     0.6940 C.2   1 <1>   0.6670 
  3 O       -2.4630     0.8940     0.4390 O.3   1 <1>  -0.4300 
  4 C       -0.3800     2.1090     0.2470 C.3   1 <1>   0.0530 
  5 C       -3.2920    -0.1820     0.8050 C.3   1 <1>   0.1200 
  6 C        1.1130     2.1760     0.5040 C.3   1 <1>   0.1200 
  7 C       -0.8860     3.5210     0.6330 C.3   1 <1>   0.0000 
  8 C       -0.5280     2.6190    -1.2080 C.3   1 <1>   0.0000 
  9 C       -4.7150     0.1500     0.3670 C.3   1 <1>  -0.2400 
 10 O        1.3830     3.4150    -0.0510 O.3   1 <1>  -0.5380 
 11 C        0.1140     3.8580    -0.5150 C.3   1 <1>   0.1870 
 12 C       -0.0310     5.2280    -1.2140 C.2   1 <1>   0.8710 
 13 O       -0.3080     6.2310    -0.5380 O.co2 1 <1>  -0.9000 
 14 O        0.0630     5.2930    -2.4500 O.co2 1 <1>  -0.9000 
 15 H       -3.2350    -0.3080     1.8740 H     1 <1>   0.0800 
 16 H       -2.9330    -1.0720     0.3160 H     1 <1>   0.0800 
 17 H        1.6640     1.4180    -0.0250 H     1 <1>   0.0800 
 18 H        1.3580     2.1910     1.5520 H     1 <1>   0.0800 
 19 H       -0.5730     3.8700     1.6030 H     1 <1>   0.0000 
 20 H       -1.9240     3.7260     0.4220 H     1 <1>   0.0000 
 21 H       -1.5390     2.7530    -1.5610 H     1 <1>   0.0000 
 22 H        0.1130     2.1390    -1.9280 H     1 <1>   0.0000 
 23 H       -5.0520     1.0470     0.8550 H     1 <1>   0.0800 
 24 H       -5.3750    -0.6560     0.6340 H     1 <1>   0.0800 
 25 H       -4.7510     0.2850    -0.6990 H     1 <1>   0.0800 
@<TRIPOS>BOND
  1   1   2  2   
  2   2   3  1   
  3   2   4  1   
  4   3   5  1   
  5   4   6  1   
  6   4   7  1   
  7   4   8  1   
  8   5   9  1   
  9   5  15  1   
 10   5  16  1   
 11   6  10  1   
 12   6  17  1   
 13   6  18  1   
 14   7  11  1   
 15   7  19  1   
 16   7  20  1   
 17   8  11  1   
 18   8  21  1   
 19   8  22  1   
 20   9  23  1   
 21   9  24  1   
 22   9  25  1   
 23  10  11  1   
 24  11  12  1   
 25  12  13  ar  
 26  12  14  ar  
@<TRIPOS>SUBSTRUCTURE
  1 ****   4 GROUP 4 **** **** 0

# MOE 2024.06 (io_trps.svl 2023.06)
