@<TRIPOS>MOLECULE
NONAME
45 47 1 0 0 
SMALL
USER_CHARGES


@<TRIPOS>ATOM
  1 O       -1.6960    -2.0380    -0.8770 O.co2 1 <1>  -0.9000 
  2 C       -2.3450    -2.3420     0.1280 C.2   1 <1>   0.9060 
  3 O       -1.9130    -2.2460     1.2800 O.co2 1 <1>  -0.9000 
  4 C       -3.8100    -2.7490    -0.0610 C.3   1 <1>   0.2370 
  5 N       -4.7990    -1.5980    -0.1040 N.4   1 <1>  -0.9590 
  6 C       -4.7940    -0.9070     1.2190 C.3   1 <1>   0.3430 
  7 C       -4.4360    -0.6580    -1.2040 C.3   1 <1>   0.3430 
  8 C       -5.9620     0.1000     1.3840 C.3   1 <1>   0.1900 
  9 C       -5.5100     0.4130    -1.4720 C.3   1 <1>  -0.0800 
 10 N       -7.1210    -0.0620     0.4440 N.3   1 <1>  -0.8100 
 11 C       -5.4310     1.5430     1.3480 C.3   1 <1>   0.1200 
 12 C       -5.0940     1.8060    -0.9740 C.3   1 <1>   0.1200 
 13 C       -6.9240     0.0140    -1.0180 C.3   1 <1>   0.1100 
 14 C       -8.1770    -1.0090     0.8880 C.3   1 <1>   0.2530 
 15 O       -4.5370     1.7490     0.2970 O.3   1 <1>  -0.5600 
 16 C       -7.8310    -2.4790     0.6410 C.ar  1 <1>   0.1670 
 17 N       -6.9960    -3.0590     1.4920 N.ar  1 <1>  -0.6200 
 18 C       -8.3930    -3.1350    -0.4450 C.ar  1 <1>  -0.1500 
 19 C       -6.7200    -4.3330     1.2600 C.ar  1 <1>   0.1600 
 20 C       -8.0840    -4.4570    -0.6830 C.ar  1 <1>  -0.1500 
 21 C       -7.2190    -5.0710     0.1980 C.ar  1 <1>  -0.1430 
 22 C       -6.8410    -6.5290     0.0050 C.3   1 <1>  -0.0970 
 23 H       -4.0620    -3.4070     0.7500 H     1 <1>   0.0800 
 24 H       -3.8650    -3.3050    -0.9770 H     1 <1>   0.0800 
 25 H       -5.7610    -1.9520    -0.2030 H     1 <1>   0.4500 
 26 H       -4.8820    -1.6480     1.9960 H     1 <1>   0.0800 
 27 H       -3.8510    -0.4050     1.3680 H     1 <1>   0.0800 
 28 H       -3.4950    -0.1810    -0.9760 H     1 <1>   0.0800 
 29 H       -4.2880    -1.2310    -2.1050 H     1 <1>   0.0800 
 30 H       -6.3380    -0.0330     2.3830 H     1 <1>   0.0800 
 31 H       -5.5640     0.5060    -2.5410 H     1 <1>   0.0800 
 32 H       -4.8830     1.7370     2.2530 H     1 <1>   0.0800 
 33 H       -6.2370     2.2520     1.2820 H     1 <1>   0.0800 
 34 H       -5.9240     2.4920    -0.9680 H     1 <1>   0.0800 
 35 H       -4.3310     2.2030    -1.6220 H     1 <1>   0.0800 
 36 H       -7.1630    -0.9330    -1.4690 H     1 <1>   0.0800 
 37 H       -7.6280     0.7310    -1.4070 H     1 <1>   0.0800 
 38 H       -8.3650    -0.8710     1.9390 H     1 <1>   0.0800 
 39 H       -9.0900    -0.7690     0.3730 H     1 <1>   0.0800 
 40 H       -9.0720    -2.6210    -1.1020 H     1 <1>   0.1500 
 41 H       -6.0560    -4.8160     1.9580 H     1 <1>   0.1500 
 42 H       -8.5070    -4.9880    -1.5190 H     1 <1>   0.1500 
 43 H       -6.6450    -6.7290    -1.0340 H     1 <1>   0.0800 
 44 H       -7.6470    -7.1620     0.3330 H     1 <1>   0.0800 
 45 H       -5.9590    -6.7750     0.5690 H     1 <1>   0.0800 
@<TRIPOS>BOND
  1   1   2  ar  
  2   2   3  ar  
  3   2   4  1   
  4   4   5  1   
  5   4  23  1   
  6   4  24  1   
  7   5   6  1   
  8   5   7  1   
  9   5  25  1   
 10   6   8  1   
 11   6  26  1   
 12   6  27  1   
 13   7   9  1   
 14   7  28  1   
 15   7  29  1   
 16   8  10  1   
 17   8  11  1   
 18   8  30  1   
 19   9  12  1   
 20   9  13  1   
 21   9  31  1   
 22  10  13  1   
 23  10  14  1   
 24  11  15  1   
 25  11  32  1   
 26  11  33  1   
 27  12  15  1   
 28  12  34  1   
 29  12  35  1   
 30  13  36  1   
 31  13  37  1   
 32  14  16  1   
 33  14  38  1   
 34  14  39  1   
 35  16  17  ar  
 36  16  18  ar  
 37  17  19  ar  
 38  18  20  ar  
 39  18  40  1   
 40  19  21  ar  
 41  19  41  1   
 42  20  21  ar  
 43  20  42  1   
 44  21  22  1   
 45  22  43  1   
 46  22  44  1   
 47  22  45  1   
@<TRIPOS>SUBSTRUCTURE
  1 ****   5 GROUP 4 **** **** 0

# MOE 2024.06 (io_trps.svl 2023.06)
