@<TRIPOS>MOLECULE
NONAME
40 41 1 0 0 
SMALL
USER_CHARGES


@<TRIPOS>ATOM
  1 N       -1.6140     0.5520     1.5750 N.ar  1 <1>  -0.6200 
  2 C       -0.4090     0.6900     2.0660 C.ar  1 <1>   0.7710 
  3 C       -1.9060     1.1770     0.4490 C.ar  1 <1>   0.4100 
  4 N        0.5310     1.4590     1.5000 N.ar  1 <1>  -0.1790 
  5 N       -0.1460     0.0150     3.1820 N.pl3 1 <1>  -0.9000 
  6 N       -3.1300     0.9010    -0.0750 N.pl3 1 <1>  -0.8380 
  7 C       -0.9850     2.0700    -0.1660 C.ar  1 <1>  -0.1430 
  8 C        0.2540     2.1740     0.3850 C.ar  1 <1>   0.2110 
  9 C       -4.3660     1.0610     0.7440 C.3   1 <1>   0.2090 
 10 C       -3.3500     0.3330    -1.4410 C.3   1 <1>   0.2090 
 11 C       -1.3860     2.9090    -1.3850 C.3   1 <1>  -0.0170 
 12 C       -4.7560    -0.2000     1.5300 C.3   1 <1>  -0.1600 
 13 C       -2.6170    -0.9990    -1.6340 C.3   1 <1>  -0.1600 
 14 C       -0.6480     4.2480    -1.5090 C.3   1 <1>  -0.2400 
 15 C       -5.0150    -1.4700     0.7010 C.3   1 <1>  -0.1600 
 16 C       -3.3930    -2.2380    -1.1580 C.3   1 <1>  -0.1600 
 17 C       -3.7360    -2.2510     0.3390 C.3   1 <1>  -0.1600 
 18 H        1.4370     1.4920     1.9550 H     1 <1>   0.4570 
 19 H        0.7150    -0.0250     3.7280 H     1 <1>   0.4000 
 20 H       -0.9050    -0.5610     3.5600 H     1 <1>   0.4000 
 21 H        1.0270     2.8070    -0.0160 H     1 <1>   0.1500 
 22 H       -5.1820     1.3540     0.1060 H     1 <1>   0.0800 
 23 H       -4.2100     1.8630     1.4470 H     1 <1>   0.0800 
 24 H       -3.0070     1.0310    -2.1800 H     1 <1>   0.0800 
 25 H       -4.4010     0.1870    -1.6220 H     1 <1>   0.0800 
 26 H       -2.4390     3.1310    -1.3240 H     1 <1>   0.0800 
 27 H       -1.2220     2.3360    -2.2820 H     1 <1>   0.0800 
 28 H       -5.6660     0.0360     2.0530 H     1 <1>   0.0800 
 29 H       -4.0190    -0.3970     2.2860 H     1 <1>   0.0800 
 30 H       -1.6520    -0.9650    -1.1610 H     1 <1>   0.0800 
 31 H       -2.4440    -1.1210    -2.6880 H     1 <1>   0.0800 
 32 H       -0.7450     4.8210    -0.6030 H     1 <1>   0.0800 
 33 H       -1.0810     4.8210    -2.3110 H     1 <1>   0.0800 
 34 H        0.3930     4.1050    -1.7370 H     1 <1>   0.0800 
 35 H       -5.5950    -1.2330    -0.1730 H     1 <1>   0.0800 
 36 H       -5.6250    -2.1210     1.3040 H     1 <1>   0.0800 
 37 H       -2.7790    -3.0980    -1.3620 H     1 <1>   0.0800 
 38 H       -4.2920    -2.3550    -1.7400 H     1 <1>   0.0800 
 39 H       -3.8950    -3.2780     0.6210 H     1 <1>   0.0800 
 40 H       -2.8930    -1.9030     0.9110 H     1 <1>   0.0800 
@<TRIPOS>BOND
  1   1   2  ar  
  2   1   3  ar  
  3   2   4  ar  
  4   2   5  1   
  5   3   6  1   
  6   3   7  ar  
  7   4   8  ar  
  8   4  18  1   
  9   5  19  1   
 10   5  20  1   
 11   6   9  1   
 12   6  10  1   
 13   7   8  ar  
 14   7  11  1   
 15   8  21  1   
 16   9  12  1   
 17   9  22  1   
 18   9  23  1   
 19  10  13  1   
 20  10  24  1   
 21  10  25  1   
 22  11  14  1   
 23  11  26  1   
 24  11  27  1   
 25  12  15  1   
 26  12  28  1   
 27  12  29  1   
 28  13  16  1   
 29  13  30  1   
 30  13  31  1   
 31  14  32  1   
 32  14  33  1   
 33  14  34  1   
 34  15  17  1   
 35  15  35  1   
 36  15  36  1   
 37  16  17  1   
 38  16  37  1   
 39  16  38  1   
 40  17  39  1   
 41  17  40  1   
@<TRIPOS>SUBSTRUCTURE
  1 ****   3 GROUP 4 **** **** 0

# MOE 2024.06 (io_trps.svl 2023.06)
