@<TRIPOS>MOLECULE
NONAME
46 47 1 0 0 
SMALL
USER_CHARGES


@<TRIPOS>ATOM
  1 S       -0.0960     0.6740     0.4420 S.o2  1 <1>   1.0900 
  2 O       -0.4070     1.9830    -0.0830 O.2   1 <1>  -0.6500 
  3 O        0.8770     0.5280     1.4970 O.2   1 <1>  -0.6500 
  4 C       -1.6230    -0.0950     0.9760 C.3   1 <1>  -0.0550 
  5 C        0.4410    -0.3450    -0.9200 C.3   1 <1>  -0.1350 
  6 C       -2.7920     0.1180    -0.0040 C.3   1 <1>  -0.0990 
  7 C       -4.0580    -0.5810     0.4620 C.2   1 <1>   0.5690 
  8 O       -3.9270    -1.6730     0.9630 O.2   1 <1>  -0.5700 
  9 N       -5.2910    -0.0020     0.3070 N.am  1 <1>  -0.6600 
 10 C       -6.4960    -0.6450     0.9140 C.3   1 <1>   0.1400 
 11 C       -5.5270     1.2640    -0.4550 C.3   1 <1>   0.1400 
 12 C       -7.4750     0.4250     1.4030 C.3   1 <1>  -0.1600 
 13 C       -6.9800     1.3470    -0.9190 C.3   1 <1>  -0.1600 
 14 C       -7.9540     1.3760     0.2750 C.3   1 <1>   0.2800 
 15 O       -7.8760     2.6900     0.7710 O.3   1 <1>  -0.5600 
 16 C       -9.4020     1.0740    -0.2070 C.3   1 <1>  -0.1600 
 17 C       -8.8970     3.1050     1.6320 C.3   1 <1>   0.1200 
 18 C      -10.2430     2.3390    -0.4040 C.3   1 <1>   0.2800 
 19 C      -10.2420     3.1620     0.8880 C.3   1 <1>  -0.1600 
 20 O       -9.6360     3.1020    -1.3660 O.3   1 <1>  -0.6800 
 21 C      -11.6530     2.0400    -0.9040 C.3   1 <1>  -0.2400 
 22 H       -1.9070     0.3190     1.9250 H     1 <1>   0.0800 
 23 H       -1.4620    -1.1470     1.1250 H     1 <1>   0.0800 
 24 H        1.3780     0.0180    -1.2970 H     1 <1>   0.0800 
 25 H       -0.2730    -0.3230    -1.7190 H     1 <1>   0.0800 
 26 H        0.5770    -1.3600    -0.6000 H     1 <1>   0.0800 
 27 H       -2.5410    -0.2680    -0.9730 H     1 <1>   0.0800 
 28 H       -2.9570     1.1750    -0.0930 H     1 <1>   0.0800 
 29 H       -6.2020    -1.2630     1.7460 H     1 <1>   0.0800 
 30 H       -6.9670    -1.2760     0.1810 H     1 <1>   0.0800 
 31 H       -4.8830     1.2980    -1.3170 H     1 <1>   0.0800 
 32 H       -5.3030     2.1060     0.1780 H     1 <1>   0.0800 
 33 H       -6.9650     0.9920     2.1620 H     1 <1>   0.0800 
 34 H       -8.3040    -0.0630     1.8790 H     1 <1>   0.0800 
 35 H       -7.1750     0.4950    -1.5460 H     1 <1>   0.0800 
 36 H       -7.1150     2.2230    -1.5260 H     1 <1>   0.0800 
 37 H       -9.9070     0.4660     0.5190 H     1 <1>   0.0800 
 38 H       -9.3940     0.4980    -1.1140 H     1 <1>   0.0800 
 39 H       -8.6350     4.0780     2.0090 H     1 <1>   0.0800 
 40 H       -8.9450     2.4190     2.4600 H     1 <1>   0.0800 
 41 H      -10.5040     4.1830     0.6740 H     1 <1>   0.0800 
 42 H      -10.9950     2.7830     1.5550 H     1 <1>   0.0800 
 43 H       -8.7640     3.3630    -0.9990 H     1 <1>   0.4000 
 44 H      -12.1820     1.4350    -0.1920 H     1 <1>   0.0800 
 45 H      -11.6100     1.5090    -1.8380 H     1 <1>   0.0800 
 46 H      -12.1980     2.9560    -1.0470 H     1 <1>   0.0800 
@<TRIPOS>BOND
  1   1   2  2   
  2   1   3  2   
  3   1   4  1   
  4   1   5  1   
  5   4   6  1   
  6   4  22  1   
  7   4  23  1   
  8   5  24  1   
  9   5  25  1   
 10   5  26  1   
 11   6   7  1   
 12   6  27  1   
 13   6  28  1   
 14   7   8  2   
 15   7   9  am  
 16   9  10  1   
 17   9  11  1   
 18  10  12  1   
 19  10  29  1   
 20  10  30  1   
 21  11  13  1   
 22  11  31  1   
 23  11  32  1   
 24  12  14  1   
 25  12  33  1   
 26  12  34  1   
 27  13  14  1   
 28  13  35  1   
 29  13  36  1   
 30  14  15  1   
 31  14  16  1   
 32  15  17  1   
 33  16  18  1   
 34  16  37  1   
 35  16  38  1   
 36  17  19  1   
 37  17  39  1   
 38  17  40  1   
 39  18  19  1   
 40  18  20  1   
 41  18  21  1   
 42  19  41  1   
 43  19  42  1   
 44  20  43  1   
 45  21  44  1   
 46  21  45  1   
 47  21  46  1   
@<TRIPOS>SUBSTRUCTURE
  1 ****  11 GROUP 4 **** **** 0

# MOE 2024.06 (io_trps.svl 2023.06)
