@<TRIPOS>MOLECULE
NONAME
53 54 1 0 0 
SMALL
USER_CHARGES


@<TRIPOS>ATOM
  1 S        0.6050     0.7070    -0.2200 S.o2  1 <1>   1.3330 
  2 O        0.6610     1.2730    -1.5500 O.2   1 <1>  -0.6500 
  3 O       -0.6200     0.7950     0.5410 O.2   1 <1>  -0.6500 
  4 N        0.9880    -0.9450    -0.3420 N.am  1 <1>  -0.8490 
  5 C        1.9560     1.3730     0.7670 C.3   1 <1>  -0.0550 
  6 C        0.4520    -1.5490    -1.5650 C.3   1 <1>   0.1160 
  7 C        0.5630    -1.7300     0.8230 C.3   1 <1>   0.1160 
  8 C        3.2840     1.6780     0.0390 C.3   1 <1>  -0.0800 
  9 C        3.1860     2.8570    -0.9320 C.3   1 <1>   0.2200 
 10 C        3.8890     0.5550    -0.8100 C.3   1 <1>   0.1200 
 11 N        3.9960     3.9800    -0.4190 N.am  1 <1>  -0.7300 
 12 C        3.7720     2.2990    -2.2270 C.3   1 <1>   0.1200 
 13 O        4.5450     1.2070    -1.8450 O.3   1 <1>  -0.5600 
 14 C        3.5750     4.9020     0.4800 C.2   1 <1>   0.5690 
 15 O        2.4620     4.8670     0.9470 O.2   1 <1>  -0.5700 
 16 C        4.5290     5.9960     0.9300 C.3   1 <1>   0.0440 
 17 C        5.9640     5.7640     0.4330 C.ar  1 <1>  -0.1440 
 18 C        6.8440     4.9780     1.1760 C.ar  1 <1>  -0.1440 
 19 C        6.3890     6.3090    -0.7780 C.ar  1 <1>  -0.1440 
 20 C        8.1320     4.7610     0.7140 C.ar  1 <1>  -0.1500 
 21 C        6.4420     4.3240     2.4930 C.3   1 <1>  -0.0970 
 22 C        7.6820     6.0780    -1.2200 C.ar  1 <1>  -0.1500 
 23 C        5.4780     7.1550    -1.6600 C.3   1 <1>  -0.0970 
 24 C        8.5590     5.3090    -0.4810 C.ar  1 <1>  -0.1440 
 25 C        9.9720     5.0620    -0.9770 C.3   1 <1>  -0.0970 
 26 H        1.6210     2.2910     1.2100 H     1 <1>   0.0800 
 27 H        2.1570     0.6970     1.5740 H     1 <1>   0.0800 
 28 H        0.7170    -2.5920    -1.6160 H     1 <1>   0.0800 
 29 H        0.8620    -1.0570    -2.4320 H     1 <1>   0.0800 
 30 H       -0.6220    -1.4540    -1.5900 H     1 <1>   0.0800 
 31 H        0.9160    -2.7440     0.7340 H     1 <1>   0.0800 
 32 H       -0.5120    -1.7390     0.9000 H     1 <1>   0.0800 
 33 H        0.9680    -1.3080     1.7260 H     1 <1>   0.0800 
 34 H        4.0110     1.9110     0.7970 H     1 <1>   0.0800 
 35 H        2.1750     3.1940    -1.0920 H     1 <1>   0.0800 
 36 H        3.1480    -0.0800    -1.2590 H     1 <1>   0.0800 
 37 H        4.5990    -0.0410    -0.2630 H     1 <1>   0.0800 
 38 H        4.9870     3.9850    -0.6930 H     1 <1>   0.3700 
 39 H        4.3840     3.0100    -2.7540 H     1 <1>   0.0800 
 40 H        2.9870     1.9380    -2.8690 H     1 <1>   0.0800 
 41 H        4.1470     6.9360     0.5850 H     1 <1>   0.0800 
 42 H        4.5040     6.0460     2.0010 H     1 <1>   0.0800 
 43 H        8.8150     4.1580     1.2850 H     1 <1>   0.1500 
 44 H        7.2020     3.6440     2.8350 H     1 <1>   0.0800 
 45 H        5.5310     3.7670     2.3730 H     1 <1>   0.0800 
 46 H        6.3010     5.0760     3.2490 H     1 <1>   0.0800 
 47 H        8.0140     6.4980    -2.1530 H     1 <1>   0.1500 
 48 H        5.9380     7.3570    -2.6100 H     1 <1>   0.0800 
 49 H        5.2730     8.0950    -1.1810 H     1 <1>   0.0800 
 50 H        4.5520     6.6410    -1.8450 H     1 <1>   0.0800 
 51 H       10.6460     4.9410    -0.1480 H     1 <1>   0.0800 
 52 H       10.3120     5.8900    -1.5710 H     1 <1>   0.0800 
 53 H        9.9950     4.1700    -1.5770 H     1 <1>   0.0800 
@<TRIPOS>BOND
  1   1   2  2   
  2   1   3  2   
  3   1   4  am  
  4   1   5  1   
  5   4   6  1   
  6   4   7  1   
  7   5   8  1   
  8   5  26  1   
  9   5  27  1   
 10   6  28  1   
 11   6  29  1   
 12   6  30  1   
 13   7  31  1   
 14   7  32  1   
 15   7  33  1   
 16   8   9  1   
 17   8  10  1   
 18   8  34  1   
 19   9  11  1   
 20   9  12  1   
 21   9  35  1   
 22  10  13  1   
 23  10  36  1   
 24  10  37  1   
 25  11  14  am  
 26  11  38  1   
 27  12  13  1   
 28  12  39  1   
 29  12  40  1   
 30  14  15  2   
 31  14  16  1   
 32  16  17  1   
 33  16  41  1   
 34  16  42  1   
 35  17  18  ar  
 36  17  19  ar  
 37  18  20  ar  
 38  18  21  1   
 39  19  22  ar  
 40  19  23  1   
 41  20  24  ar  
 42  20  43  1   
 43  21  44  1   
 44  21  45  1   
 45  21  46  1   
 46  22  24  ar  
 47  22  47  1   
 48  23  48  1   
 49  23  49  1   
 50  23  50  1   
 51  24  25  1   
 52  25  51  1   
 53  25  52  1   
 54  25  53  1   
@<TRIPOS>SUBSTRUCTURE
  1 ****  11 GROUP 4 **** **** 0

# MOE 2024.06 (io_trps.svl 2023.06)
