@<TRIPOS>MOLECULE
NONAME
47 50 1 0 0 
SMALL
USER_CHARGES


@<TRIPOS>ATOM
  1 O       -1.4680     0.2750    -0.3070 O.co2 1 <1>  -0.9000 
  2 C       -2.1660     1.1770     0.2070 C.2   1 <1>   1.0330 
  3 O       -2.2300     1.1690     1.4480 O.co2 1 <1>  -0.9000 
  4 C       -3.2070     1.8210    -0.6030 C.2   1 <1>   0.0560 
  5 N       -3.5060     3.1020    -0.7500 N.2   1 <1>  -0.7070 
  6 C       -4.1160     1.0330    -1.3320 C.2   1 <1>  -0.1810 
  7 N       -4.5770     3.1340    -1.5520 N.pl3 1 <1>   0.3000 
  8 C       -4.9710     1.8990    -1.9140 C.2   1 <1>  -0.3020 
  9 C       -4.0800    -0.4900    -1.4180 C.3   1 <1>   0.5240 
 10 N       -3.8070    -1.1220    -0.0990 N.4   1 <1>  -0.9590 
 11 C       -3.7610    -2.5910    -0.2130 C.3   1 <1>   0.6030 
 12 C       -4.6990    -0.6260     1.0070 C.3   1 <1>   0.3430 
 13 C       -5.2080    -3.0470    -0.3330 C.2   1 <1>  -0.3320 
 14 C       -3.0410    -3.2380     1.0010 C.3   1 <1>  -0.0800 
 15 C       -6.1770    -0.9840     0.7660 C.3   1 <1>   0.0210 
 16 N       -5.6360    -4.2170    -0.9010 N.pl3 1 <1>   0.0330 
 17 C       -6.2800    -2.3440     0.1000 C.2   1 <1>  -0.1810 
 18 C       -1.6840    -2.5780     1.3170 C.3   1 <1>  -0.2400 
 19 C       -2.8070    -4.7460     0.7910 C.3   1 <1>  -0.2400 
 20 C       -7.0060    -4.2460    -0.8260 C.ar  1 <1>  -0.1520 
 21 C       -7.4430    -3.0810    -0.2000 C.ar  1 <1>   0.0000 
 22 C       -7.9190    -5.2090    -1.2610 C.ar  1 <1>  -0.1500 
 23 C       -8.8110    -2.8710    -0.0040 C.ar  1 <1>  -0.1500 
 24 C       -9.2630    -4.9900    -1.0620 C.ar  1 <1>  -0.1500 
 25 C       -9.7090    -3.8210    -0.4330 C.ar  1 <1>  -0.1500 
 26 H       -5.0140     4.0210    -1.8340 H     1 <1>   0.2700 
 27 H       -5.8140     1.7230    -2.5580 H     1 <1>   0.1500 
 28 H       -3.3000    -0.7690    -2.1080 H     1 <1>   0.0800 
 29 H       -5.0210    -0.8450    -1.8040 H     1 <1>   0.0800 
 30 H       -2.8290    -0.8130     0.1280 H     1 <1>   0.4500 
 31 H       -3.2180    -2.8500    -1.1070 H     1 <1>   0.0800 
 32 H       -4.5940     0.4420     1.1190 H     1 <1>   0.0800 
 33 H       -4.3770    -1.0720     1.9320 H     1 <1>   0.0800 
 34 H       -3.6730    -3.1320     1.8660 H     1 <1>   0.0800 
 35 H       -6.6280    -0.2400     0.1350 H     1 <1>   0.0800 
 36 H       -6.7000    -0.9880     1.7040 H     1 <1>   0.0800 
 37 H       -5.0650    -4.9670    -1.3050 H     1 <1>   0.2700 
 38 H       -1.0460    -2.5640     0.4490 H     1 <1>   0.0800 
 39 H       -1.1750    -3.1090     2.1020 H     1 <1>   0.0800 
 40 H       -1.8100    -1.5640     1.6560 H     1 <1>   0.0800 
 41 H       -2.2220    -4.9230    -0.0940 H     1 <1>   0.0800 
 42 H       -3.7400    -5.2740     0.7100 H     1 <1>   0.0800 
 43 H       -2.2790    -5.1600     1.6330 H     1 <1>   0.0800 
 44 H       -7.5730    -6.1070    -1.7430 H     1 <1>   0.1500 
 45 H       -9.1430    -1.9710     0.4810 H     1 <1>   0.1500 
 46 H       -9.9870    -5.7170    -1.3870 H     1 <1>   0.1500 
 47 H      -10.7660    -3.6760    -0.2900 H     1 <1>   0.1500 
@<TRIPOS>BOND
  1   1   2  ar  
  2   2   3  ar  
  3   2   4  1   
  4   4   5  2   
  5   4   6  1   
  6   5   7  1   
  7   6   8  2   
  8   6   9  1   
  9   7   8  1   
 10   7  26  1   
 11   8  27  1   
 12   9  10  1   
 13   9  28  1   
 14   9  29  1   
 15  10  11  1   
 16  10  12  1   
 17  10  30  1   
 18  11  13  1   
 19  11  14  1   
 20  11  31  1   
 21  12  15  1   
 22  12  32  1   
 23  12  33  1   
 24  13  16  1   
 25  13  17  2   
 26  14  18  1   
 27  14  19  1   
 28  14  34  1   
 29  15  17  1   
 30  15  35  1   
 31  15  36  1   
 32  16  20  1   
 33  16  37  1   
 34  17  21  1   
 35  18  38  1   
 36  18  39  1   
 37  18  40  1   
 38  19  41  1   
 39  19  42  1   
 40  19  43  1   
 41  20  21  ar  
 42  20  22  ar  
 43  21  23  ar  
 44  22  24  ar  
 45  22  44  1   
 46  23  25  ar  
 47  23  45  1   
 48  24  25  ar  
 49  24  46  1   
 50  25  47  1   
@<TRIPOS>SUBSTRUCTURE
  1 ****  10 GROUP 4 **** **** 0

# MOE 2024.06 (io_trps.svl 2023.06)
