@<TRIPOS>MOLECULE
NONAME
52 53 1 0 0 
SMALL
USER_CHARGES


@<TRIPOS>ATOM
  1 CL       1.3970     0.8650    -2.1010 Cl    1 <1>  -0.1770 
  2 C        0.7670     1.9090    -0.8450 C.ar  1 <1>   0.1770 
  3 C        1.5810     2.4030     0.1710 C.ar  1 <1>  -0.1440 
  4 C       -0.5780     2.2230    -0.9100 C.ar  1 <1>  -0.1500 
  5 C        1.0020     3.2320     1.1250 C.ar  1 <1>  -0.1500 
  6 C        3.0700     2.0840     0.2830 C.3   1 <1>   0.3640 
  7 C       -1.1380     3.0460     0.0500 C.ar  1 <1>  -0.1500 
  8 C       -0.3450     3.5500     1.0650 C.ar  1 <1>  -0.1500 
  9 N        3.2490     0.6200     0.4350 N.am  1 <1>  -0.7300 
 10 C        3.9070     2.6840    -0.8780 C.3   1 <1>   0.2610 
 11 C        4.1380    -0.0990    -0.2850 C.2   1 <1>   0.5690 
 12 O        5.1330     1.9890    -1.0690 O.3   1 <1>  -0.5600 
 13 C        4.1010     4.1870    -0.6230 C.2   1 <1>   0.5690 
 14 O        4.2570    -1.2850    -0.1070 O.2   1 <1>  -0.5700 
 15 C        4.9840     0.6140    -1.3430 C.3   1 <1>   0.1810 
 16 O        3.3210     4.9200    -1.1880 O.2   1 <1>  -0.5700 
 17 N        5.0640     4.7040     0.2250 N.am  1 <1>  -0.6600 
 18 C        6.0070     3.8880     1.0470 C.3   1 <1>   0.1400 
 19 C        5.1780     6.1800     0.4070 C.3   1 <1>   0.1400 
 20 C        7.3960     3.8500     0.4070 C.3   1 <1>  -0.1600 
 21 C        5.8940     6.8210    -0.7880 C.3   1 <1>  -0.1600 
 22 C        8.3020     2.8330     1.1120 C.3   1 <1>  -0.1600 
 23 C        6.0610     8.3330    -0.5870 C.3   1 <1>  -0.1600 
 24 C        9.6930     2.8020     0.4730 C.3   1 <1>  -0.2400 
 25 C        6.7740     8.9700    -1.7810 C.3   1 <1>  -0.2400 
 26 H       -1.1800     1.8250    -1.7080 H     1 <1>   0.1500 
 27 H        1.5930     3.6440     1.9250 H     1 <1>   0.1500 
 28 H        3.4290     2.5300     1.1940 H     1 <1>   0.0800 
 29 H       -2.1840     3.2960     0.0050 H     1 <1>   0.1500 
 30 H       -0.7780     4.1950     1.8110 H     1 <1>   0.1500 
 31 H        2.6400     0.1280     1.0890 H     1 <1>   0.3700 
 32 H        3.3600     2.5950    -1.7970 H     1 <1>   0.0800 
 33 H        4.5240     0.5040    -2.3080 H     1 <1>   0.0800 
 34 H        5.9650     0.1770    -1.3710 H     1 <1>   0.0800 
 35 H        6.0750     4.3040     2.0380 H     1 <1>   0.0800 
 36 H        5.6400     2.8840     1.1520 H     1 <1>   0.0800 
 37 H        4.1910     6.6030     0.4990 H     1 <1>   0.0800 
 38 H        5.7160     6.3980     1.3140 H     1 <1>   0.0800 
 39 H        7.3000     3.5780    -0.6300 H     1 <1>   0.0800 
 40 H        7.8460     4.8240     0.4690 H     1 <1>   0.0800 
 41 H        6.8610     6.3720    -0.9190 H     1 <1>   0.0800 
 42 H        5.3160     6.6460    -1.6790 H     1 <1>   0.0800 
 43 H        8.3970     3.0890     2.1540 H     1 <1>   0.0800 
 44 H        7.8630     1.8520     1.0450 H     1 <1>   0.0800 
 45 H        5.0920     8.7890    -0.4690 H     1 <1>   0.0800 
 46 H        6.6310     8.5200     0.3080 H     1 <1>   0.0800 
 47 H       10.1640     3.7670     0.5450 H     1 <1>   0.0800 
 48 H        9.6240     2.5270    -0.5650 H     1 <1>   0.0800 
 49 H       10.3140     2.0810     0.9760 H     1 <1>   0.0800 
 50 H        6.2100     8.8120    -2.6840 H     1 <1>   0.0800 
 51 H        7.7540     8.5440    -1.9070 H     1 <1>   0.0800 
 52 H        6.8790    10.0300    -1.6260 H     1 <1>   0.0800 
@<TRIPOS>BOND
  1   1   2  1   
  2   2   3  ar  
  3   2   4  ar  
  4   3   5  ar  
  5   3   6  1   
  6   4   7  ar  
  7   4  26  1   
  8   5   8  ar  
  9   5  27  1   
 10   6   9  1   
 11   6  10  1   
 12   6  28  1   
 13   7   8  ar  
 14   7  29  1   
 15   8  30  1   
 16   9  11  am  
 17   9  31  1   
 18  10  12  1   
 19  10  13  1   
 20  10  32  1   
 21  11  14  2   
 22  11  15  1   
 23  12  15  1   
 24  13  16  2   
 25  13  17  am  
 26  15  33  1   
 27  15  34  1   
 28  17  18  1   
 29  17  19  1   
 30  18  20  1   
 31  18  35  1   
 32  18  36  1   
 33  19  21  1   
 34  19  37  1   
 35  19  38  1   
 36  20  22  1   
 37  20  39  1   
 38  20  40  1   
 39  21  23  1   
 40  21  41  1   
 41  21  42  1   
 42  22  24  1   
 43  22  43  1   
 44  22  44  1   
 45  23  25  1   
 46  23  45  1   
 47  23  46  1   
 48  24  47  1   
 49  24  48  1   
 50  24  49  1   
 51  25  50  1   
 52  25  51  1   
 53  25  52  1   
@<TRIPOS>SUBSTRUCTURE
  1 ****  10 GROUP 4 **** **** 0

# MOE 2024.06 (io_trps.svl 2023.06)
