@<TRIPOS>MOLECULE
NONAME
54 57 1 0 0 
SMALL
USER_CHARGES


@<TRIPOS>ATOM
  1 S       -0.4930    -0.7450     1.1290 S.3   1 <1>  -0.0800 
  2 C        0.7270    -1.8440     0.4980 C.2   1 <1>  -0.1400 
  3 C        0.2700    -0.7340     2.7080 C.2   1 <1>  -0.1100 
  4 C        1.6220    -2.1510     1.4550 C.2   1 <1>  -0.1500 
  5 C        0.6050    -2.2680    -0.9520 C.3   1 <1>   0.3200 
  6 C        1.3630    -1.5190     2.7130 C.2   1 <1>  -0.1500 
  7 N       -0.6180    -3.0660    -1.0990 N.am  1 <1>  -0.7300 
  8 C       -0.7820    -4.0460    -2.0130 C.2   1 <1>   0.6900 
  9 O        0.0850    -4.2280    -2.8480 O.2   1 <1>  -0.5700 
 10 N       -1.9080    -4.8280    -1.9770 N.am  1 <1>  -0.6600 
 11 C       -2.0530    -6.0200    -2.8560 C.3   1 <1>   0.1400 
 12 C       -3.1160    -4.5470    -1.1560 C.3   1 <1>   0.1400 
 13 C       -2.3430    -7.2500    -1.9920 C.3   1 <1>  -0.1600 
 14 C       -3.4020    -5.7560    -0.2630 C.3   1 <1>  -0.1600 
 15 C       -3.5680    -7.0450    -1.0880 C.3   1 <1>   0.4240 
 16 O       -4.6530    -6.8630    -1.9690 O.3   1 <1>  -0.5600 
 17 C       -3.7760    -8.2710    -0.1720 C.ar  1 <1>  -0.1430 
 18 C       -5.9340    -7.1050    -1.4770 C.3   1 <1>   0.1200 
 19 C       -4.9560    -9.0030    -0.2010 C.ar  1 <1>  -0.1430 
 20 C       -2.7810    -8.6670     0.7120 C.ar  1 <1>  -0.1500 
 21 C       -6.0640    -8.5890    -1.1490 C.3   1 <1>  -0.0170 
 22 C       -5.1280   -10.0990     0.6290 C.ar  1 <1>  -0.1500 
 23 C       -2.9310    -9.7620     1.5450 C.ar  1 <1>   0.0830 
 24 C       -4.1300   -10.4930     1.5170 C.ar  1 <1>   0.0830 
 25 O       -1.8540   -10.0220     2.3410 O.3   1 <1>  -0.3620 
 26 O       -4.3080   -11.5520     2.3600 O.3   1 <1>  -0.3620 
 27 C       -1.5440   -11.3330     2.7570 C.3   1 <1>   0.0400 
 28 C       -5.5460   -12.2180     2.4830 C.3   1 <1>   0.0400 
 29 H       -0.1860    -0.1330     3.4750 H     1 <1>   0.1500 
 30 H        2.4680    -2.8050     1.3330 H     1 <1>   0.1500 
 31 H        1.4620    -2.8540    -1.2390 H     1 <1>   0.0800 
 32 H        0.5480    -1.4020    -1.5900 H     1 <1>   0.0800 
 33 H        2.0100    -1.6850     3.5570 H     1 <1>   0.1500 
 34 H       -1.2400    -3.0380    -0.2980 H     1 <1>   0.3700 
 35 H       -1.1560    -6.1870    -3.4280 H     1 <1>   0.0800 
 36 H       -2.8620    -5.8530    -3.5470 H     1 <1>   0.0800 
 37 H       -3.9510    -4.3720    -1.8140 H     1 <1>   0.0800 
 38 H       -2.9850    -3.6690    -0.5510 H     1 <1>   0.0800 
 39 H       -1.4720    -7.4500    -1.3980 H     1 <1>   0.0800 
 40 H       -2.5090    -8.1060    -2.6200 H     1 <1>   0.0800 
 41 H       -4.2810    -5.5810     0.3280 H     1 <1>   0.0800 
 42 H       -2.5810    -5.8710     0.4200 H     1 <1>   0.0800 
 43 H       -6.6380    -6.8240    -2.2390 H     1 <1>   0.0800 
 44 H       -6.0990    -6.4990    -0.6030 H     1 <1>   0.0800 
 45 H       -1.8550    -8.1250     0.7690 H     1 <1>   0.1500 
 46 H       -5.9970    -9.1620    -2.0570 H     1 <1>   0.0800 
 47 H       -7.0250    -8.7690    -0.7030 H     1 <1>   0.0800 
 48 H       -6.0540   -10.6370     0.5680 H     1 <1>   0.1500 
 49 H       -0.5140   -11.3530     3.0620 H     1 <1>   0.0800 
 50 H       -1.7000   -12.0090     1.9360 H     1 <1>   0.0800 
 51 H       -2.1740   -11.5900     3.5900 H     1 <1>   0.0800 
 52 H       -5.4480   -12.9630     3.2520 H     1 <1>   0.0800 
 53 H       -5.7840   -12.6890     1.5470 H     1 <1>   0.0800 
 54 H       -6.3000   -11.5040     2.7620 H     1 <1>   0.0800 
@<TRIPOS>BOND
  1   1   2  1   
  2   1   3  1   
  3   2   4  2   
  4   2   5  1   
  5   3   6  2   
  6   3  29  1   
  7   4   6  1   
  8   4  30  1   
  9   5   7  1   
 10   5  31  1   
 11   5  32  1   
 12   6  33  1   
 13   7   8  am  
 14   7  34  1   
 15   8   9  2   
 16   8  10  am  
 17  10  11  1   
 18  10  12  1   
 19  11  13  1   
 20  11  35  1   
 21  11  36  1   
 22  12  14  1   
 23  12  37  1   
 24  12  38  1   
 25  13  15  1   
 26  13  39  1   
 27  13  40  1   
 28  14  15  1   
 29  14  41  1   
 30  14  42  1   
 31  15  16  1   
 32  15  17  1   
 33  16  18  1   
 34  17  19  ar  
 35  17  20  ar  
 36  18  21  1   
 37  18  43  1   
 38  18  44  1   
 39  19  21  1   
 40  19  22  ar  
 41  20  23  ar  
 42  20  45  1   
 43  21  46  1   
 44  21  47  1   
 45  22  24  ar  
 46  22  48  1   
 47  23  24  ar  
 48  23  25  1   
 49  24  26  1   
 50  25  27  1   
 51  26  28  1   
 52  27  49  1   
 53  27  50  1   
 54  27  51  1   
 55  28  52  1   
 56  28  53  1   
 57  28  54  1   
@<TRIPOS>SUBSTRUCTURE
  1 ****  14 GROUP 4 **** **** 0

# MOE 2024.06 (io_trps.svl 2023.06)
