@<TRIPOS>MOLECULE
NONAME
51 54 1 0 0 
SMALL
USER_CHARGES


@<TRIPOS>ATOM
  1 F        0.1440     1.4960     0.9850 F     1 <1>  -0.3400 
  2 C       -0.3680     2.0810    -0.0950 C.3   1 <1>   1.1640 
  3 F        0.3030     1.5960    -1.1350 F     1 <1>  -0.3400 
  4 F       -1.6040     1.5960    -0.2090 F     1 <1>  -0.3400 
  5 C       -0.3320     3.6300    -0.0250 C.ar  1 <1>   0.1660 
  6 N        0.8170     4.2510     0.2110 N.ar  1 <1>  -0.6200 
  7 C       -1.4800     4.3610    -0.2090 C.ar  1 <1>  -0.1500 
  8 C        0.7860     5.5800     0.2530 C.ar  1 <1>   0.7200 
  9 C       -1.4080     5.7350    -0.1410 C.ar  1 <1>   0.4100 
 10 N       -0.2760     6.3520     0.0870 N.ar  1 <1>  -0.6200 
 11 N        1.9820     6.2120     0.5020 N.pl3 1 <1>  -0.8380 
 12 N       -2.5430     6.4960    -0.3140 N.pl3 1 <1>  -0.8380 
 13 C        2.1720     7.6720     0.3720 C.3   1 <1>   0.2090 
 14 C        3.2770     5.5030     0.5660 C.3   1 <1>   0.2090 
 15 C       -3.6530     6.3710     0.6720 C.3   1 <1>   0.2090 
 16 C       -2.4340     7.8530    -0.9090 C.3   1 <1>   0.2090 
 17 C        3.6690     7.8480     0.1400 C.3   1 <1>  -0.1600 
 18 C        4.3080     6.6080     0.7620 C.3   1 <1>  -0.1600 
 19 C       -5.0180     6.6780     0.0060 C.3   1 <1>   0.0000 
 20 C       -3.7550     8.2180    -1.5950 C.3   1 <1>  -0.1600 
 21 C       -6.1910     6.5690     1.0000 C.3   1 <1>   0.2000 
 22 C       -4.9590     8.0780    -0.6460 C.3   1 <1>  -0.1600 
 23 C       -5.3740     5.5780    -1.0100 C.3   1 <1>  -0.1600 
 24 O       -5.8870     7.0460     2.2640 O.3   1 <1>  -0.6800 
 25 C       -6.5730     5.0890     1.0710 C.3   1 <1>  -0.1600 
 26 C       -5.9850     4.4380    -0.1880 C.3   1 <1>  -0.1600 
 27 H       -2.4310     3.9090    -0.4130 H     1 <1>   0.1500 
 28 H        1.5980     8.0710    -0.4480 H     1 <1>   0.0800 
 29 H        1.8690     8.1450     1.2900 H     1 <1>   0.0800 
 30 H        3.2880     4.7990     1.3810 H     1 <1>   0.0800 
 31 H        3.4450     4.9870    -0.3640 H     1 <1>   0.0800 
 32 H       -3.6580     5.3850     1.0990 H     1 <1>   0.0800 
 33 H       -3.4720     7.0750     1.4660 H     1 <1>   0.0800 
 34 H       -2.2090     8.5620    -0.1300 H     1 <1>   0.0800 
 35 H       -1.6320     7.8730    -1.6270 H     1 <1>   0.0800 
 36 H        3.8540     7.8610    -0.9200 H     1 <1>   0.0800 
 37 H        4.0340     8.7610     0.5730 H     1 <1>   0.0800 
 38 H        4.4530     6.7620     1.8170 H     1 <1>   0.0800 
 39 H        5.2510     6.3590     0.3090 H     1 <1>   0.0800 
 40 H       -3.6950     9.2290    -1.9540 H     1 <1>   0.0800 
 41 H       -3.8850     7.5770    -2.4490 H     1 <1>   0.0800 
 42 H       -7.0290     7.1360     0.6300 H     1 <1>   0.0800 
 43 H       -5.8690     8.2790    -1.1850 H     1 <1>   0.0800 
 44 H       -4.8740     8.8170     0.1330 H     1 <1>   0.0800 
 45 H       -6.1200     5.9470    -1.6930 H     1 <1>   0.0800 
 46 H       -4.5250     5.2480    -1.5840 H     1 <1>   0.0800 
 47 H       -5.2950     6.4260     2.7280 H     1 <1>   0.4000 
 48 H       -6.1670     4.6160     1.9470 H     1 <1>   0.0800 
 49 H       -7.6450     4.9910     1.0790 H     1 <1>   0.0800 
 50 H       -5.2150     3.7400     0.0910 H     1 <1>   0.0800 
 51 H       -6.7370     3.9140    -0.7530 H     1 <1>   0.0800 
@<TRIPOS>BOND
  1   1   2  1   
  2   2   3  1   
  3   2   4  1   
  4   2   5  1   
  5   5   6  ar  
  6   5   7  ar  
  7   6   8  ar  
  8   7   9  ar  
  9   7  27  1   
 10   8  10  ar  
 11   8  11  1   
 12   9  10  ar  
 13   9  12  1   
 14  11  13  1   
 15  11  14  1   
 16  12  15  1   
 17  12  16  1   
 18  13  17  1   
 19  13  28  1   
 20  13  29  1   
 21  14  18  1   
 22  14  30  1   
 23  14  31  1   
 24  15  19  1   
 25  15  32  1   
 26  15  33  1   
 27  16  20  1   
 28  16  34  1   
 29  16  35  1   
 30  17  18  1   
 31  17  36  1   
 32  17  37  1   
 33  18  38  1   
 34  18  39  1   
 35  19  21  1   
 36  19  22  1   
 37  19  23  1   
 38  20  22  1   
 39  20  40  1   
 40  20  41  1   
 41  21  24  1   
 42  21  25  1   
 43  21  42  1   
 44  22  43  1   
 45  22  44  1   
 46  23  26  1   
 47  23  45  1   
 48  23  46  1   
 49  24  47  1   
 50  25  26  1   
 51  25  48  1   
 52  25  49  1   
 53  26  50  1   
 54  26  51  1   
@<TRIPOS>SUBSTRUCTURE
  1 ****   9 GROUP 4 **** **** 0

# MOE 2024.06 (io_trps.svl 2023.06)
