@<TRIPOS>MOLECULE
NONAME
46 49 1 0 0 
SMALL
USER_CHARGES


@<TRIPOS>ATOM
  1 S        0.2730     0.5970     1.5740 S.3   1 <1>  -0.0800 
  2 C        1.4180     1.4530     0.5620 C.ar  1 <1>   0.0400 
  3 C        0.9650    -0.9270     1.0330 C.2   1 <1>   0.2280 
  4 C        2.2030     0.5140    -0.0810 C.ar  1 <1>   0.2270 
  5 C        1.5620     2.8150     0.3900 C.ar  1 <1>  -0.1500 
  6 N        1.9250    -0.8190     0.2060 N.2   1 <1>  -0.5650 
  7 C        3.1830     0.9730    -0.9470 C.ar  1 <1>  -0.1500 
  8 C        2.5520     3.2850    -0.4710 C.ar  1 <1>   0.0860 
  9 C        3.3460     2.3360    -1.1370 C.ar  1 <1>  -0.1500 
 10 C        2.7360     4.7100    -0.6800 C.2   1 <1>   0.5440 
 11 O        1.7580     5.4050    -0.8820 O.2   1 <1>  -0.5700 
 12 N        3.9800     5.3100    -0.6490 N.am  1 <1>  -0.6600 
 13 C        5.1540     4.7220     0.0740 C.3   1 <1>   0.1400 
 14 C        4.1790     6.6580    -1.2550 C.3   1 <1>   0.1400 
 15 C        5.6680     5.6290     1.2020 C.3   1 <1>   0.1400 
 16 C        4.0950     7.7430    -0.1750 C.3   1 <1>  -0.1600 
 17 N        6.3140     6.8590     0.6510 N.am  1 <1>  -0.6600 
 18 C        5.4210     8.0500     0.5370 C.3   1 <1>   0.1400 
 19 C        7.6270     6.8020     0.2430 C.2   1 <1>   0.5690 
 20 O        8.2400     5.7600     0.2860 O.2   1 <1>  -0.5700 
 21 C        8.3490     8.0430    -0.2840 C.3   1 <1>  -0.0190 
 22 C        9.7290     7.7680    -0.8620 C.3   1 <1>   0.1200 
 23 C        8.6630     9.0900     0.7820 C.3   1 <1>  -0.1600 
 24 O       10.3760     8.9960    -0.8070 O.3   1 <1>  -0.5600 
 25 C       10.0100     9.6710     0.3530 C.3   1 <1>   0.1200 
 26 H        0.5300    -1.8240     1.4370 H     1 <1>   0.1500 
 27 H        0.9190     3.5060     0.9070 H     1 <1>   0.1500 
 28 H        3.7980     0.2570    -1.4610 H     1 <1>   0.1500 
 29 H        4.1020     2.6870    -1.8200 H     1 <1>   0.1500 
 30 H        5.9510     4.5340    -0.6240 H     1 <1>   0.0800 
 31 H        4.8800     3.7820     0.5160 H     1 <1>   0.0800 
 32 H        3.4060     6.8310    -1.9860 H     1 <1>   0.0800 
 33 H        5.1240     6.6960    -1.7690 H     1 <1>   0.0800 
 34 H        6.3930     5.0830     1.7800 H     1 <1>   0.0800 
 35 H        4.8590     5.8910     1.8610 H     1 <1>   0.0800 
 36 H        3.3430     7.4690     0.5450 H     1 <1>   0.0800 
 37 H        3.7560     8.6530    -0.6350 H     1 <1>   0.0800 
 38 H        5.2160     8.4300     1.5240 H     1 <1>   0.0800 
 39 H        5.9140     8.8310    -0.0100 H     1 <1>   0.0800 
 40 H        7.7680     8.4810    -1.0740 H     1 <1>   0.0800 
 41 H        9.6940     7.4250    -1.8820 H     1 <1>   0.0800 
 42 H       10.2870     7.0730    -0.2560 H     1 <1>   0.0800 
 43 H        8.7680     8.6330     1.7510 H     1 <1>   0.0800 
 44 H        7.9090     9.8540     0.8350 H     1 <1>   0.0800 
 45 H       10.7680     9.4960     1.0980 H     1 <1>   0.0800 
 46 H        9.9490    10.7210     0.1280 H     1 <1>   0.0800 
@<TRIPOS>BOND
  1   1   2  1   
  2   1   3  1   
  3   2   4  ar  
  4   2   5  ar  
  5   3   6  2   
  6   3  26  1   
  7   4   6  1   
  8   4   7  ar  
  9   5   8  ar  
 10   5  27  1   
 11   7   9  ar  
 12   7  28  1   
 13   8   9  ar  
 14   8  10  1   
 15   9  29  1   
 16  10  11  2   
 17  10  12  am  
 18  12  13  1   
 19  12  14  1   
 20  13  15  1   
 21  13  30  1   
 22  13  31  1   
 23  14  16  1   
 24  14  32  1   
 25  14  33  1   
 26  15  17  1   
 27  15  34  1   
 28  15  35  1   
 29  16  18  1   
 30  16  36  1   
 31  16  37  1   
 32  17  18  1   
 33  17  19  am  
 34  18  38  1   
 35  18  39  1   
 36  19  20  2   
 37  19  21  1   
 38  21  22  1   
 39  21  23  1   
 40  21  40  1   
 41  22  24  1   
 42  22  41  1   
 43  22  42  1   
 44  23  25  1   
 45  23  43  1   
 46  23  44  1   
 47  24  25  1   
 48  25  45  1   
 49  25  46  1   
@<TRIPOS>SUBSTRUCTURE
  1 ****  13 GROUP 4 **** **** 0

# MOE 2024.06 (io_trps.svl 2023.06)
