@<TRIPOS>MOLECULE
NONAME
52 55 1 0 0 
SMALL
USER_CHARGES


@<TRIPOS>ATOM
  1 O       -4.6730    -1.9640     1.0560 O.2   1 <1>  -0.5700 
  2 C       -3.7440    -1.2860     0.6610 C.2   1 <1>   0.5440 
  3 N       -2.5410    -1.9300     0.5070 N.am  1 <1>  -0.6600 
  4 C       -3.9280     0.1120     0.2980 C.ar  1 <1>   0.0860 
  5 C       -2.0850    -2.8900     1.5850 C.3   1 <1>   0.2200 
  6 C       -1.9890    -2.0770    -0.8700 C.3   1 <1>   0.1400 
  7 C       -2.8630     1.0120     0.2690 C.ar  1 <1>  -0.1500 
  8 C       -5.1910     0.6060    -0.0280 C.ar  1 <1>  -0.1500 
  9 C       -0.5640    -3.1150     1.5790 C.3   1 <1>   0.1200 
 10 C       -2.8250    -4.2490     1.5050 C.3   1 <1>   0.3430 
 11 C       -1.5380    -3.5080    -1.2210 C.3   1 <1>  -0.0800 
 12 C       -3.0360     2.3470    -0.0770 C.ar  1 <1>  -0.0230 
 13 C       -5.3810     1.9310    -0.3760 C.ar  1 <1>  -0.1500 
 14 O       -0.2270    -4.1570     0.7110 O.3   1 <1>  -0.5600 
 15 N       -3.5040    -4.4430     0.1810 N.4   1 <1>  -0.9590 
 16 C       -0.1530    -3.8330    -0.6360 C.3   1 <1>   0.1200 
 17 C       -2.5680    -4.6370    -0.9770 C.3   1 <1>   0.3430 
 18 N       -1.9330     3.2390    -0.0910 N.pl3 1 <1>   0.3260 
 19 C       -4.3080     2.7990    -0.4020 C.ar  1 <1>  -0.1500 
 20 C       -4.5910    -5.4590     0.2470 C.3   1 <1>   0.3430 
 21 C       -1.7280     4.3450     0.6360 C.2   1 <1>   0.0360 
 22 C       -0.8050     3.1760    -0.8090 C.2   1 <1>   0.0360 
 23 C       -4.0530    -6.8720     0.5060 C.3   1 <1>  -0.1600 
 24 N       -0.5910     4.8930     0.3860 N.2   1 <1>  -0.3380 
 25 N        0.0030     4.1410    -0.5420 N.2   1 <1>  -0.3380 
 26 C       -5.2020    -7.8830     0.5970 C.3   1 <1>  -0.2400 
 27 H       -2.3250    -2.4440     2.5350 H     1 <1>   0.0800 
 28 H       -2.7420    -1.7730    -1.5800 H     1 <1>   0.0800 
 29 H       -1.1580    -1.4010    -0.9830 H     1 <1>   0.0800 
 30 H       -1.8790     0.6650     0.5350 H     1 <1>   0.1500 
 31 H       -6.0400    -0.0570    -0.0050 H     1 <1>   0.1500 
 32 H       -0.2510    -3.4260     2.5610 H     1 <1>   0.0800 
 33 H       -0.0220    -2.2220     1.3210 H     1 <1>   0.0800 
 34 H       -3.5700    -4.2610     2.2830 H     1 <1>   0.0800 
 35 H       -2.1380    -5.0560     1.6990 H     1 <1>   0.0800 
 36 H       -1.3720    -3.4990    -2.2830 H     1 <1>   0.0800 
 37 H       -6.3680     2.2860    -0.6250 H     1 <1>   0.1500 
 38 H       -3.9690    -3.5210     0.0580 H     1 <1>   0.4500 
 39 H        0.5360    -3.0140    -0.7600 H     1 <1>   0.0800 
 40 H        0.2620    -4.6910    -1.1370 H     1 <1>   0.0800 
 41 H       -2.0310    -5.5630    -0.8470 H     1 <1>   0.0800 
 42 H       -3.1630    -4.7370    -1.8700 H     1 <1>   0.0800 
 43 H       -4.4650     3.8300    -0.6770 H     1 <1>   0.1500 
 44 H       -5.2770    -5.1920     1.0350 H     1 <1>   0.0800 
 45 H       -5.1430    -5.4550    -0.6790 H     1 <1>   0.0800 
 46 H       -2.4470     4.7110     1.3440 H     1 <1>   0.1500 
 47 H       -0.6180     2.3990    -1.5250 H     1 <1>   0.1500 
 48 H       -3.4000    -7.1760    -0.2920 H     1 <1>   0.0800 
 49 H       -3.5050    -6.9010     1.4310 H     1 <1>   0.0800 
 50 H       -5.7640    -7.9080    -0.3220 H     1 <1>   0.0800 
 51 H       -5.8700    -7.6320     1.4040 H     1 <1>   0.0800 
 52 H       -4.8110    -8.8690     0.7790 H     1 <1>   0.0800 
@<TRIPOS>BOND
  1   1   2  2   
  2   2   3  am  
  3   2   4  1   
  4   3   5  1   
  5   3   6  1   
  6   4   7  ar  
  7   4   8  ar  
  8   5   9  1   
  9   5  10  1   
 10   5  27  1   
 11   6  11  1   
 12   6  28  1   
 13   6  29  1   
 14   7  12  ar  
 15   7  30  1   
 16   8  13  ar  
 17   8  31  1   
 18   9  14  1   
 19   9  32  1   
 20   9  33  1   
 21  10  15  1   
 22  10  34  1   
 23  10  35  1   
 24  11  16  1   
 25  11  17  1   
 26  11  36  1   
 27  12  18  1   
 28  12  19  ar  
 29  13  19  ar  
 30  13  37  1   
 31  14  16  1   
 32  15  17  1   
 33  15  20  1   
 34  15  38  1   
 35  16  39  1   
 36  16  40  1   
 37  17  41  1   
 38  17  42  1   
 39  18  21  1   
 40  18  22  1   
 41  19  43  1   
 42  20  23  1   
 43  20  44  1   
 44  20  45  1   
 45  21  24  2   
 46  21  46  1   
 47  22  25  2   
 48  22  47  1   
 49  23  26  1   
 50  23  48  1   
 51  23  49  1   
 52  24  25  1   
 53  26  50  1   
 54  26  51  1   
 55  26  52  1   
@<TRIPOS>SUBSTRUCTURE
  1 ****   3 GROUP 4 **** **** 0

# MOE 2024.06 (io_trps.svl 2023.06)
