@<TRIPOS>MOLECULE
NONAME
56 59 1 0 0 
SMALL
USER_CHARGES


@<TRIPOS>ATOM
  1 F       -3.8060    -1.4760    -3.1850 F     1 <1>  -0.1900 
  2 C       -4.2230    -0.4900    -2.4410 C.ar  1 <1>   0.1900 
  3 C       -3.8210    -0.4340    -1.1200 C.ar  1 <1>  -0.1500 
  4 C       -5.0520     0.4650    -2.9970 C.ar  1 <1>  -0.1500 
  5 C       -4.2750     0.6100    -0.3340 C.ar  1 <1>  -0.1500 
  6 C       -5.4970     1.5030    -2.1970 C.ar  1 <1>  -0.1500 
  7 C       -5.1240     1.5870    -0.8550 C.ar  1 <1>   0.0000 
  8 C       -5.6150     2.6580    -0.0190 C.ar  1 <1>   0.0000 
  9 C       -6.4970     2.4230     1.0510 C.ar  1 <1>   0.0860 
 10 C       -5.1900     3.9590    -0.2730 C.ar  1 <1>  -0.1500 
 11 C       -7.0120     1.1000     1.3510 C.2   1 <1>   0.5440 
 12 C       -6.8870     3.5050     1.8400 C.ar  1 <1>  -0.1500 
 13 C       -5.6010     5.0180     0.5120 C.ar  1 <1>  -0.1500 
 14 O       -6.9990     0.6710     2.4930 O.2   1 <1>  -0.5700 
 15 N       -7.5890     0.3040     0.3880 N.am  1 <1>  -0.6600 
 16 C       -6.4510     4.7890     1.5770 C.ar  1 <1>  -0.1500 
 17 C       -7.7760    -1.1350     0.6210 C.3   1 <1>   0.1400 
 18 C       -8.5780     0.8340    -0.5790 C.3   1 <1>   0.1400 
 19 C       -9.2200    -1.2480     1.1340 C.3   1 <1>   0.4230 
 20 C      -10.0120     0.4100    -0.1610 C.3   1 <1>  -0.1600 
 21 N       -9.4140    -2.2510     2.2470 N.4   1 <1>  -0.9590 
 22 C      -10.2470    -1.1990    -0.0970 C.3   1 <1>   0.0000 
 23 C       -9.0030    -3.6090     1.8510 C.3   1 <1>   0.3430 
 24 C       -8.7100    -1.7970     3.4910 C.3   1 <1>   0.2630 
 25 C      -10.4540    -2.8050    -0.1170 C.3   1 <1>  -0.1600 
 26 C      -11.3170    -1.0840    -1.2830 C.3   1 <1>   0.1200 
 27 C       -9.3920    -3.8100     0.3980 C.3   1 <1>  -0.1600 
 28 O      -10.6460    -0.9820    -2.4990 O.3   1 <1>  -0.6800 
 29 H       -3.1670    -1.1900    -0.7230 H     1 <1>   0.1500 
 30 H       -5.3390     0.3910    -4.0310 H     1 <1>   0.1500 
 31 H       -3.9730     0.6710     0.6980 H     1 <1>   0.1500 
 32 H       -6.1430     2.2560    -2.6130 H     1 <1>   0.1500 
 33 H       -4.5180     4.1390    -1.0950 H     1 <1>   0.1500 
 34 H       -7.5430     3.3310     2.6750 H     1 <1>   0.1500 
 35 H       -5.2580     6.0160     0.3000 H     1 <1>   0.1500 
 36 H       -6.7690     5.6090     2.1990 H     1 <1>   0.1500 
 37 H       -7.6410    -1.6640    -0.3060 H     1 <1>   0.0800 
 38 H       -7.0570    -1.4870     1.3390 H     1 <1>   0.0800 
 39 H       -8.5130     1.9080    -0.6250 H     1 <1>   0.0800 
 40 H       -8.3550     0.4470    -1.5610 H     1 <1>   0.0800 
 41 H       -9.3390    -0.3340     1.6880 H     1 <1>   0.0800 
 42 H      -10.2780     0.8950     0.7650 H     1 <1>   0.0800 
 43 H      -10.5890     0.9930    -0.8590 H     1 <1>   0.0800 
 44 H      -10.4240    -2.2720     2.4320 H     1 <1>   0.4500 
 45 H       -7.9370    -3.7310     1.9600 H     1 <1>   0.0800 
 46 H       -9.4990    -4.3360     2.4750 H     1 <1>   0.0800 
 47 H       -7.6450    -1.7510     3.3300 H     1 <1>   0.0800 
 48 H       -8.9080    -2.4730     4.3070 H     1 <1>   0.0800 
 49 H       -9.0440    -0.8100     3.7710 H     1 <1>   0.0800 
 50 H      -11.3770    -3.0320     0.3930 H     1 <1>   0.0800 
 51 H      -10.5530    -3.1870    -1.1250 H     1 <1>   0.0800 
 52 H      -11.9970    -0.2520    -1.1910 H     1 <1>   0.0800 
 53 H      -12.0250    -1.8930    -1.3850 H     1 <1>   0.0800 
 54 H       -8.5100    -3.7490    -0.2150 H     1 <1>   0.0800 
 55 H       -9.7630    -4.8150     0.2840 H     1 <1>   0.0800 
 56 H      -11.2760    -0.9290    -3.2480 H     1 <1>   0.4000 
@<TRIPOS>BOND
  1   1   2  1   
  2   2   3  ar  
  3   2   4  ar  
  4   3   5  ar  
  5   3  29  1   
  6   4   6  ar  
  7   4  30  1   
  8   5   7  ar  
  9   5  31  1   
 10   6   7  ar  
 11   6  32  1   
 12   7   8  1   
 13   8   9  ar  
 14   8  10  ar  
 15   9  11  1   
 16   9  12  ar  
 17  10  13  ar  
 18  10  33  1   
 19  11  14  2   
 20  11  15  am  
 21  12  16  ar  
 22  12  34  1   
 23  13  16  ar  
 24  13  35  1   
 25  15  17  1   
 26  15  18  1   
 27  16  36  1   
 28  17  19  1   
 29  17  37  1   
 30  17  38  1   
 31  18  20  1   
 32  18  39  1   
 33  18  40  1   
 34  19  21  1   
 35  19  22  1   
 36  19  41  1   
 37  20  22  1   
 38  20  42  1   
 39  20  43  1   
 40  21  23  1   
 41  21  24  1   
 42  21  44  1   
 43  22  25  1   
 44  22  26  1   
 45  23  27  1   
 46  23  45  1   
 47  23  46  1   
 48  24  47  1   
 49  24  48  1   
 50  24  49  1   
 51  25  27  1   
 52  25  50  1   
 53  25  51  1   
 54  26  28  1   
 55  26  52  1   
 56  26  53  1   
 57  27  54  1   
 58  27  55  1   
 59  28  56  1   
@<TRIPOS>SUBSTRUCTURE
  1 ****  15 GROUP 4 **** **** 0

# MOE 2024.06 (io_trps.svl 2023.06)
