@<TRIPOS>MOLECULE
NONAME
51 54 1 0 0 
SMALL
USER_CHARGES


@<TRIPOS>ATOM
  1 O       -2.2880     1.0630    -1.5940 O.2   1 <1>  -0.5700 
  2 C       -2.0760     1.2540    -0.4120 C.2   1 <1>   0.7150 
  3 N       -2.0290     0.1770     0.4150 N.am  1 <1>  -0.7300 
  4 C       -1.8940     2.5640     0.1430 C.2   1 <1>  -0.2370 
  5 C       -2.2470    -1.2260     0.0050 C.3   1 <1>   0.2200 
  6 N       -1.6950     3.7110    -0.5660 N.pl3 1 <1>   0.3140 
  7 C       -1.8780     2.9500     1.4510 C.2   1 <1>  -0.1500 
  8 C       -3.7110    -1.5790     0.2020 C.3   1 <1>  -0.0800 
  9 C       -1.5650    -2.1640     0.9940 C.3   1 <1>   0.1200 
 10 N       -1.5580     4.7800     0.2370 N.2   1 <1>  -0.7070 
 11 C       -1.5940     3.8930    -2.0350 C.3   1 <1>   0.0960 
 12 C       -1.6700     4.3150     1.4390 C.2   1 <1>   0.1080 
 13 C       -3.7570    -1.9750     1.6820 C.3   1 <1>   0.1200 
 14 C       -4.1420    -2.7290    -0.7290 C.3   1 <1>  -0.0160 
 15 O       -2.4520    -2.3090     2.0620 O.3   1 <1>  -0.5600 
 16 C       -0.2070     3.4890    -2.5550 C.3   1 <1>  -0.2400 
 17 C       -1.5740     5.2060     2.6550 C.3   1 <1>  -0.0590 
 18 C       -5.6330    -3.0270    -0.6020 C.ar  1 <1>  -0.1440 
 19 C       -6.6230    -2.1930    -1.1740 C.ar  1 <1>   0.0000 
 20 C       -6.0550    -4.1300     0.0810 C.ar  1 <1>  -0.1500 
 21 C       -7.9790    -2.5540    -0.9790 C.ar  1 <1>   0.3100 
 22 C       -6.3510    -1.0270    -1.9280 C.ar  1 <1>  -0.1500 
 23 C       -7.4230    -4.4000     0.2090 C.ar  1 <1>   0.1600 
 24 N       -8.3610    -3.6570    -0.2870 N.ar  1 <1>  -0.6200 
 25 C       -8.9840    -1.7400    -1.5240 C.ar  1 <1>  -0.1500 
 26 C       -7.3550    -0.2560    -2.4470 C.ar  1 <1>  -0.1500 
 27 C       -8.6900    -0.6140    -2.2430 C.ar  1 <1>  -0.1500 
 28 H       -1.9310     0.3280     1.4180 H     1 <1>   0.3700 
 29 H       -1.9020    -1.3760    -1.0040 H     1 <1>   0.0800 
 30 H       -2.0020     2.3470     2.3310 H     1 <1>   0.1500 
 31 H       -4.3410    -0.7260     0.0220 H     1 <1>   0.0800 
 32 H       -0.6250    -1.7820     1.3520 H     1 <1>   0.0800 
 33 H       -1.4200    -3.1370     0.5580 H     1 <1>   0.0800 
 34 H       -2.3640     3.3200    -2.5170 H     1 <1>   0.0800 
 35 H       -1.7680     4.9310    -2.2520 H     1 <1>   0.0800 
 36 H       -4.4030    -2.8130     1.8750 H     1 <1>   0.0800 
 37 H       -4.0670    -1.1410     2.2880 H     1 <1>   0.0800 
 38 H       -3.5770    -3.6150    -0.4960 H     1 <1>   0.0800 
 39 H       -3.9200    -2.4790    -1.7510 H     1 <1>   0.0800 
 40 H       -0.0250     2.4450    -2.3700 H     1 <1>   0.0800 
 41 H        0.5530     4.0760    -2.0700 H     1 <1>   0.0800 
 42 H       -0.1530     3.6620    -3.6140 H     1 <1>   0.0800 
 43 H       -1.6930     4.6320     3.5550 H     1 <1>   0.0800 
 44 H       -2.3420     5.9560     2.6090 H     1 <1>   0.0800 
 45 H       -0.6150     5.6900     2.6680 H     1 <1>   0.0800 
 46 H       -5.3610    -4.8130     0.5360 H     1 <1>   0.1500 
 47 H       -5.3330    -0.7320    -2.1030 H     1 <1>   0.1500 
 48 H       -7.7120    -5.2810     0.7570 H     1 <1>   0.1500 
 49 H      -10.0030    -2.0360    -1.3570 H     1 <1>   0.1500 
 50 H       -7.1320     0.6300    -3.0160 H     1 <1>   0.1500 
 51 H       -9.4710     0.0000    -2.6560 H     1 <1>   0.1500 
@<TRIPOS>BOND
  1   1   2  2   
  2   2   3  am  
  3   2   4  1   
  4   3   5  1   
  5   3  28  1   
  6   4   6  1   
  7   4   7  2   
  8   5   8  1   
  9   5   9  1   
 10   5  29  1   
 11   6  10  1   
 12   6  11  1   
 13   7  12  1   
 14   7  30  1   
 15   8  13  1   
 16   8  14  1   
 17   8  31  1   
 18   9  15  1   
 19   9  32  1   
 20   9  33  1   
 21  10  12  2   
 22  11  16  1   
 23  11  34  1   
 24  11  35  1   
 25  12  17  1   
 26  13  15  1   
 27  13  36  1   
 28  13  37  1   
 29  14  18  1   
 30  14  38  1   
 31  14  39  1   
 32  16  40  1   
 33  16  41  1   
 34  16  42  1   
 35  17  43  1   
 36  17  44  1   
 37  17  45  1   
 38  18  19  ar  
 39  18  20  ar  
 40  19  21  ar  
 41  19  22  ar  
 42  20  23  ar  
 43  20  46  1   
 44  21  24  ar  
 45  21  25  ar  
 46  22  26  ar  
 47  22  47  1   
 48  23  24  ar  
 49  23  48  1   
 50  25  27  ar  
 51  25  49  1   
 52  26  27  ar  
 53  26  50  1   
 54  27  51  1   
@<TRIPOS>SUBSTRUCTURE
  1 ****   8 GROUP 4 **** **** 0

# MOE 2024.06 (io_trps.svl 2023.06)
