@<TRIPOS>MOLECULE
NONAME
54 57 1 0 0 
SMALL
USER_CHARGES


@<TRIPOS>ATOM
  1 O        1.5320    -0.1000    -2.5460 O.2   1 <1>  -0.5700 
  2 C        2.0990    -0.5310    -1.5610 C.2   1 <1>   0.5440 
  3 N        2.8390     0.3420    -0.7930 N.am  1 <1>  -0.6600 
  4 C        1.9950    -1.9240    -1.1960 C.ar  1 <1>   0.0860 
  5 C        2.9720     0.1460     0.6950 C.3   1 <1>   0.2200 
  6 C        3.5030     1.4940    -1.4730 C.3   1 <1>   0.1400 
  7 C        3.1040    -2.7660    -1.2610 C.ar  1 <1>  -0.1500 
  8 C        0.8020    -2.4710    -0.7290 C.ar  1 <1>  -0.1500 
  9 C        2.5920     1.4100     1.4840 C.3   1 <1>   0.1200 
 10 C        4.3740    -0.3660     1.0950 C.3   1 <1>   0.3430 
 11 C        4.5660     2.2320    -0.6360 C.3   1 <1>  -0.0800 
 12 C        3.0320    -4.0790    -0.8430 C.ar  1 <1>  -0.1500 
 13 C        0.7300    -3.7860    -0.3130 C.ar  1 <1>  -0.1500 
 14 O        3.6790     2.2780     1.6130 O.3   1 <1>  -0.5600 
 15 N        5.4140    -0.0630     0.0700 N.4   1 <1>  -0.9590 
 16 C        3.9510     3.0620     0.4990 C.3   1 <1>   0.1200 
 17 C        5.7500     1.3680    -0.1610 C.3   1 <1>   0.3430 
 18 C        1.8450    -4.6240    -0.3560 C.ar  1 <1>   0.1000 
 19 C        6.6550    -0.9230     0.1650 C.3   1 <1>   0.2370 
 20 N        1.7970    -5.9510     0.0760 N.pl3 1 <1>  -0.8380 
 21 C        7.1150    -1.3470    -1.2310 C.2   1 <1>   0.9060 
 22 C        0.5800    -6.5780     0.6490 C.3   1 <1>   0.2090 
 23 C        2.6640    -6.9940    -0.5310 C.3   1 <1>   0.2090 
 24 O        8.2680    -1.7320    -1.4090 O.co2 1 <1>  -0.9000 
 25 O        6.2680    -1.2290    -2.1300 O.co2 1 <1>  -0.9000 
 26 C        0.9040    -8.0630     0.7240 C.3   1 <1>  -0.1600 
 27 C        1.8710    -8.2920    -0.4310 C.3   1 <1>  -0.1600 
 28 H        2.2620    -0.6020     1.0000 H     1 <1>   0.0800 
 29 H        3.9680     1.1250    -2.3740 H     1 <1>   0.0800 
 30 H        2.7410     2.1910    -1.7780 H     1 <1>   0.0800 
 31 H        4.0320    -2.3840    -1.6550 H     1 <1>   0.1500 
 32 H       -0.0750    -1.8480    -0.6960 H     1 <1>   0.1500 
 33 H        2.3100     1.1290     2.4830 H     1 <1>   0.0800 
 34 H        1.7600     1.9220     1.0320 H     1 <1>   0.0800 
 35 H        4.3100    -1.4340     1.2170 H     1 <1>   0.0800 
 36 H        4.6560     0.0560     2.0450 H     1 <1>   0.0800 
 37 H        4.9910     2.9600    -1.3030 H     1 <1>   0.0800 
 38 H        3.9130    -4.6890    -0.8970 H     1 <1>   0.1500 
 39 H       -0.2080    -4.1620     0.0460 H     1 <1>   0.1500 
 40 H        5.0320    -0.3790    -0.8540 H     1 <1>   0.4500 
 41 H        3.0490     3.5610     0.1860 H     1 <1>   0.0800 
 42 H        4.6540     3.8140     0.8170 H     1 <1>   0.0800 
 43 H        6.1650     1.7930     0.7380 H     1 <1>   0.0800 
 44 H        6.5120     1.4070    -0.9240 H     1 <1>   0.0800 
 45 H        7.4570    -0.3960     0.6470 H     1 <1>   0.0800 
 46 H        6.4480    -1.8220     0.7140 H     1 <1>   0.0800 
 47 H        0.3590    -6.1700     1.6200 H     1 <1>   0.0800 
 48 H       -0.2510    -6.4200    -0.0170 H     1 <1>   0.0800 
 49 H        2.8950    -6.7600    -1.5560 H     1 <1>   0.0800 
 50 H        3.5740    -7.0670     0.0400 H     1 <1>   0.0800 
 51 H        1.3950    -8.2660     1.6600 H     1 <1>   0.0800 
 52 H        0.0200    -8.6710     0.6500 H     1 <1>   0.0800 
 53 H        1.3220    -8.4330    -1.3450 H     1 <1>   0.0800 
 54 H        2.5120    -9.1410    -0.2710 H     1 <1>   0.0800 
@<TRIPOS>BOND
  1   1   2  2   
  2   2   3  am  
  3   2   4  1   
  4   3   5  1   
  5   3   6  1   
  6   4   7  ar  
  7   4   8  ar  
  8   5   9  1   
  9   5  10  1   
 10   5  28  1   
 11   6  11  1   
 12   6  29  1   
 13   6  30  1   
 14   7  12  ar  
 15   7  31  1   
 16   8  13  ar  
 17   8  32  1   
 18   9  14  1   
 19   9  33  1   
 20   9  34  1   
 21  10  15  1   
 22  10  35  1   
 23  10  36  1   
 24  11  16  1   
 25  11  17  1   
 26  11  37  1   
 27  12  18  ar  
 28  12  38  1   
 29  13  18  ar  
 30  13  39  1   
 31  14  16  1   
 32  15  17  1   
 33  15  19  1   
 34  15  40  1   
 35  16  41  1   
 36  16  42  1   
 37  17  43  1   
 38  17  44  1   
 39  18  20  1   
 40  19  21  1   
 41  19  45  1   
 42  19  46  1   
 43  20  22  1   
 44  20  23  1   
 45  21  24  ar  
 46  21  25  ar  
 47  22  26  1   
 48  22  47  1   
 49  22  48  1   
 50  23  27  1   
 51  23  49  1   
 52  23  50  1   
 53  26  27  1   
 54  26  51  1   
 55  26  52  1   
 56  27  53  1   
 57  27  54  1   
@<TRIPOS>SUBSTRUCTURE
  1 ****   7 GROUP 4 **** **** 0

# MOE 2024.06 (io_trps.svl 2023.06)
