@<TRIPOS>MOLECULE
NONAME
50 52 1 0 0 
SMALL
USER_CHARGES


@<TRIPOS>ATOM
  1 O        2.4910    -1.0870    -1.5750 O.2   1 <1>  -0.5700 
  2 C        2.5160    -1.0370    -0.3600 C.2   1 <1>   0.5440 
  3 N        2.5440     0.2090     0.2210 N.am  1 <1>  -0.6600 
  4 C        2.5990    -2.2520     0.4310 C.ar  1 <1>   0.0860 
  5 C        3.7310     0.6180     1.0240 C.3   1 <1>   0.1400 
  6 C        1.7010     1.3020    -0.3320 C.3   1 <1>   0.1400 
  7 C        3.0910    -3.4410    -0.0890 C.ar  1 <1>  -0.1500 
  8 C        2.1950    -2.3210     1.7590 C.ar  1 <1>  -0.1500 
  9 C        4.9830     0.7120     0.1300 C.3   1 <1>   0.3430 
 10 C        2.5260     2.3780    -1.0470 C.3   1 <1>  -0.1600 
 11 C        3.1770    -4.5690     0.7030 C.ar  1 <1>   0.1600 
 12 C        2.3230    -3.5000     2.4680 C.ar  1 <1>   0.1600 
 13 N        4.9330     1.7990    -0.9080 N.4   1 <1>  -0.9590 
 14 C        3.7390     1.8260    -1.7990 C.3   1 <1>   0.3430 
 15 N        2.8140    -4.6220     1.9730 N.ar  1 <1>  -0.6200 
 16 C        6.1980     1.8130    -1.6860 C.3   1 <1>   0.5240 
 17 C        7.2760     2.3700    -0.7660 C.2   1 <1>   0.0460 
 18 N        6.9630     3.3690     0.0890 N.2   1 <1>  -0.5650 
 19 C        8.5730     2.0090    -0.6350 C.2   1 <1>  -0.3320 
 20 C        8.0720     3.6080     0.7090 C.2   1 <1>   0.0060 
 21 N        9.0890     2.8130     0.3150 N.pl3 1 <1>   0.0330 
 22 C        9.4040     0.9530    -1.3460 C.3   1 <1>  -0.0600 
 23 C        8.2390     4.6770     1.7760 C.3   1 <1>   0.0200 
 24 C        9.1230     5.8260     1.2800 C.3   1 <1>  -0.2400 
 25 H        3.9100    -0.1170     1.7890 H     1 <1>   0.0800 
 26 H        3.5500     1.5590     1.5140 H     1 <1>   0.0800 
 27 H        1.1270     1.7480     0.4630 H     1 <1>   0.0800 
 28 H        0.9990     0.8770    -1.0320 H     1 <1>   0.0800 
 29 H        3.4040    -3.4860    -1.1170 H     1 <1>   0.1500 
 30 H        1.7750    -1.4570     2.2410 H     1 <1>   0.1500 
 31 H        5.1240    -0.2400    -0.3540 H     1 <1>   0.0800 
 32 H        5.8370     0.8830     0.7660 H     1 <1>   0.0800 
 33 H        2.8260     3.1430    -0.3540 H     1 <1>   0.0800 
 34 H        1.8750     2.8490    -1.7610 H     1 <1>   0.0800 
 35 H        3.5640    -5.4790     0.2730 H     1 <1>   0.1500 
 36 H        2.0030    -3.5260     3.4970 H     1 <1>   0.1500 
 37 H        5.0090     2.6960    -0.3960 H     1 <1>   0.4500 
 38 H        3.9390     2.4790    -2.6330 H     1 <1>   0.0800 
 39 H        3.5270     0.8430    -2.1890 H     1 <1>   0.0800 
 40 H        6.1010     2.4700    -2.5330 H     1 <1>   0.0800 
 41 H        6.4570     0.8260    -2.0300 H     1 <1>   0.0800 
 42 H       10.0530     2.8370     0.6640 H     1 <1>   0.2700 
 43 H        8.8150     0.4220    -2.0720 H     1 <1>   0.0800 
 44 H        9.7910     0.2440    -0.6360 H     1 <1>   0.0800 
 45 H       10.2320     1.4160    -1.8550 H     1 <1>   0.0800 
 46 H        8.6680     4.2410     2.6600 H     1 <1>   0.0800 
 47 H        7.2700     5.0660     2.0370 H     1 <1>   0.0800 
 48 H       10.1120     5.4750     1.0490 H     1 <1>   0.0800 
 49 H        9.1960     6.5880     2.0360 H     1 <1>   0.0800 
 50 H        8.6950     6.2620     0.3940 H     1 <1>   0.0800 
@<TRIPOS>BOND
  1   1   2  2   
  2   2   3  am  
  3   2   4  1   
  4   3   5  1   
  5   3   6  1   
  6   4   7  ar  
  7   4   8  ar  
  8   5   9  1   
  9   5  25  1   
 10   5  26  1   
 11   6  10  1   
 12   6  27  1   
 13   6  28  1   
 14   7  11  ar  
 15   7  29  1   
 16   8  12  ar  
 17   8  30  1   
 18   9  13  1   
 19   9  31  1   
 20   9  32  1   
 21  10  14  1   
 22  10  33  1   
 23  10  34  1   
 24  11  15  ar  
 25  11  35  1   
 26  12  15  ar  
 27  12  36  1   
 28  13  14  1   
 29  13  16  1   
 30  13  37  1   
 31  14  38  1   
 32  14  39  1   
 33  16  17  1   
 34  16  40  1   
 35  16  41  1   
 36  17  18  1   
 37  17  19  2   
 38  18  20  2   
 39  19  21  1   
 40  19  22  1   
 41  20  21  1   
 42  20  23  1   
 43  21  42  1   
 44  22  43  1   
 45  22  44  1   
 46  22  45  1   
 47  23  24  1   
 48  23  46  1   
 49  23  47  1   
 50  24  48  1   
 51  24  49  1   
 52  24  50  1   
@<TRIPOS>SUBSTRUCTURE
  1 ****   9 GROUP 4 **** **** 0

# MOE 2024.06 (io_trps.svl 2023.06)
