@<TRIPOS>MOLECULE
NONAME
51 53 1 0 0 
SMALL
USER_CHARGES


@<TRIPOS>ATOM
  1 O       -0.8340     0.8520    -0.7540 O.2   1 <1>  -0.5700 
  2 C       -0.4500     1.8120    -0.1350 C.2   1 <1>   0.5690 
  3 N       -1.1600     2.9620    -0.1400 N.am  1 <1>  -0.7300 
  4 C        0.8740     1.7470     0.6360 C.3   1 <1>   0.1810 
  5 C       -0.7540     4.1730     0.6120 C.3   1 <1>   0.3640 
  6 O        1.0400     2.7990     1.5640 O.3   1 <1>  -0.5600 
  7 C       -0.9600     5.4080    -0.2640 C.ar  1 <1>  -0.1440 
  8 C        0.7230     4.0860     1.0600 C.3   1 <1>   0.2610 
  9 C       -0.6150     5.4120    -1.6100 C.ar  1 <1>  -0.1500 
 10 C       -1.4830     6.5640     0.2980 C.ar  1 <1>  -0.1500 
 11 C        1.0330     5.1960     2.0780 C.2   1 <1>   0.5690 
 12 C       -0.7940     6.5490    -2.3780 C.ar  1 <1>  -0.1500 
 13 C       -1.6620     7.7020    -0.4690 C.ar  1 <1>  -0.1500 
 14 O        0.2010     5.4490     2.9240 O.2   1 <1>  -0.5700 
 15 N        2.1940     5.9300     1.9900 N.am  1 <1>  -0.6600 
 16 C       -1.3190     7.6950    -1.8090 C.ar  1 <1>  -0.1500 
 17 C        3.3330     5.6270     1.0910 C.3   1 <1>   0.1400 
 18 C        2.2920     7.2810     2.5940 C.3   1 <1>   0.1400 
 19 C        3.2790     6.6010    -0.0880 C.3   1 <1>  -0.1600 
 20 C        2.2360     8.3160     1.4640 C.3   1 <1>  -0.1600 
 21 C        3.3280     8.0750     0.3900 C.3   1 <1>  -0.0800 
 22 C        3.2900     9.1040    -0.7780 C.3   1 <1>   0.2800 
 23 O        4.3010     8.7830    -1.6500 O.3   1 <1>  -0.6800 
 24 C        3.5890    10.5300    -0.3080 C.3   1 <1>  -0.2400 
 25 C        2.0010     9.0860    -1.6040 C.3   1 <1>  -0.2400 
 26 H       -2.0460     3.0010    -0.6460 H     1 <1>   0.3700 
 27 H        1.6920     1.7800    -0.0610 H     1 <1>   0.0800 
 28 H        0.9220     0.8220     1.1800 H     1 <1>   0.0800 
 29 H       -1.3830     4.2450     1.4830 H     1 <1>   0.0800 
 30 H        1.3250     4.2420     0.1870 H     1 <1>   0.0800 
 31 H       -0.2050     4.5300    -2.0720 H     1 <1>   0.1500 
 32 H       -1.7490     6.5880     1.3430 H     1 <1>   0.1500 
 33 H       -0.5270     6.5410    -3.4210 H     1 <1>   0.1500 
 34 H       -2.0700     8.5920    -0.0220 H     1 <1>   0.1500 
 35 H       -1.4610     8.5780    -2.4060 H     1 <1>   0.1500 
 36 H        4.2550     5.7610     1.6320 H     1 <1>   0.0800 
 37 H        3.3060     4.6070     0.7510 H     1 <1>   0.0800 
 38 H        1.4840     7.4510     3.2870 H     1 <1>   0.0800 
 39 H        3.2180     7.3640     3.1360 H     1 <1>   0.0800 
 40 H        4.1140     6.3990    -0.7350 H     1 <1>   0.0800 
 41 H        2.3800     6.4160    -0.6450 H     1 <1>   0.0800 
 42 H        1.2580     8.2660     1.0210 H     1 <1>   0.0800 
 43 H        2.3510     9.2910     1.9000 H     1 <1>   0.0800 
 44 H        4.2760     8.2090     0.8820 H     1 <1>   0.0800 
 45 H        4.2930     9.4100    -2.3940 H     1 <1>   0.4000 
 46 H        2.7950    10.8930     0.3170 H     1 <1>   0.0800 
 47 H        3.6790    11.1980    -1.1450 H     1 <1>   0.0800 
 48 H        4.5030    10.5520     0.2590 H     1 <1>   0.0800 
 49 H        1.1580     9.3430    -0.9900 H     1 <1>   0.0800 
 50 H        1.8260     8.1120    -2.0230 H     1 <1>   0.0800 
 51 H        2.0520     9.8010    -2.4050 H     1 <1>   0.0800 
@<TRIPOS>BOND
  1   1   2  2   
  2   2   3  am  
  3   2   4  1   
  4   3   5  1   
  5   3  26  1   
  6   4   6  1   
  7   4  27  1   
  8   4  28  1   
  9   5   7  1   
 10   5   8  1   
 11   5  29  1   
 12   6   8  1   
 13   7   9  ar  
 14   7  10  ar  
 15   8  11  1   
 16   8  30  1   
 17   9  12  ar  
 18   9  31  1   
 19  10  13  ar  
 20  10  32  1   
 21  11  14  2   
 22  11  15  am  
 23  12  16  ar  
 24  12  33  1   
 25  13  16  ar  
 26  13  34  1   
 27  15  17  1   
 28  15  18  1   
 29  16  35  1   
 30  17  19  1   
 31  17  36  1   
 32  17  37  1   
 33  18  20  1   
 34  18  38  1   
 35  18  39  1   
 36  19  21  1   
 37  19  40  1   
 38  19  41  1   
 39  20  21  1   
 40  20  42  1   
 41  20  43  1   
 42  21  22  1   
 43  21  44  1   
 44  22  23  1   
 45  22  24  1   
 46  22  25  1   
 47  23  45  1   
 48  24  46  1   
 49  24  47  1   
 50  24  48  1   
 51  25  49  1   
 52  25  50  1   
 53  25  51  1   
@<TRIPOS>SUBSTRUCTURE
  1 ****  11 GROUP 4 **** **** 0

# MOE 2024.06 (io_trps.svl 2023.06)
