@<TRIPOS>MOLECULE
NONAME
51 53 1 0 0 
SMALL
USER_CHARGES


@<TRIPOS>ATOM
  1 O       -0.5850     3.1540     3.0170 O.2   1 <1>  -0.5700 
  2 C        0.0690     3.3900     2.0260 C.2   1 <1>   0.5690 
  3 N       -0.5070     3.4530     0.7790 N.am  1 <1>  -0.6600 
  4 C        1.5660     3.6020     2.2200 C.3   1 <1>   0.0440 
  5 C       -1.9380     3.0490     0.5900 C.3   1 <1>   0.1400 
  6 C        0.2690     3.7390    -0.4680 C.3   1 <1>   0.1400 
  7 C        2.4010     2.5380     1.5150 C.ar  1 <1>  -0.1440 
  8 C       -2.1120     2.1470    -0.6580 C.3   1 <1>   0.0000 
  9 C       -0.6610     4.0500    -1.6450 C.3   1 <1>  -0.1600 
 10 C        3.3950     2.8960     0.6190 C.ar  1 <1>  -0.1500 
 11 C        2.1610     1.1960     1.7520 C.ar  1 <1>  -0.1500 
 12 C       -3.5560     1.6240    -0.7960 C.3   1 <1>   0.2000 
 13 C       -1.6650     2.9170    -1.9290 C.3   1 <1>  -0.1600 
 14 C       -1.3410     0.8230    -0.4690 C.3   1 <1>  -0.1600 
 15 C        4.1380     1.9390    -0.0520 C.ar  1 <1>   0.0830 
 16 C        2.8880     0.2250     1.0870 C.ar  1 <1>  -0.1500 
 17 O       -4.5080     2.5690    -0.4550 O.3   1 <1>  -0.6800 
 18 C       -3.6770     0.4000     0.1160 C.3   1 <1>  -0.1600 
 19 C       -2.2400    -0.0500     0.4100 C.3   1 <1>  -0.1600 
 20 O        5.0780     2.4400    -0.9020 O.3   1 <1>  -0.3630 
 21 C        3.8760     0.5760     0.1690 C.ar  1 <1>   0.0830 
 22 C        6.2980     1.7650    -1.1160 C.3   1 <1>   0.0400 
 23 O        4.5690    -0.3730    -0.5250 O.3   1 <1>  -0.3630 
 24 C        4.2420    -1.7440    -0.4530 C.3   1 <1>   0.0400 
 25 H        1.8220     4.5840     1.8700 H     1 <1>   0.0800 
 26 H        1.7850     3.5700     3.2710 H     1 <1>   0.0800 
 27 H       -2.2940     2.5320     1.4640 H     1 <1>   0.0800 
 28 H       -2.5260     3.9420     0.4760 H     1 <1>   0.0800 
 29 H        0.9250     4.5750    -0.3050 H     1 <1>   0.0800 
 30 H        0.8690     2.8790    -0.7140 H     1 <1>   0.0800 
 31 H       -1.1970     4.9560    -1.4180 H     1 <1>   0.0800 
 32 H       -0.0740     4.2390    -2.5260 H     1 <1>   0.0800 
 33 H        3.6090     3.9320     0.4260 H     1 <1>   0.1500 
 34 H        1.3970     0.9010     2.4530 H     1 <1>   0.1500 
 35 H       -3.7370     1.3270    -1.8150 H     1 <1>   0.0800 
 36 H       -1.2380     2.2320    -2.6400 H     1 <1>   0.0800 
 37 H       -2.5270     3.3590    -2.4000 H     1 <1>   0.0800 
 38 H       -1.2180     0.3320    -1.4190 H     1 <1>   0.0800 
 39 H       -0.3680     0.9510    -0.0300 H     1 <1>   0.0800 
 40 H        2.6620    -0.8010     1.3020 H     1 <1>   0.1500 
 41 H       -4.4880     2.7320     0.5060 H     1 <1>   0.4000 
 42 H       -4.1790     0.6380     1.0380 H     1 <1>   0.0800 
 43 H       -4.2180    -0.3780    -0.3930 H     1 <1>   0.0800 
 44 H       -2.0100     0.1290     1.4470 H     1 <1>   0.0800 
 45 H       -2.0970    -1.0960     0.1990 H     1 <1>   0.0800 
 46 H        7.0120     2.4750    -1.4920 H     1 <1>   0.0800 
 47 H        6.1420     0.9880    -1.8420 H     1 <1>   0.0800 
 48 H        6.6410     1.3540    -0.1830 H     1 <1>   0.0800 
 49 H        4.8830    -2.2750    -1.1330 H     1 <1>   0.0800 
 50 H        3.2140    -1.8730    -0.7440 H     1 <1>   0.0800 
 51 H        4.4080    -2.0900     0.5510 H     1 <1>   0.0800 
@<TRIPOS>BOND
  1   1   2  2   
  2   2   3  am  
  3   2   4  1   
  4   3   5  1   
  5   3   6  1   
  6   4   7  1   
  7   4  25  1   
  8   4  26  1   
  9   5   8  1   
 10   5  27  1   
 11   5  28  1   
 12   6   9  1   
 13   6  29  1   
 14   6  30  1   
 15   7  10  ar  
 16   7  11  ar  
 17   8  12  1   
 18   8  13  1   
 19   8  14  1   
 20   9  13  1   
 21   9  31  1   
 22   9  32  1   
 23  10  15  ar  
 24  10  33  1   
 25  11  16  ar  
 26  11  34  1   
 27  12  17  1   
 28  12  18  1   
 29  12  35  1   
 30  13  36  1   
 31  13  37  1   
 32  14  19  1   
 33  14  38  1   
 34  14  39  1   
 35  15  20  1   
 36  15  21  ar  
 37  16  21  ar  
 38  16  40  1   
 39  17  41  1   
 40  18  19  1   
 41  18  42  1   
 42  18  43  1   
 43  19  44  1   
 44  19  45  1   
 45  20  22  1   
 46  21  23  1   
 47  22  46  1   
 48  22  47  1   
 49  22  48  1   
 50  23  24  1   
 51  24  49  1   
 52  24  50  1   
 53  24  51  1   
@<TRIPOS>SUBSTRUCTURE
  1 ****   6 GROUP 4 **** **** 0

# MOE 2024.06 (io_trps.svl 2023.06)
