@<TRIPOS>MOLECULE
NONAME
50 53 1 0 0 
SMALL
USER_CHARGES


@<TRIPOS>ATOM
  1 S       -0.2780     0.6680     0.1710 S.3   1 <1>  -0.3320 
  2 C       -0.3470    -1.0880     0.4980 C.ar  1 <1>   0.4120 
  3 C        1.4550     0.9340    -0.4070 C.3   1 <1>   0.2140 
  4 N        0.7670    -1.7710     0.2840 N.ar  1 <1>  -0.6200 
  5 C       -1.5460    -1.6110     0.9500 C.ar  1 <1>  -0.1500 
  6 C        1.6400     2.4120    -0.7120 C.ar  1 <1>  -0.1440 
  7 C        0.6690    -3.0660     0.5400 C.ar  1 <1>   0.1600 
  8 C       -1.6250    -2.9620     1.2100 C.ar  1 <1>  -0.1500 
  9 C        1.7860     2.8500    -2.0170 C.ar  1 <1>  -0.1500 
 10 C        1.6650     3.3390     0.3160 C.ar  1 <1>  -0.1500 
 11 C       -0.4780    -3.7000     0.9950 C.ar  1 <1>  -0.1500 
 12 C        1.9610     4.1950    -2.2860 C.ar  1 <1>  -0.1500 
 13 C        1.8380     4.6830     0.0410 C.ar  1 <1>  -0.1500 
 14 C        1.9990     5.1460    -1.2660 C.ar  1 <1>   0.0860 
 15 C        2.1960     6.5570    -1.5590 C.2   1 <1>   0.5440 
 16 O        1.8930     7.0060    -2.6490 O.2   1 <1>  -0.5700 
 17 N        2.7750     7.3940    -0.6340 N.am  1 <1>  -0.6600 
 18 C        2.4380     8.8540    -0.5500 C.3   1 <1>   0.2200 
 19 C        4.1890     7.1020    -0.2460 C.3   1 <1>   0.1400 
 20 C        2.9540     9.4480     0.7830 C.3   1 <1>   0.2000 
 21 C        0.9230     9.1270    -0.6440 C.3   1 <1>  -0.1600 
 22 C        4.6050     7.8290     1.0430 C.3   1 <1>   0.1200 
 23 O        4.3160     9.1920     0.9550 O.3   1 <1>  -0.5600 
 24 C        2.7250    10.9590     0.8490 C.3   1 <1>  -0.1600 
 25 C        0.6280    10.6350    -0.5500 C.3   1 <1>  -0.1600 
 26 C        1.2270    11.2700     0.7140 C.3   1 <1>  -0.1600 
 27 H        2.1090     0.6080     0.3810 H     1 <1>   0.0800 
 28 H        1.5970     0.3200    -1.2790 H     1 <1>   0.0800 
 29 H       -2.3920    -0.9640     1.0900 H     1 <1>   0.1500 
 30 H        1.5530    -3.6600     0.3790 H     1 <1>   0.1500 
 31 H       -2.5340    -3.4180     1.5630 H     1 <1>   0.1500 
 32 H        1.7600     2.1460    -2.8320 H     1 <1>   0.1500 
 33 H        1.5400     3.0140     1.3350 H     1 <1>   0.1500 
 34 H       -0.4700    -4.7590     1.1790 H     1 <1>   0.1500 
 35 H        2.0690     4.5240    -3.3060 H     1 <1>   0.1500 
 36 H        1.8430     5.3900     0.8520 H     1 <1>   0.1500 
 37 H        2.9270     9.3600    -1.3640 H     1 <1>   0.0800 
 38 H        4.3260     6.0430    -0.1150 H     1 <1>   0.0800 
 39 H        4.8380     7.4200    -1.0440 H     1 <1>   0.0800 
 40 H        2.4270     8.9880     1.6030 H     1 <1>   0.0800 
 41 H        0.5350     8.7740    -1.5810 H     1 <1>   0.0800 
 42 H        0.4160     8.6100     0.1510 H     1 <1>   0.0800 
 43 H        5.6640     7.7280     1.2000 H     1 <1>   0.0800 
 44 H        4.0890     7.4190     1.8940 H     1 <1>   0.0800 
 45 H        3.0890    11.3360     1.7880 H     1 <1>   0.0800 
 46 H        3.2680    11.4360     0.0520 H     1 <1>   0.0800 
 47 H        1.0370    11.1250    -1.4170 H     1 <1>   0.0800 
 48 H       -0.4370    10.7930    -0.5620 H     1 <1>   0.0800 
 49 H        0.7070    10.8920     1.5790 H     1 <1>   0.0800 
 50 H        1.0810    12.3370     0.6860 H     1 <1>   0.0800 
@<TRIPOS>BOND
  1   1   2  1   
  2   1   3  1   
  3   2   4  ar  
  4   2   5  ar  
  5   3   6  1   
  6   3  27  1   
  7   3  28  1   
  8   4   7  ar  
  9   5   8  ar  
 10   5  29  1   
 11   6   9  ar  
 12   6  10  ar  
 13   7  11  ar  
 14   7  30  1   
 15   8  11  ar  
 16   8  31  1   
 17   9  12  ar  
 18   9  32  1   
 19  10  13  ar  
 20  10  33  1   
 21  11  34  1   
 22  12  14  ar  
 23  12  35  1   
 24  13  14  ar  
 25  13  36  1   
 26  14  15  1   
 27  15  16  2   
 28  15  17  am  
 29  17  18  1   
 30  17  19  1   
 31  18  20  1   
 32  18  21  1   
 33  18  37  1   
 34  19  22  1   
 35  19  38  1   
 36  19  39  1   
 37  20  23  1   
 38  20  24  1   
 39  20  40  1   
 40  21  25  1   
 41  21  41  1   
 42  21  42  1   
 43  22  23  1   
 44  22  43  1   
 45  22  44  1   
 46  24  26  1   
 47  24  45  1   
 48  24  46  1   
 49  25  26  1   
 50  25  47  1   
 51  25  48  1   
 52  26  49  1   
 53  26  50  1   
@<TRIPOS>SUBSTRUCTURE
  1 ****  13 GROUP 4 **** **** 0

# MOE 2024.06 (io_trps.svl 2023.06)
