@<TRIPOS>MOLECULE
NONAME
67 70 1 0 0 
SMALL
USER_CHARGES


@<TRIPOS>ATOM
  1 O       -1.4610     0.9220    -1.5360 O.2   1 <1>  -0.5700 
  2 C       -2.4580     1.1260    -0.8840 C.2   1 <1>   0.5690 
  3 N       -3.4640     0.1880    -0.8120 N.am  1 <1>  -0.6600 
  4 C       -2.5540     2.4610    -0.1320 C.3   1 <1>  -0.0190 
  5 C       -3.2790    -1.1830    -1.3990 C.3   1 <1>   0.1400 
  6 C       -4.8380     0.4350    -0.2940 C.3   1 <1>   0.1400 
  7 C       -3.2430     3.5370    -0.9920 C.3   1 <1>  -0.1600 
  8 C       -1.1750     2.9780     0.3320 C.3   1 <1>  -0.1600 
  9 C       -3.5750    -2.2940    -0.3600 C.3   1 <1>   0.0000 
 10 C       -5.1690    -0.6020     0.7780 C.3   1 <1>  -0.1600 
 11 C       -3.3350     4.8770    -0.2560 C.3   1 <1>   0.1400 
 12 C       -1.2920     4.3180     1.0600 C.3   1 <1>   0.1400 
 13 C       -4.9940    -2.0110     0.2060 C.3   1 <1>   0.2000 
 14 C       -3.6460    -3.6660    -1.0770 C.3   1 <1>   0.1200 
 15 C       -2.4980    -2.2930     0.7720 C.3   1 <1>  -0.0170 
 16 N       -1.9740     5.3030     0.1740 N.am  1 <1>  -0.6600 
 17 O       -5.3400    -2.9180     1.1930 O.3   1 <1>  -0.6800 
 18 O       -2.5630    -3.8630    -1.9230 O.3   1 <1>  -0.6800 
 19 C       -1.1340    -2.8560     0.3830 C.ar  1 <1>  -0.1440 
 20 C       -1.4320     6.4870    -0.2790 C.2   1 <1>   0.5690 
 21 C       -0.1780    -2.0520    -0.2180 C.ar  1 <1>  -0.1500 
 22 C       -0.8360    -4.1890     0.6290 C.ar  1 <1>  -0.1500 
 23 O       -2.0760     7.2370    -0.9770 O.2   1 <1>  -0.5700 
 24 C        0.0060     6.8920     0.0810 C.3   1 <1>  -0.0190 
 25 C        1.0490    -2.5740    -0.5840 C.ar  1 <1>  -0.1500 
 26 C        0.3920    -4.7130     0.2650 C.ar  1 <1>  -0.1500 
 27 C        0.3750     8.3550    -0.1920 C.3   1 <1>  -0.1600 
 28 C        1.0750     6.1240    -0.7050 C.3   1 <1>  -0.1600 
 29 C        1.3360    -3.9060    -0.3450 C.ar  1 <1>  -0.1500 
 30 C        1.9030     8.3770    -0.1830 C.3   1 <1>  -0.1600 
 31 C        2.3460     6.9760    -0.6210 C.3   1 <1>  -0.1600 
 32 H       -3.1310     2.3050     0.7590 H     1 <1>   0.0800 
 33 H       -3.9470    -1.2880    -2.2370 H     1 <1>   0.0800 
 34 H       -2.2810    -1.3000    -1.7830 H     1 <1>   0.0800 
 35 H       -4.9440     1.4220     0.1130 H     1 <1>   0.0800 
 36 H       -5.5340     0.3450    -1.1110 H     1 <1>   0.0800 
 37 H       -4.2320     3.2180    -1.2660 H     1 <1>   0.0800 
 38 H       -2.6860     3.6810    -1.9030 H     1 <1>   0.0800 
 39 H       -0.5250     3.1030    -0.5170 H     1 <1>   0.0800 
 40 H       -0.7200     2.2540     0.9850 H     1 <1>   0.0800 
 41 H       -6.1910    -0.4670     1.0850 H     1 <1>   0.0800 
 42 H       -4.5320    -0.4460     1.6290 H     1 <1>   0.0800 
 43 H       -3.9630     4.7830     0.6120 H     1 <1>   0.0800 
 44 H       -3.7810     5.6100    -0.9070 H     1 <1>   0.0800 
 45 H       -0.3130     4.6510     1.3480 H     1 <1>   0.0800 
 46 H       -1.8730     4.1970     1.9580 H     1 <1>   0.0800 
 47 H       -5.7110    -2.1400    -0.5870 H     1 <1>   0.0800 
 48 H       -4.5310    -3.7320    -1.6860 H     1 <1>   0.0800 
 49 H       -3.6670    -4.4710    -0.3620 H     1 <1>   0.0800 
 50 H       -2.3550    -1.2930     1.1400 H     1 <1>   0.0800 
 51 H       -2.8480    -2.8740     1.6040 H     1 <1>   0.0800 
 52 H       -4.8440    -2.7370     2.0140 H     1 <1>   0.4000 
 53 H       -1.7220    -3.7730    -1.4160 H     1 <1>   0.4000 
 54 H       -0.3800    -1.0130    -0.4080 H     1 <1>   0.1500 
 55 H       -1.5590    -4.8300     1.1020 H     1 <1>   0.1500 
 56 H        0.1570     6.7300     1.1320 H     1 <1>   0.0800 
 57 H        1.7800    -1.9400    -1.0570 H     1 <1>   0.1500 
 58 H        0.6140    -5.7490     0.4550 H     1 <1>   0.1500 
 59 H        0.0280     8.6430    -1.1700 H     1 <1>   0.0800 
 60 H       -0.0490     9.0210     0.5390 H     1 <1>   0.0800 
 61 H        1.2340     5.1320    -0.3210 H     1 <1>   0.0800 
 62 H        0.7650     6.0510    -1.7340 H     1 <1>   0.0800 
 63 H        2.2900    -4.3110    -0.6310 H     1 <1>   0.1500 
 64 H        2.2860     9.1400    -0.8380 H     1 <1>   0.0800 
 65 H        2.2550     8.5680     0.8170 H     1 <1>   0.0800 
 66 H        3.0270     6.5650     0.1040 H     1 <1>   0.0800 
 67 H        2.8370     7.0100    -1.5790 H     1 <1>   0.0800 
@<TRIPOS>BOND
  1   1   2  2   
  2   2   3  am  
  3   2   4  1   
  4   3   5  1   
  5   3   6  1   
  6   4   7  1   
  7   4   8  1   
  8   4  32  1   
  9   5   9  1   
 10   5  33  1   
 11   5  34  1   
 12   6  10  1   
 13   6  35  1   
 14   6  36  1   
 15   7  11  1   
 16   7  37  1   
 17   7  38  1   
 18   8  12  1   
 19   8  39  1   
 20   8  40  1   
 21   9  13  1   
 22   9  14  1   
 23   9  15  1   
 24  10  13  1   
 25  10  41  1   
 26  10  42  1   
 27  11  16  1   
 28  11  43  1   
 29  11  44  1   
 30  12  16  1   
 31  12  45  1   
 32  12  46  1   
 33  13  17  1   
 34  13  47  1   
 35  14  18  1   
 36  14  48  1   
 37  14  49  1   
 38  15  19  1   
 39  15  50  1   
 40  15  51  1   
 41  16  20  am  
 42  17  52  1   
 43  18  53  1   
 44  19  21  ar  
 45  19  22  ar  
 46  20  23  2   
 47  20  24  1   
 48  21  25  ar  
 49  21  54  1   
 50  22  26  ar  
 51  22  55  1   
 52  24  27  1   
 53  24  28  1   
 54  24  56  1   
 55  25  29  ar  
 56  25  57  1   
 57  26  29  ar  
 58  26  58  1   
 59  27  30  1   
 60  27  59  1   
 61  27  60  1   
 62  28  31  1   
 63  28  61  1   
 64  28  62  1   
 65  29  63  1   
 66  30  31  1   
 67  30  64  1   
 68  30  65  1   
 69  31  66  1   
 70  31  67  1   
@<TRIPOS>SUBSTRUCTURE
  1 ****   2 GROUP 4 **** **** 0

# MOE 2024.06 (io_trps.svl 2023.06)
