@<TRIPOS>MOLECULE
NONAME
52 55 1 0 0 
SMALL
USER_CHARGES


@<TRIPOS>ATOM
  1 O        1.1490    -0.2980     0.9270 O.co2 1 <1>  -0.9000 
  2 C        1.3560     0.7480     0.2920 C.2   1 <1>   0.9060 
  3 O        0.6100     1.7200     0.3890 O.co2 1 <1>  -0.9000 
  4 C        2.5980     0.8170    -0.6170 C.3   1 <1>  -0.1060 
  5 C        3.7730     0.1450     0.1340 C.3   1 <1>   0.4230 
  6 C        3.0020     2.2950    -0.8970 C.3   1 <1>  -0.1600 
  7 C        2.3010     0.0880    -1.9600 C.3   1 <1>  -0.1600 
  8 N        3.4900    -1.3200     0.3080 N.4   1 <1>  -0.9590 
  9 C        4.0850     0.9110     1.4370 C.3   1 <1>   0.1400 
 10 C        3.3860     3.0570     0.3840 C.3   1 <1>   0.1400 
 11 C        3.2150    -1.1260    -2.1940 C.3   1 <1>  -0.1600 
 12 C        3.2770    -2.0570    -0.9740 C.3   1 <1>   0.3430 
 13 C        4.3760    -2.0510     1.2530 C.3   1 <1>   0.2630 
 14 N        4.4730     2.3100     1.0840 N.am  1 <1>  -0.6600 
 15 C        5.7550     2.7560     1.2650 C.2   1 <1>   0.5690 
 16 O        6.6320     2.0060     1.6270 O.2   1 <1>  -0.5700 
 17 C        6.1050     4.2100     0.9940 C.3   1 <1>  -0.0990 
 18 C        7.5350     4.5840     1.4130 C.3   1 <1>   0.0200 
 19 C        7.8110     6.0460     1.1250 C.2   1 <1>   0.2980 
 20 O        7.2550     6.9520     1.8850 O.3   1 <1>  -0.0190 
 21 N        8.5380     6.4900     0.1860 N.2   1 <1>  -0.5650 
 22 N        7.6630     8.0760     1.3860 N.2   1 <1>  -0.4100 
 23 C        8.4250     7.8090     0.3840 C.2   1 <1>   0.5150 
 24 C        9.1000     8.7650    -0.4670 C.2   1 <1>   0.1410 
 25 O        8.9710    10.0750    -0.2730 O.3   1 <1>  -0.2800 
 26 C        9.9220     8.5650    -1.5340 C.2   1 <1>  -0.1500 
 27 C        9.6840    10.7080    -1.1820 C.2   1 <1>  -0.0100 
 28 C       10.3010     9.8280    -1.9970 C.2   1 <1>  -0.1500 
 29 H        4.6520     0.2340    -0.4810 H     1 <1>   0.0800 
 30 H        2.1760     2.8080    -1.3610 H     1 <1>   0.0800 
 31 H        3.8310     2.3320    -1.5820 H     1 <1>   0.0800 
 32 H        1.2770    -0.2500    -1.9560 H     1 <1>   0.0800 
 33 H        2.3930     0.7650    -2.7930 H     1 <1>   0.0800 
 34 H        2.5260    -1.2640     0.7370 H     1 <1>   0.4500 
 35 H        4.8900     0.4350     1.9650 H     1 <1>   0.0800 
 36 H        3.2260     0.9350     2.0850 H     1 <1>   0.0800 
 37 H        2.5340     3.1400     1.0390 H     1 <1>   0.0800 
 38 H        3.6910     4.0540     0.1260 H     1 <1>   0.0800 
 39 H        4.2100    -0.7930    -2.4340 H     1 <1>   0.0800 
 40 H        2.8570    -1.6850    -3.0410 H     1 <1>   0.0800 
 41 H        4.0680    -2.7730    -1.1220 H     1 <1>   0.0800 
 42 H        2.3470    -2.5980    -0.9040 H     1 <1>   0.0800 
 43 H        5.3930    -2.0350     0.8990 H     1 <1>   0.0800 
 44 H        4.0510    -3.0740     1.3480 H     1 <1>   0.0800 
 45 H        4.3370    -1.5930     2.2280 H     1 <1>   0.0800 
 46 H        5.9920     4.3980    -0.0580 H     1 <1>   0.0800 
 47 H        5.4110     4.8310     1.5300 H     1 <1>   0.0800 
 48 H        8.2420     3.9820     0.8680 H     1 <1>   0.0800 
 49 H        7.6760     4.3980     2.4620 H     1 <1>   0.0800 
 50 H       10.2300     7.6230    -1.9500 H     1 <1>   0.1500 
 51 H        9.6960    11.7840    -1.1760 H     1 <1>   0.1500 
 52 H       10.9500    10.0230    -2.8320 H     1 <1>   0.1500 
@<TRIPOS>BOND
  1   1   2  ar  
  2   2   3  ar  
  3   2   4  1   
  4   4   5  1   
  5   4   6  1   
  6   4   7  1   
  7   5   8  1   
  8   5   9  1   
  9   5  29  1   
 10   6  10  1   
 11   6  30  1   
 12   6  31  1   
 13   7  11  1   
 14   7  32  1   
 15   7  33  1   
 16   8  12  1   
 17   8  13  1   
 18   8  34  1   
 19   9  14  1   
 20   9  35  1   
 21   9  36  1   
 22  10  14  1   
 23  10  37  1   
 24  10  38  1   
 25  11  12  1   
 26  11  39  1   
 27  11  40  1   
 28  12  41  1   
 29  12  42  1   
 30  13  43  1   
 31  13  44  1   
 32  13  45  1   
 33  14  15  am  
 34  15  16  2   
 35  15  17  1   
 36  17  18  1   
 37  17  46  1   
 38  17  47  1   
 39  18  19  1   
 40  18  48  1   
 41  18  49  1   
 42  19  20  1   
 43  19  21  2   
 44  20  22  1   
 45  21  23  1   
 46  22  23  2   
 47  23  24  1   
 48  24  25  1   
 49  24  26  2   
 50  25  27  1   
 51  26  28  1   
 52  26  50  1   
 53  27  28  2   
 54  27  51  1   
 55  28  52  1   
@<TRIPOS>SUBSTRUCTURE
  1 ****  17 GROUP 4 **** **** 0

# MOE 2024.06 (io_trps.svl 2023.06)
