@<TRIPOS>MOLECULE
NONAME
42 44 1 0 0 
SMALL
USER_CHARGES


@<TRIPOS>ATOM
  1 S        1.3870     0.8250    -2.1830 S.3   1 <1>  -0.4600 
  2 C        1.5180     2.5440    -1.6230 C.3   1 <1>   0.0700 
  3 C        2.9440     0.0940    -1.6200 C.3   1 <1>   0.0700 
  4 C        1.8660     2.5590    -0.1290 C.3   1 <1>   0.3430 
  5 C        3.1240     0.3890    -0.1240 C.3   1 <1>   0.3430 
  6 N        3.1710     1.8630     0.1690 N.4   1 <1>  -0.9590 
  7 C        3.5870     2.1110     1.5700 C.3   1 <1>   0.5230 
  8 C        3.8630     3.5870     1.6960 C.2   1 <1>  -0.3320 
  9 N        4.9390     4.2450     1.2000 N.pl3 1 <1>   0.0480 
 10 C        3.0950     4.5110     2.3150 C.2   1 <1>   0.0770 
 11 C        4.7210     5.5370     1.5380 C.2   1 <1>   0.0360 
 12 C        6.1150     3.7090     0.4620 C.3   1 <1>   0.1760 
 13 N        3.6290     5.7330     2.1990 N.2   1 <1>  -0.5650 
 14 C        7.4320     4.1340     1.1300 C.3   1 <1>  -0.1600 
 15 C        6.0700     4.1530    -1.0090 C.3   1 <1>  -0.1600 
 16 C        8.6400     3.5830     0.3580 C.3   1 <1>  -0.1600 
 17 C        7.2750     3.6020    -1.7860 C.3   1 <1>  -0.1600 
 18 C        8.5960     4.0070    -1.1170 C.3   1 <1>  -0.1600 
 19 H        0.5640     3.0070    -1.8030 H     1 <1>   0.0800 
 20 H        2.2710     3.0310    -2.2170 H     1 <1>   0.0800 
 21 H        3.7400     0.5090    -2.2130 H     1 <1>   0.0800 
 22 H        2.8750    -0.9650    -1.8010 H     1 <1>   0.0800 
 23 H        1.0660     2.0880     0.4190 H     1 <1>   0.0800 
 24 H        1.9210     3.5890     0.1890 H     1 <1>   0.0800 
 25 H        4.0380    -0.0760     0.2060 H     1 <1>   0.0800 
 26 H        2.3080    -0.0630     0.4170 H     1 <1>   0.0800 
 27 H        3.8810     2.3010    -0.4260 H     1 <1>   0.4500 
 28 H        4.4760     1.5520     1.8130 H     1 <1>   0.0800 
 29 H        2.8000     1.8220     2.2490 H     1 <1>   0.0800 
 30 H        2.1660     4.3750     2.8470 H     1 <1>   0.1500 
 31 H        5.4080     6.3230     1.2740 H     1 <1>   0.1500 
 32 H        6.0700     2.6360     0.4930 H     1 <1>   0.0800 
 33 H        7.4640     3.7710     2.1430 H     1 <1>   0.0800 
 34 H        7.5050     5.2080     1.1550 H     1 <1>   0.0800 
 35 H        6.0930     5.2290    -1.0600 H     1 <1>   0.0800 
 36 H        5.1640     3.8150    -1.4780 H     1 <1>   0.0800 
 37 H        8.6530     2.5080     0.4210 H     1 <1>   0.0800 
 38 H        9.5500     3.9460     0.8060 H     1 <1>   0.0800 
 39 H        7.2590     3.9800    -2.7950 H     1 <1>   0.0800 
 40 H        7.2190     2.5280    -1.8370 H     1 <1>   0.0800 
 41 H        9.4200     3.5580    -1.6450 H     1 <1>   0.0800 
 42 H        8.7150     5.0760    -1.1820 H     1 <1>   0.0800 
@<TRIPOS>BOND
  1   1   2  1   
  2   1   3  1   
  3   2   4  1   
  4   2  19  1   
  5   2  20  1   
  6   3   5  1   
  7   3  21  1   
  8   3  22  1   
  9   4   6  1   
 10   4  23  1   
 11   4  24  1   
 12   5   6  1   
 13   5  25  1   
 14   5  26  1   
 15   6   7  1   
 16   6  27  1   
 17   7   8  1   
 18   7  28  1   
 19   7  29  1   
 20   8   9  1   
 21   8  10  2   
 22   9  11  1   
 23   9  12  1   
 24  10  13  1   
 25  10  30  1   
 26  11  13  2   
 27  11  31  1   
 28  12  14  1   
 29  12  15  1   
 30  12  32  1   
 31  14  16  1   
 32  14  33  1   
 33  14  34  1   
 34  15  17  1   
 35  15  35  1   
 36  15  36  1   
 37  16  18  1   
 38  16  37  1   
 39  16  38  1   
 40  17  18  1   
 41  17  39  1   
 42  17  40  1   
 43  18  41  1   
 44  18  42  1   
@<TRIPOS>SUBSTRUCTURE
  1 ****   9 GROUP 4 **** **** 0

# MOE 2024.06 (io_trps.svl 2023.06)
