@<TRIPOS>MOLECULE
NONAME
52 54 1 0 0 
SMALL
USER_CHARGES


@<TRIPOS>ATOM
  1 CL       2.7530    -0.1750    -1.0040 Cl    1 <1>  -0.1770 
  2 C        2.0070    -1.6410    -0.4300 C.ar  1 <1>   0.1770 
  3 C        1.6610    -2.6270    -1.3290 C.ar  1 <1>  -0.1500 
  4 C        1.7740    -1.7980     0.9230 C.ar  1 <1>  -0.1500 
  5 C        1.0710    -3.7980    -0.8780 C.ar  1 <1>   0.0830 
  6 C        1.1740    -2.9600     1.3720 C.ar  1 <1>  -0.1500 
  7 O        0.7780    -4.7120    -1.8300 O.3   1 <1>  -0.3630 
  8 C        0.7960    -3.9770     0.4910 C.ar  1 <1>   0.0860 
  9 C        1.1030    -6.0760    -1.6430 C.3   1 <1>   0.0400 
 10 C        0.1260    -5.1400     1.0280 C.2   1 <1>   0.5440 
 11 O        0.7910    -5.9630     1.6290 O.2   1 <1>  -0.5700 
 12 N       -1.2370    -5.3480     0.8930 N.am  1 <1>  -0.6600 
 13 C       -2.1010    -4.4290     0.0910 C.3   1 <1>   0.2200 
 14 C       -1.8610    -6.5580     1.5140 C.3   1 <1>   0.0600 
 15 C       -3.0830    -3.6390     0.9460 C.3   1 <1>  -0.1600 
 16 C       -2.9820    -5.1320    -0.9360 C.3   1 <1>  -0.1600 
 17 C       -4.1510    -3.1560    -0.0480 C.3   1 <1>  -0.0800 
 18 C       -4.0810    -4.1060    -1.2560 C.3   1 <1>  -0.0800 
 19 C       -5.5850    -3.2370     0.4920 C.3   1 <1>  -0.1600 
 20 C       -5.4780    -4.7210    -1.4130 C.3   1 <1>  -0.1600 
 21 C       -6.1210    -4.5670    -0.0380 C.3   1 <1>   0.4230 
 22 N       -7.6140    -4.6720    -0.0750 N.4   1 <1>  -0.9590 
 23 C       -8.3150    -3.6030    -0.8630 C.3   1 <1>   0.2630 
 24 C       -8.1730    -4.7340     1.3110 C.3   1 <1>   0.2630 
 25 H        1.8540    -2.4910    -2.3780 H     1 <1>   0.1500 
 26 H        2.0600    -1.0200     1.6080 H     1 <1>   0.1500 
 27 H        0.9880    -3.0940     2.4240 H     1 <1>   0.1500 
 28 H        1.2720    -6.5160    -2.6090 H     1 <1>   0.0800 
 29 H        0.2800    -6.5710    -1.1600 H     1 <1>   0.0800 
 30 H        1.9950    -6.1530    -1.0450 H     1 <1>   0.0800 
 31 H       -1.4980    -3.7180    -0.4470 H     1 <1>   0.0800 
 32 H       -2.8860    -6.3750     1.7760 H     1 <1>   0.0800 
 33 H       -1.3310    -6.8330     2.4110 H     1 <1>   0.0800 
 34 H       -1.8110    -7.3810     0.8230 H     1 <1>   0.0800 
 35 H       -3.5190    -4.2750     1.6930 H     1 <1>   0.0800 
 36 H       -2.5930    -2.8120     1.4280 H     1 <1>   0.0800 
 37 H       -2.4160    -5.3890    -1.8140 H     1 <1>   0.0800 
 38 H       -3.4170    -6.0210    -0.5200 H     1 <1>   0.0800 
 39 H       -3.9190    -2.1500    -0.3580 H     1 <1>   0.0800 
 40 H       -3.8050    -3.5560    -2.1420 H     1 <1>   0.0800 
 41 H       -6.1350    -2.4090     0.0870 H     1 <1>   0.0800 
 42 H       -5.6120    -3.1890     1.5670 H     1 <1>   0.0800 
 43 H       -5.4320    -5.7490    -1.7240 H     1 <1>   0.0800 
 44 H       -6.0050    -4.1500    -2.1540 H     1 <1>   0.0800 
 45 H       -5.7260    -5.3510     0.5900 H     1 <1>   0.0800 
 46 H       -7.8210    -5.5720    -0.5330 H     1 <1>   0.4500 
 47 H       -8.1530    -2.6360    -0.4160 H     1 <1>   0.0800 
 48 H       -9.3750    -3.7930    -0.8860 H     1 <1>   0.0800 
 49 H       -7.9550    -3.5790    -1.8780 H     1 <1>   0.0800 
 50 H       -7.9860    -3.8090     1.8320 H     1 <1>   0.0800 
 51 H       -7.7180    -5.5390     1.8640 H     1 <1>   0.0800 
 52 H       -9.2380    -4.9000     1.2780 H     1 <1>   0.0800 
@<TRIPOS>BOND
  1   1   2  1   
  2   2   3  ar  
  3   2   4  ar  
  4   3   5  ar  
  5   3  25  1   
  6   4   6  ar  
  7   4  26  1   
  8   5   7  1   
  9   5   8  ar  
 10   6   8  ar  
 11   6  27  1   
 12   7   9  1   
 13   8  10  1   
 14   9  28  1   
 15   9  29  1   
 16   9  30  1   
 17  10  11  2   
 18  10  12  am  
 19  12  13  1   
 20  12  14  1   
 21  13  15  1   
 22  13  16  1   
 23  13  31  1   
 24  14  32  1   
 25  14  33  1   
 26  14  34  1   
 27  15  17  1   
 28  15  35  1   
 29  15  36  1   
 30  16  18  1   
 31  16  37  1   
 32  16  38  1   
 33  17  18  1   
 34  17  19  1   
 35  17  39  1   
 36  18  20  1   
 37  18  40  1   
 38  19  21  1   
 39  19  41  1   
 40  19  42  1   
 41  20  21  1   
 42  20  43  1   
 43  20  44  1   
 44  21  22  1   
 45  21  45  1   
 46  22  23  1   
 47  22  24  1   
 48  22  46  1   
 49  23  47  1   
 50  23  48  1   
 51  23  49  1   
 52  24  50  1   
 53  24  51  1   
 54  24  52  1   
@<TRIPOS>SUBSTRUCTURE
  1 ****  13 GROUP 4 **** **** 0

# MOE 2024.06 (io_trps.svl 2023.06)
