@<TRIPOS>MOLECULE
NONAME
41 42 1 0 0 
SMALL
USER_CHARGES


@<TRIPOS>ATOM
  1 S       -0.1470     0.1930     0.3520 S.o2  1 <1>   1.3330 
  2 O        0.0340    -0.6910     1.4820 O.2   1 <1>  -0.6500 
  3 O       -0.7190     1.5040     0.5560 O.2   1 <1>  -0.6500 
  4 N       -1.0850    -0.6250    -0.8010 N.am  1 <1>  -0.8490 
  5 C        1.4150     0.4060    -0.5020 C.3   1 <1>  -0.0550 
  6 C       -0.8900    -2.0790    -0.7870 C.3   1 <1>   0.1160 
  7 C       -2.5130    -0.3130    -0.6820 C.3   1 <1>   0.1160 
  8 C        2.4310     1.2530     0.2870 C.3   1 <1>  -0.0800 
  9 C        3.6420     1.5910    -0.5660 C.3   1 <1>   0.2200 
 10 C        3.0500     0.4790     1.4610 C.3   1 <1>   0.1200 
 11 N        4.2390     2.8480    -0.0650 N.am  1 <1>  -0.7300 
 12 C        4.5730     0.4240    -0.2650 C.3   1 <1>   0.1200 
 13 O        4.3310     0.0830     1.0650 O.3   1 <1>  -0.5600 
 14 C        4.3040     4.0200    -0.7630 C.2   1 <1>   0.5440 
 15 O        3.9360     4.0260    -1.9190 O.2   1 <1>  -0.5700 
 16 C        4.8030     5.2270    -0.1400 C.ar  1 <1>   0.0860 
 17 C        4.5700     5.4860     1.2120 C.ar  1 <1>   0.1600 
 18 C        5.5220     6.1770    -0.8510 C.ar  1 <1>  -0.1500 
 19 N        4.9890     6.5450     1.8880 N.ar  1 <1>  -0.6200 
 20 C        5.9660     7.2920    -0.1740 C.ar  1 <1>   0.0820 
 21 C        5.6790     7.4260     1.1800 C.ar  1 <1>   0.1600 
 22 O        6.6680     8.2230    -0.8460 O.3   1 <1>  -0.5330 
 23 H        1.8370    -0.5540    -0.7260 H     1 <1>   0.0800 
 24 H        1.2130     0.9000    -1.4330 H     1 <1>   0.0800 
 25 H       -1.4350    -2.5330    -1.5970 H     1 <1>   0.0800 
 26 H       -1.2350    -2.4970     0.1450 H     1 <1>   0.0800 
 27 H        0.1530    -2.3160    -0.9060 H     1 <1>   0.0800 
 28 H       -3.0750    -0.8360    -1.4370 H     1 <1>   0.0800 
 29 H       -2.6720     0.7440    -0.8180 H     1 <1>   0.0800 
 30 H       -2.8780    -0.5950     0.2920 H     1 <1>   0.0800 
 31 H        1.9390     2.1480     0.6280 H     1 <1>   0.0800 
 32 H        3.4170     1.6680    -1.6170 H     1 <1>   0.0800 
 33 H        2.4930    -0.3990     1.7360 H     1 <1>   0.0800 
 34 H        3.1590     1.1130     2.3240 H     1 <1>   0.0800 
 35 H        4.6950     2.7530     0.8460 H     1 <1>   0.3700 
 36 H        5.6110     0.6760    -0.3940 H     1 <1>   0.0800 
 37 H        4.3260    -0.4280    -0.8730 H     1 <1>   0.0800 
 38 H        3.9920     4.7690     1.7700 H     1 <1>   0.1500 
 39 H        5.7260     6.0500    -1.8990 H     1 <1>   0.1500 
 40 H        6.0310     8.2970     1.7020 H     1 <1>   0.1500 
 41 H        6.9350     8.9950    -0.3130 H     1 <1>   0.4500 
@<TRIPOS>BOND
  1   1   2  2   
  2   1   3  2   
  3   1   4  am  
  4   1   5  1   
  5   4   6  1   
  6   4   7  1   
  7   5   8  1   
  8   5  23  1   
  9   5  24  1   
 10   6  25  1   
 11   6  26  1   
 12   6  27  1   
 13   7  28  1   
 14   7  29  1   
 15   7  30  1   
 16   8   9  1   
 17   8  10  1   
 18   8  31  1   
 19   9  11  1   
 20   9  12  1   
 21   9  32  1   
 22  10  13  1   
 23  10  33  1   
 24  10  34  1   
 25  11  14  am  
 26  11  35  1   
 27  12  13  1   
 28  12  36  1   
 29  12  37  1   
 30  14  15  2   
 31  14  16  1   
 32  16  17  ar  
 33  16  18  ar  
 34  17  19  ar  
 35  17  38  1   
 36  18  20  ar  
 37  18  39  1   
 38  19  21  ar  
 39  20  21  ar  
 40  20  22  1   
 41  21  40  1   
 42  22  41  1   
@<TRIPOS>SUBSTRUCTURE
  1 ****  11 GROUP 4 **** **** 0

# MOE 2024.06 (io_trps.svl 2023.06)
