@<TRIPOS>MOLECULE
NONAME
38 40 1 0 0 
SMALL
USER_CHARGES


@<TRIPOS>ATOM
  1 S       -0.2730     0.2520     1.3850 S.o2  1 <1>   1.3330 
  2 O        0.0360    -0.7880     2.3390 O.2   1 <1>  -0.6500 
  3 O       -0.6750     1.5590     1.8560 O.2   1 <1>  -0.6500 
  4 N       -1.4900    -0.3430     0.3630 N.am  1 <1>  -0.8490 
  5 C        1.1400     0.4780     0.2910 C.3   1 <1>  -0.0550 
  6 C       -1.2470    -1.7200    -0.0970 C.3   1 <1>   0.1960 
  7 C       -2.8580    -0.0810     0.8570 C.3   1 <1>   0.1960 
  8 C        0.8930     1.4120    -0.9080 C.3   1 <1>  -0.2400 
  9 C       -2.4650    -2.2590    -0.8450 C.3   1 <1>  -0.1600 
 10 C       -3.5720    -1.3660     1.2700 C.3   1 <1>  -0.1600 
 11 C       -3.7070    -2.3100     0.0640 C.3   1 <1>   0.4600 
 12 O       -4.7810    -1.8610    -0.7390 O.3   1 <1>  -0.5600 
 13 C       -3.9960    -3.7400     0.5090 C.2   1 <1>  -0.1400 
 14 C       -6.0910    -2.2470    -0.3880 C.3   1 <1>   0.1200 
 15 S       -2.8280    -4.7140     1.3890 S.3   1 <1>  -0.0800 
 16 C       -5.1230    -4.4310     0.2940 C.2   1 <1>  -0.1810 
 17 C       -6.2680    -3.7760    -0.4440 C.3   1 <1>   0.0210 
 18 C       -3.9430    -6.0740     1.4260 C.2   1 <1>  -0.1100 
 19 C       -5.1000    -5.7660     0.8090 C.2   1 <1>  -0.1500 
 20 H        1.4530    -0.4790    -0.0770 H     1 <1>   0.0800 
 21 H        1.9520     0.8760     0.8680 H     1 <1>   0.0800 
 22 H       -1.0360    -2.3620     0.7430 H     1 <1>   0.0800 
 23 H       -0.3930    -1.7350    -0.7520 H     1 <1>   0.0800 
 24 H       -3.4190     0.3900     0.0670 H     1 <1>   0.0800 
 25 H       -2.8500     0.6010     1.6910 H     1 <1>   0.0800 
 26 H        0.1050     1.0230    -1.5290 H     1 <1>   0.0800 
 27 H        1.7870     1.5070    -1.4980 H     1 <1>   0.0800 
 28 H        0.6020     2.3890    -0.5600 H     1 <1>   0.0800 
 29 H       -2.2470    -3.2420    -1.2200 H     1 <1>   0.0800 
 30 H       -2.6480    -1.6190    -1.6900 H     1 <1>   0.0800 
 31 H       -4.5350    -1.1390     1.6830 H     1 <1>   0.0800 
 32 H       -2.9990    -1.8350     2.0500 H     1 <1>   0.0800 
 33 H       -6.7670    -1.7710    -1.0770 H     1 <1>   0.0800 
 34 H       -6.3010    -1.8850     0.6020 H     1 <1>   0.0800 
 35 H       -6.2790    -4.1070    -1.4670 H     1 <1>   0.0800 
 36 H       -7.2040    -4.0440     0.0120 H     1 <1>   0.0800 
 37 H       -3.6080    -6.9730     1.9120 H     1 <1>   0.1500 
 38 H       -5.9440    -6.4240     0.6940 H     1 <1>   0.1500 
@<TRIPOS>BOND
  1   1   2  2   
  2   1   3  2   
  3   1   4  am  
  4   1   5  1   
  5   4   6  1   
  6   4   7  1   
  7   5   8  1   
  8   5  20  1   
  9   5  21  1   
 10   6   9  1   
 11   6  22  1   
 12   6  23  1   
 13   7  10  1   
 14   7  24  1   
 15   7  25  1   
 16   8  26  1   
 17   8  27  1   
 18   8  28  1   
 19   9  11  1   
 20   9  29  1   
 21   9  30  1   
 22  10  11  1   
 23  10  31  1   
 24  10  32  1   
 25  11  12  1   
 26  11  13  1   
 27  12  14  1   
 28  13  15  1   
 29  13  16  2   
 30  14  17  1   
 31  14  33  1   
 32  14  34  1   
 33  15  18  1   
 34  16  17  1   
 35  16  19  1   
 36  17  35  1   
 37  17  36  1   
 38  18  19  2   
 39  18  37  1   
 40  19  38  1   
@<TRIPOS>SUBSTRUCTURE
  1 ****  11 GROUP 4 **** **** 0

# MOE 2024.06 (io_trps.svl 2023.06)
