@<TRIPOS>MOLECULE
NONAME
45 46 1 0 0 
SMALL
USER_CHARGES


@<TRIPOS>ATOM
  1 S       -0.0500    -0.4190     0.8660 S.o2  1 <1>   1.5010 
  2 O       -1.1620     0.2280     1.5210 O.2   1 <1>  -0.6500 
  3 O        0.5480    -1.6010     1.4410 O.2   1 <1>  -0.6500 
  4 N       -0.6830    -0.8030    -0.6430 N.am  1 <1>  -0.9140 
  5 C        1.2330     0.7760     0.4660 C.2   1 <1>  -0.0630 
  6 C       -1.1770    -2.1570    -0.9120 C.3   1 <1>   0.2760 
  7 C        1.2110     2.0810     0.0790 C.2   1 <1>  -0.3320 
  8 C        2.5840     0.4580     0.4800 C.2   1 <1>   0.1390 
  9 C       -2.1590    -2.7250     0.1220 C.3   1 <1>  -0.0800 
 10 C       -0.0910    -3.2320    -1.0410 C.3   1 <1>   0.1200 
 11 N        2.4930     2.4610    -0.1060 N.pl3 1 <1>   0.3140 
 12 C        0.0150     3.0020    -0.1210 C.3   1 <1>  -0.0600 
 13 N        3.3420     1.4550     0.1400 N.2   1 <1>  -0.7070 
 14 C       -1.4330    -3.9830     0.6090 C.3   1 <1>   0.1200 
 15 C       -3.5030    -3.0830    -0.5450 C.3   1 <1>  -0.0550 
 16 O       -0.6430    -4.3720    -0.4640 O.3   1 <1>  -0.5600 
 17 C        2.9860     3.7820    -0.5200 C.3   1 <1>   0.0160 
 18 S       -4.8200    -3.4530     0.6160 S.o2  1 <1>   1.3330 
 19 O       -4.5100    -4.6550     1.3560 O.2   1 <1>  -0.6500 
 20 O       -5.1220    -2.2300     1.3230 O.2   1 <1>  -0.6500 
 21 N       -6.1230    -3.8020    -0.4140 N.am  1 <1>  -0.8490 
 22 C       -7.4160    -3.4850     0.2020 C.3   1 <1>   0.1160 
 23 C       -6.1300    -5.1890    -0.8930 C.3   1 <1>   0.1160 
 24 H       -1.4770    -0.1690    -0.7060 H     1 <1>   0.4200 
 25 H       -1.6650    -2.1190    -1.8720 H     1 <1>   0.0800 
 26 H        2.9710    -0.5130     0.7440 H     1 <1>   0.1500 
 27 H       -2.3410    -2.0590     0.9460 H     1 <1>   0.0800 
 28 H        0.8070    -2.9870    -0.5040 H     1 <1>   0.0800 
 29 H        0.1430    -3.4460    -2.0680 H     1 <1>   0.0800 
 30 H       -0.9050     2.4880     0.0910 H     1 <1>   0.0800 
 31 H       -0.0180     3.3550    -1.1370 H     1 <1>   0.0800 
 32 H        0.0860     3.8480     0.5400 H     1 <1>   0.0800 
 33 H       -2.0860    -4.7950     0.8760 H     1 <1>   0.0800 
 34 H       -0.7830    -3.7630     1.4400 H     1 <1>   0.0800 
 35 H       -3.3580    -3.9170    -1.2040 H     1 <1>   0.0800 
 36 H       -3.8250    -2.2510    -1.1400 H     1 <1>   0.0800 
 37 H        2.5860     4.0210    -1.4880 H     1 <1>   0.0800 
 38 H        4.0590     3.7580    -0.5710 H     1 <1>   0.0800 
 39 H        2.6770     4.5160     0.1990 H     1 <1>   0.0800 
 40 H       -8.2190    -3.7040    -0.4800 H     1 <1>   0.0800 
 41 H       -7.4610    -2.4360     0.4460 H     1 <1>   0.0800 
 42 H       -7.5500    -4.0560     1.1060 H     1 <1>   0.0800 
 43 H       -6.9200    -5.3290    -1.6110 H     1 <1>   0.0800 
 44 H       -6.2790    -5.8710    -0.0710 H     1 <1>   0.0800 
 45 H       -5.1930    -5.4240    -1.3690 H     1 <1>   0.0800 
@<TRIPOS>BOND
  1   1   2  2   
  2   1   3  2   
  3   1   4  am  
  4   1   5  1   
  5   4   6  1   
  6   4  24  1   
  7   5   7  2   
  8   5   8  1   
  9   6   9  1   
 10   6  10  1   
 11   6  25  1   
 12   7  11  1   
 13   7  12  1   
 14   8  13  2   
 15   8  26  1   
 16   9  14  1   
 17   9  15  1   
 18   9  27  1   
 19  10  16  1   
 20  10  28  1   
 21  10  29  1   
 22  11  13  1   
 23  11  17  1   
 24  12  30  1   
 25  12  31  1   
 26  12  32  1   
 27  14  16  1   
 28  14  33  1   
 29  14  34  1   
 30  15  18  1   
 31  15  35  1   
 32  15  36  1   
 33  17  37  1   
 34  17  38  1   
 35  17  39  1   
 36  18  19  2   
 37  18  20  2   
 38  18  21  am  
 39  21  22  1   
 40  21  23  1   
 41  22  40  1   
 42  22  41  1   
 43  22  42  1   
 44  23  43  1   
 45  23  44  1   
 46  23  45  1   
@<TRIPOS>SUBSTRUCTURE
  1 ****   4 GROUP 4 **** **** 0

# MOE 2024.06 (io_trps.svl 2023.06)
