@<TRIPOS>MOLECULE
NONAME
45 47 1 0 0 
SMALL
USER_CHARGES


@<TRIPOS>ATOM
  1 S        0.0560     0.5170    -0.9110 S.o2  1 <1>   1.3330 
  2 O       -0.5760    -0.6660    -1.4490 O.2   1 <1>  -0.6500 
  3 O        0.5980     1.5090    -1.8130 O.2   1 <1>  -0.6500 
  4 N        1.3050    -0.0050     0.1170 N.am  1 <1>  -0.8490 
  5 C       -1.0880     1.3110     0.2280 C.3   1 <1>  -0.0550 
  6 C        2.6240     0.0390    -0.5220 C.3   1 <1>   0.1160 
  7 C        1.0730    -1.3320     0.7000 C.3   1 <1>   0.1160 
  8 C       -0.7510     2.7470     0.6910 C.3   1 <1>  -0.0800 
  9 C       -0.9930     3.8130    -0.3800 C.3   1 <1>   0.2000 
 10 C        0.6790     3.0030     1.1700 C.3   1 <1>   0.1400 
 11 O       -2.3300     4.1800    -0.3640 O.3   1 <1>  -0.6800 
 12 C       -0.0890     4.9910    -0.0090 C.3   1 <1>   0.1400 
 13 N        0.8880     4.4540     0.9740 N.am  1 <1>  -0.6600 
 14 C        2.1010     5.0460     1.2510 C.2   1 <1>   0.5440 
 15 O        2.9750     4.3710     1.7620 O.2   1 <1>  -0.5700 
 16 C        2.3570     6.4330     0.9210 C.ar  1 <1>   0.0860 
 17 C        3.4610     6.7900     0.1630 C.ar  1 <1>  -0.1500 
 18 C        1.4910     7.4580     1.3580 C.ar  1 <1>  -0.1500 
 19 C        3.6800     8.1250    -0.1730 C.ar  1 <1>  -0.1520 
 20 C        1.7020     8.7770     1.0310 C.ar  1 <1>  -0.1500 
 21 N        4.6790     8.7110    -0.9090 N.pl3 1 <1>   0.0330 
 22 C        2.8090     9.1220     0.2510 C.ar  1 <1>   0.0000 
 23 C        4.4420    10.0550    -0.9520 C.2   1 <1>  -0.3020 
 24 C        3.3130    10.3360    -0.2570 C.2   1 <1>  -0.1500 
 25 H       -2.0550     1.3420    -0.2360 H     1 <1>   0.0800 
 26 H       -1.1830     0.6890     1.0960 H     1 <1>   0.0800 
 27 H        3.3850    -0.2810     0.1690 H     1 <1>   0.0800 
 28 H        2.8540     1.0460    -0.8280 H     1 <1>   0.0800 
 29 H        2.6410    -0.5990    -1.3900 H     1 <1>   0.0800 
 30 H        1.8410    -1.5590     1.4200 H     1 <1>   0.0800 
 31 H        1.0800    -2.0870    -0.0700 H     1 <1>   0.0800 
 32 H        0.1200    -1.3580     1.1990 H     1 <1>   0.0800 
 33 H       -1.3850     2.9710     1.5310 H     1 <1>   0.0800 
 34 H       -0.7520     3.4680    -1.3700 H     1 <1>   0.0800 
 35 H        1.4080     2.4860     0.5730 H     1 <1>   0.0800 
 36 H        0.8130     2.7340     2.2040 H     1 <1>   0.0800 
 37 H       -2.5740     4.5440     0.5080 H     1 <1>   0.4000 
 38 H       -0.6560     5.7850     0.4410 H     1 <1>   0.0800 
 39 H        0.4260     5.3540    -0.8820 H     1 <1>   0.0800 
 40 H        4.1470     6.0300    -0.1670 H     1 <1>   0.1500 
 41 H        0.6480     7.1840     1.9670 H     1 <1>   0.1500 
 42 H        1.0370     9.5520     1.3650 H     1 <1>   0.1500 
 43 H        5.4630     8.2130    -1.3430 H     1 <1>   0.2700 
 44 H        5.0920    10.7340    -1.4760 H     1 <1>   0.1500 
 45 H        2.8530    11.2960    -0.0970 H     1 <1>   0.1500 
@<TRIPOS>BOND
  1   1   2  2   
  2   1   3  2   
  3   1   4  am  
  4   1   5  1   
  5   4   6  1   
  6   4   7  1   
  7   5   8  1   
  8   5  25  1   
  9   5  26  1   
 10   6  27  1   
 11   6  28  1   
 12   6  29  1   
 13   7  30  1   
 14   7  31  1   
 15   7  32  1   
 16   8   9  1   
 17   8  10  1   
 18   8  33  1   
 19   9  11  1   
 20   9  12  1   
 21   9  34  1   
 22  10  13  1   
 23  10  35  1   
 24  10  36  1   
 25  11  37  1   
 26  12  13  1   
 27  12  38  1   
 28  12  39  1   
 29  13  14  am  
 30  14  15  2   
 31  14  16  1   
 32  16  17  ar  
 33  16  18  ar  
 34  17  19  ar  
 35  17  40  1   
 36  18  20  ar  
 37  18  41  1   
 38  19  21  1   
 39  19  22  ar  
 40  20  22  ar  
 41  20  42  1   
 42  21  23  1   
 43  21  43  1   
 44  22  24  1   
 45  23  24  2   
 46  23  44  1   
 47  24  45  1   
@<TRIPOS>SUBSTRUCTURE
  1 ****  13 GROUP 4 **** **** 0

# MOE 2024.06 (io_trps.svl 2023.06)
