@<TRIPOS>MOLECULE
NONAME
42 44 1 0 0 
SMALL
USER_CHARGES


@<TRIPOS>ATOM
  1 O        1.2610    -0.0980     1.2070 O.3   1 <1>  -0.6800 
  2 C        1.5790    -0.0960    -0.1490 C.3   1 <1>   0.2000 
  3 C        2.3810    -1.3490    -0.5120 C.3   1 <1>  -0.0800 
  4 C        2.5470     1.0570    -0.4410 C.3   1 <1>   0.2090 
  5 C        3.8290    -0.9890    -0.1800 C.3   1 <1>   0.2090 
  6 C        1.9280    -2.6710     0.1370 C.3   1 <1>   0.0210 
  7 N        3.9240     0.4850    -0.3530 N.pl3 1 <1>  -0.8380 
  8 C        2.8440    -3.8210    -0.2420 C.2   1 <1>   0.1080 
  9 C        5.0540     1.2320    -0.3770 C.ar  1 <1>   0.4100 
 10 N        3.2070    -4.0650    -1.4640 N.2   1 <1>  -0.7070 
 11 C        3.3910    -4.7280     0.6580 C.2   1 <1>  -0.1500 
 12 N        4.9270     2.5270    -0.6030 N.ar  1 <1>  -0.6200 
 13 C        6.3190     0.6440    -0.1680 C.ar  1 <1>  -0.1500 
 14 N        3.9960    -5.1520    -1.3750 N.pl3 1 <1>   0.3000 
 15 C        4.1270    -5.5700    -0.0980 C.2   1 <1>  -0.3320 
 16 C        6.0220     3.2520    -0.6220 C.ar  1 <1>   0.7710 
 17 C        7.4280     1.4210    -0.1960 C.ar  1 <1>   0.2180 
 18 C        4.9540    -6.7690     0.3260 C.3   1 <1>  -0.0600 
 19 N        7.2510     2.7430    -0.4290 N.ar  1 <1>  -0.1790 
 20 N        5.8630     4.5540    -0.8460 N.pl3 1 <1>  -0.9000 
 21 C        8.8350     0.8880     0.0180 C.3   1 <1>  -0.0970 
 22 H        0.5520    -0.7420     1.3940 H     1 <1>   0.4000 
 23 H        0.6660    -0.0020    -0.7110 H     1 <1>   0.0800 
 24 H        2.3300    -1.4680    -1.5800 H     1 <1>   0.0800 
 25 H        2.4130     1.8650     0.2590 H     1 <1>   0.0800 
 26 H        2.3890     1.4200    -1.4410 H     1 <1>   0.0800 
 27 H        4.5070    -1.5080    -0.8370 H     1 <1>   0.0800 
 28 H        4.0470    -1.2370     0.8450 H     1 <1>   0.0800 
 29 H        0.9310    -2.9080    -0.1870 H     1 <1>   0.0800 
 30 H        1.9250    -2.5800     1.2080 H     1 <1>   0.0800 
 31 H        3.2420    -4.7370     1.7230 H     1 <1>   0.1500 
 32 H        6.3780    -0.4110     0.0140 H     1 <1>   0.1500 
 33 H        4.4260    -5.5850    -2.2010 H     1 <1>   0.2700 
 34 H        4.8980    -6.9000     1.3920 H     1 <1>   0.0800 
 35 H        5.9840    -6.6280     0.0520 H     1 <1>   0.0800 
 36 H        4.5840    -7.6620    -0.1470 H     1 <1>   0.0800 
 37 H        8.0300     3.3900    -0.4650 H     1 <1>   0.4570 
 38 H        6.5660     5.2920    -0.8980 H     1 <1>   0.4000 
 39 H        4.9020     4.8860    -0.9820 H     1 <1>   0.4000 
 40 H        8.8120    -0.1740     0.1880 H     1 <1>   0.0800 
 41 H        9.2880     1.3540     0.8750 H     1 <1>   0.0800 
 42 H        9.4440     1.0740    -0.8490 H     1 <1>   0.0800 
@<TRIPOS>BOND
  1   1   2  1   
  2   1  22  1   
  3   2   3  1   
  4   2   4  1   
  5   2  23  1   
  6   3   5  1   
  7   3   6  1   
  8   3  24  1   
  9   4   7  1   
 10   4  25  1   
 11   4  26  1   
 12   5   7  1   
 13   5  27  1   
 14   5  28  1   
 15   6   8  1   
 16   6  29  1   
 17   6  30  1   
 18   7   9  1   
 19   8  10  2   
 20   8  11  1   
 21   9  12  ar  
 22   9  13  ar  
 23  10  14  1   
 24  11  15  2   
 25  11  31  1   
 26  12  16  ar  
 27  13  17  ar  
 28  13  32  1   
 29  14  15  1   
 30  14  33  1   
 31  15  18  1   
 32  16  19  ar  
 33  16  20  1   
 34  17  19  ar  
 35  17  21  1   
 36  18  34  1   
 37  18  35  1   
 38  18  36  1   
 39  19  37  1   
 40  20  38  1   
 41  20  39  1   
 42  21  40  1   
 43  21  41  1   
 44  21  42  1   
@<TRIPOS>SUBSTRUCTURE
  1 ****   5 GROUP 4 **** **** 0

# MOE 2024.06 (io_trps.svl 2023.06)
