@<TRIPOS>MOLECULE
NONAME
48 50 1 0 0 
SMALL
USER_CHARGES


@<TRIPOS>ATOM
  1 F       -0.0840     0.9760     0.2560 F     1 <1>  -0.1900 
  2 C       -1.3820     1.1440     0.2220 C.ar  1 <1>   0.1900 
  3 C       -1.9750     2.1980    -0.4820 C.ar  1 <1>   0.0830 
  4 C       -2.1390     0.2260     0.9230 C.ar  1 <1>  -0.1500 
  5 O       -1.3400     3.1630    -1.2070 O.3   1 <1>  -0.3630 
  6 C       -3.3570     2.2910    -0.4530 C.ar  1 <1>  -0.1500 
  7 C       -3.5160     0.3490     0.9310 C.ar  1 <1>  -0.1500 
  8 C        0.0590     3.1950    -1.3860 C.3   1 <1>   0.0400 
  9 C       -4.1560     1.3800     0.2410 C.ar  1 <1>   0.0530 
 10 C       -5.5900     1.5240     0.2490 C.2   1 <1>   0.0870 
 11 O       -6.1090     2.7200     0.3680 O.3   1 <1>  -0.0190 
 12 C       -6.6290     0.6470     0.1640 C.2   1 <1>  -0.0860 
 13 N       -7.4140     2.7130     0.3800 N.2   1 <1>  -0.4100 
 14 C       -7.7540     1.4780     0.2580 C.2   1 <1>   0.3720 
 15 C       -6.6440    -0.7770     0.0000 C.2   1 <1>   0.7160 
 16 N       -9.0920     1.0550     0.2100 N.pl3 1 <1>  -0.8210 
 17 O       -5.6450    -1.3940    -0.3190 O.2   1 <1>  -0.5700 
 18 N       -7.7900    -1.4770     0.1930 N.am  1 <1>  -0.7300 
 19 C      -10.0210     1.8170     1.0910 C.3   1 <1>   0.1290 
 20 C       -9.6240     0.9450    -1.1780 C.3   1 <1>   0.1290 
 21 C       -8.0400    -2.8600    -0.2890 C.3   1 <1>   0.2810 
 22 C       -9.4560    -3.0410    -0.8820 C.2   1 <1>   0.5690 
 23 C       -7.7760    -3.8250     0.8770 C.3   1 <1>  -0.1600 
 24 O       -9.9490    -2.1720    -1.5610 O.2   1 <1>  -0.5700 
 25 N      -10.1590    -4.1790    -0.6470 N.am  1 <1>  -0.7300 
 26 C       -8.2510    -5.2440     0.5260 C.3   1 <1>  -0.1600 
 27 C       -9.7590    -5.2870     0.2500 C.3   1 <1>   0.1400 
 28 H       -1.6550    -0.5740     1.4540 H     1 <1>   0.1500 
 29 H       -3.8260     3.0970    -0.9890 H     1 <1>   0.1500 
 30 H       -4.1050    -0.3660     1.4790 H     1 <1>   0.1500 
 31 H        0.2960     4.0340    -2.0150 H     1 <1>   0.0800 
 32 H        0.3730     2.2830    -1.8610 H     1 <1>   0.0800 
 33 H        0.5320     3.3140    -0.4270 H     1 <1>   0.0800 
 34 H       -8.6340    -0.8890     0.2790 H     1 <1>   0.3700 
 35 H       -9.5880     1.9240     2.0710 H     1 <1>   0.0800 
 36 H      -10.9560     1.2930     1.1800 H     1 <1>   0.0800 
 37 H      -10.1990     2.7980     0.6830 H     1 <1>   0.0800 
 38 H       -8.9400     0.3890    -1.7960 H     1 <1>   0.0800 
 39 H       -9.7560     1.9260    -1.6030 H     1 <1>   0.0800 
 40 H      -10.5700     0.4300    -1.1720 H     1 <1>   0.0800 
 41 H       -7.3450    -3.0830    -1.0800 H     1 <1>   0.0800 
 42 H       -8.3040    -3.4840     1.7510 H     1 <1>   0.0800 
 43 H       -6.7220    -3.8360     1.0940 H     1 <1>   0.0800 
 44 H      -11.0950    -4.2240    -1.0570 H     1 <1>   0.3700 
 45 H       -8.0240    -5.9130     1.3380 H     1 <1>   0.0800 
 46 H       -7.7230    -5.5990    -0.3420 H     1 <1>   0.0800 
 47 H      -10.0210    -6.2290    -0.2020 H     1 <1>   0.0800 
 48 H      -10.3010    -5.1920     1.1760 H     1 <1>   0.0800 
@<TRIPOS>BOND
  1   1   2  1   
  2   2   3  ar  
  3   2   4  ar  
  4   3   5  1   
  5   3   6  ar  
  6   4   7  ar  
  7   4  28  1   
  8   5   8  1   
  9   6   9  ar  
 10   6  29  1   
 11   7   9  ar  
 12   7  30  1   
 13   8  31  1   
 14   8  32  1   
 15   8  33  1   
 16   9  10  1   
 17  10  11  1   
 18  10  12  2   
 19  11  13  1   
 20  12  14  1   
 21  12  15  1   
 22  13  14  2   
 23  14  16  1   
 24  15  17  2   
 25  15  18  am  
 26  16  19  1   
 27  16  20  1   
 28  18  21  1   
 29  18  34  1   
 30  19  35  1   
 31  19  36  1   
 32  19  37  1   
 33  20  38  1   
 34  20  39  1   
 35  20  40  1   
 36  21  22  1   
 37  21  23  1   
 38  21  41  1   
 39  22  24  2   
 40  22  25  am  
 41  23  26  1   
 42  23  42  1   
 43  23  43  1   
 44  25  27  1   
 45  25  44  1   
 46  26  27  1   
 47  26  45  1   
 48  26  46  1   
 49  27  47  1   
 50  27  48  1   
@<TRIPOS>SUBSTRUCTURE
  1 ****  15 GROUP 4 **** **** 0

# MOE 2024.06 (io_trps.svl 2023.06)
