@<TRIPOS>MOLECULE
NONAME
55 58 1 0 0 
SMALL
USER_CHARGES


@<TRIPOS>ATOM
  1 S       -0.3220     0.0200     1.5510 S.o2  1 <1>   1.4470 
  2 O       -0.1470    -1.4120     1.7270 O.2   1 <1>  -0.6500 
  3 O       -0.6860     0.7830     2.7230 O.2   1 <1>  -0.6500 
  4 N       -1.6000     0.1130     0.4280 N.am  1 <1>  -0.8490 
  5 C        1.1340     0.6940     0.7250 C.ar  1 <1>  -0.0090 
  6 C       -1.6240    -1.0050    -0.5320 C.3   1 <1>   0.1960 
  7 C       -2.8930     0.4110     1.0880 C.3   1 <1>   0.1960 
  8 C        1.1040     2.0120     0.2270 C.ar  1 <1>   0.3100 
  9 C        2.2740    -0.0650     0.5840 C.ar  1 <1>  -0.1500 
 10 C       -2.5480    -2.0990     0.0320 C.3   1 <1>   0.4230 
 11 C       -4.0960    -0.1150     0.2850 C.3   1 <1>  -0.1600 
 12 N       -0.0160     2.7700     0.3660 N.ar  1 <1>  -0.6200 
 13 C        2.2570     2.5190    -0.4200 C.ar  1 <1>   0.0000 
 14 C        3.4120     0.4310    -0.0560 C.ar  1 <1>  -0.1430 
 15 N       -2.3010    -3.5280    -0.3940 N.4   1 <1>  -0.9590 
 16 C       -4.0280    -1.6430    -0.0370 C.3   1 <1>   0.0000 
 17 C       -0.0060     3.9810    -0.0980 C.ar  1 <1>   0.1600 
 18 C        3.3960     1.7050    -0.5490 C.ar  1 <1>  -0.1500 
 19 C        2.2270     3.8350    -0.9140 C.ar  1 <1>  -0.1500 
 20 C        4.6390    -0.4560    -0.1790 C.3   1 <1>  -0.0970 
 21 C       -3.4160    -4.4490     0.0170 C.3   1 <1>   0.3430 
 22 C       -1.9370    -3.7140    -1.8350 C.3   1 <1>   0.2630 
 23 C       -4.7840    -2.4880     1.0240 C.3   1 <1>  -0.1600 
 24 C       -4.6340    -1.8650    -1.4500 C.3   1 <1>   0.1200 
 25 C        1.0890     4.5620    -0.7480 C.ar  1 <1>  -0.1500 
 26 C       -4.1870    -3.9040     1.2310 C.3   1 <1>  -0.1600 
 27 O       -5.8980    -1.3090    -1.5490 O.3   1 <1>  -0.6800 
 28 H       -2.0020    -0.6450    -1.4730 H     1 <1>   0.0800 
 29 H       -0.6270    -1.3780    -0.6920 H     1 <1>   0.0800 
 30 H       -2.9220    -0.0450     2.0660 H     1 <1>   0.0800 
 31 H       -2.9730     1.4770     1.2280 H     1 <1>   0.0800 
 32 H        2.3060    -1.0680     0.9760 H     1 <1>   0.1500 
 33 H       -2.3180    -2.0950     1.0850 H     1 <1>   0.0800 
 34 H       -5.0050     0.1150     0.8140 H     1 <1>   0.0800 
 35 H       -4.1290     0.4600    -0.6250 H     1 <1>   0.0800 
 36 H       -1.4790    -3.8070     0.1660 H     1 <1>   0.4500 
 37 H       -0.8950     4.5780     0.0220 H     1 <1>   0.1500 
 38 H        4.2590     2.1130    -1.0450 H     1 <1>   0.1500 
 39 H        3.0920     4.2420    -1.4070 H     1 <1>   0.1500 
 40 H        5.4370     0.0600    -0.6830 H     1 <1>   0.0800 
 41 H        4.4000    -1.3430    -0.7370 H     1 <1>   0.0800 
 42 H        4.9840    -0.7430     0.7990 H     1 <1>   0.0800 
 43 H       -4.1090    -4.5680    -0.7990 H     1 <1>   0.0800 
 44 H       -3.0170    -5.4240     0.2490 H     1 <1>   0.0800 
 45 H       -2.7480    -3.4110    -2.4750 H     1 <1>   0.0800 
 46 H       -1.7150    -4.7510    -2.0320 H     1 <1>   0.0800 
 47 H       -1.0650    -3.1290    -2.0830 H     1 <1>   0.0800 
 48 H       -4.7560    -1.9840     1.9770 H     1 <1>   0.0800 
 49 H       -5.8240    -2.5730     0.7600 H     1 <1>   0.0800 
 50 H       -4.7270    -2.9050    -1.6990 H     1 <1>   0.0800 
 51 H       -4.0290    -1.3870    -2.2010 H     1 <1>   0.0800 
 52 H        1.0100     5.5740    -1.1020 H     1 <1>   0.1500 
 53 H       -4.9810    -4.5880     1.4790 H     1 <1>   0.0800 
 54 H       -3.5190    -3.8910     2.0770 H     1 <1>   0.0800 
 55 H       -6.5370    -1.7210    -0.9340 H     1 <1>   0.4000 
@<TRIPOS>BOND
  1   1   2  2   
  2   1   3  2   
  3   1   4  am  
  4   1   5  1   
  5   4   6  1   
  6   4   7  1   
  7   5   8  ar  
  8   5   9  ar  
  9   6  10  1   
 10   6  28  1   
 11   6  29  1   
 12   7  11  1   
 13   7  30  1   
 14   7  31  1   
 15   8  12  ar  
 16   8  13  ar  
 17   9  14  ar  
 18   9  32  1   
 19  10  15  1   
 20  10  16  1   
 21  10  33  1   
 22  11  16  1   
 23  11  34  1   
 24  11  35  1   
 25  12  17  ar  
 26  13  18  ar  
 27  13  19  ar  
 28  14  18  ar  
 29  14  20  1   
 30  15  21  1   
 31  15  22  1   
 32  15  36  1   
 33  16  23  1   
 34  16  24  1   
 35  17  25  ar  
 36  17  37  1   
 37  18  38  1   
 38  19  25  ar  
 39  19  39  1   
 40  20  40  1   
 41  20  41  1   
 42  20  42  1   
 43  21  26  1   
 44  21  43  1   
 45  21  44  1   
 46  22  45  1   
 47  22  46  1   
 48  22  47  1   
 49  23  26  1   
 50  23  48  1   
 51  23  49  1   
 52  24  27  1   
 53  24  50  1   
 54  24  51  1   
 55  25  52  1   
 56  26  53  1   
 57  26  54  1   
 58  27  55  1   
@<TRIPOS>SUBSTRUCTURE
  1 ****   4 GROUP 4 **** **** 0

# MOE 2024.06 (io_trps.svl 2023.06)
