@<TRIPOS>MOLECULE
NONAME
53 56 1 0 0 
SMALL
USER_CHARGES


@<TRIPOS>ATOM
  1 F       -0.6240    -0.5400     0.8120 F     1 <1>  -0.1900 
  2 C       -1.8110    -1.0640     0.6760 C.ar  1 <1>   0.1900 
  3 C       -2.8610    -0.2610     0.3110 C.ar  1 <1>  -0.1500 
  4 C       -1.9580    -2.4260     0.9080 C.ar  1 <1>  -0.1500 
  5 C       -4.1440    -0.8150     0.1610 C.ar  1 <1>   0.0000 
  6 C       -3.2070    -2.9840     0.7670 C.ar  1 <1>  -0.1500 
  7 C       -4.3070    -2.1950     0.3960 C.ar  1 <1>   0.3610 
  8 C       -5.2990    -0.0680    -0.2200 C.ar  1 <1>  -0.1440 
  9 N       -5.5690    -2.7550     0.2610 N.ar  1 <1>  -0.1790 
 10 C       -6.5020    -0.6950    -0.3320 C.ar  1 <1>  -0.1500 
 11 C       -5.1790     1.4240    -0.5120 C.3   1 <1>  -0.0970 
 12 C       -6.6780    -2.0830    -0.0740 C.ar  1 <1>   0.4610 
 13 N       -7.8820    -2.7170    -0.1560 N.pl3 1 <1>  -0.8380 
 14 C       -8.0950    -4.1890    -0.4500 C.3   1 <1>   0.2090 
 15 C       -9.1690    -1.9300    -0.1880 C.3   1 <1>   0.2090 
 16 C       -9.2600    -4.8510     0.3550 C.3   1 <1>   0.4230 
 17 C      -10.2150    -2.5800     0.7160 C.3   1 <1>  -0.1600 
 18 N       -9.4710    -6.3390     0.0580 N.4   1 <1>  -0.9590 
 19 C      -10.5730    -4.0250     0.2940 C.3   1 <1>   0.0000 
 20 C      -10.8030    -6.8710     0.5160 C.3   1 <1>   0.3430 
 21 C       -9.2530    -6.7680    -1.3660 C.3   1 <1>   0.2630 
 22 C      -11.5960    -4.5940     1.3200 C.3   1 <1>  -0.1600 
 23 C      -11.1740    -4.0540    -1.1420 C.3   1 <1>   0.1200 
 24 C      -11.3430    -6.0650     1.6950 C.3   1 <1>  -0.1600 
 25 O      -12.1300    -3.0700    -1.3110 O.3   1 <1>  -0.6800 
 26 H       -2.6800     0.7860     0.1460 H     1 <1>   0.1500 
 27 H       -1.0950    -3.0070     1.1920 H     1 <1>   0.1500 
 28 H       -3.3270    -4.0380     0.9470 H     1 <1>   0.1500 
 29 H       -5.6590    -3.7340     0.4910 H     1 <1>   0.4570 
 30 H       -7.3500    -0.1200    -0.6510 H     1 <1>   0.1500 
 31 H       -6.1280     1.8460    -0.7930 H     1 <1>   0.0800 
 32 H       -4.4890     1.5930    -1.3200 H     1 <1>   0.0800 
 33 H       -4.8280     1.9490     0.3600 H     1 <1>   0.0800 
 34 H       -8.3030    -4.2710    -1.5020 H     1 <1>   0.0800 
 35 H       -7.1940    -4.7390    -0.2540 H     1 <1>   0.0800 
 36 H       -9.0240    -0.9300     0.1820 H     1 <1>   0.0800 
 37 H       -9.5340    -1.8550    -1.2010 H     1 <1>   0.0800 
 38 H       -8.9530    -4.7950     1.3860 H     1 <1>   0.0800 
 39 H       -9.8390    -2.5640     1.7250 H     1 <1>   0.0800 
 40 H      -11.0970    -1.9620     0.7110 H     1 <1>   0.0800 
 41 H       -8.7810    -6.8450     0.6320 H     1 <1>   0.4500 
 42 H      -11.5170    -6.8120    -0.2900 H     1 <1>   0.0800 
 43 H      -10.7080    -7.9080     0.7960 H     1 <1>   0.0800 
 44 H       -9.9490    -6.2720    -2.0240 H     1 <1>   0.0800 
 45 H       -9.4000    -7.8330    -1.4610 H     1 <1>   0.0800 
 46 H       -8.2500    -6.5400    -1.6870 H     1 <1>   0.0800 
 47 H      -11.5800    -4.0220     2.2340 H     1 <1>   0.0800 
 48 H      -12.5950    -4.4980     0.9300 H     1 <1>   0.0800 
 49 H      -11.6390    -4.9980    -1.3630 H     1 <1>   0.0800 
 50 H      -10.4200    -3.8680    -1.8860 H     1 <1>   0.0800 
 51 H      -12.2670    -6.5060     2.0300 H     1 <1>   0.0800 
 52 H      -10.6500    -6.1290     2.5160 H     1 <1>   0.0800 
 53 H      -12.9520    -3.2560    -0.8120 H     1 <1>   0.4000 
@<TRIPOS>BOND
  1   1   2  1   
  2   2   3  ar  
  3   2   4  ar  
  4   3   5  ar  
  5   3  26  1   
  6   4   6  ar  
  7   4  27  1   
  8   5   7  ar  
  9   5   8  ar  
 10   6   7  ar  
 11   6  28  1   
 12   7   9  ar  
 13   8  10  ar  
 14   8  11  1   
 15   9  12  ar  
 16   9  29  1   
 17  10  12  ar  
 18  10  30  1   
 19  11  31  1   
 20  11  32  1   
 21  11  33  1   
 22  12  13  1   
 23  13  14  1   
 24  13  15  1   
 25  14  16  1   
 26  14  34  1   
 27  14  35  1   
 28  15  17  1   
 29  15  36  1   
 30  15  37  1   
 31  16  18  1   
 32  16  19  1   
 33  16  38  1   
 34  17  19  1   
 35  17  39  1   
 36  17  40  1   
 37  18  20  1   
 38  18  21  1   
 39  18  41  1   
 40  19  22  1   
 41  19  23  1   
 42  20  24  1   
 43  20  42  1   
 44  20  43  1   
 45  21  44  1   
 46  21  45  1   
 47  21  46  1   
 48  22  24  1   
 49  22  47  1   
 50  22  48  1   
 51  23  25  1   
 52  23  49  1   
 53  23  50  1   
 54  24  51  1   
 55  24  52  1   
 56  25  53  1   
@<TRIPOS>SUBSTRUCTURE
  1 ****  13 GROUP 4 **** **** 0

# MOE 2024.06 (io_trps.svl 2023.06)
