@<TRIPOS>MOLECULE
NONAME
55 59 1 0 0 
SMALL
USER_CHARGES


@<TRIPOS>ATOM
  1 S       -0.1310     0.7820     0.4700 S.3   1 <1>  -0.0800 
  2 C        0.4240     2.2340    -0.3060 C.2   1 <1>   0.4620 
  3 C       -0.9040     0.3640    -1.0260 C.2   1 <1>   0.1980 
  4 N        0.0350     2.3050    -1.5290 N.2   1 <1>  -0.3380 
  5 N        1.2000     3.1510     0.3830 N.pl3 1 <1>  -0.8220 
  6 N       -0.7160     1.2380    -1.9310 N.2   1 <1>  -0.3380 
  7 C       -1.6940    -0.9380    -1.1200 C.3   1 <1>   0.1000 
  8 C        2.0830     2.7860     1.5280 C.3   1 <1>   0.2090 
  9 C        1.5120     4.4670    -0.2450 C.3   1 <1>   0.2090 
 10 C       -2.8830    -0.9460    -0.1500 C.3   1 <1>  -0.2400 
 11 C       -0.7980    -2.1610    -0.8840 C.3   1 <1>  -0.2400 
 12 C        3.5680     2.8800     1.1120 C.3   1 <1>   0.3430 
 13 C        2.9950     4.5220    -0.6620 C.3   1 <1>   0.3430 
 14 N        3.9430     4.2100     0.4830 N.4   1 <1>  -0.9590 
 15 C        5.3930     4.3200     0.1120 C.3   1 <1>   0.5030 
 16 C        5.6870     5.7450    -0.4150 C.3   1 <1>  -0.1600 
 17 C        5.7900     3.2930    -0.9740 C.3   1 <1>  -0.1600 
 18 C        6.2680     4.0860     1.3670 C.3   1 <1>  -0.1600 
 19 C        7.1780     5.9010    -0.7660 C.3   1 <1>  -0.0800 
 20 C        7.2850     3.4400    -1.3240 C.3   1 <1>  -0.0800 
 21 C        7.7620     4.2320     1.0260 C.3   1 <1>  -0.0800 
 22 C        7.5500     4.8650    -1.8440 C.3   1 <1>  -0.1600 
 23 C        8.0250     5.6500     0.4930 C.3   1 <1>  -0.1600 
 24 C        8.1320     3.2040    -0.0600 C.3   1 <1>  -0.1600 
 25 H       -2.0840    -1.0010    -2.1220 H     1 <1>   0.0800 
 26 H        1.8810     1.7860     1.8680 H     1 <1>   0.0800 
 27 H        1.8910     3.4520     2.3520 H     1 <1>   0.0800 
 28 H        1.2970     5.2570     0.4540 H     1 <1>   0.0800 
 29 H        0.8930     4.6310    -1.1110 H     1 <1>   0.0800 
 30 H       -2.5450    -0.9220     0.8710 H     1 <1>   0.0800 
 31 H       -3.4770    -1.8300    -0.2950 H     1 <1>   0.0800 
 32 H       -3.5040    -0.0850    -0.3260 H     1 <1>   0.0800 
 33 H       -0.4110    -2.1660     0.1190 H     1 <1>   0.0800 
 34 H        0.0280    -2.1490    -1.5730 H     1 <1>   0.0800 
 35 H       -1.3570    -3.0670    -1.0400 H     1 <1>   0.0800 
 36 H        3.7630     2.0860     0.4100 H     1 <1>   0.0800 
 37 H        4.1710     2.7000     1.9850 H     1 <1>   0.0800 
 38 H        3.1950     5.5020    -1.0560 H     1 <1>   0.0800 
 39 H        3.1400     3.8100    -1.4580 H     1 <1>   0.0800 
 40 H        3.7900     4.9300     1.1960 H     1 <1>   0.4500 
 41 H        5.4260     6.4780     0.3280 H     1 <1>   0.0800 
 42 H        5.1300     5.9530    -1.3090 H     1 <1>   0.0800 
 43 H        5.2170     3.4440    -1.8700 H     1 <1>   0.0800 
 44 H        5.6220     2.2890    -0.6300 H     1 <1>   0.0800 
 45 H        6.1300     3.0950     1.7590 H     1 <1>   0.0800 
 46 H        6.0150     4.7950     2.1350 H     1 <1>   0.0800 
 47 H        7.3690     6.8950    -1.1370 H     1 <1>   0.0800 
 48 H        7.5570     2.7230    -2.0810 H     1 <1>   0.0800 
 49 H        8.3610     4.0600     1.9060 H     1 <1>   0.0800 
 50 H        8.5910     4.9690    -2.1000 H     1 <1>   0.0800 
 51 H        6.9820     5.0430    -2.7410 H     1 <1>   0.0800 
 52 H        7.7910     6.3800     1.2490 H     1 <1>   0.0800 
 53 H        9.0700     5.7600     0.2550 H     1 <1>   0.0800 
 54 H        9.1780     3.2950    -0.3030 H     1 <1>   0.0800 
 55 H        7.9770     2.2040     0.3080 H     1 <1>   0.0800 
@<TRIPOS>BOND
  1   1   2  1   
  2   1   3  1   
  3   2   4  2   
  4   2   5  1   
  5   3   6  2   
  6   3   7  1   
  7   4   6  1   
  8   5   8  1   
  9   5   9  1   
 10   7  10  1   
 11   7  11  1   
 12   7  25  1   
 13   8  12  1   
 14   8  26  1   
 15   8  27  1   
 16   9  13  1   
 17   9  28  1   
 18   9  29  1   
 19  10  30  1   
 20  10  31  1   
 21  10  32  1   
 22  11  33  1   
 23  11  34  1   
 24  11  35  1   
 25  12  14  1   
 26  12  36  1   
 27  12  37  1   
 28  13  14  1   
 29  13  38  1   
 30  13  39  1   
 31  14  15  1   
 32  14  40  1   
 33  15  16  1   
 34  15  17  1   
 35  15  18  1   
 36  16  19  1   
 37  16  41  1   
 38  16  42  1   
 39  17  20  1   
 40  17  43  1   
 41  17  44  1   
 42  18  21  1   
 43  18  45  1   
 44  18  46  1   
 45  19  22  1   
 46  19  23  1   
 47  19  47  1   
 48  20  22  1   
 49  20  24  1   
 50  20  48  1   
 51  21  23  1   
 52  21  24  1   
 53  21  49  1   
 54  22  50  1   
 55  22  51  1   
 56  23  52  1   
 57  23  53  1   
 58  24  54  1   
 59  24  55  1   
@<TRIPOS>SUBSTRUCTURE
  1 ****  12 GROUP 4 **** **** 0

# MOE 2024.06 (io_trps.svl 2023.06)
