@<TRIPOS>MOLECULE
Untitled Document
32 33 1 0 0 
SMALL
USER_CHARGES


@<TRIPOS>ATOM
  1 F       -0.9850    -0.1440    -0.8020 F     1 <1>  -0.3400 
  2 C       -1.5620    -0.6430     0.2820 C.3   1 <1>   1.1640 
  3 F       -1.8520     0.3920     1.0620 F     1 <1>  -0.3400 
  4 F       -0.6230    -1.3330     0.9200 F     1 <1>  -0.3400 
  5 C       -2.7910    -1.4990    -0.0630 C.ar  1 <1>  -0.1440 
  6 C       -4.0710    -0.9530    -0.0510 C.ar  1 <1>  -0.1500 
  7 C       -2.6470    -2.8400    -0.4050 C.ar  1 <1>  -0.1500 
  8 C       -5.1820    -1.7190    -0.3650 C.ar  1 <1>   0.0820 
  9 C       -3.7510    -3.6130    -0.7220 C.ar  1 <1>  -0.1500 
 10 O       -6.3840    -1.0940    -0.3190 O.3   1 <1>  -0.3400 
 11 C       -5.0180    -3.0590    -0.7050 C.ar  1 <1>  -0.1500 
 12 C       -7.5900    -1.8100    -0.5200 C.3   1 <1>   0.2580 
 13 C       -8.8250    -0.9220    -0.2700 C.3   1 <1>   0.2250 
 14 C       -8.0320    -2.5910     0.7360 C.3   1 <1>   0.2250 
 15 N       -9.4210    -2.0320     0.5560 N.am  1 <1>  -0.5100 
 16 C      -10.4170    -2.7900     0.0250 C.2   1 <1>   0.6900 
 17 O      -10.1710    -3.6750    -0.7740 O.2   1 <1>  -0.5700 
 18 N      -11.6900    -2.5150     0.3970 N.am  1 <1>  -0.7300 
 19 C      -12.9050    -3.2310    -0.0650 C.3   1 <1>   0.0600 
 20 H       -4.2260     0.0820     0.2030 H     1 <1>   0.1500 
 21 H       -1.6690    -3.2940    -0.4280 H     1 <1>   0.1500 
 22 H       -3.6230    -4.6490    -0.9850 H     1 <1>   0.1500 
 23 H       -5.8530    -3.6840    -0.9600 H     1 <1>   0.1500 
 24 H       -7.6060    -2.3470    -1.4520 H     1 <1>   0.0000 
 25 H       -9.4040    -0.7260    -1.1550 H     1 <1>   0.0000 
 26 H       -8.6320    -0.0540     0.3360 H     1 <1>   0.0000 
 27 H       -7.5920    -2.2360     1.6520 H     1 <1>   0.0000 
 28 H       -8.0010    -3.6600     0.6180 H     1 <1>   0.0000 
 29 H      -11.8140    -1.7910     1.1040 H     1 <1>   0.3700 
 30 H      -12.6450    -3.9770    -0.7980 H     1 <1>   0.0800 
 31 H      -13.5920    -2.5330    -0.5090 H     1 <1>   0.0800 
 32 H      -13.3790    -3.7170     0.7700 H     1 <1>   0.0800 
@<TRIPOS>BOND
  1   1   2  1   
  2   2   3  1   
  3   2   4  1   
  4   2   5  1   
  5   5   6  ar  
  6   5   7  ar  
  7   6   8  ar  
  8   6  20  1   
  9   7   9  ar  
 10   7  21  1   
 11   8  10  1   
 12   8  11  ar  
 13   9  11  ar  
 14   9  22  1   
 15  10  12  1   
 16  11  23  1   
 17  12  13  1   
 18  12  14  1   
 19  12  24  1   
 20  13  15  1   
 21  13  25  1   
 22  13  26  1   
 23  14  15  1   
 24  14  27  1   
 25  14  28  1   
 26  15  16  am  
 27  16  17  2   
 28  16  18  am  
 29  18  19  1   
 30  18  29  1   
 31  19  30  1   
 32  19  31  1   
 33  19  32  1   
@<TRIPOS>SUBSTRUCTURE
  1 ****   8 GROUP 4 **** **** 0

# MOE 2024.06 (io_trps.svl 2023.06)
