@<TRIPOS>MOLECULE
NONAME
54 56 1 0 0 
SMALL
USER_CHARGES


@<TRIPOS>ATOM
  1 O       -1.0530     5.4450     2.3560 O.2   1 <1>  -0.5700 
  2 C       -1.5450     5.0580     1.3200 C.2   1 <1>   0.5690 
  3 N       -2.8250     4.5390     1.2930 N.am  1 <1>  -0.6600 
  4 C       -0.6770     5.2070     0.0700 C.3   1 <1>   0.0440 
  5 C       -3.5040     4.1110     0.0330 C.3   1 <1>   0.2200 
  6 C       -3.5720     4.3790     2.5800 C.3   1 <1>   0.0600 
  7 C       -0.3990     3.9130    -0.7050 C.ar  1 <1>  -0.1440 
  8 C       -4.9620     4.5480    -0.0960 C.3   1 <1>  -0.1600 
  9 C       -3.5700     2.5960    -0.1180 C.3   1 <1>  -0.1600 
 10 C        0.1700     2.7880    -0.1100 C.ar  1 <1>  -0.1430 
 11 C       -0.7230     3.8730    -2.0550 C.ar  1 <1>  -0.1500 
 12 C       -5.5350     3.6230    -1.1820 C.3   1 <1>  -0.0800 
 13 C       -4.6410     2.3700    -1.1950 C.3   1 <1>  -0.0800 
 14 C        0.3760     1.6450    -0.8680 C.ar  1 <1>  -0.1500 
 15 C        0.5820     2.7590     1.3560 C.3   1 <1>  -0.0970 
 16 C       -0.5120     2.7300    -2.8040 C.ar  1 <1>  -0.1500 
 17 C       -6.9620     3.1380    -0.8980 C.3   1 <1>  -0.1600 
 18 C       -5.5550     1.1720    -0.9160 C.3   1 <1>  -0.1600 
 19 C        0.0350     1.6110    -2.2070 C.ar  1 <1>  -0.1500 
 20 C       -6.7780     1.7740    -0.2310 C.3   1 <1>   0.4230 
 21 N       -7.9780     0.8820    -0.2880 N.4   1 <1>  -0.9590 
 22 C       -8.5030     0.5960    -1.6650 C.3   1 <1>   0.2630 
 23 C       -9.0760     1.4170     0.5760 C.3   1 <1>   0.2630 
 24 H       -1.1460     5.9320    -0.5660 H     1 <1>   0.0800 
 25 H        0.2680     5.6260     0.3630 H     1 <1>   0.0800 
 26 H       -2.9860     4.5120    -0.8190 H     1 <1>   0.0800 
 27 H       -4.1420     3.4690     2.5790 H     1 <1>   0.0800 
 28 H       -4.2310     5.2170     2.7190 H     1 <1>   0.0800 
 29 H       -2.8910     4.3410     3.4130 H     1 <1>   0.0800 
 30 H       -5.4880     4.3960     0.8260 H     1 <1>   0.0800 
 31 H       -5.0310     5.5830    -0.3820 H     1 <1>   0.0800 
 32 H       -2.6220     2.1910    -0.4230 H     1 <1>   0.0800 
 33 H       -3.8620     2.1470     0.8120 H     1 <1>   0.0800 
 34 H       -1.1440     4.7360    -2.5400 H     1 <1>   0.1500 
 35 H       -5.4840     4.1210    -2.1380 H     1 <1>   0.0800 
 36 H       -4.1590     2.2680    -2.1550 H     1 <1>   0.0800 
 37 H        0.8080     0.7680    -0.4170 H     1 <1>   0.1500 
 38 H        1.2540     1.9430     1.5510 H     1 <1>   0.0800 
 39 H       -0.2850     2.6410     1.9800 H     1 <1>   0.0800 
 40 H        1.0860     3.6700     1.6280 H     1 <1>   0.0800 
 41 H       -0.7690     2.7120    -3.8480 H     1 <1>   0.1500 
 42 H       -7.4690     3.0430    -1.8410 H     1 <1>   0.0800 
 43 H       -7.5010     3.8260    -0.2730 H     1 <1>   0.0800 
 44 H       -5.0710     0.4340    -0.3010 H     1 <1>   0.0800 
 45 H       -5.8150     0.7310    -1.8600 H     1 <1>   0.0800 
 46 H        0.2020     0.7180    -2.7830 H     1 <1>   0.1500 
 47 H       -6.5140     1.9490     0.8000 H     1 <1>   0.0800 
 48 H       -7.6770    -0.0170     0.1160 H     1 <1>   0.4500 
 49 H       -8.8530     1.5010    -2.1320 H     1 <1>   0.0800 
 50 H       -9.3260    -0.0990    -1.6120 H     1 <1>   0.0800 
 51 H       -7.7350     0.1620    -2.2830 H     1 <1>   0.0800 
 52 H       -9.4320     2.3580     0.1900 H     1 <1>   0.0800 
 53 H       -8.7210     1.5690     1.5830 H     1 <1>   0.0800 
 54 H       -9.9010     0.7230     0.6060 H     1 <1>   0.0800 
@<TRIPOS>BOND
  1   1   2  2   
  2   2   3  am  
  3   2   4  1   
  4   3   5  1   
  5   3   6  1   
  6   4   7  1   
  7   4  24  1   
  8   4  25  1   
  9   5   8  1   
 10   5   9  1   
 11   5  26  1   
 12   6  27  1   
 13   6  28  1   
 14   6  29  1   
 15   7  10  ar  
 16   7  11  ar  
 17   8  12  1   
 18   8  30  1   
 19   8  31  1   
 20   9  13  1   
 21   9  32  1   
 22   9  33  1   
 23  10  14  ar  
 24  10  15  1   
 25  11  16  ar  
 26  11  34  1   
 27  12  13  1   
 28  12  17  1   
 29  12  35  1   
 30  13  18  1   
 31  13  36  1   
 32  14  19  ar  
 33  14  37  1   
 34  15  38  1   
 35  15  39  1   
 36  15  40  1   
 37  16  19  ar  
 38  16  41  1   
 39  17  20  1   
 40  17  42  1   
 41  17  43  1   
 42  18  20  1   
 43  18  44  1   
 44  18  45  1   
 45  19  46  1   
 46  20  21  1   
 47  20  47  1   
 48  21  22  1   
 49  21  23  1   
 50  21  48  1   
 51  22  49  1   
 52  22  50  1   
 53  22  51  1   
 54  23  52  1   
 55  23  53  1   
 56  23  54  1   
@<TRIPOS>SUBSTRUCTURE
  1 ****   9 GROUP 4 **** **** 0

# MOE 2024.06 (io_trps.svl 2023.06)
