@<TRIPOS>MOLECULE
NONAME
44 46 1 0 0 
SMALL
USER_CHARGES


@<TRIPOS>ATOM
  1 O       -1.1320     1.0710    -2.3420 O.2   1 <1>  -0.5700 
  2 C       -1.7650     1.3660    -1.3420 C.2   1 <1>   0.7150 
  3 N       -2.7630     0.4990    -0.9260 N.am  1 <1>  -0.6600 
  4 C       -1.4290     2.6010    -0.6570 C.2   1 <1>   0.0550 
  5 C       -2.8760    -0.8780    -1.5220 C.3   1 <1>   0.1400 
  6 C       -3.8360     0.9220     0.0180 C.3   1 <1>   0.1400 
  7 O       -1.8000     2.8650     0.5960 O.3   1 <1>  -0.2800 
  8 C       -0.6960     3.6580    -1.1080 C.2   1 <1>  -0.1500 
  9 C       -3.3810    -1.9160    -0.4890 C.3   1 <1>   0.0000 
 10 C       -5.0810     0.0560    -0.1530 C.3   1 <1>  -0.1600 
 11 C       -1.3350     4.0430     0.9430 C.2   1 <1>  -0.0100 
 12 C       -0.6380     4.5920    -0.0730 C.2   1 <1>  -0.1500 
 13 C       -4.7880    -1.4420     0.0160 C.3   1 <1>   0.2000 
 14 C       -3.6030    -3.2790    -1.1920 C.3   1 <1>   0.1200 
 15 C       -2.3410    -2.0790     0.6720 C.3   1 <1>  -0.0160 
 16 O       -4.9900    -1.7620     1.3490 O.3   1 <1>  -0.6800 
 17 O       -2.5160    -3.6490    -1.9710 O.3   1 <1>  -0.6800 
 18 C       -0.9700    -2.6210     0.2740 C.ar  1 <1>  -0.1440 
 19 C        0.0140    -1.7770    -0.2150 C.ar  1 <1>  -0.1500 
 20 C       -0.6910    -3.9740     0.4110 C.ar  1 <1>  -0.1500 
 21 C        1.2500    -2.2780    -0.5850 C.ar  1 <1>  -0.1500 
 22 C        0.5440    -4.4780     0.0430 C.ar  1 <1>  -0.1500 
 23 C        1.5150    -3.6300    -0.4580 C.ar  1 <1>  -0.1500 
 24 H       -3.5560    -0.8360    -2.3550 H     1 <1>   0.0800 
 25 H       -1.9230    -1.1850    -1.9170 H     1 <1>   0.0800 
 26 H       -3.4710     0.8450     1.0280 H     1 <1>   0.0800 
 27 H       -4.0950     1.9510    -0.1680 H     1 <1>   0.0800 
 28 H       -0.2380     3.7620    -2.0770 H     1 <1>   0.1500 
 29 H       -5.4590     0.2230    -1.1460 H     1 <1>   0.0800 
 30 H       -5.8520     0.3680     0.5290 H     1 <1>   0.0800 
 31 H       -1.5410     4.4200     1.9300 H     1 <1>   0.1500 
 32 H       -0.1340     5.5420    -0.1090 H     1 <1>   0.1500 
 33 H       -5.5580    -1.9670    -0.5230 H     1 <1>   0.0800 
 34 H       -4.4500    -3.2360    -1.8550 H     1 <1>   0.0800 
 35 H       -3.7770    -4.0560    -0.4660 H     1 <1>   0.0800 
 36 H       -2.1940    -1.1360     1.1650 H     1 <1>   0.0800 
 37 H       -2.7360    -2.7530     1.4110 H     1 <1>   0.0800 
 38 H       -4.4110    -1.2220     1.9190 H     1 <1>   0.4000 
 39 H       -1.6850    -3.5920    -1.4430 H     1 <1>   0.4000 
 40 H       -0.1720    -0.7230    -0.3170 H     1 <1>   0.1500 
 41 H       -1.4350    -4.6470     0.8020 H     1 <1>   0.1500 
 42 H        2.0030    -1.6140    -0.9720 H     1 <1>   0.1500 
 43 H        0.7500    -5.5290     0.1470 H     1 <1>   0.1500 
 44 H        2.4760    -4.0190    -0.7470 H     1 <1>   0.1500 
@<TRIPOS>BOND
  1   1   2  2   
  2   2   3  am  
  3   2   4  1   
  4   3   5  1   
  5   3   6  1   
  6   4   7  1   
  7   4   8  2   
  8   5   9  1   
  9   5  24  1   
 10   5  25  1   
 11   6  10  1   
 12   6  26  1   
 13   6  27  1   
 14   7  11  1   
 15   8  12  1   
 16   8  28  1   
 17   9  13  1   
 18   9  14  1   
 19   9  15  1   
 20  10  13  1   
 21  10  29  1   
 22  10  30  1   
 23  11  12  2   
 24  11  31  1   
 25  12  32  1   
 26  13  16  1   
 27  13  33  1   
 28  14  17  1   
 29  14  34  1   
 30  14  35  1   
 31  15  18  1   
 32  15  36  1   
 33  15  37  1   
 34  16  38  1   
 35  17  39  1   
 36  18  19  ar  
 37  18  20  ar  
 38  19  21  ar  
 39  19  40  1   
 40  20  22  ar  
 41  20  41  1   
 42  21  23  ar  
 43  21  42  1   
 44  22  23  ar  
 45  22  43  1   
 46  23  44  1   
@<TRIPOS>SUBSTRUCTURE
  1 ****   3 GROUP 4 **** **** 0

# MOE 2024.06 (io_trps.svl 2023.06)
