@<TRIPOS>MOLECULE
NONAME
51 55 1 0 0 
SMALL
USER_CHARGES


@<TRIPOS>ATOM
  1 O       -0.4430    -1.1090    -0.9380 O.3   1 <1>  -0.0190 
  2 N       -1.5150    -1.7780    -1.1610 N.2   1 <1>  -0.4100 
  3 C        0.1700    -1.5660     0.1220 C.2   1 <1>   0.4250 
  4 C       -1.5250    -2.6410    -0.2170 C.2   1 <1>   0.3350 
  5 N       -0.4920    -2.5550     0.6240 N.2   1 <1>  -0.5650 
  6 C        1.4080    -0.9780     0.5880 C.ar  1 <1>   0.0530 
  7 C       -2.6250    -3.6900    -0.0270 C.3   1 <1>   0.5240 
  8 C        2.0500    -1.4670     1.7270 C.ar  1 <1>  -0.1500 
  9 C        2.0080     0.0960    -0.0740 C.ar  1 <1>  -0.1500 
 10 N       -3.9220    -3.2530    -0.6520 N.4   1 <1>  -0.9590 
 11 C        3.2320    -0.9130     2.1850 C.ar  1 <1>  -0.1500 
 12 C        3.1900     0.6530     0.3790 C.ar  1 <1>  -0.1500 
 13 C       -4.5060    -2.0870     0.0980 C.3   1 <1>   0.3430 
 14 C       -4.9020    -4.3670    -0.7870 C.3   1 <1>   0.3430 
 15 C        3.8050     0.1500     1.5110 C.ar  1 <1>  -0.1500 
 16 C       -5.7480    -1.5190    -0.6080 C.3   1 <1>   0.1440 
 17 C       -6.1400    -3.8700    -1.5400 C.3   1 <1>  -0.1600 
 18 C       -6.3460    -0.4510     0.2740 C.ar  1 <1>   0.1670 
 19 C       -6.7770    -2.6400    -0.8650 C.3   1 <1>  -0.1600 
 20 C       -5.4010    -0.7320    -1.9020 C.3   1 <1>  -0.1600 
 21 N       -6.5660    -0.5890     1.5610 N.ar  1 <1>  -0.6200 
 22 C       -6.6200     0.6870    -0.4190 C.ar  1 <1>  -0.1430 
 23 C       -6.2470     0.5570    -1.8750 C.3   1 <1>  -0.0170 
 24 C       -7.1000     0.4830     2.1340 C.ar  1 <1>   0.4770 
 25 C       -7.1660     1.7380     0.2760 C.ar  1 <1>   0.1600 
 26 N       -7.4100     1.6400     1.5660 N.ar  1 <1>  -0.6200 
 27 C       -7.3860     0.3810     3.6130 C.3   1 <1>  -0.0970 
 28 H       -2.7630    -3.8630     1.0260 H     1 <1>   0.0800 
 29 H       -2.2900    -4.6080    -0.4780 H     1 <1>   0.0800 
 30 H        1.6190    -2.2930     2.2640 H     1 <1>   0.1500 
 31 H        1.5510     0.5060    -0.9570 H     1 <1>   0.1500 
 32 H       -3.6760    -2.9080    -1.5920 H     1 <1>   0.4500 
 33 H        3.7080    -1.3080     3.0660 H     1 <1>   0.1500 
 34 H        3.6350     1.4810    -0.1470 H     1 <1>   0.1500 
 35 H       -3.7760    -1.3000     0.1990 H     1 <1>   0.0800 
 36 H       -4.7930    -2.4000     1.0890 H     1 <1>   0.0800 
 37 H       -5.1950    -4.7170     0.1900 H     1 <1>   0.0800 
 38 H       -4.4610    -5.1900    -1.3270 H     1 <1>   0.0800 
 39 H        4.7250     0.5830     1.8660 H     1 <1>   0.1500 
 40 H       -6.8660    -4.6640    -1.5750 H     1 <1>   0.0800 
 41 H       -5.8730    -3.6440    -2.5570 H     1 <1>   0.0800 
 42 H       -7.5890    -2.2660    -1.4670 H     1 <1>   0.0800 
 43 H       -7.1990    -2.9450     0.0780 H     1 <1>   0.0800 
 44 H       -5.5840    -1.2930    -2.8000 H     1 <1>   0.0800 
 45 H       -4.3630    -0.4450    -1.8850 H     1 <1>   0.0800 
 46 H       -7.1400     0.4430    -2.4670 H     1 <1>   0.0800 
 47 H       -5.6880     1.4090    -2.2210 H     1 <1>   0.0800 
 48 H       -7.4040     2.6630    -0.2220 H     1 <1>   0.1500 
 49 H       -7.4280    -0.6470     3.9200 H     1 <1>   0.0800 
 50 H       -8.3280     0.8470     3.8330 H     1 <1>   0.0800 
 51 H       -6.6100     0.8830     4.1600 H     1 <1>   0.0800 
@<TRIPOS>BOND
  1   1   2  1   
  2   1   3  1   
  3   2   4  2   
  4   3   5  2   
  5   3   6  1   
  6   4   5  1   
  7   4   7  1   
  8   6   8  ar  
  9   6   9  ar  
 10   7  10  1   
 11   7  28  1   
 12   7  29  1   
 13   8  11  ar  
 14   8  30  1   
 15   9  12  ar  
 16   9  31  1   
 17  10  13  1   
 18  10  14  1   
 19  10  32  1   
 20  11  15  ar  
 21  11  33  1   
 22  12  15  ar  
 23  12  34  1   
 24  13  16  1   
 25  13  35  1   
 26  13  36  1   
 27  14  17  1   
 28  14  37  1   
 29  14  38  1   
 30  15  39  1   
 31  16  18  1   
 32  16  19  1   
 33  16  20  1   
 34  17  19  1   
 35  17  40  1   
 36  17  41  1   
 37  18  21  ar  
 38  18  22  ar  
 39  19  42  1   
 40  19  43  1   
 41  20  23  1   
 42  20  44  1   
 43  20  45  1   
 44  21  24  ar  
 45  22  23  1   
 46  22  25  ar  
 47  23  46  1   
 48  23  47  1   
 49  24  26  ar  
 50  24  27  1   
 51  25  26  ar  
 52  25  48  1   
 53  27  49  1   
 54  27  50  1   
 55  27  51  1   
@<TRIPOS>SUBSTRUCTURE
  1 ****  13 GROUP 4 **** **** 0

# MOE 2024.06 (io_trps.svl 2023.06)
