@<TRIPOS>MOLECULE
NONAME
60 63 1 0 0 
SMALL
USER_CHARGES


@<TRIPOS>ATOM
  1 O       -6.0530     0.5910     0.1050 O.2   1 <1>  -0.5700 
  2 C       -4.9030     0.9550     0.0130 C.2   1 <1>   0.5690 
  3 N       -3.8570     0.1190     0.2940 N.am  1 <1>  -0.6600 
  4 C       -4.6520     2.3870    -0.4260 C.3   1 <1>  -0.0990 
  5 C       -2.4400     0.5570     0.3240 C.3   1 <1>   0.1400 
  6 C       -4.0980    -1.3240     0.5630 C.3   1 <1>   0.1400 
  7 C       -3.8680     2.4850    -1.7460 C.3   1 <1>  -0.1600 
  8 C       -1.9460     0.8830    -1.0880 C.3   1 <1>  -0.1600 
  9 C       -4.4220    -1.5240     2.0410 C.3   1 <1>  -0.0990 
 10 C       -2.3550     2.2810    -1.5810 C.3   1 <1>  -0.1600 
 11 C       -4.6770    -2.9870     2.3240 C.2   1 <1>   0.5690 
 12 O       -3.7320    -3.6620     2.6580 O.2   1 <1>  -0.5700 
 13 N       -5.9320    -3.5170     2.1960 N.am  1 <1>  -0.6600 
 14 C       -7.1090    -2.8650     1.5770 C.3   1 <1>   0.1400 
 15 C       -6.2330    -4.9410     2.4290 C.3   1 <1>   0.1400 
 16 C       -7.8530    -3.9980     0.8560 C.3   1 <1>  -0.0800 
 17 C       -7.1750    -5.3250     1.2870 C.3   1 <1>  -0.0800 
 18 C       -7.9870    -3.7870    -0.6720 C.3   1 <1>   0.4240 
 19 C       -6.4010    -6.0300     0.1560 C.3   1 <1>  -0.1600 
 20 O       -6.7610    -3.4100    -1.1920 O.3   1 <1>  -0.6800 
 21 C       -9.0240    -2.6830    -0.9690 C.ar  1 <1>  -0.1440 
 22 C       -8.3150    -5.1350    -1.3390 C.3   1 <1>  -0.1600 
 23 C       -7.2410    -6.2250    -1.1210 C.3   1 <1>  -0.1600 
 24 C       -8.6310    -1.3700    -1.2160 C.ar  1 <1>  -0.1500 
 25 C      -10.3890    -2.9600    -0.9670 C.ar  1 <1>  -0.1500 
 26 C       -9.5610    -0.3750    -1.4600 C.ar  1 <1>  -0.1500 
 27 C      -11.3230    -1.9680    -1.2150 C.ar  1 <1>  -0.1500 
 28 C      -10.9100    -0.6730    -1.4630 C.ar  1 <1>  -0.1500 
 29 H       -5.6100     2.8550    -0.5660 H     1 <1>   0.0800 
 30 H       -4.1490     2.9200     0.3580 H     1 <1>   0.0800 
 31 H       -2.3370     1.4160     0.9650 H     1 <1>   0.0800 
 32 H       -1.8330    -0.2300     0.7390 H     1 <1>   0.0800 
 33 H       -4.9180    -1.6660    -0.0460 H     1 <1>   0.0800 
 34 H       -3.2310    -1.9030     0.2920 H     1 <1>   0.0800 
 35 H       -4.2600     1.7700    -2.4500 H     1 <1>   0.0800 
 36 H       -4.0280     3.4650    -2.1610 H     1 <1>   0.0800 
 37 H       -0.8710     0.8440    -1.0770 H     1 <1>   0.0800 
 38 H       -2.2850     0.1270    -1.7760 H     1 <1>   0.0800 
 39 H       -5.2830    -0.9450     2.3160 H     1 <1>   0.0800 
 40 H       -3.5910    -1.2010     2.6390 H     1 <1>   0.0800 
 41 H       -1.9670     3.0250    -0.9050 H     1 <1>   0.0800 
 42 H       -1.8880     2.4490    -2.5360 H     1 <1>   0.0800 
 43 H       -7.7300    -2.4490     2.3510 H     1 <1>   0.0800 
 44 H       -6.8240    -2.0720     0.9080 H     1 <1>   0.0800 
 45 H       -5.3380    -5.5400     2.4400 H     1 <1>   0.0800 
 46 H       -6.7340    -5.0370     3.3770 H     1 <1>   0.0800 
 47 H       -8.8520    -4.0120     1.2530 H     1 <1>   0.0800 
 48 H       -7.9180    -6.0100     1.6570 H     1 <1>   0.0800 
 49 H       -5.5230    -5.4530    -0.0780 H     1 <1>   0.0800 
 50 H       -6.0530    -6.9890     0.5000 H     1 <1>   0.0800 
 51 H       -6.1270    -4.1150    -0.9760 H     1 <1>   0.4000 
 52 H       -9.2330    -5.5050    -0.9250 H     1 <1>   0.0800 
 53 H       -8.4820    -4.9820    -2.3920 H     1 <1>   0.0800 
 54 H       -7.7310    -7.1830    -1.0830 H     1 <1>   0.0800 
 55 H       -6.5770    -6.2440    -1.9680 H     1 <1>   0.0800 
 56 H       -7.5880    -1.1000    -1.2180 H     1 <1>   0.1500 
 57 H      -10.7520    -3.9510    -0.7690 H     1 <1>   0.1500 
 58 H       -9.2240     0.6300    -1.6450 H     1 <1>   0.1500 
 59 H      -12.3730    -2.2040    -1.2140 H     1 <1>   0.1500 
 60 H      -11.6330     0.1000    -1.6550 H     1 <1>   0.1500 
@<TRIPOS>BOND
  1   1   2  2   
  2   2   3  am  
  3   2   4  1   
  4   3   5  1   
  5   3   6  1   
  6   4   7  1   
  7   4  29  1   
  8   4  30  1   
  9   5   8  1   
 10   5  31  1   
 11   5  32  1   
 12   6   9  1   
 13   6  33  1   
 14   6  34  1   
 15   7  10  1   
 16   7  35  1   
 17   7  36  1   
 18   8  10  1   
 19   8  37  1   
 20   8  38  1   
 21   9  11  1   
 22   9  39  1   
 23   9  40  1   
 24  10  41  1   
 25  10  42  1   
 26  11  12  2   
 27  11  13  am  
 28  13  14  1   
 29  13  15  1   
 30  14  16  1   
 31  14  43  1   
 32  14  44  1   
 33  15  17  1   
 34  15  45  1   
 35  15  46  1   
 36  16  17  1   
 37  16  18  1   
 38  16  47  1   
 39  17  19  1   
 40  17  48  1   
 41  18  20  1   
 42  18  21  1   
 43  18  22  1   
 44  19  23  1   
 45  19  49  1   
 46  19  50  1   
 47  20  51  1   
 48  21  24  ar  
 49  21  25  ar  
 50  22  23  1   
 51  22  52  1   
 52  22  53  1   
 53  23  54  1   
 54  23  55  1   
 55  24  26  ar  
 56  24  56  1   
 57  25  27  ar  
 58  25  57  1   
 59  26  28  ar  
 60  26  58  1   
 61  27  28  ar  
 62  27  59  1   
 63  28  60  1   
@<TRIPOS>SUBSTRUCTURE
  1 ****  20 GROUP 4 **** **** 0

# MOE 2024.06 (io_trps.svl 2023.06)
