@<TRIPOS>MOLECULE
NONAME
43 45 1 0 0 
SMALL
USER_CHARGES


@<TRIPOS>ATOM
  1 CL      -1.0940     1.1540     1.8060 Cl    1 <1>  -0.1770 
  2 C       -0.6300     2.5570     0.8800 C.ar  1 <1>   0.1770 
  3 C        0.4430     3.3330     1.2810 C.ar  1 <1>   0.1600 
  4 C       -1.3340     2.8940    -0.2520 C.ar  1 <1>  -0.1500 
  5 N        0.8650     4.4100     0.6380 N.ar  1 <1>  -0.6200 
  6 C       -0.9030     4.0170    -0.9250 C.ar  1 <1>  -0.1500 
  7 C        0.1930     4.7650    -0.4780 C.ar  1 <1>   0.3960 
  8 C        0.5790     5.9550    -1.2460 C.2   1 <1>   0.5440 
  9 O       -0.3040     6.6600    -1.7090 O.2   1 <1>  -0.5700 
 10 N        1.8910     6.3280    -1.4990 N.am  1 <1>  -0.6600 
 11 C        3.0960     5.5190    -1.1400 C.3   1 <1>   0.1400 
 12 C        2.2220     7.6400    -2.1180 C.3   1 <1>   0.1400 
 13 C        3.7780     6.0360     0.1360 C.3   1 <1>   0.1400 
 14 C        2.2600     8.7520    -1.0640 C.3   1 <1>  -0.1600 
 15 N        4.1410     7.4890     0.0370 N.am  1 <1>  -0.6600 
 16 C        2.9810     8.4040     0.2490 C.3   1 <1>   0.1400 
 17 C        5.4490     7.8980    -0.1820 C.2   1 <1>   0.5440 
 18 O        6.2840     7.0260    -0.3600 O.2   1 <1>  -0.5700 
 19 C        5.9000     9.2900    -0.1750 C.ar  1 <1>   0.3960 
 20 N        5.1990    10.2740    -0.7660 N.ar  1 <1>  -0.6200 
 21 C        7.1130     9.5660     0.4670 C.ar  1 <1>   0.1600 
 22 C        5.7680    11.4600    -0.6610 C.ar  1 <1>   0.1600 
 23 N        7.6790    10.7570     0.5800 N.ar  1 <1>  -0.6200 
 24 C        6.9720    11.7030    -0.0060 C.ar  1 <1>   0.1670 
 25 C        7.5480    13.1020     0.0670 C.3   1 <1>  -0.0970 
 26 H        0.9710     3.0450     2.1730 H     1 <1>   0.1500 
 27 H       -2.1740     2.3090    -0.5830 H     1 <1>   0.1500 
 28 H       -1.4180     4.3370    -1.8150 H     1 <1>   0.1500 
 29 H        3.8060     5.5530    -1.9480 H     1 <1>   0.0800 
 30 H        2.8260     4.4870    -1.0060 H     1 <1>   0.0800 
 31 H        1.4950     7.8840    -2.8750 H     1 <1>   0.0800 
 32 H        3.1830     7.5780    -2.6010 H     1 <1>   0.0800 
 33 H        4.6560     5.4430     0.3200 H     1 <1>   0.0800 
 34 H        3.1210     5.8860     0.9740 H     1 <1>   0.0800 
 35 H        1.2500     9.0360    -0.8300 H     1 <1>   0.0800 
 36 H        2.7240     9.6130    -1.5050 H     1 <1>   0.0800 
 37 H        2.2770     7.9210     0.9060 H     1 <1>   0.0800 
 38 H        3.3000     9.3060     0.7410 H     1 <1>   0.0800 
 39 H        7.6390     8.7390     0.9120 H     1 <1>   0.1500 
 40 H        5.2530    12.2870    -1.1170 H     1 <1>   0.1500 
 41 H        6.9150    13.8130    -0.4330 H     1 <1>   0.0800 
 42 H        8.5180    13.1150    -0.3960 H     1 <1>   0.0800 
 43 H        7.6540    13.3940     1.0960 H     1 <1>   0.0800 
@<TRIPOS>BOND
  1   1   2  1   
  2   2   3  ar  
  3   2   4  ar  
  4   3   5  ar  
  5   3  26  1   
  6   4   6  ar  
  7   4  27  1   
  8   5   7  ar  
  9   6   7  ar  
 10   6  28  1   
 11   7   8  1   
 12   8   9  2   
 13   8  10  am  
 14  10  11  1   
 15  10  12  1   
 16  11  13  1   
 17  11  29  1   
 18  11  30  1   
 19  12  14  1   
 20  12  31  1   
 21  12  32  1   
 22  13  15  1   
 23  13  33  1   
 24  13  34  1   
 25  14  16  1   
 26  14  35  1   
 27  14  36  1   
 28  15  16  1   
 29  15  17  am  
 30  16  37  1   
 31  16  38  1   
 32  17  18  2   
 33  17  19  1   
 34  19  20  ar  
 35  19  21  ar  
 36  20  22  ar  
 37  21  23  ar  
 38  21  39  1   
 39  22  24  ar  
 40  22  40  1   
 41  23  24  ar  
 42  24  25  1   
 43  25  41  1   
 44  25  42  1   
 45  25  43  1   
@<TRIPOS>SUBSTRUCTURE
  1 ****  15 GROUP 4 **** **** 0

# MOE 2024.06 (io_trps.svl 2023.06)
