@<TRIPOS>MOLECULE
NONAME
55 57 1 0 0 
SMALL
USER_CHARGES


@<TRIPOS>ATOM
  1 O       -0.7670     0.1700     0.7910 O.2   1 <1>  -0.5700 
  2 C       -1.5620     0.8750     0.2140 C.2   1 <1>   0.5690 
  3 N       -2.6000     0.3170    -0.4900 N.am  1 <1>  -0.6600 
  4 C       -1.4130     2.3860     0.3060 C.3   1 <1>  -0.0990 
  5 C       -2.6830    -1.1590    -0.6670 C.3   1 <1>   0.1400 
  6 C       -3.8310     1.0430    -0.9100 C.3   1 <1>   0.1400 
  7 C       -0.0560     2.8460     0.8570 C.3   1 <1>  -0.0160 
  8 C       -3.8500    -1.7080     0.1820 C.3   1 <1>   0.4230 
  9 C       -5.0030     0.5210    -0.0670 C.3   1 <1>  -0.1600 
 10 C        0.0110     4.3690     0.8700 C.ar  1 <1>  -0.1440 
 11 N       -3.9200    -3.2300     0.2260 N.4   1 <1>  -0.9590 
 12 C       -5.2050    -1.0200    -0.1670 C.3   1 <1>   0.0000 
 13 C        0.5300     5.1090    -0.1910 C.ar  1 <1>  -0.1440 
 14 C       -0.4770     5.0310     1.9870 C.ar  1 <1>  -0.1500 
 15 C       -5.2440    -3.7690     0.6790 C.3   1 <1>   0.3430 
 16 C       -3.4830    -3.9350    -1.0250 C.3   1 <1>   0.2630 
 17 C       -6.2810    -1.4500     0.8730 C.3   1 <1>  -0.1600 
 18 C       -5.6520    -1.4140    -1.6050 C.3   1 <1>   0.1200 
 19 C        0.5480     6.4940    -0.1110 C.ar  1 <1>  -0.1500 
 20 C        1.0880     4.4470    -1.4440 C.3   1 <1>  -0.0970 
 21 C       -0.4560     6.4120     2.0580 C.ar  1 <1>  -0.1500 
 22 C       -5.9580    -2.7740     1.5930 C.3   1 <1>  -0.1600 
 23 O       -6.7310    -0.6570    -2.0310 O.3   1 <1>  -0.6800 
 24 C        0.0580     7.1450     1.0060 C.ar  1 <1>  -0.1500 
 25 H       -1.5410     2.8030    -0.6750 H     1 <1>   0.0800 
 26 H       -2.1910     2.7680     0.9390 H     1 <1>   0.0800 
 27 H       -2.8220    -1.3680    -1.7110 H     1 <1>   0.0800 
 28 H       -1.7630    -1.6230    -0.3540 H     1 <1>   0.0800 
 29 H       -3.7320     2.1040    -0.7640 H     1 <1>   0.0800 
 30 H       -4.0130     0.8750    -1.9590 H     1 <1>   0.0800 
 31 H        0.7420     2.4320     0.2680 H     1 <1>   0.0800 
 32 H        0.0710     2.4730     1.8590 H     1 <1>   0.0800 
 33 H       -3.6280    -1.3920     1.1880 H     1 <1>   0.0800 
 34 H       -4.8090     0.8000     0.9550 H     1 <1>   0.0800 
 35 H       -5.8980     1.0420    -0.3610 H     1 <1>   0.0800 
 36 H       -3.2440    -3.4920     0.9600 H     1 <1>   0.4500 
 37 H       -0.8780     4.4720     2.8140 H     1 <1>   0.1500 
 38 H       -5.8730    -3.9590    -0.1750 H     1 <1>   0.0800 
 39 H       -5.1000    -4.7040     1.1980 H     1 <1>   0.0800 
 40 H       -4.1230    -3.6730    -1.8510 H     1 <1>   0.0800 
 41 H       -3.5250    -5.0030    -0.8840 H     1 <1>   0.0800 
 42 H       -2.4680    -3.6690    -1.2750 H     1 <1>   0.0800 
 43 H       -6.3980    -0.6950     1.6320 H     1 <1>   0.0800 
 44 H       -7.2410    -1.5390     0.3950 H     1 <1>   0.0800 
 45 H       -5.9440    -2.4470    -1.6610 H     1 <1>   0.0800 
 46 H       -4.8680    -1.2440    -2.3200 H     1 <1>   0.0800 
 47 H        0.9470     7.0780    -0.9210 H     1 <1>   0.1500 
 48 H        1.3330     5.1810    -2.1910 H     1 <1>   0.0800 
 49 H        0.3660     3.7720    -1.8640 H     1 <1>   0.0800 
 50 H        1.9820     3.9020    -1.2010 H     1 <1>   0.0800 
 51 H       -0.8370     6.9140     2.9300 H     1 <1>   0.1500 
 52 H       -6.8740    -3.2140     1.9480 H     1 <1>   0.0800 
 53 H       -5.3440    -2.5870     2.4580 H     1 <1>   0.0800 
 54 H       -7.5340    -0.8190    -1.4970 H     1 <1>   0.4000 
 55 H        0.0770     8.2190     1.0560 H     1 <1>   0.1500 
@<TRIPOS>BOND
  1   1   2  2   
  2   2   3  am  
  3   2   4  1   
  4   3   5  1   
  5   3   6  1   
  6   4   7  1   
  7   4  25  1   
  8   4  26  1   
  9   5   8  1   
 10   5  27  1   
 11   5  28  1   
 12   6   9  1   
 13   6  29  1   
 14   6  30  1   
 15   7  10  1   
 16   7  31  1   
 17   7  32  1   
 18   8  11  1   
 19   8  12  1   
 20   8  33  1   
 21   9  12  1   
 22   9  34  1   
 23   9  35  1   
 24  10  13  ar  
 25  10  14  ar  
 26  11  15  1   
 27  11  16  1   
 28  11  36  1   
 29  12  17  1   
 30  12  18  1   
 31  13  19  ar  
 32  13  20  1   
 33  14  21  ar  
 34  14  37  1   
 35  15  22  1   
 36  15  38  1   
 37  15  39  1   
 38  16  40  1   
 39  16  41  1   
 40  16  42  1   
 41  17  22  1   
 42  17  43  1   
 43  17  44  1   
 44  18  23  1   
 45  18  45  1   
 46  18  46  1   
 47  19  24  ar  
 48  19  47  1   
 49  20  48  1   
 50  20  49  1   
 51  20  50  1   
 52  21  24  ar  
 53  21  51  1   
 54  22  52  1   
 55  22  53  1   
 56  23  54  1   
 57  24  55  1   
@<TRIPOS>SUBSTRUCTURE
  1 ****   3 GROUP 4 **** **** 0

# MOE 2024.06 (io_trps.svl 2023.06)
