@<TRIPOS>MOLECULE
NONAME
49 51 1 0 0 
SMALL
USER_CHARGES


@<TRIPOS>ATOM
  1 F       -2.3760    -0.5700     1.6560 F     1 <1>  -0.3400 
  2 C       -3.5120     0.0930     1.8070 C.3   1 <1>   1.1640 
  3 F       -3.4430     0.6600     3.0050 F     1 <1>  -0.3400 
  4 F       -4.4770    -0.8180     1.9110 F     1 <1>  -0.3400 
  5 C       -3.7630     1.1200     0.6860 C.ar  1 <1>  -0.1440 
  6 C       -4.2190     0.7120    -0.5780 C.ar  1 <1>   0.0860 
  7 C       -3.5320     2.4730     0.9220 C.ar  1 <1>  -0.1500 
  8 C       -4.4840    -0.6740    -0.9180 C.2   1 <1>   0.5440 
  9 C       -4.4260     1.6860    -1.5550 C.ar  1 <1>  -0.1500 
 10 C       -3.7500     3.4190    -0.0620 C.ar  1 <1>  -0.1500 
 11 O       -3.5810    -1.4840    -0.8690 O.2   1 <1>  -0.5700 
 12 N       -5.7460    -1.1250    -1.2490 N.am  1 <1>  -0.6600 
 13 C       -4.1990     3.0240    -1.3050 C.ar  1 <1>  -0.1500 
 14 C       -5.9670    -2.5660    -1.5410 C.3   1 <1>   0.1400 
 15 C       -6.9970    -0.3960    -0.8980 C.3   1 <1>   0.1400 
 16 C       -6.5040    -3.2370    -0.2600 C.3   1 <1>   0.4230 
 17 C       -7.6020    -1.0450     0.3550 C.3   1 <1>  -0.1600 
 18 N       -6.5440    -4.7570    -0.3280 N.4   1 <1>  -0.9590 
 19 C       -7.8330    -2.5810     0.2280 C.3   1 <1>   0.0000 
 20 C       -7.4210    -5.3920     0.7090 C.3   1 <1>   0.3430 
 21 C       -6.8390    -5.3370    -1.6790 C.3   1 <1>   0.2630 
 22 C       -8.1970    -3.1490     1.6320 C.3   1 <1>  -0.1600 
 23 C       -8.9760    -2.8700    -0.7870 C.3   1 <1>   0.1200 
 24 C       -7.5360    -4.5050     1.9470 C.3   1 <1>  -0.1600 
 25 O      -10.1210    -2.1510    -0.4900 O.3   1 <1>  -0.6800 
 26 H       -3.1750     2.8140     1.8810 H     1 <1>   0.1500 
 27 H       -4.7670     1.3830    -2.5310 H     1 <1>   0.1500 
 28 H       -3.5670     4.4620     0.1390 H     1 <1>   0.1500 
 29 H       -4.3670     3.7570    -2.0770 H     1 <1>   0.1500 
 30 H       -6.6590    -2.6510    -2.3580 H     1 <1>   0.0800 
 31 H       -5.0430    -3.0300    -1.8390 H     1 <1>   0.0800 
 32 H       -6.7990     0.6440    -0.7060 H     1 <1>   0.0800 
 33 H       -7.6900    -0.4490    -1.7220 H     1 <1>   0.0800 
 34 H       -5.7770    -2.9940     0.4990 H     1 <1>   0.0800 
 35 H       -6.9320    -0.8440     1.1710 H     1 <1>   0.0800 
 36 H       -8.5220    -0.5390     0.5940 H     1 <1>   0.0800 
 37 H       -5.5800    -5.0380    -0.0920 H     1 <1>   0.4500 
 38 H       -8.4100    -5.5440     0.3070 H     1 <1>   0.0800 
 39 H       -7.0230    -6.3560     0.9850 H     1 <1>   0.0800 
 40 H       -7.8200    -5.0400    -2.0130 H     1 <1>   0.0800 
 41 H       -6.8020    -6.4140    -1.6390 H     1 <1>   0.0800 
 42 H       -6.1120    -5.0020    -2.4020 H     1 <1>   0.0800 
 43 H       -7.9010    -2.4630     2.4090 H     1 <1>   0.0800 
 44 H       -9.2650    -3.2540     1.7240 H     1 <1>   0.0800 
 45 H       -9.2450    -3.9110    -0.7930 H     1 <1>   0.0800 
 46 H       -8.6960    -2.5870    -1.7860 H     1 <1>   0.0800 
 47 H       -8.1170    -5.0150     2.6970 H     1 <1>   0.0800 
 48 H       -6.5540    -4.3510     2.3630 H     1 <1>   0.0800 
 49 H      -10.4820    -2.3740     0.3910 H     1 <1>   0.4000 
@<TRIPOS>BOND
  1   1   2  1   
  2   2   3  1   
  3   2   4  1   
  4   2   5  1   
  5   5   6  ar  
  6   5   7  ar  
  7   6   8  1   
  8   6   9  ar  
  9   7  10  ar  
 10   7  26  1   
 11   8  11  2   
 12   8  12  am  
 13   9  13  ar  
 14   9  27  1   
 15  10  13  ar  
 16  10  28  1   
 17  12  14  1   
 18  12  15  1   
 19  13  29  1   
 20  14  16  1   
 21  14  30  1   
 22  14  31  1   
 23  15  17  1   
 24  15  32  1   
 25  15  33  1   
 26  16  18  1   
 27  16  19  1   
 28  16  34  1   
 29  17  19  1   
 30  17  35  1   
 31  17  36  1   
 32  18  20  1   
 33  18  21  1   
 34  18  37  1   
 35  19  22  1   
 36  19  23  1   
 37  20  24  1   
 38  20  38  1   
 39  20  39  1   
 40  21  40  1   
 41  21  41  1   
 42  21  42  1   
 43  22  24  1   
 44  22  43  1   
 45  22  44  1   
 46  23  25  1   
 47  23  45  1   
 48  23  46  1   
 49  24  47  1   
 50  24  48  1   
 51  25  49  1   
@<TRIPOS>SUBSTRUCTURE
  1 ****  12 GROUP 4 **** **** 0

# MOE 2024.06 (io_trps.svl 2023.06)
