@<TRIPOS>MOLECULE
NONAME
52 55 1 0 0 
SMALL
USER_CHARGES


@<TRIPOS>ATOM
  1 O       -2.4710     0.7880    -2.3530 O.2   1 <1>  -0.5700 
  2 C       -2.1840     0.8700    -1.1730 C.2   1 <1>   0.5440 
  3 N       -1.9720    -0.2910    -0.4900 N.am  1 <1>  -0.7300 
  4 C       -2.1010     2.1510    -0.4900 C.ar  1 <1>   0.0860 
  5 C       -1.9350    -1.6500    -1.0750 C.3   1 <1>   0.2200 
  6 C       -0.9980     2.4530     0.3280 C.ar  1 <1>   0.0820 
  7 C       -3.1150     3.1180    -0.6090 C.ar  1 <1>  -0.1440 
  8 C       -3.0880    -2.5010    -0.5630 C.3   1 <1>  -0.0800 
  9 C       -0.7450    -2.4030    -0.4970 C.3   1 <1>   0.1200 
 10 O       -0.0180     1.5210     0.4580 O.3   1 <1>  -0.3630 
 11 C       -0.9170     3.6790     0.9840 C.ar  1 <1>  -0.1500 
 12 C       -3.0150     4.3310     0.0490 C.ar  1 <1>  -0.1500 
 13 C       -4.3580     2.8710    -1.4590 C.3   1 <1>  -0.0970 
 14 C       -2.5580    -2.9910     0.7900 C.3   1 <1>   0.1200 
 15 C       -4.4480    -1.7740    -0.4910 C.3   1 <1>  -0.0170 
 16 O       -1.1650    -2.8700     0.7510 O.3   1 <1>  -0.5600 
 17 C        1.1690     1.7440     1.1890 C.3   1 <1>   0.0400 
 18 C       -1.9210     4.6130     0.8440 C.ar  1 <1>  -0.1500 
 19 C       -5.6630    -2.6210    -0.0940 C.ar  1 <1>  -0.1440 
 20 C       -6.8970    -1.9850     0.1880 C.ar  1 <1>   0.0000 
 21 C       -5.6350    -3.9850     0.0010 C.ar  1 <1>  -0.1500 
 22 C       -7.9930    -2.7970     0.5720 C.ar  1 <1>   0.3100 
 23 C       -7.1120    -0.5880     0.1070 C.ar  1 <1>  -0.1500 
 24 C       -6.7800    -4.6950     0.3820 C.ar  1 <1>   0.1600 
 25 N       -7.9180    -4.1470     0.6650 N.ar  1 <1>  -0.6200 
 26 C       -9.2230    -2.1880     0.8690 C.ar  1 <1>  -0.1500 
 27 C       -8.3240    -0.0260     0.4010 C.ar  1 <1>  -0.1500 
 28 C       -9.3950    -0.8330     0.7890 C.ar  1 <1>  -0.1500 
 29 H       -1.5540    -0.2220     0.4420 H     1 <1>   0.3700 
 30 H       -1.9000    -1.6030    -2.1510 H     1 <1>   0.0800 
 31 H       -3.1760    -3.3450    -1.2230 H     1 <1>   0.0800 
 32 H        0.1240    -1.7790    -0.3800 H     1 <1>   0.0800 
 33 H       -0.5060    -3.2580    -1.1040 H     1 <1>   0.0800 
 34 H       -0.0820     3.9270     1.6100 H     1 <1>   0.1500 
 35 H       -3.7910     5.0710    -0.0500 H     1 <1>   0.1500 
 36 H       -5.1120     3.6140    -1.2760 H     1 <1>   0.0800 
 37 H       -4.7770     1.9060    -1.2390 H     1 <1>   0.0800 
 38 H       -4.0970     2.9010    -2.5020 H     1 <1>   0.0800 
 39 H       -2.8120    -4.0190     0.9810 H     1 <1>   0.0800 
 40 H       -2.9140    -2.3740     1.5970 H     1 <1>   0.0800 
 41 H       -4.6450    -1.3290    -1.4510 H     1 <1>   0.0800 
 42 H       -4.3590    -0.9740     0.2230 H     1 <1>   0.0800 
 43 H        1.7820     0.8650     1.1060 H     1 <1>   0.0800 
 44 H        0.9180     1.9160     2.2210 H     1 <1>   0.0800 
 45 H        1.6840     2.5900     0.7690 H     1 <1>   0.0800 
 46 H       -1.8560     5.5610     1.3510 H     1 <1>   0.1500 
 47 H       -4.7580    -4.5650    -0.2090 H     1 <1>   0.1500 
 48 H       -6.3070     0.0550    -0.1950 H     1 <1>   0.1500 
 49 H       -6.7080    -5.7670     0.4450 H     1 <1>   0.1500 
 50 H      -10.0320    -2.8310     1.1620 H     1 <1>   0.1500 
 51 H       -8.4690     1.0390     0.3360 H     1 <1>   0.1500 
 52 H      -10.3450    -0.3810     1.0190 H     1 <1>   0.1500 
@<TRIPOS>BOND
  1   1   2  2   
  2   2   3  am  
  3   2   4  1   
  4   3   5  1   
  5   3  29  1   
  6   4   6  ar  
  7   4   7  ar  
  8   5   8  1   
  9   5   9  1   
 10   5  30  1   
 11   6  10  1   
 12   6  11  ar  
 13   7  12  ar  
 14   7  13  1   
 15   8  14  1   
 16   8  15  1   
 17   8  31  1   
 18   9  16  1   
 19   9  32  1   
 20   9  33  1   
 21  10  17  1   
 22  11  18  ar  
 23  11  34  1   
 24  12  18  ar  
 25  12  35  1   
 26  13  36  1   
 27  13  37  1   
 28  13  38  1   
 29  14  16  1   
 30  14  39  1   
 31  14  40  1   
 32  15  19  1   
 33  15  41  1   
 34  15  42  1   
 35  17  43  1   
 36  17  44  1   
 37  17  45  1   
 38  18  46  1   
 39  19  20  ar  
 40  19  21  ar  
 41  20  22  ar  
 42  20  23  ar  
 43  21  24  ar  
 44  21  47  1   
 45  22  25  ar  
 46  22  26  ar  
 47  23  27  ar  
 48  23  48  1   
 49  24  25  ar  
 50  24  49  1   
 51  26  28  ar  
 52  26  50  1   
 53  27  28  ar  
 54  27  51  1   
 55  28  52  1   
@<TRIPOS>SUBSTRUCTURE
  1 ****  15 GROUP 4 **** **** 0

# MOE 2024.06 (io_trps.svl 2023.06)
