@<TRIPOS>MOLECULE
NONAME
50 53 1 0 0 
SMALL
USER_CHARGES


@<TRIPOS>ATOM
  1 O       -0.0740     0.6300     0.8870 O.2   1 <1>  -0.5700 
  2 C       -0.1400     1.8080     0.5610 C.2   1 <1>   0.7160 
  3 N       -1.4100     2.3650     0.4820 N.am  1 <1>  -0.6600 
  4 C        1.1010     2.5350     0.2650 C.2   1 <1>   0.2030 
  5 C       -2.5960     1.6490     1.0390 C.3   1 <1>   0.1400 
  6 C       -1.6760     3.6790    -0.1750 C.3   1 <1>   0.1400 
  7 N        1.2660     3.8510     0.1700 N.2   1 <1>  -0.7070 
  8 C        2.3380     1.9060     0.0360 C.2   1 <1>  -0.1810 
  9 C       -3.6240     2.6570     1.5580 C.3   1 <1>  -0.1600 
 10 C       -3.1130     3.7380    -0.6940 C.3   1 <1>  -0.1600 
 11 N        2.5630     4.0460    -0.1130 N.pl3 1 <1>   0.3000 
 12 C        3.2220     2.8820    -0.2120 C.2   1 <1>  -0.3320 
 13 C        2.7280     0.4330     0.0360 C.3   1 <1>   0.3010 
 14 C       -4.1460     3.5970     0.4450 C.3   1 <1>   0.2800 
 15 C        4.6770     2.6040    -0.5240 C.3   1 <1>   0.0200 
 16 O        4.1330     0.3080     0.0370 O.3   1 <1>  -0.5600 
 17 O       -4.2220     4.8770     1.0380 O.3   1 <1>  -0.5600 
 18 C       -5.5440     3.1220    -0.0660 C.3   1 <1>   0.2000 
 19 C        4.8180     1.1120    -0.8890 C.3   1 <1>   0.1200 
 20 C       -5.4380     5.5700     1.0490 C.3   1 <1>   0.1200 
 21 O       -5.4820     1.8950    -0.7380 O.3   1 <1>  -0.6800 
 22 C       -6.3040     4.1990    -0.8970 C.3   1 <1>   0.2800 
 23 C       -6.0050     5.6140    -0.3720 C.3   1 <1>  -0.1600 
 24 O       -7.6550     3.9640    -0.7090 O.3   1 <1>  -0.6800 
 25 C       -6.0970     4.1320    -2.4180 C.3   1 <1>  -0.2400 
 26 H       -3.0340     1.0370     0.2680 H     1 <1>   0.0800 
 27 H       -2.2910     1.0060     1.8470 H     1 <1>   0.0800 
 28 H       -1.5080     4.4710     0.5360 H     1 <1>   0.0800 
 29 H       -1.0010     3.8150    -1.0030 H     1 <1>   0.0800 
 30 H       -3.1520     3.2310     2.3350 H     1 <1>   0.0800 
 31 H       -4.4370     2.1160     2.0050 H     1 <1>   0.0800 
 32 H       -3.2320     2.9460    -1.4110 H     1 <1>   0.0800 
 33 H       -3.2610     4.6670    -1.2120 H     1 <1>   0.0800 
 34 H        2.9680     4.9830    -0.2320 H     1 <1>   0.2700 
 35 H        2.3380    -0.0630    -0.8340 H     1 <1>   0.0800 
 36 H        2.3600    -0.0580     0.9200 H     1 <1>   0.0800 
 37 H        5.2860     2.8230     0.3350 H     1 <1>   0.0800 
 38 H        5.0120     3.2070    -1.3480 H     1 <1>   0.0800 
 39 H       -6.1350     2.9350     0.8140 H     1 <1>   0.0800 
 40 H        5.8530     0.8190    -0.8790 H     1 <1>   0.0800 
 41 H        4.4080     0.9210    -1.8660 H     1 <1>   0.0800 
 42 H       -6.1120     5.0800     1.7310 H     1 <1>   0.0800 
 43 H       -5.2400     6.5640     1.4100 H     1 <1>   0.0800 
 44 H       -6.3890     1.6550    -1.0150 H     1 <1>   0.4000 
 45 H       -5.2660     6.0910    -0.9920 H     1 <1>   0.0800 
 46 H       -6.8860     6.2290    -0.3960 H     1 <1>   0.0800 
 47 H       -8.1740     4.5670    -1.2730 H     1 <1>   0.4000 
 48 H       -5.0580     4.2450    -2.6600 H     1 <1>   0.0800 
 49 H       -6.6380     4.9190    -2.9100 H     1 <1>   0.0800 
 50 H       -6.4240     3.1860    -2.8090 H     1 <1>   0.0800 
@<TRIPOS>BOND
  1   1   2  2   
  2   2   3  am  
  3   2   4  1   
  4   3   5  1   
  5   3   6  1   
  6   4   7  2   
  7   4   8  1   
  8   5   9  1   
  9   5  26  1   
 10   5  27  1   
 11   6  10  1   
 12   6  28  1   
 13   6  29  1   
 14   7  11  1   
 15   8  12  2   
 16   8  13  1   
 17   9  14  1   
 18   9  30  1   
 19   9  31  1   
 20  10  14  1   
 21  10  32  1   
 22  10  33  1   
 23  11  12  1   
 24  11  34  1   
 25  12  15  1   
 26  13  16  1   
 27  13  35  1   
 28  13  36  1   
 29  14  17  1   
 30  14  18  1   
 31  15  19  1   
 32  15  37  1   
 33  15  38  1   
 34  16  19  1   
 35  17  20  1   
 36  18  21  1   
 37  18  22  1   
 38  18  39  1   
 39  19  40  1   
 40  19  41  1   
 41  20  23  1   
 42  20  42  1   
 43  20  43  1   
 44  21  44  1   
 45  22  23  1   
 46  22  24  1   
 47  22  25  1   
 48  23  45  1   
 49  23  46  1   
 50  24  47  1   
 51  25  48  1   
 52  25  49  1   
 53  25  50  1   
@<TRIPOS>SUBSTRUCTURE
  1 ****   3 GROUP 4 **** **** 0

# MOE 2024.06 (io_trps.svl 2023.06)
