@<TRIPOS>MOLECULE
NONAME
53 56 1 0 0 
SMALL
USER_CHARGES


@<TRIPOS>ATOM
  1 O       -1.2320    -1.8470     0.0020 O.3   1 <1>  -0.3630 
  2 C        0.1070    -2.0180     0.2340 C.ar  1 <1>   0.0820 
  3 C       -1.8480    -0.5810     0.0690 C.3   1 <1>   0.0400 
  4 C        0.7040    -3.2440    -0.1690 C.ar  1 <1>   0.3100 
  5 C        0.8550    -1.0390     0.8410 C.ar  1 <1>  -0.1500 
  6 N       -0.0980    -4.1690    -0.7610 N.ar  1 <1>  -0.6200 
  7 C        2.0940    -3.4550     0.0580 C.ar  1 <1>   0.0000 
  8 C        2.2100    -1.2370     1.0690 C.ar  1 <1>  -0.1500 
  9 C        0.4190    -5.2990    -1.1340 C.ar  1 <1>   0.4100 
 10 C        2.8280    -2.4100     0.6940 C.ar  1 <1>   0.0820 
 11 C        2.6270    -4.7040    -0.3770 C.ar  1 <1>  -0.1440 
 12 N       -0.4080    -6.2450    -1.7090 N.pl3 1 <1>  -0.8380 
 13 C        1.7780    -5.5910    -0.9610 C.ar  1 <1>  -0.1500 
 14 O        4.1560    -2.5910     0.9270 O.3   1 <1>  -0.3630 
 15 C        4.0890    -5.1150    -0.2400 C.3   1 <1>  -0.0970 
 16 C       -0.6160    -7.5270    -0.9940 C.3   1 <1>   0.2090 
 17 C       -1.5540    -5.8030    -2.5500 C.3   1 <1>   0.2090 
 18 C        4.9760    -1.6220     1.5430 C.3   1 <1>   0.0400 
 19 C       -1.8560    -7.4160    -0.1070 C.3   1 <1>  -0.1600 
 20 C       -2.8260    -5.7050    -1.7040 C.3   1 <1>  -0.1600 
 21 C       -3.0930    -7.0020    -0.9210 C.3   1 <1>   0.0630 
 22 C       -4.3200    -6.8740    -0.0220 C.ar  1 <1>   0.1670 
 23 N       -5.3050    -7.7230    -0.2130 N.ar  1 <1>  -0.6200 
 24 C       -4.3900    -5.9070     0.9580 C.ar  1 <1>  -0.1500 
 25 C       -6.3410    -7.5860     0.5960 C.ar  1 <1>   0.7200 
 26 C       -5.5280    -5.8590     1.7270 C.ar  1 <1>   0.1600 
 27 N       -6.5240    -6.6950     1.5540 N.ar  1 <1>  -0.6200 
 28 N       -7.3450    -8.4420     0.4010 N.pl3 1 <1>  -0.9000 
 29 H       -2.8600    -0.6860    -0.2780 H     1 <1>   0.0800 
 30 H       -1.3130     0.1020    -0.5680 H     1 <1>   0.0800 
 31 H       -1.8460    -0.2430     1.0900 H     1 <1>   0.0800 
 32 H        0.4260    -0.1080     1.1590 H     1 <1>   0.1500 
 33 H        2.7430    -0.4390     1.5480 H     1 <1>   0.1500 
 34 H        2.1140    -6.5440    -1.3210 H     1 <1>   0.1500 
 35 H        4.7180    -4.4210    -0.7680 H     1 <1>   0.0800 
 36 H        4.2610    -6.0940    -0.6490 H     1 <1>   0.0800 
 37 H        4.3720    -5.1340     0.7970 H     1 <1>   0.0800 
 38 H        0.2420    -7.7580    -0.3860 H     1 <1>   0.0800 
 39 H       -0.7430    -8.3180    -1.7150 H     1 <1>   0.0800 
 40 H       -1.6950    -6.5100    -3.3480 H     1 <1>   0.0800 
 41 H       -1.3340    -4.8440    -2.9890 H     1 <1>   0.0800 
 42 H        5.9740    -2.0190     1.6010 H     1 <1>   0.0800 
 43 H        4.6040    -1.4260     2.5330 H     1 <1>   0.0800 
 44 H        4.9740    -0.7290     0.9430 H     1 <1>   0.0800 
 45 H       -1.6570    -6.6890     0.6600 H     1 <1>   0.0800 
 46 H       -2.0400    -8.3610     0.3700 H     1 <1>   0.0800 
 47 H       -3.6620    -5.4910    -2.3440 H     1 <1>   0.0800 
 48 H       -2.7120    -4.8770    -1.0290 H     1 <1>   0.0800 
 49 H       -3.2860    -7.7810    -1.6400 H     1 <1>   0.0800 
 50 H       -3.5860    -5.2130     1.1200 H     1 <1>   0.1500 
 51 H       -5.6200    -5.1150     2.5000 H     1 <1>   0.1500 
 52 H       -8.2380    -8.1470     0.7830 H     1 <1>   0.4000 
 53 H       -7.3570    -8.8900    -0.5100 H     1 <1>   0.4000 
@<TRIPOS>BOND
  1   1   2  1   
  2   1   3  1   
  3   2   4  ar  
  4   2   5  ar  
  5   3  29  1   
  6   3  30  1   
  7   3  31  1   
  8   4   6  ar  
  9   4   7  ar  
 10   5   8  ar  
 11   5  32  1   
 12   6   9  ar  
 13   7  10  ar  
 14   7  11  ar  
 15   8  10  ar  
 16   8  33  1   
 17   9  12  1   
 18   9  13  ar  
 19  10  14  1   
 20  11  13  ar  
 21  11  15  1   
 22  12  16  1   
 23  12  17  1   
 24  13  34  1   
 25  14  18  1   
 26  15  35  1   
 27  15  36  1   
 28  15  37  1   
 29  16  19  1   
 30  16  38  1   
 31  16  39  1   
 32  17  20  1   
 33  17  40  1   
 34  17  41  1   
 35  18  42  1   
 36  18  43  1   
 37  18  44  1   
 38  19  21  1   
 39  19  45  1   
 40  19  46  1   
 41  20  21  1   
 42  20  47  1   
 43  20  48  1   
 44  21  22  1   
 45  21  49  1   
 46  22  23  ar  
 47  22  24  ar  
 48  23  25  ar  
 49  24  26  ar  
 50  24  50  1   
 51  25  27  ar  
 52  25  28  1   
 53  26  27  ar  
 54  26  51  1   
 55  28  52  1   
 56  28  53  1   
@<TRIPOS>SUBSTRUCTURE
  1 ****   6 GROUP 4 **** **** 0

# MOE 2024.06 (io_trps.svl 2023.06)
