@<TRIPOS>MOLECULE
NONAME
52 54 1 0 0 
SMALL
USER_CHARGES


@<TRIPOS>ATOM
  1 O        0.6740     0.1780    -1.0170 O.2   1 <1>  -0.5700 
  2 C        1.6400    -0.5020    -0.7320 C.2   1 <1>   0.5690 
  3 N        2.9090     0.0410    -0.8450 N.am  1 <1>  -0.6600 
  4 C        1.3590    -1.9690    -0.2610 C.3   1 <1>   0.3410 
  5 C        4.1900    -0.7040    -0.6460 C.3   1 <1>   0.1400 
  6 C        3.0860     1.5040    -1.0500 C.3   1 <1>   0.1400 
  7 O        2.2430    -2.4020     0.7540 O.3   1 <1>  -0.5600 
  8 C       -0.0390    -2.1370     0.3640 C.3   1 <1>  -0.1600 
  9 C        1.5310    -2.9560    -1.4270 C.3   1 <1>  -0.2400 
 10 C        4.8700    -0.2920     0.6640 C.3   1 <1>   0.1400 
 11 C        3.2150     2.1870     0.3180 C.3   1 <1>  -0.1600 
 12 C        1.5870    -2.9340     1.8630 C.3   1 <1>   0.1200 
 13 C        0.1570    -3.1970     1.4270 C.3   1 <1>  -0.1600 
 14 N        5.4940     1.0640     0.5350 N.am  1 <1>  -0.6600 
 15 C        4.6350     2.2290     0.9070 C.3   1 <1>   0.1400 
 16 C        6.7800     1.1610     0.0630 C.2   1 <1>   0.5690 
 17 O        7.3550     0.2010    -0.3940 O.2   1 <1>  -0.5700 
 18 C        7.5240     2.4940     0.0880 C.3   1 <1>  -0.0990 
 19 C        9.0550     2.3590    -0.0390 C.3   1 <1>  -0.1600 
 20 C        9.7460     3.7300    -0.0230 C.3   1 <1>   0.0960 
 21 N       11.2150     3.5890    -0.0390 N.pl3 1 <1>   0.3140 
 22 N       11.9760     3.9310     0.9910 N.2   1 <1>  -0.7070 
 23 C       12.0040     3.1450    -1.0220 C.2   1 <1>   0.0360 
 24 C       13.1650     3.6660     0.5570 C.2   1 <1>   0.3660 
 25 N       13.2430     3.1780    -0.6880 N.2   1 <1>  -0.5650 
 26 H        4.8550    -0.5080    -1.4690 H     1 <1>   0.0800 
 27 H        4.0210    -1.7620    -0.6330 H     1 <1>   0.0800 
 28 H        2.2290     1.9020    -1.5670 H     1 <1>   0.0800 
 29 H        3.9510     1.6950    -1.6610 H     1 <1>   0.0800 
 30 H       -0.7880    -2.4000    -0.3610 H     1 <1>   0.0800 
 31 H       -0.3350    -1.2160     0.8370 H     1 <1>   0.0800 
 32 H        2.5180    -2.8830    -1.8400 H     1 <1>   0.0800 
 33 H        0.8280    -2.7200    -2.2050 H     1 <1>   0.0800 
 34 H        1.3590    -3.9660    -1.1040 H     1 <1>   0.0800 
 35 H        5.6360    -1.0120     0.8930 H     1 <1>   0.0800 
 36 H        4.1580    -0.3100     1.4710 H     1 <1>   0.0800 
 37 H        2.5470     1.7140     1.0150 H     1 <1>   0.0800 
 38 H        2.8760     3.2020     0.2190 H     1 <1>   0.0800 
 39 H        1.6190    -2.1960     2.6460 H     1 <1>   0.0800 
 40 H        2.0930    -3.8300     2.1780 H     1 <1>   0.0800 
 41 H        0.0840    -4.1830     1.0030 H     1 <1>   0.0800 
 42 H       -0.5390    -3.1050     2.2410 H     1 <1>   0.0800 
 43 H        4.5710     2.2870     1.9800 H     1 <1>   0.0800 
 44 H        5.0950     3.1380     0.5630 H     1 <1>   0.0800 
 45 H        7.3060     2.9890     1.0160 H     1 <1>   0.0800 
 46 H        7.1490     3.0950    -0.7200 H     1 <1>   0.0800 
 47 H        9.2910     1.8490    -0.9580 H     1 <1>   0.0800 
 48 H        9.4210     1.7640     0.7810 H     1 <1>   0.0800 
 49 H        9.4760     4.2680     0.8680 H     1 <1>   0.0800 
 50 H        9.4510     4.3110    -0.8770 H     1 <1>   0.0800 
 51 H       11.6260     2.8070    -1.9700 H     1 <1>   0.1500 
 52 H       14.0570     3.8220     1.1430 H     1 <1>   0.1500 
@<TRIPOS>BOND
  1   1   2  2   
  2   2   3  am  
  3   2   4  1   
  4   3   5  1   
  5   3   6  1   
  6   4   7  1   
  7   4   8  1   
  8   4   9  1   
  9   5  10  1   
 10   5  26  1   
 11   5  27  1   
 12   6  11  1   
 13   6  28  1   
 14   6  29  1   
 15   7  12  1   
 16   8  13  1   
 17   8  30  1   
 18   8  31  1   
 19   9  32  1   
 20   9  33  1   
 21   9  34  1   
 22  10  14  1   
 23  10  35  1   
 24  10  36  1   
 25  11  15  1   
 26  11  37  1   
 27  11  38  1   
 28  12  13  1   
 29  12  39  1   
 30  12  40  1   
 31  13  41  1   
 32  13  42  1   
 33  14  15  1   
 34  14  16  am  
 35  15  43  1   
 36  15  44  1   
 37  16  17  2   
 38  16  18  1   
 39  18  19  1   
 40  18  45  1   
 41  18  46  1   
 42  19  20  1   
 43  19  47  1   
 44  19  48  1   
 45  20  21  1   
 46  20  49  1   
 47  20  50  1   
 48  21  22  1   
 49  21  23  1   
 50  22  24  2   
 51  23  25  2   
 52  23  51  1   
 53  24  25  1   
 54  24  52  1   
@<TRIPOS>SUBSTRUCTURE
  1 ****  14 GROUP 4 **** **** 0

# MOE 2024.06 (io_trps.svl 2023.06)
