@<TRIPOS>MOLECULE
NONAME
60 62 1 0 0 
SMALL
USER_CHARGES


@<TRIPOS>ATOM
  1 O       -0.8300    -1.4030     0.2010 O.2   1 <1>  -0.5700 
  2 C        0.0910    -2.1620     0.3410 C.2   1 <1>   0.5690 
  3 N       -0.0460    -3.3320     0.9970 N.am  1 <1>  -0.7300 
  4 C        1.4600    -1.8300    -0.2090 C.3   1 <1>  -0.0990 
  5 C        1.0640    -4.2790     1.2180 C.3   1 <1>   0.1400 
  6 C        2.0940    -3.0720    -0.8700 C.3   1 <1>  -0.0800 
  7 C        1.9200    -4.3850    -0.0640 C.3   1 <1>  -0.0800 
  8 C        3.5980    -2.9100    -1.1220 C.3   1 <1>  -0.1600 
  9 C        3.3390    -4.9120     0.1950 C.3   1 <1>  -0.1600 
 10 C        4.1720    -4.3090    -0.9350 C.3   1 <1>   0.4230 
 11 N        5.6510    -4.3340    -0.7190 N.4   1 <1>  -0.9590 
 12 C        6.1750    -3.6960     0.5280 C.3   1 <1>   0.4860 
 13 C        6.1800    -5.7250    -0.8590 C.3   1 <1>   0.2630 
 14 C        6.6300    -2.2890     0.1960 C.ar  1 <1>  -0.1440 
 15 C        6.0380    -1.2080     0.8350 C.ar  1 <1>  -0.1500 
 16 C        7.6300    -2.0600    -0.7420 C.ar  1 <1>  -0.1500 
 17 C        6.4030     0.0880     0.5200 C.ar  1 <1>   0.0820 
 18 C        8.0170    -0.7650    -1.0450 C.ar  1 <1>  -0.1500 
 19 O        5.7370     1.0870     1.1500 O.3   1 <1>  -0.3620 
 20 C        7.4180     0.3120    -0.4150 C.ar  1 <1>   0.0820 
 21 C        4.9590     1.9690     0.3650 C.3   1 <1>   0.1200 
 22 O        7.8550     1.5490    -0.7440 O.3   1 <1>  -0.3630 
 23 C        3.6430     1.2850    -0.0090 C.3   1 <1>  -0.2400 
 24 C        8.5020     2.2850     0.2740 C.3   1 <1>   0.2580 
 25 C        8.9880     3.6060    -0.3090 C.2   1 <1>  -0.2760 
 26 C       10.2790     3.9480    -0.3730 C.2   1 <1>  -0.3000 
 27 C        7.8740     4.5120    -0.8130 C.3   1 <1>  -0.1020 
 28 H       -0.9630    -3.5370     1.4030 H     1 <1>   0.3700 
 29 H        1.3720    -1.0310    -0.9240 H     1 <1>   0.0800 
 30 H        2.0590    -1.4840     0.6120 H     1 <1>   0.0800 
 31 H        1.6550    -3.9150     2.0410 H     1 <1>   0.0800 
 32 H        0.6700    -5.2460     1.4820 H     1 <1>   0.0800 
 33 H        1.6000    -3.2140    -1.8180 H     1 <1>   0.0800 
 34 H        1.4210    -5.0880    -0.7120 H     1 <1>   0.0800 
 35 H        3.9960    -2.2330    -0.3960 H     1 <1>   0.0800 
 36 H        3.7880    -2.5280    -2.1100 H     1 <1>   0.0800 
 37 H        3.3570    -5.9880     0.1760 H     1 <1>   0.0800 
 38 H        3.6720    -4.5610     1.1530 H     1 <1>   0.0800 
 39 H        3.9450    -4.8620    -1.8330 H     1 <1>   0.0800 
 40 H        6.0500    -3.7600    -1.4760 H     1 <1>   0.4500 
 41 H        5.4240    -3.6690     1.2980 H     1 <1>   0.0800 
 42 H        7.0220    -4.2490     0.9020 H     1 <1>   0.0800 
 43 H        5.7990    -6.3530    -0.0700 H     1 <1>   0.0800 
 44 H        7.2580    -5.7250    -0.8100 H     1 <1>   0.0800 
 45 H        5.8830    -6.1450    -1.8060 H     1 <1>   0.0800 
 46 H        5.2730    -1.3460     1.5790 H     1 <1>   0.1500 
 47 H        8.1280    -2.8730    -1.2420 H     1 <1>   0.1500 
 48 H        8.7920    -0.5770    -1.7690 H     1 <1>   0.1500 
 49 H        4.7680     2.8450     0.9600 H     1 <1>   0.0800 
 50 H        5.5100     2.2570    -0.5120 H     1 <1>   0.0800 
 51 H        3.1190     0.9810     0.8780 H     1 <1>   0.0800 
 52 H        3.8290     0.4340    -0.6380 H     1 <1>   0.0800 
 53 H        3.0230     1.9760    -0.5510 H     1 <1>   0.0800 
 54 H        7.8120     2.4600     1.0780 H     1 <1>   0.0800 
 55 H        9.3290     1.6990     0.6350 H     1 <1>   0.0800 
 56 H       11.0880     3.3290    -0.0260 H     1 <1>   0.1500 
 57 H       10.6380     4.8760    -0.7820 H     1 <1>   0.1500 
 58 H        7.1920     4.7420    -0.0150 H     1 <1>   0.0800 
 59 H        7.3330     4.0280    -1.6070 H     1 <1>   0.0800 
 60 H        8.2780     5.4330    -1.1930 H     1 <1>   0.0800 
@<TRIPOS>BOND
  1   1   2  2   
  2   2   3  am  
  3   2   4  1   
  4   3   5  1   
  5   3  28  1   
  6   4   6  1   
  7   4  29  1   
  8   4  30  1   
  9   5   7  1   
 10   5  31  1   
 11   5  32  1   
 12   6   7  1   
 13   6   8  1   
 14   6  33  1   
 15   7   9  1   
 16   7  34  1   
 17   8  10  1   
 18   8  35  1   
 19   8  36  1   
 20   9  10  1   
 21   9  37  1   
 22   9  38  1   
 23  10  11  1   
 24  10  39  1   
 25  11  12  1   
 26  11  13  1   
 27  11  40  1   
 28  12  14  1   
 29  12  41  1   
 30  12  42  1   
 31  13  43  1   
 32  13  44  1   
 33  13  45  1   
 34  14  15  ar  
 35  14  16  ar  
 36  15  17  ar  
 37  15  46  1   
 38  16  18  ar  
 39  16  47  1   
 40  17  19  1   
 41  17  20  ar  
 42  18  20  ar  
 43  18  48  1   
 44  19  21  1   
 45  20  22  1   
 46  21  23  1   
 47  21  49  1   
 48  21  50  1   
 49  22  24  1   
 50  23  51  1   
 51  23  52  1   
 52  23  53  1   
 53  24  25  1   
 54  24  54  1   
 55  24  55  1   
 56  25  26  2   
 57  25  27  1   
 58  26  56  1   
 59  26  57  1   
 60  27  58  1   
 61  27  59  1   
 62  27  60  1   
@<TRIPOS>SUBSTRUCTURE
  1 ****  15 GROUP 4 **** **** 0

# MOE 2024.06 (io_trps.svl 2023.06)
