@<TRIPOS>MOLECULE
NONAME
46 48 1 0 0 
SMALL
USER_CHARGES


@<TRIPOS>ATOM
  1 O        1.7850     0.3960    -2.3100 O.2   1 <1>  -0.5700 
  2 C        2.0230     0.7360    -1.1630 C.2   1 <1>   0.5440 
  3 N        1.3740     1.8390    -0.6540 N.am  1 <1>  -0.6600 
  4 C        2.9600    -0.0150    -0.3640 C.ar  1 <1>   0.0860 
  5 C        1.2370     2.1150     0.7950 C.3   1 <1>   0.1400 
  6 C        0.3790     2.6110    -1.4330 C.3   1 <1>   0.1400 
  7 C        2.7560    -1.3840    -0.1120 C.ar  1 <1>   0.4100 
  8 C        4.0800     0.5940     0.1850 C.ar  1 <1>  -0.1500 
  9 C        0.2390     3.2640     0.8860 C.3   1 <1>  -0.1600 
 10 C       -0.5890     3.1610    -0.3920 C.3   1 <1>  -0.1600 
 11 N        3.5610    -2.1130     0.6590 N.ar  1 <1>  -0.6200 
 12 N        1.6710    -2.0250    -0.6750 N.pl3 1 <1>  -0.8690 
 13 C        4.9170    -0.1680     0.9660 C.ar  1 <1>  -0.1500 
 14 C        4.6100    -1.5010     1.1710 C.ar  1 <1>   0.1600 
 15 C        1.3730    -3.4780    -0.7610 C.3   1 <1>   0.2890 
 16 C        1.1460    -4.1010     0.6230 C.3   1 <1>   0.0210 
 17 C        2.4620    -4.1720    -1.5810 C.3   1 <1>  -0.2400 
 18 C        0.6170    -5.5170     0.5060 C.2   1 <1>   0.1080 
 19 N       -0.5500    -5.8010     0.0140 N.2   1 <1>  -0.7070 
 20 C        1.3110    -6.6560     0.9010 C.2   1 <1>  -0.1500 
 21 N       -0.6330    -7.1420     0.0880 N.pl3 1 <1>   0.3000 
 22 C        0.4830    -7.6840     0.6200 C.2   1 <1>  -0.3320 
 23 C        0.6930    -9.1720     0.8310 C.3   1 <1>  -0.0600 
 24 H        2.1830     2.3880     1.2290 H     1 <1>   0.0800 
 25 H        0.8480     1.2390     1.2870 H     1 <1>   0.0800 
 26 H       -0.1290     1.9890    -2.1510 H     1 <1>   0.0800 
 27 H        0.8830     3.4130    -1.9440 H     1 <1>   0.0800 
 28 H        4.2790     1.6350    -0.0020 H     1 <1>   0.1500 
 29 H        0.7780     4.1950     0.8970 H     1 <1>   0.0800 
 30 H       -0.3660     3.1990     1.7730 H     1 <1>   0.0800 
 31 H       -1.3880     2.4540    -0.2540 H     1 <1>   0.0800 
 32 H       -1.0040     4.1070    -0.6920 H     1 <1>   0.0800 
 33 H        1.2590    -1.5020    -1.4610 H     1 <1>   0.4000 
 34 H        5.7960     0.2590     1.4130 H     1 <1>   0.1500 
 35 H        5.2650    -2.0930     1.7870 H     1 <1>   0.1500 
 36 H        0.4470    -3.5770    -1.3030 H     1 <1>   0.0800 
 37 H        0.4250    -3.5120     1.1580 H     1 <1>   0.0800 
 38 H        2.0600    -4.1170     1.1840 H     1 <1>   0.0800 
 39 H        3.3970    -4.1680    -1.0520 H     1 <1>   0.0800 
 40 H        2.5860    -3.6740    -2.5240 H     1 <1>   0.0800 
 41 H        2.1830    -5.1920    -1.7700 H     1 <1>   0.0800 
 42 H        2.2950    -6.6760     1.3340 H     1 <1>   0.1500 
 43 H       -1.4620    -7.6560    -0.2320 H     1 <1>   0.2700 
 44 H        1.6600    -9.3500     1.2680 H     1 <1>   0.0800 
 45 H        0.6410    -9.6930    -0.1080 H     1 <1>   0.0800 
 46 H       -0.0590    -9.5630     1.4930 H     1 <1>   0.0800 
@<TRIPOS>BOND
  1   1   2  2   
  2   2   3  am  
  3   2   4  1   
  4   3   5  1   
  5   3   6  1   
  6   4   7  ar  
  7   4   8  ar  
  8   5   9  1   
  9   5  24  1   
 10   5  25  1   
 11   6  10  1   
 12   6  26  1   
 13   6  27  1   
 14   7  11  ar  
 15   7  12  1   
 16   8  13  ar  
 17   8  28  1   
 18   9  10  1   
 19   9  29  1   
 20   9  30  1   
 21  10  31  1   
 22  10  32  1   
 23  11  14  ar  
 24  12  15  1   
 25  12  33  1   
 26  13  14  ar  
 27  13  34  1   
 28  14  35  1   
 29  15  16  1   
 30  15  17  1   
 31  15  36  1   
 32  16  18  1   
 33  16  37  1   
 34  16  38  1   
 35  17  39  1   
 36  17  40  1   
 37  17  41  1   
 38  18  19  2   
 39  18  20  1   
 40  19  21  1   
 41  20  22  2   
 42  20  42  1   
 43  21  22  1   
 44  21  43  1   
 45  22  23  1   
 46  23  44  1   
 47  23  45  1   
 48  23  46  1   
@<TRIPOS>SUBSTRUCTURE
  1 ****  12 GROUP 4 **** **** 0

# MOE 2024.06 (io_trps.svl 2023.06)
