@<TRIPOS>MOLECULE
NONAME
57 61 1 0 0 
SMALL
USER_CHARGES


@<TRIPOS>ATOM
  1 O       -1.9080    -0.1080     0.4750 O.3   1 <1>  -0.2800 
  2 C       -1.7860     1.1480     0.0440 C.ar  1 <1>   0.1400 
  3 C       -1.3880    -0.9000    -0.4620 C.2   1 <1>  -0.0400 
  4 C       -1.1800     1.1720    -1.2000 C.ar  1 <1>   0.0000 
  5 C       -2.1870     2.3100     0.6900 C.ar  1 <1>  -0.1500 
  6 C       -0.9260    -0.1810    -1.5020 C.2   1 <1>  -0.1500 
  7 C       -1.3900    -2.4050    -0.2310 C.3   1 <1>   0.2900 
  8 C       -0.9680     2.3960    -1.8350 C.ar  1 <1>  -0.1500 
  9 C       -1.9740     3.5180     0.0550 C.ar  1 <1>  -0.1500 
 10 N       -2.6420    -3.0400    -0.7060 N.3   1 <1>  -0.8100 
 11 C       -1.3670     3.5580    -1.2040 C.ar  1 <1>  -0.1500 
 12 C       -3.8420    -2.4750    -0.0560 C.3   1 <1>   0.1100 
 13 C       -2.5630    -4.5030    -0.5790 C.3   1 <1>   0.1100 
 14 C       -5.1100    -3.0620    -0.7050 C.3   1 <1>   0.4230 
 15 C       -3.8420    -5.1670    -1.1200 C.3   1 <1>  -0.1600 
 16 N       -6.3980    -2.4360    -0.2700 N.4   1 <1>  -0.9590 
 17 C       -5.1440    -4.6000    -0.5010 C.3   1 <1>   0.0000 
 18 C       -7.5450    -2.9200    -1.0830 C.3   1 <1>   0.3430 
 19 C       -6.4040    -0.9520    -0.1220 C.3   1 <1>   0.5230 
 20 C       -6.3510    -5.1730    -1.2830 C.3   1 <1>  -0.1600 
 21 C       -5.1940    -5.0350     0.9980 C.3   1 <1>   0.1200 
 22 C       -7.6690    -4.4420    -0.9670 C.3   1 <1>  -0.1600 
 23 C       -7.6000    -0.5020     0.7130 C.2   1 <1>   0.0060 
 24 O       -6.1080    -4.2980     1.7420 O.3   1 <1>  -0.6800 
 25 N       -8.3270    -1.2960     1.4380 N.2   1 <1>  -0.5650 
 26 N       -7.9990     0.7910     0.7760 N.pl3 1 <1>   0.0330 
 27 C       -9.2430    -0.4850     1.9980 C.2   1 <1>   0.0770 
 28 C       -9.0580     0.7920     1.6030 C.2   1 <1>  -0.3020 
 29 H       -2.6440     2.2520     1.6600 H     1 <1>   0.1500 
 30 H       -0.4530    -0.5220    -2.4060 H     1 <1>   0.1500 
 31 H       -1.2400    -2.6050     0.8160 H     1 <1>   0.0800 
 32 H       -0.5610    -2.8270    -0.7740 H     1 <1>   0.0800 
 33 H       -0.4960     2.4190    -2.8010 H     1 <1>   0.1500 
 34 H       -2.2690     4.4390     0.5280 H     1 <1>   0.1500 
 35 H       -1.2080     4.5100    -1.6810 H     1 <1>   0.1500 
 36 H       -3.8210    -2.6660     1.0030 H     1 <1>   0.0800 
 37 H       -3.8440    -1.4160    -0.2210 H     1 <1>   0.0800 
 38 H       -1.7200    -4.8620    -1.1470 H     1 <1>   0.0800 
 39 H       -2.3980    -4.7740     0.4510 H     1 <1>   0.0800 
 40 H       -5.0070    -2.8820    -1.7620 H     1 <1>   0.0800 
 41 H       -3.8490    -5.0220    -2.1870 H     1 <1>   0.0800 
 42 H       -3.7840    -6.2280    -0.9500 H     1 <1>   0.0800 
 43 H       -6.5800    -2.8120     0.6860 H     1 <1>   0.4500 
 44 H       -8.4620    -2.4690    -0.7360 H     1 <1>   0.0800 
 45 H       -7.4010    -2.6470    -2.1150 H     1 <1>   0.0800 
 46 H       -5.5130    -0.6280     0.3870 H     1 <1>   0.0800 
 47 H       -6.4340    -0.4880    -1.0930 H     1 <1>   0.0800 
 48 H       -6.1690    -5.0770    -2.3410 H     1 <1>   0.0800 
 49 H       -6.4650    -6.2240    -1.0770 H     1 <1>   0.0800 
 50 H       -4.2400    -4.9100     1.4760 H     1 <1>   0.0800 
 51 H       -5.4680    -6.0740     1.0710 H     1 <1>   0.0800 
 52 H       -8.0040    -4.6900     0.0240 H     1 <1>   0.0800 
 53 H       -8.4330    -4.7800    -1.6450 H     1 <1>   0.0800 
 54 H       -6.2120    -4.6780     2.6420 H     1 <1>   0.4000 
 55 H       -7.5950     1.6130     0.3110 H     1 <1>   0.2700 
 56 H       -9.9990    -0.8660     2.6660 H     1 <1>   0.1500 
 57 H       -9.6110     1.6780     1.8650 H     1 <1>   0.1500 
@<TRIPOS>BOND
  1   1   2  1   
  2   1   3  1   
  3   2   4  ar  
  4   2   5  ar  
  5   3   6  2   
  6   3   7  1   
  7   4   6  1   
  8   4   8  ar  
  9   5   9  ar  
 10   5  29  1   
 11   6  30  1   
 12   7  10  1   
 13   7  31  1   
 14   7  32  1   
 15   8  11  ar  
 16   8  33  1   
 17   9  11  ar  
 18   9  34  1   
 19  10  12  1   
 20  10  13  1   
 21  11  35  1   
 22  12  14  1   
 23  12  36  1   
 24  12  37  1   
 25  13  15  1   
 26  13  38  1   
 27  13  39  1   
 28  14  16  1   
 29  14  17  1   
 30  14  40  1   
 31  15  17  1   
 32  15  41  1   
 33  15  42  1   
 34  16  18  1   
 35  16  19  1   
 36  16  43  1   
 37  17  20  1   
 38  17  21  1   
 39  18  22  1   
 40  18  44  1   
 41  18  45  1   
 42  19  23  1   
 43  19  46  1   
 44  19  47  1   
 45  20  22  1   
 46  20  48  1   
 47  20  49  1   
 48  21  24  1   
 49  21  50  1   
 50  21  51  1   
 51  22  52  1   
 52  22  53  1   
 53  23  25  2   
 54  23  26  1   
 55  24  54  1   
 56  25  27  1   
 57  26  28  1   
 58  26  55  1   
 59  27  28  2   
 60  27  56  1   
 61  28  57  1   
@<TRIPOS>SUBSTRUCTURE
  1 ****  12 GROUP 4 **** **** 0

# MOE 2024.06 (io_trps.svl 2023.06)
