@<TRIPOS>MOLECULE
NONAME
42 44 1 0 0 
SMALL
USER_CHARGES


@<TRIPOS>ATOM
  1 S        0.0440     0.0100    -1.5270 S.o2  1 <1>   1.4470 
  2 O       -0.1430    -1.1840    -2.3220 O.2   1 <1>  -0.6500 
  3 O        0.4280     1.2460    -2.1760 O.2   1 <1>  -0.6500 
  4 N       -1.4110     0.3060    -0.7070 N.am  1 <1>  -0.8490 
  5 C        1.1990    -0.3640    -0.1760 C.ar  1 <1>  -0.0090 
  6 C       -1.3820     1.5800     0.0200 C.3   1 <1>   0.1960 
  7 C       -2.5540     0.2740    -1.6250 C.3   1 <1>   0.1960 
  8 C        0.9030    -1.3610     0.7510 C.ar  1 <1>  -0.1500 
  9 C        2.3970     0.3350    -0.0370 C.ar  1 <1>  -0.1500 
 10 C       -2.6360     1.7080     0.8830 C.3   1 <1>  -0.1600 
 11 C       -3.8600     0.3690    -0.8350 C.3   1 <1>  -0.1600 
 12 C        1.7680    -1.6560     1.7930 C.ar  1 <1>  -0.1500 
 13 C        3.2760     0.0560     0.9980 C.ar  1 <1>  -0.1500 
 14 C       -3.9000     1.6340     0.0210 C.3   1 <1>   0.4180 
 15 C        2.9420    -0.9370     1.8970 C.ar  1 <1>   0.1900 
 16 O       -3.9130     2.7140    -0.8800 O.3   1 <1>  -0.5600 
 17 C       -5.1610     1.6400     0.8820 C.2   1 <1>  -0.2880 
 18 F        3.7620    -1.2040     2.8760 F     1 <1>  -0.1900 
 19 C       -4.3720     3.9480    -0.4040 C.3   1 <1>   0.1200 
 20 C       -6.0600     2.6260     0.8860 C.2   1 <1>  -0.2760 
 21 C       -5.8440     3.8530     0.0180 C.3   1 <1>  -0.0220 
 22 C       -7.3370     2.6250     1.7070 C.3   1 <1>  -0.1020 
 23 H       -1.3260     2.4030    -0.6760 H     1 <1>   0.0800 
 24 H       -0.5150     1.6190     0.6580 H     1 <1>   0.0800 
 25 H       -2.5550    -0.6510    -2.1790 H     1 <1>   0.0800 
 26 H       -2.4840     1.0870    -2.3310 H     1 <1>   0.0800 
 27 H       -0.0190    -1.9110     0.6510 H     1 <1>   0.1500 
 28 H        2.6450     1.1070    -0.7480 H     1 <1>   0.1500 
 29 H       -2.6160     2.6270     1.4350 H     1 <1>   0.0800 
 30 H       -2.6450     0.9060     1.5970 H     1 <1>   0.0800 
 31 H       -3.9450    -0.4990    -0.2070 H     1 <1>   0.0800 
 32 H       -4.6970     0.3710    -1.5080 H     1 <1>   0.0800 
 33 H        1.5400    -2.4250     2.5090 H     1 <1>   0.1500 
 34 H        4.2000     0.5950     1.1070 H     1 <1>   0.1500 
 35 H       -5.2570     0.7550     1.4850 H     1 <1>   0.1500 
 36 H       -4.2560     4.6690    -1.1930 H     1 <1>   0.0800 
 37 H       -3.7600     4.2460     0.4290 H     1 <1>   0.0800 
 38 H       -6.4700     3.7960    -0.8550 H     1 <1>   0.0800 
 39 H       -6.1030     4.7440     0.5600 H     1 <1>   0.0800 
 40 H       -7.3430     3.4570     2.3890 H     1 <1>   0.0800 
 41 H       -7.4180     1.7170     2.2770 H     1 <1>   0.0800 
 42 H       -8.1930     2.6980     1.0600 H     1 <1>   0.0800 
@<TRIPOS>BOND
  1   1   2  2   
  2   1   3  2   
  3   1   4  am  
  4   1   5  1   
  5   4   6  1   
  6   4   7  1   
  7   5   8  ar  
  8   5   9  ar  
  9   6  10  1   
 10   6  23  1   
 11   6  24  1   
 12   7  11  1   
 13   7  25  1   
 14   7  26  1   
 15   8  12  ar  
 16   8  27  1   
 17   9  13  ar  
 18   9  28  1   
 19  10  14  1   
 20  10  29  1   
 21  10  30  1   
 22  11  14  1   
 23  11  31  1   
 24  11  32  1   
 25  12  15  ar  
 26  12  33  1   
 27  13  15  ar  
 28  13  34  1   
 29  14  16  1   
 30  14  17  1   
 31  15  18  1   
 32  16  19  1   
 33  17  20  2   
 34  17  35  1   
 35  19  21  1   
 36  19  36  1   
 37  19  37  1   
 38  20  21  1   
 39  20  22  1   
 40  21  38  1   
 41  21  39  1   
 42  22  40  1   
 43  22  41  1   
 44  22  42  1   
@<TRIPOS>SUBSTRUCTURE
  1 ****   6 GROUP 4 **** **** 0

# MOE 2024.06 (io_trps.svl 2023.06)
