@<TRIPOS>MOLECULE
NONAME
49 51 1 0 0 
SMALL
USER_CHARGES


@<TRIPOS>ATOM
  1 F        2.9310    -0.0030    -2.7200 F     1 <1>  -0.1900 
  2 C        2.7270    -0.6330    -1.5950 C.ar  1 <1>   0.1900 
  3 C        2.7760    -2.0120    -1.5910 C.ar  1 <1>  -0.1500 
  4 C        2.4650     0.0980    -0.4560 C.ar  1 <1>  -0.1500 
  5 C        2.5520    -2.6960    -0.4020 C.ar  1 <1>  -0.1440 
  6 C        2.2480    -0.5870     0.7260 C.ar  1 <1>  -0.1500 
  7 C        2.2920    -1.9750     0.7650 C.ar  1 <1>  -0.1430 
  8 C        2.5990    -4.2160    -0.4400 C.3   1 <1>   0.4870 
  9 C        2.0380    -2.6300     2.1190 C.3   1 <1>  -0.0970 
 10 N        1.2320    -4.8010    -0.3420 N.4   1 <1>  -0.9590 
 11 C        1.1950    -6.3020    -0.5220 C.3   1 <1>   0.3430 
 12 C        0.1610    -4.0790    -1.0810 C.3   1 <1>   0.3430 
 13 C       -0.2490    -6.9040    -0.6660 C.3   1 <1>   0.4230 
 14 C       -1.2270    -4.5980    -0.6530 C.3   1 <1>  -0.1600 
 15 N       -0.3820    -8.3210    -0.1620 N.4   1 <1>  -0.9590 
 16 C       -1.2460    -5.9870     0.0690 C.3   1 <1>  -0.1060 
 17 C       -1.7470    -8.8780    -0.3670 C.3   1 <1>   0.3430 
 18 C        0.6720    -9.2910    -0.5780 C.3   1 <1>   0.2630 
 19 C       -0.6950    -5.9010     1.5060 C.2   1 <1>   0.9060 
 20 C       -2.6910    -6.5470     0.0140 C.3   1 <1>  -0.1600 
 21 C       -2.7680    -8.0330     0.3940 C.3   1 <1>  -0.1600 
 22 O       -0.2410    -4.8260     1.9010 O.co2 1 <1>  -0.9000 
 23 O       -0.4300    -6.9520     2.0960 O.co2 1 <1>  -0.9000 
 24 H        2.9900    -2.5220    -2.5130 H     1 <1>   0.1500 
 25 H        2.4330     1.1720    -0.4950 H     1 <1>   0.1500 
 26 H        2.0410    -0.0290     1.6240 H     1 <1>   0.1500 
 27 H        3.2070    -4.5730     0.3750 H     1 <1>   0.0800 
 28 H        3.0600    -4.5260    -1.3620 H     1 <1>   0.0800 
 29 H        2.5700    -2.1000     2.8900 H     1 <1>   0.0800 
 30 H        2.3500    -3.6560     2.1570 H     1 <1>   0.0800 
 31 H        0.9880    -2.5870     2.3530 H     1 <1>   0.0800 
 32 H        0.9370    -4.6280     0.6600 H     1 <1>   0.4500 
 33 H        1.7680    -6.5740    -1.3920 H     1 <1>   0.0800 
 34 H        1.6550    -6.7490     0.3450 H     1 <1>   0.0800 
 35 H        0.2110    -3.0210    -0.8720 H     1 <1>   0.0800 
 36 H        0.2960    -4.2170    -2.1410 H     1 <1>   0.0800 
 37 H       -0.5040    -6.8980    -1.7120 H     1 <1>   0.0800 
 38 H       -1.6730    -3.8640    -0.0020 H     1 <1>   0.0800 
 39 H       -1.8400    -4.6210    -1.5360 H     1 <1>   0.0800 
 40 H       -0.3220    -8.1830     0.8870 H     1 <1>   0.4500 
 41 H       -1.9880    -8.8860    -1.4170 H     1 <1>   0.0800 
 42 H       -1.7890    -9.8910     0.0010 H     1 <1>   0.0800 
 43 H        0.6570    -9.4290    -1.6470 H     1 <1>   0.0800 
 44 H        0.4990   -10.2450    -0.1050 H     1 <1>   0.0800 
 45 H        1.6460    -8.9430    -0.2790 H     1 <1>   0.0800 
 46 H       -3.3220    -5.9780     0.6790 H     1 <1>   0.0800 
 47 H       -3.0910    -6.4390    -0.9800 H     1 <1>   0.0800 
 48 H       -3.7560    -8.4030     0.1860 H     1 <1>   0.0800 
 49 H       -2.6070    -8.1520     1.4520 H     1 <1>   0.0800 
@<TRIPOS>BOND
  1   1   2  1   
  2   2   3  ar  
  3   2   4  ar  
  4   3   5  ar  
  5   3  24  1   
  6   4   6  ar  
  7   4  25  1   
  8   5   7  ar  
  9   5   8  1   
 10   6   7  ar  
 11   6  26  1   
 12   7   9  1   
 13   8  10  1   
 14   8  27  1   
 15   8  28  1   
 16   9  29  1   
 17   9  30  1   
 18   9  31  1   
 19  10  11  1   
 20  10  12  1   
 21  10  32  1   
 22  11  13  1   
 23  11  33  1   
 24  11  34  1   
 25  12  14  1   
 26  12  35  1   
 27  12  36  1   
 28  13  15  1   
 29  13  16  1   
 30  13  37  1   
 31  14  16  1   
 32  14  38  1   
 33  14  39  1   
 34  15  17  1   
 35  15  18  1   
 36  15  40  1   
 37  16  19  1   
 38  16  20  1   
 39  17  21  1   
 40  17  41  1   
 41  17  42  1   
 42  18  43  1   
 43  18  44  1   
 44  18  45  1   
 45  19  22  ar  
 46  19  23  ar  
 47  20  21  1   
 48  20  46  1   
 49  20  47  1   
 50  21  48  1   
 51  21  49  1   
@<TRIPOS>SUBSTRUCTURE
  1 ****  10 GROUP 4 **** **** 0

# MOE 2024.06 (io_trps.svl 2023.06)
