@<TRIPOS>MOLECULE
NONAME
52 54 1 0 0 
SMALL
USER_CHARGES


@<TRIPOS>ATOM
  1 O       -0.0940     1.4170    -1.3630 O.2   1 <1>  -0.5700 
  2 C       -1.2940     1.6070    -1.4060 C.2   1 <1>   0.5440 
  3 N       -1.7790     2.6850    -2.1190 N.am  1 <1>  -0.6600 
  4 C       -2.1810     0.7090    -0.6930 C.ar  1 <1>   0.0860 
  5 C       -3.1280     3.2710    -1.9000 C.3   1 <1>   0.1400 
  6 C       -0.8930     3.5150    -2.9780 C.3   1 <1>   0.1400 
  7 C       -2.0930     0.5660     0.6890 C.ar  1 <1>  -0.1500 
  8 C       -3.1520    -0.0350    -1.3620 C.ar  1 <1>  -0.1500 
  9 C       -2.9690     4.6300    -1.2130 C.3   1 <1>  -0.1600 
 10 C       -0.6880     4.8750    -2.3100 C.3   1 <1>  -0.1600 
 11 C       -2.9480    -0.2690     1.3870 C.ar  1 <1>   0.0830 
 12 C       -4.0090    -0.8780    -0.6780 C.ar  1 <1>  -0.1500 
 13 C       -2.0340     5.5660    -2.0060 C.3   1 <1>  -0.0190 
 14 O       -2.7830    -0.3220     2.7320 O.3   1 <1>  -0.3630 
 15 C       -3.9130    -0.9960     0.6970 C.ar  1 <1>  -0.1500 
 16 C       -1.8380     6.8970    -1.2870 C.2   1 <1>   0.5690 
 17 C       -3.5450    -1.1990     3.5310 C.3   1 <1>   0.0400 
 18 O       -2.2740     7.9030    -1.7900 O.2   1 <1>  -0.5700 
 19 N       -1.1710     6.9190    -0.1030 N.am  1 <1>  -0.7300 
 20 C       -0.8880     8.1320     0.6860 C.3   1 <1>   0.1400 
 21 C        0.5890     8.4820     0.5290 C.3   1 <1>  -0.1600 
 22 C        0.9190     9.7980     1.2450 C.3   1 <1>   0.0960 
 23 N        2.3570    10.1020     1.1330 N.pl3 1 <1>   0.3140 
 24 N        3.2500     9.7130     2.0480 N.2   1 <1>  -0.4180 
 25 C        2.9800    10.7630     0.1570 C.2   1 <1>  -0.3020 
 26 N        4.4160    10.1130     1.6750 N.2   1 <1>  -0.2270 
 27 C        4.2720    10.7600     0.5150 C.2   1 <1>   0.0770 
 28 H       -3.7380     2.6310    -1.2890 H     1 <1>   0.0800 
 29 H       -3.6180     3.3920    -2.8520 H     1 <1>   0.0800 
 30 H       -1.3540     3.6400    -3.9430 H     1 <1>   0.0800 
 31 H        0.0580     3.0310    -3.1260 H     1 <1>   0.0800 
 32 H       -1.3430     1.1160     1.2270 H     1 <1>   0.1500 
 33 H       -3.2260     0.0520    -2.4320 H     1 <1>   0.1500 
 34 H       -2.5800     4.4680    -0.2230 H     1 <1>   0.0800 
 35 H       -3.9360     5.0910    -1.1130 H     1 <1>   0.0800 
 36 H       -0.0990     5.5020    -2.9560 H     1 <1>   0.0800 
 37 H       -0.1290     4.7210    -1.4040 H     1 <1>   0.0800 
 38 H       -4.7510    -1.4440    -1.2150 H     1 <1>   0.1500 
 39 H       -2.5090     5.7820    -2.9470 H     1 <1>   0.0800 
 40 H       -4.5900    -1.6540     1.2080 H     1 <1>   0.1500 
 41 H       -3.2190    -1.0900     4.5500 H     1 <1>   0.0800 
 42 H       -3.3750    -2.2090     3.2000 H     1 <1>   0.0800 
 43 H       -4.5840    -0.9350     3.4490 H     1 <1>   0.0800 
 44 H       -0.7920     6.0430     0.2650 H     1 <1>   0.3700 
 45 H       -1.1290     7.9510     1.7200 H     1 <1>   0.0800 
 46 H       -1.5010     8.9450     0.3300 H     1 <1>   0.0800 
 47 H        0.8160     8.5860    -0.5190 H     1 <1>   0.0800 
 48 H        1.1890     7.6910     0.9450 H     1 <1>   0.0800 
 49 H        0.6730     9.7250     2.2890 H     1 <1>   0.0800 
 50 H        0.3620    10.6100     0.8140 H     1 <1>   0.0800 
 51 H        2.4870    11.1790    -0.7020 H     1 <1>   0.1500 
 52 H        5.1140    11.1900     0.0010 H     1 <1>   0.1500 
@<TRIPOS>BOND
  1   1   2  2   
  2   2   3  am  
  3   2   4  1   
  4   3   5  1   
  5   3   6  1   
  6   4   7  ar  
  7   4   8  ar  
  8   5   9  1   
  9   5  28  1   
 10   5  29  1   
 11   6  10  1   
 12   6  30  1   
 13   6  31  1   
 14   7  11  ar  
 15   7  32  1   
 16   8  12  ar  
 17   8  33  1   
 18   9  13  1   
 19   9  34  1   
 20   9  35  1   
 21  10  13  1   
 22  10  36  1   
 23  10  37  1   
 24  11  14  1   
 25  11  15  ar  
 26  12  15  ar  
 27  12  38  1   
 28  13  16  1   
 29  13  39  1   
 30  14  17  1   
 31  15  40  1   
 32  16  18  2   
 33  16  19  am  
 34  17  41  1   
 35  17  42  1   
 36  17  43  1   
 37  19  20  1   
 38  19  44  1   
 39  20  21  1   
 40  20  45  1   
 41  20  46  1   
 42  21  22  1   
 43  21  47  1   
 44  21  48  1   
 45  22  23  1   
 46  22  49  1   
 47  22  50  1   
 48  23  24  1   
 49  23  25  1   
 50  24  26  2   
 51  25  27  2   
 52  25  51  1   
 53  26  27  1   
 54  27  52  1   
@<TRIPOS>SUBSTRUCTURE
  1 ****  10 GROUP 4 **** **** 0

# MOE 2024.06 (io_trps.svl 2023.06)
