@<TRIPOS>MOLECULE
NONAME
54 57 1 0 0 
SMALL
USER_CHARGES


@<TRIPOS>ATOM
  1 O       -2.9130    -1.4530    -3.1240 O.2   1 <1>  -0.5700 
  2 C       -3.0290    -1.5480    -1.9240 C.2   1 <1>   0.5690 
  3 N       -2.7500    -0.5090    -1.0860 N.am  1 <1>  -0.6600 
  4 C       -3.4860    -2.8760    -1.3640 C.3   1 <1>  -0.0190 
  5 C       -2.9980    -0.5980     0.3810 C.3   1 <1>   0.2200 
  6 C       -2.2560     0.8040    -1.5910 C.3   1 <1>   0.0600 
  7 C       -2.3990    -3.4860    -0.4590 C.3   1 <1>   0.1200 
  8 C       -4.9150    -2.7910    -0.7940 C.3   1 <1>   0.1400 
  9 C       -2.0700    -1.6450     1.0540 C.3   1 <1>   0.1200 
 10 C       -4.5110    -0.7480     0.6680 C.3   1 <1>   0.1400 
 11 O       -2.4080    -2.9930     0.8460 O.3   1 <1>  -0.5600 
 12 N       -5.0300    -2.1480     0.5580 N.am  1 <1>  -0.6600 
 13 C       -5.4170    -2.8180     1.7010 C.2   1 <1>   0.5690 
 14 O       -5.5630    -2.2310     2.7520 O.2   1 <1>  -0.5700 
 15 C       -5.6250    -4.3290     1.7280 C.3   1 <1>   0.0820 
 16 C       -6.7790    -4.8660     0.8760 C.2   1 <1>  -0.1810 
 17 C       -6.7670    -6.1060     0.1710 C.ar  1 <1>   0.0000 
 18 C       -7.9660    -4.2560     0.6250 C.2   1 <1>  -0.3320 
 19 C       -5.8860    -7.2010     0.0490 C.ar  1 <1>  -0.1430 
 20 C       -7.9730    -6.1490    -0.5300 C.ar  1 <1>  -0.1520 
 21 N       -8.6900    -5.0230    -0.2350 N.pl3 1 <1>   0.0330 
 22 C       -8.5360    -2.9420     1.1370 C.3   1 <1>  -0.0600 
 23 C       -6.2260    -8.2470    -0.7810 C.ar  1 <1>  -0.1500 
 24 C       -4.5770    -7.2840     0.8170 C.3   1 <1>  -0.0970 
 25 C       -8.3150    -7.2110    -1.3730 C.ar  1 <1>  -0.1430 
 26 C       -7.4290    -8.2530    -1.4920 C.ar  1 <1>  -0.1500 
 27 C       -9.6330    -7.2040    -2.1280 C.3   1 <1>  -0.0970 
 28 H       -3.5530    -3.5300    -2.2140 H     1 <1>   0.0800 
 29 H       -2.7160     0.3520     0.7980 H     1 <1>   0.0800 
 30 H       -1.3260     1.0530    -1.1110 H     1 <1>   0.0800 
 31 H       -2.9810     1.5710    -1.3840 H     1 <1>   0.0800 
 32 H       -2.0910     0.7680    -2.6540 H     1 <1>   0.0800 
 33 H       -1.4200    -3.3250    -0.8780 H     1 <1>   0.0800 
 34 H       -2.5610    -4.5460    -0.3840 H     1 <1>   0.0800 
 35 H       -5.3090    -3.7870    -0.7690 H     1 <1>   0.0800 
 36 H       -5.5320    -2.2400    -1.4830 H     1 <1>   0.0800 
 37 H       -2.1060    -1.4930     2.1180 H     1 <1>   0.0800 
 38 H       -1.0540    -1.4980     0.7310 H     1 <1>   0.0800 
 39 H       -5.0640    -0.1150    -0.0030 H     1 <1>   0.0800 
 40 H       -4.6880    -0.3740     1.6600 H     1 <1>   0.0800 
 41 H       -4.6980    -4.7440     1.3980 H     1 <1>   0.0800 
 42 H       -5.7760    -4.6440     2.7430 H     1 <1>   0.0800 
 43 H       -9.6230    -4.8140    -0.5990 H     1 <1>   0.2700 
 44 H       -8.0680    -2.6550     2.0610 H     1 <1>   0.0800 
 45 H       -9.5900    -3.0400     1.3240 H     1 <1>   0.0800 
 46 H       -8.3780    -2.1640     0.4120 H     1 <1>   0.0800 
 47 H       -5.5690    -9.0900    -0.8970 H     1 <1>   0.1500 
 48 H       -4.1590    -8.2720     0.7560 H     1 <1>   0.0800 
 49 H       -4.7440    -7.0620     1.8550 H     1 <1>   0.0800 
 50 H       -3.8650    -6.5930     0.4070 H     1 <1>   0.0800 
 51 H       -7.6480    -9.0910    -2.1290 H     1 <1>   0.1500 
 52 H       -9.7300    -8.0870    -2.7330 H     1 <1>   0.0800 
 53 H       -9.6820    -6.3430    -2.7700 H     1 <1>   0.0800 
 54 H      -10.4520    -7.1740    -1.4330 H     1 <1>   0.0800 
@<TRIPOS>BOND
  1   1   2  2   
  2   2   3  am  
  3   2   4  1   
  4   3   5  1   
  5   3   6  1   
  6   4   7  1   
  7   4   8  1   
  8   4  28  1   
  9   5   9  1   
 10   5  10  1   
 11   5  29  1   
 12   6  30  1   
 13   6  31  1   
 14   6  32  1   
 15   7  11  1   
 16   7  33  1   
 17   7  34  1   
 18   8  12  1   
 19   8  35  1   
 20   8  36  1   
 21   9  11  1   
 22   9  37  1   
 23   9  38  1   
 24  10  12  1   
 25  10  39  1   
 26  10  40  1   
 27  12  13  am  
 28  13  14  2   
 29  13  15  1   
 30  15  16  1   
 31  15  41  1   
 32  15  42  1   
 33  16  17  1   
 34  16  18  2   
 35  17  19  ar  
 36  17  20  ar  
 37  18  21  1   
 38  18  22  1   
 39  19  23  ar  
 40  19  24  1   
 41  20  21  1   
 42  20  25  ar  
 43  21  43  1   
 44  22  44  1   
 45  22  45  1   
 46  22  46  1   
 47  23  26  ar  
 48  23  47  1   
 49  24  48  1   
 50  24  49  1   
 51  24  50  1   
 52  25  26  ar  
 53  25  27  1   
 54  26  51  1   
 55  27  52  1   
 56  27  53  1   
 57  27  54  1   
@<TRIPOS>SUBSTRUCTURE
  1 ****   8 GROUP 4 **** **** 0

# MOE 2024.06 (io_trps.svl 2023.06)
