@<TRIPOS>MOLECULE
NONAME
40 41 1 0 0 
SMALL
USER_CHARGES


@<TRIPOS>ATOM
  1 O        1.5380    -0.6740     2.4530 O.2   1 <1>  -0.5700 
  2 C        1.6670    -1.2510     1.3990 C.2   1 <1>   0.5690 
  3 N        1.8850    -0.5930     0.2140 N.am  1 <1>  -0.5470 
  4 C        1.5760    -2.8000     1.3530 C.3   1 <1>   0.2510 
  5 C        2.0280     0.7750    -0.0630 C.ar  1 <1>   0.1170 
  6 N        0.2190    -3.3580     1.0730 N.3   1 <1>  -0.8100 
  7 C        2.1370    -3.4730     2.6140 C.3   1 <1>  -0.2400 
  8 C        1.7320     1.2300    -1.3440 C.ar  1 <1>  -0.1500 
  9 C        2.4720     1.6990     0.8790 C.ar  1 <1>  -0.1500 
 10 C       -0.2020    -3.1160    -0.3290 C.3   1 <1>   0.2900 
 11 C       -0.8090    -2.8470     2.0070 C.3   1 <1>   0.0300 
 12 C        1.8720     2.5660    -1.6760 C.ar  1 <1>  -0.1500 
 13 C        2.6120     3.0360     0.5520 C.ar  1 <1>  -0.1500 
 14 C       -1.3030    -4.0710    -0.7580 C.2   1 <1>   0.0070 
 15 C        2.3130     3.4720    -0.7270 C.ar  1 <1>  -0.1500 
 16 N       -1.4680    -5.2700    -0.1650 N.pl3 1 <1>   0.0330 
 17 N       -2.1520    -3.8410    -1.7080 N.2   1 <1>  -0.5650 
 18 C       -2.5110    -5.8410    -0.7950 C.2   1 <1>  -0.3320 
 19 C       -2.9130    -4.9530    -1.7310 C.2   1 <1>   0.0770 
 20 C       -3.0550    -7.2130    -0.4450 C.3   1 <1>  -0.0600 
 21 H        1.8970    -1.1830    -0.6130 H     1 <1>   0.3700 
 22 H        2.2220    -3.1190     0.5540 H     1 <1>   0.0800 
 23 H        1.6100    -3.1480     3.4920 H     1 <1>   0.0800 
 24 H        3.1700    -3.2060     2.7340 H     1 <1>   0.0800 
 25 H        2.0660    -4.5420     2.5270 H     1 <1>   0.0800 
 26 H        1.3850     0.5390    -2.0900 H     1 <1>   0.1500 
 27 H        2.7140     1.3770     1.8750 H     1 <1>   0.1500 
 28 H        0.6290    -3.2770    -0.9920 H     1 <1>   0.0800 
 29 H       -0.5420    -2.1020    -0.4510 H     1 <1>   0.0800 
 30 H       -0.5500    -3.0870     3.0230 H     1 <1>   0.0800 
 31 H       -1.7640    -3.2960     1.7950 H     1 <1>   0.0800 
 32 H       -0.9100    -1.7780     1.9190 H     1 <1>   0.0800 
 33 H        1.6380     2.9030    -2.6700 H     1 <1>   0.1500 
 34 H        2.9550     3.7360     1.2940 H     1 <1>   0.1500 
 35 H        2.4220     4.5120    -0.9810 H     1 <1>   0.1500 
 36 H       -0.9010    -5.6110     0.6170 H     1 <1>   0.2700 
 37 H       -3.7240    -5.0550    -2.4330 H     1 <1>   0.1500 
 38 H       -2.2930    -7.9600    -0.5790 H     1 <1>   0.0800 
 39 H       -3.8880    -7.4550    -1.0810 H     1 <1>   0.0800 
 40 H       -3.3870    -7.2310     0.5780 H     1 <1>   0.0800 
@<TRIPOS>BOND
  1   1   2  2   
  2   2   3  am  
  3   2   4  1   
  4   3   5  1   
  5   3  21  1   
  6   4   6  1   
  7   4   7  1   
  8   4  22  1   
  9   5   8  ar  
 10   5   9  ar  
 11   6  10  1   
 12   6  11  1   
 13   7  23  1   
 14   7  24  1   
 15   7  25  1   
 16   8  12  ar  
 17   8  26  1   
 18   9  13  ar  
 19   9  27  1   
 20  10  14  1   
 21  10  28  1   
 22  10  29  1   
 23  11  30  1   
 24  11  31  1   
 25  11  32  1   
 26  12  15  ar  
 27  12  33  1   
 28  13  15  ar  
 29  13  34  1   
 30  14  16  1   
 31  14  17  2   
 32  15  35  1   
 33  16  18  1   
 34  16  36  1   
 35  17  19  1   
 36  18  19  2   
 37  18  20  1   
 38  19  37  1   
 39  20  38  1   
 40  20  39  1   
 41  20  40  1   
@<TRIPOS>SUBSTRUCTURE
  1 ****  10 GROUP 4 **** **** 0

# MOE 2024.06 (io_trps.svl 2023.06)
