@<TRIPOS>MOLECULE
NONAME
53 56 1 0 0 
SMALL
USER_CHARGES


@<TRIPOS>ATOM
  1 O       -3.7850     1.5770     1.7880 O.2   1 <1>  -0.5700 
  2 C       -3.8010     2.3350     0.8460 C.2   1 <1>   0.5690 
  3 N       -4.6740     2.1210    -0.1800 N.am  1 <1>  -0.6600 
  4 C       -2.8030     3.4760     0.7780 C.3   1 <1>  -0.0990 
  5 C       -6.0440     1.6120     0.1580 C.3   1 <1>   0.1400 
  6 C       -4.1420     1.4670    -1.4100 C.3   1 <1>   0.1400 
  7 C       -1.3640     2.9890     0.5380 C.3   1 <1>  -0.1600 
  8 C       -6.0630     0.0710     0.3440 C.3   1 <1>   0.4230 
  9 C       -4.1330    -0.0780    -1.2590 C.3   1 <1>   0.3430 
 10 C       -0.3630     4.1510     0.5470 C.3   1 <1>  -0.0170 
 11 N       -4.7120    -0.5420     0.0580 N.4   1 <1>  -0.9590 
 12 C       -7.1610    -0.6080    -0.5040 C.3   1 <1>   0.1200 
 13 C        1.0350     3.6450     0.2340 C.ar  1 <1>  -0.1440 
 14 C       -4.7660    -2.0240     0.2440 C.3   1 <1>   0.5180 
 15 O       -7.1420    -1.9950    -0.3090 O.3   1 <1>  -0.5600 
 16 C        1.5600     3.7690    -1.0430 C.ar  1 <1>  -0.1500 
 17 C        1.8010     3.0530     1.2270 C.ar  1 <1>  -0.1500 
 18 C       -3.3770    -2.6250    -0.0480 C.3   1 <1>  -0.1950 
 19 C       -5.9220    -2.6320    -0.5920 C.3   1 <1>   0.1200 
 20 C        2.8350     3.3080    -1.3240 C.ar  1 <1>  -0.1500 
 21 C        3.0750     2.5910     0.9480 C.ar  1 <1>  -0.1500 
 22 C       -2.8900    -3.0480    -1.4050 C.3   1 <1>  -0.2000 
 23 C       -3.1660    -4.0790    -0.3480 C.3   1 <1>  -0.2000 
 24 C        3.5940     2.7180    -0.3290 C.ar  1 <1>  -0.1500 
 25 H       -3.0960     4.1560    -0.0010 H     1 <1>   0.0800 
 26 H       -2.8490     4.0080     1.7120 H     1 <1>   0.0800 
 27 H       -6.3800     2.0750     1.0720 H     1 <1>   0.0800 
 28 H       -6.7320     1.9090    -0.6150 H     1 <1>   0.0800 
 29 H       -4.7500     1.7440    -2.2540 H     1 <1>   0.0800 
 30 H       -3.1430     1.8110    -1.6120 H     1 <1>   0.0800 
 31 H       -1.0910     2.2880     1.3090 H     1 <1>   0.0800 
 32 H       -1.2990     2.4830    -0.4080 H     1 <1>   0.0800 
 33 H       -6.3090    -0.1160     1.3760 H     1 <1>   0.0800 
 34 H       -3.1150    -0.4210    -1.3440 H     1 <1>   0.0800 
 35 H       -4.6860    -0.5110    -2.0750 H     1 <1>   0.0800 
 36 H       -0.3610     4.6270     1.5120 H     1 <1>   0.0800 
 37 H       -0.6490     4.8900    -0.1810 H     1 <1>   0.0800 
 38 H       -4.1040    -0.1330     0.7950 H     1 <1>   0.4500 
 39 H       -7.0320    -0.4060    -1.5530 H     1 <1>   0.0800 
 40 H       -8.1330    -0.2540    -0.2050 H     1 <1>   0.0800 
 41 H       -4.9910    -2.2290     1.2780 H     1 <1>   0.0800 
 42 H        0.9820     4.2270    -1.8260 H     1 <1>   0.1500 
 43 H        1.4080     2.9510     2.2240 H     1 <1>   0.1500 
 44 H       -2.6460    -2.2060     0.6220 H     1 <1>   0.1000 
 45 H       -6.0430    -3.6720    -0.3480 H     1 <1>   0.0800 
 46 H       -5.7310    -2.5490    -1.6460 H     1 <1>   0.0800 
 47 H        3.2380     3.4090    -2.3170 H     1 <1>   0.1500 
 48 H        3.6630     2.1330     1.7240 H     1 <1>   0.1500 
 49 H       -3.5340    -3.0500    -2.2670 H     1 <1>   0.1000 
 50 H       -1.8610    -2.8720    -1.6720 H     1 <1>   0.1000 
 51 H       -2.3270    -4.5840     0.1020 H     1 <1>   0.1000 
 52 H       -3.9950    -4.7480    -0.5040 H     1 <1>   0.1000 
 53 H        4.5850     2.3610    -0.5460 H     1 <1>   0.1500 
@<TRIPOS>BOND
  1   1   2  2   
  2   2   3  am  
  3   2   4  1   
  4   3   5  1   
  5   3   6  1   
  6   4   7  1   
  7   4  25  1   
  8   4  26  1   
  9   5   8  1   
 10   5  27  1   
 11   5  28  1   
 12   6   9  1   
 13   6  29  1   
 14   6  30  1   
 15   7  10  1   
 16   7  31  1   
 17   7  32  1   
 18   8  11  1   
 19   8  12  1   
 20   8  33  1   
 21   9  11  1   
 22   9  34  1   
 23   9  35  1   
 24  10  13  1   
 25  10  36  1   
 26  10  37  1   
 27  11  14  1   
 28  11  38  1   
 29  12  15  1   
 30  12  39  1   
 31  12  40  1   
 32  13  16  ar  
 33  13  17  ar  
 34  14  18  1   
 35  14  19  1   
 36  14  41  1   
 37  15  19  1   
 38  16  20  ar  
 39  16  42  1   
 40  17  21  ar  
 41  17  43  1   
 42  18  22  1   
 43  18  23  1   
 44  18  44  1   
 45  19  45  1   
 46  19  46  1   
 47  20  24  ar  
 48  20  47  1   
 49  21  24  ar  
 50  21  48  1   
 51  22  23  1   
 52  22  49  1   
 53  22  50  1   
 54  23  51  1   
 55  23  52  1   
 56  24  53  1   
@<TRIPOS>SUBSTRUCTURE
  1 ****   2 GROUP 4 **** **** 0

# MOE 2024.06 (io_trps.svl 2023.06)
