@<TRIPOS>MOLECULE
NONAME
53 56 1 0 0 
SMALL
USER_CHARGES


@<TRIPOS>ATOM
  1 F       -1.0690     3.7980    -0.5170 F     1 <1>  -0.1900 
  2 C        0.1770     4.1140    -0.2810 C.ar  1 <1>   0.1900 
  3 C        0.4740     4.8790     0.8300 C.ar  1 <1>  -0.1500 
  4 C        1.1540     3.6710    -1.1510 C.ar  1 <1>  -0.1500 
  5 C        1.7960     5.2110     1.0700 C.ar  1 <1>  -0.1500 
  6 C        2.4720     4.0100    -0.8960 C.ar  1 <1>  -0.1500 
  7 C        2.8130     4.7870     0.2130 C.ar  1 <1>   0.1170 
  8 N        4.1550     5.1440     0.4540 N.am  1 <1>  -0.4770 
  9 C        4.7910     5.3320     1.6490 C.2   1 <1>   0.5690 
 10 C        5.0830     5.4510    -0.6550 C.3   1 <1>   0.1400 
 11 O        4.3310     5.1590     2.7500 O.2   1 <1>  -0.5700 
 12 C        6.2040     5.8060     1.4570 C.3   1 <1>  -0.0990 
 13 C        6.2050     6.2690     0.0030 C.3   1 <1>   0.2890 
 14 N        5.8370     7.7070    -0.0300 N.pl3 1 <1>  -0.8690 
 15 C        6.5650     8.8080    -0.2650 C.ar  1 <1>   0.4100 
 16 N        5.8770     9.9240    -0.2380 N.ar  1 <1>  -0.6200 
 17 C        7.9490     8.7870    -0.5120 C.ar  1 <1>  -0.1500 
 18 C        6.5190    11.0660    -0.4460 C.ar  1 <1>   0.7710 
 19 C        8.5900     9.9600    -0.7350 C.ar  1 <1>   0.2180 
 20 N        7.8410    11.0890    -0.6990 N.ar  1 <1>  -0.1790 
 21 N        5.8280    12.2370    -0.4080 N.pl3 1 <1>  -0.8380 
 22 C       10.0830    10.0690    -1.0190 C.3   1 <1>  -0.0170 
 23 C        4.3220    12.2680    -0.2690 C.3   1 <1>   0.2090 
 24 C        6.3820    13.6370    -0.4480 C.3   1 <1>   0.2090 
 25 C       10.8240    10.8480     0.0770 C.3   1 <1>  -0.2400 
 26 C        3.8880    13.1890     0.8840 C.3   1 <1>   0.1200 
 27 C        5.8370    14.4830     0.7200 C.3   1 <1>   0.1200 
 28 O        4.4420    14.4640     0.7280 O.3   1 <1>  -0.5600 
 29 H       -0.3110     5.2030     1.4890 H     1 <1>   0.1500 
 30 H        0.8840     3.0740    -2.0030 H     1 <1>   0.1500 
 31 H        2.0390     5.8050     1.9330 H     1 <1>   0.1500 
 32 H        3.2370     3.6590    -1.5630 H     1 <1>   0.1500 
 33 H        4.5930     6.0050    -1.4370 H     1 <1>   0.0800 
 34 H        5.4750     4.5290    -1.0470 H     1 <1>   0.0800 
 35 H        6.8640     4.9710     1.5940 H     1 <1>   0.0800 
 36 H        6.4550     6.5920     2.1460 H     1 <1>   0.0800 
 37 H        7.1500     6.1020    -0.4830 H     1 <1>   0.0800 
 38 H        4.8490     7.8770     0.2000 H     1 <1>   0.4000 
 39 H        8.4690     7.8490    -0.5160 H     1 <1>   0.1500 
 40 H        8.2430    11.9990    -0.8720 H     1 <1>   0.4570 
 41 H       10.2390    10.5450    -1.9720 H     1 <1>   0.0800 
 42 H       10.5070     9.0810    -1.0830 H     1 <1>   0.0800 
 43 H        3.9090    11.2900    -0.0930 H     1 <1>   0.0800 
 44 H        3.8900    12.6360    -1.1840 H     1 <1>   0.0800 
 45 H        6.0910    14.1080    -1.3730 H     1 <1>   0.0800 
 46 H        7.4540    13.6430    -0.3960 H     1 <1>   0.0800 
 47 H       10.4940    11.8700     0.1300 H     1 <1>   0.0800 
 48 H       11.8810    10.8510    -0.1310 H     1 <1>   0.0800 
 49 H       10.6750    10.3830     1.0370 H     1 <1>   0.0800 
 50 H        4.2000    12.7870     1.8330 H     1 <1>   0.0800 
 51 H        2.8180    13.2950     0.8910 H     1 <1>   0.0800 
 52 H        6.1460    15.5090     0.6140 H     1 <1>   0.0800 
 53 H        6.1920    14.1120     1.6650 H     1 <1>   0.0800 
@<TRIPOS>BOND
  1   1   2  1   
  2   2   3  ar  
  3   2   4  ar  
  4   3   5  ar  
  5   3  29  1   
  6   4   6  ar  
  7   4  30  1   
  8   5   7  ar  
  9   5  31  1   
 10   6   7  ar  
 11   6  32  1   
 12   7   8  1   
 13   8   9  am  
 14   8  10  1   
 15   9  11  2   
 16   9  12  1   
 17  10  13  1   
 18  10  33  1   
 19  10  34  1   
 20  12  13  1   
 21  12  35  1   
 22  12  36  1   
 23  13  14  1   
 24  13  37  1   
 25  14  15  1   
 26  14  38  1   
 27  15  16  ar  
 28  15  17  ar  
 29  16  18  ar  
 30  17  19  ar  
 31  17  39  1   
 32  18  20  ar  
 33  18  21  1   
 34  19  20  ar  
 35  19  22  1   
 36  20  40  1   
 37  21  23  1   
 38  21  24  1   
 39  22  25  1   
 40  22  41  1   
 41  22  42  1   
 42  23  26  1   
 43  23  43  1   
 44  23  44  1   
 45  24  27  1   
 46  24  45  1   
 47  24  46  1   
 48  25  47  1   
 49  25  48  1   
 50  25  49  1   
 51  26  28  1   
 52  26  50  1   
 53  26  51  1   
 54  27  28  1   
 55  27  52  1   
 56  27  53  1   
@<TRIPOS>SUBSTRUCTURE
  1 ****  14 GROUP 4 **** **** 0

# MOE 2024.06 (io_trps.svl 2023.06)
