@<TRIPOS>MOLECULE
NONAME
52 55 1 0 0 
SMALL
USER_CHARGES


@<TRIPOS>ATOM
  1 O        0.4470     2.2650     1.6200 O.2   1 <1>  -0.5700 
  2 C        1.2480     3.1080     1.3160 C.2   1 <1>   0.4230 
  3 C        2.6520     3.1310     1.5800 C.ar  1 <1>   0.0860 
  4 C        0.8660     4.3570     0.5560 C.3   1 <1>  -0.0990 
  5 C        3.2480     4.2570     1.0410 C.ar  1 <1>  -0.1440 
  6 C        3.4150     2.2080     2.2810 C.ar  1 <1>  -0.1500 
  7 C        2.1950     5.1090     0.3410 C.3   1 <1>  -0.0160 
  8 C        4.6160     4.5090     1.1810 C.ar  1 <1>   0.0860 
  9 C        4.7680     2.4310     2.4440 C.ar  1 <1>  -0.1500 
 10 C        5.2950     5.6720     0.6260 C.2   1 <1>   0.5440 
 11 C        5.3520     3.5650     1.9050 C.ar  1 <1>  -0.1500 
 12 O        6.3020     6.1190     1.1420 O.2   1 <1>  -0.5700 
 13 N        4.9170     6.2560    -0.5570 N.am  1 <1>  -0.6600 
 14 C        5.3760     5.6490    -1.8440 C.3   1 <1>   0.1400 
 15 C        4.5750     7.7070    -0.6120 C.3   1 <1>   0.1400 
 16 C        6.9080     5.7650    -2.0260 C.3   1 <1>   0.3430 
 17 C        5.8130     8.6180    -0.6490 C.3   1 <1>  -0.1600 
 18 N        7.4790     6.9330    -1.2870 N.4   1 <1>  -0.9590 
 19 C        6.8820     8.2380    -1.6750 C.3   1 <1>   0.3430 
 20 C        8.9830     6.9460    -1.2450 C.3   1 <1>   0.5240 
 21 C        9.5470     7.8330    -0.1330 C.2   1 <1>   0.3350 
 22 N       10.1720     7.3880     0.8820 N.2   1 <1>  -0.4100 
 23 N        9.4210     9.1560    -0.1400 N.2   1 <1>  -0.5650 
 24 O       10.4920     8.4120     1.6140 O.3   1 <1>  -0.0190 
 25 C       10.0140     9.4380     0.9520 C.2   1 <1>   0.2980 
 26 C       10.2040    10.8300     1.5270 C.3   1 <1>   0.0200 
 27 C        9.3720    11.0410     2.7980 C.3   1 <1>  -0.2400 
 28 H        0.1780     4.9390     1.1420 H     1 <1>   0.0800 
 29 H        0.4090     4.0890    -0.3790 H     1 <1>   0.0800 
 30 H        2.9390     1.3330     2.6930 H     1 <1>   0.1500 
 31 H        2.1510     6.0910     0.7780 H     1 <1>   0.0800 
 32 H        2.4080     5.1870    -0.7100 H     1 <1>   0.0800 
 33 H        5.3660     1.7240     2.9940 H     1 <1>   0.1500 
 34 H        6.4060     3.7250     2.0550 H     1 <1>   0.1500 
 35 H        4.8810     6.1350    -2.6670 H     1 <1>   0.0800 
 36 H        5.0940     4.6100    -1.8720 H     1 <1>   0.0800 
 37 H        3.9870     7.9580     0.2550 H     1 <1>   0.0800 
 38 H        3.9620     7.8910    -1.4790 H     1 <1>   0.0800 
 39 H        7.1430     5.8280    -3.0760 H     1 <1>   0.0800 
 40 H        7.3550     4.8610    -1.6450 H     1 <1>   0.0800 
 41 H        6.2590     8.6620     0.3300 H     1 <1>   0.0800 
 42 H        5.4790     9.6160    -0.8700 H     1 <1>   0.0800 
 43 H        7.1710     6.7910    -0.2960 H     1 <1>   0.4500 
 44 H        7.6380     9.0060    -1.6860 H     1 <1>   0.0800 
 45 H        6.4510     8.1800    -2.6610 H     1 <1>   0.0800 
 46 H        9.3740     7.2840    -2.1890 H     1 <1>   0.0800 
 47 H        9.3430     5.9460    -1.0720 H     1 <1>   0.0800 
 48 H        9.9160    11.5570     0.7880 H     1 <1>   0.0800 
 49 H       11.2470    10.9770     1.7470 H     1 <1>   0.0800 
 50 H        8.3260    10.9000     2.5860 H     1 <1>   0.0800 
 51 H        9.5160    12.0390     3.1740 H     1 <1>   0.0800 
 52 H        9.6670    10.3410     3.5600 H     1 <1>   0.0800 
@<TRIPOS>BOND
  1   1   2  2   
  2   2   3  1   
  3   2   4  1   
  4   3   5  ar  
  5   3   6  ar  
  6   4   7  1   
  7   4  28  1   
  8   4  29  1   
  9   5   7  1   
 10   5   8  ar  
 11   6   9  ar  
 12   6  30  1   
 13   7  31  1   
 14   7  32  1   
 15   8  10  1   
 16   8  11  ar  
 17   9  11  ar  
 18   9  33  1   
 19  10  12  2   
 20  10  13  am  
 21  11  34  1   
 22  13  14  1   
 23  13  15  1   
 24  14  16  1   
 25  14  35  1   
 26  14  36  1   
 27  15  17  1   
 28  15  37  1   
 29  15  38  1   
 30  16  18  1   
 31  16  39  1   
 32  16  40  1   
 33  17  19  1   
 34  17  41  1   
 35  17  42  1   
 36  18  19  1   
 37  18  20  1   
 38  18  43  1   
 39  19  44  1   
 40  19  45  1   
 41  20  21  1   
 42  20  46  1   
 43  20  47  1   
 44  21  22  2   
 45  21  23  1   
 46  22  24  1   
 47  23  25  2   
 48  24  25  1   
 49  25  26  1   
 50  26  27  1   
 51  26  48  1   
 52  26  49  1   
 53  27  50  1   
 54  27  51  1   
 55  27  52  1   
@<TRIPOS>SUBSTRUCTURE
  1 ****  12 GROUP 4 **** **** 0

# MOE 2024.06 (io_trps.svl 2023.06)
