@<TRIPOS>MOLECULE
NONAME
44 46 1 0 0 
SMALL
USER_CHARGES


@<TRIPOS>ATOM
  1 F       -1.0480    -2.8910    -1.7510 F     1 <1>  -0.1900 
  2 C       -1.8440    -2.6150    -0.7490 C.ar  1 <1>   0.1900 
  3 C       -2.2380    -1.3050    -0.4560 C.ar  1 <1>   0.0820 
  4 C       -2.2780    -3.6950    -0.0030 C.ar  1 <1>  -0.1500 
  5 O       -1.8800    -0.1690    -1.1150 O.3   1 <1>  -0.3630 
  6 C       -3.0880    -1.1210     0.6240 C.ar  1 <1>  -0.1500 
  7 C       -3.1320    -3.4890     1.0710 C.ar  1 <1>  -0.1430 
  8 C       -0.9580    -0.1540    -2.1830 C.3   1 <1>   0.0400 
  9 C       -3.5310    -2.1950     1.3810 C.ar  1 <1>  -0.1500 
 10 C       -3.6290    -4.6660     1.8880 C.3   1 <1>   0.4870 
 11 N       -4.5780    -5.4360     1.0490 N.4   1 <1>  -0.9590 
 12 C       -5.8160    -4.6940     0.6410 C.3   1 <1>   0.3430 
 13 C       -5.0100    -6.7420     1.5930 C.3   1 <1>   0.3430 
 14 C       -6.9590    -5.7230     0.6990 C.3   1 <1>   0.2000 
 15 C       -6.2540    -7.0800     0.7660 C.3   1 <1>  -0.0800 
 16 O       -7.6990    -5.5420     1.8620 O.3   1 <1>  -0.6800 
 17 C       -5.9430    -7.5950    -0.6680 C.3   1 <1>  -0.0170 
 18 C       -4.5340    -8.1390    -0.8740 C.ar  1 <1>   0.1670 
 19 N       -3.5670    -7.2360    -1.0070 N.ar  1 <1>  -0.6200 
 20 C       -4.3180    -9.5150    -0.9250 C.ar  1 <1>   0.1600 
 21 C       -2.3890    -7.8060    -1.2290 C.ar  1 <1>   0.1600 
 22 N       -3.1370   -10.0760    -1.1100 N.ar  1 <1>  -0.6200 
 23 C       -2.1810    -9.1800    -1.2750 C.ar  1 <1>   0.1600 
 24 H       -1.9390    -4.6790    -0.2750 H     1 <1>   0.1500 
 25 H       -3.4000    -0.1200     0.8700 H     1 <1>   0.1500 
 26 H       -0.8200     0.8660    -2.4910 H     1 <1>   0.0800 
 27 H       -1.3560    -0.7300    -2.9990 H     1 <1>   0.0800 
 28 H       -0.0210    -0.5610    -1.8430 H     1 <1>   0.0800 
 29 H       -4.1870    -2.0010     2.2130 H     1 <1>   0.1500 
 30 H       -4.1160    -4.3180     2.7840 H     1 <1>   0.0800 
 31 H       -2.7930    -5.2860     2.1670 H     1 <1>   0.0800 
 32 H       -4.0730    -5.6800     0.1710 H     1 <1>   0.4500 
 33 H       -6.0260    -3.8700     1.3030 H     1 <1>   0.0800 
 34 H       -5.6980    -4.3220    -0.3630 H     1 <1>   0.0800 
 35 H       -4.2400    -7.4910     1.4960 H     1 <1>   0.0800 
 36 H       -5.2800    -6.6400     2.6310 H     1 <1>   0.0800 
 37 H       -7.6380    -5.6270    -0.1330 H     1 <1>   0.0800 
 38 H       -6.8550    -7.8150     1.2750 H     1 <1>   0.0800 
 39 H       -7.1840    -5.6640     2.6820 H     1 <1>   0.4000 
 40 H       -6.0780    -6.8080    -1.3910 H     1 <1>   0.0800 
 41 H       -6.6610    -8.3560    -0.9240 H     1 <1>   0.0800 
 42 H       -5.1530   -10.1850    -0.8090 H     1 <1>   0.1500 
 43 H       -1.5420    -7.1610    -1.3850 H     1 <1>   0.1500 
 44 H       -1.1870    -9.5500    -1.4570 H     1 <1>   0.1500 
@<TRIPOS>BOND
  1   1   2  1   
  2   2   3  ar  
  3   2   4  ar  
  4   3   5  1   
  5   3   6  ar  
  6   4   7  ar  
  7   4  24  1   
  8   5   8  1   
  9   6   9  ar  
 10   6  25  1   
 11   7   9  ar  
 12   7  10  1   
 13   8  26  1   
 14   8  27  1   
 15   8  28  1   
 16   9  29  1   
 17  10  11  1   
 18  10  30  1   
 19  10  31  1   
 20  11  12  1   
 21  11  13  1   
 22  11  32  1   
 23  12  14  1   
 24  12  33  1   
 25  12  34  1   
 26  13  15  1   
 27  13  35  1   
 28  13  36  1   
 29  14  15  1   
 30  14  16  1   
 31  14  37  1   
 32  15  17  1   
 33  15  38  1   
 34  16  39  1   
 35  17  18  1   
 36  17  40  1   
 37  17  41  1   
 38  18  19  ar  
 39  18  20  ar  
 40  19  21  ar  
 41  20  22  ar  
 42  20  42  1   
 43  21  23  ar  
 44  21  43  1   
 45  22  23  ar  
 46  23  44  1   
@<TRIPOS>SUBSTRUCTURE
  1 ****  11 GROUP 4 **** **** 0

# MOE 2024.06 (io_trps.svl 2023.06)
