@<TRIPOS>MOLECULE
NONAME
49 51 1 0 0 
SMALL
USER_CHARGES


@<TRIPOS>ATOM
  1 O       -1.0270     0.1040    -2.4870 O.2   1 <1>  -0.5700 
  2 C       -1.5910     0.8220    -1.6940 C.2   1 <1>   0.5690 
  3 N       -2.5080     0.3120    -0.8100 N.am  1 <1>  -0.6600 
  4 C       -1.2840     2.3170    -1.7430 C.3   1 <1>   0.1810 
  5 C       -3.2590     1.0780     0.2170 C.3   1 <1>   0.1400 
  6 C       -2.7980    -1.1360    -0.7060 C.3   1 <1>   0.1400 
  7 O       -0.8840     2.8130    -0.4740 O.3   1 <1>  -0.3620 
  8 C       -4.1670     0.0460     0.8860 C.3   1 <1>   0.2000 
  9 C       -3.5010    -1.3060     0.6410 C.3   1 <1>  -0.0800 
 10 C       -0.6990     4.1410    -0.2690 C.ar  1 <1>   0.0820 
 11 O       -4.2880     0.2780     2.2470 O.3   1 <1>  -0.6800 
 12 C       -4.4940    -2.4780     0.6780 C.3   1 <1>  -0.0170 
 13 C       -0.4730     4.5450     1.0360 C.ar  1 <1>  -0.1500 
 14 C       -0.7290     5.0930    -1.2810 C.ar  1 <1>  -0.1500 
 15 C       -3.7880    -3.8010     0.4230 C.ar  1 <1>  -0.1440 
 16 C       -0.2850     5.8820     1.3490 C.ar  1 <1>  -0.1440 
 17 C       -0.5410     6.4280    -0.9740 C.ar  1 <1>  -0.1500 
 18 C       -3.7770    -4.4010    -0.8210 C.ar  1 <1>  -0.1500 
 19 C       -3.1180    -4.4680     1.4280 C.ar  1 <1>  -0.1500 
 20 C       -0.3200     6.8330     0.3340 C.ar  1 <1>  -0.1440 
 21 C       -0.0420     6.2730     2.8000 C.3   1 <1>  -0.0970 
 22 C       -3.1110    -5.6040    -0.9930 C.ar  1 <1>   0.1600 
 23 C       -2.4850    -5.6680     1.1490 C.ar  1 <1>   0.1600 
 24 C       -0.1190     8.3140     0.6260 C.3   1 <1>  -0.0970 
 25 N       -2.4640    -6.2520    -0.0380 N.ar  1 <1>  -0.6200 
 26 H       -2.1640     2.8470    -2.0550 H     1 <1>   0.0800 
 27 H       -0.4840     2.4940    -2.4380 H     1 <1>   0.0800 
 28 H       -2.5660     1.4940     0.9280 H     1 <1>   0.0800 
 29 H       -3.8370     1.8610    -0.2410 H     1 <1>   0.0800 
 30 H       -3.4440    -1.4180    -1.5200 H     1 <1>   0.0800 
 31 H       -1.8900    -1.7160    -0.7550 H     1 <1>   0.0800 
 32 H       -5.1500     0.0860     0.4470 H     1 <1>   0.0800 
 33 H       -2.7340    -1.4650     1.3790 H     1 <1>   0.0800 
 34 H       -3.4090     0.2630     2.6730 H     1 <1>   0.4000 
 35 H       -5.2660    -2.3310    -0.0570 H     1 <1>   0.0800 
 36 H       -4.9690    -2.5110     1.6430 H     1 <1>   0.0800 
 37 H       -0.4470     3.7950     1.8050 H     1 <1>   0.1500 
 38 H       -0.8910     4.8210    -2.3060 H     1 <1>   0.1500 
 39 H       -0.5670     7.1560    -1.7660 H     1 <1>   0.1500 
 40 H       -4.2760    -3.9490    -1.6570 H     1 <1>   0.1500 
 41 H       -3.0830    -4.0680     2.4240 H     1 <1>   0.1500 
 42 H       -0.0520     5.4100     3.4390 H     1 <1>   0.0800 
 43 H       -0.8090     6.9490     3.1320 H     1 <1>   0.0800 
 44 H        0.9150     6.7520     2.8960 H     1 <1>   0.0800 
 45 H       -3.1110    -6.0570    -1.9700 H     1 <1>   0.1500 
 46 H       -1.9670    -6.1750     1.9460 H     1 <1>   0.1500 
 47 H       -0.1770     8.8970    -0.2740 H     1 <1>   0.0800 
 48 H        0.8480     8.4740     1.0690 H     1 <1>   0.0800 
 49 H       -0.8780     8.6620     1.3030 H     1 <1>   0.0800 
@<TRIPOS>BOND
  1   1   2  2   
  2   2   3  am  
  3   2   4  1   
  4   3   5  1   
  5   3   6  1   
  6   4   7  1   
  7   4  26  1   
  8   4  27  1   
  9   5   8  1   
 10   5  28  1   
 11   5  29  1   
 12   6   9  1   
 13   6  30  1   
 14   6  31  1   
 15   7  10  1   
 16   8   9  1   
 17   8  11  1   
 18   8  32  1   
 19   9  12  1   
 20   9  33  1   
 21  10  13  ar  
 22  10  14  ar  
 23  11  34  1   
 24  12  15  1   
 25  12  35  1   
 26  12  36  1   
 27  13  16  ar  
 28  13  37  1   
 29  14  17  ar  
 30  14  38  1   
 31  15  18  ar  
 32  15  19  ar  
 33  16  20  ar  
 34  16  21  1   
 35  17  20  ar  
 36  17  39  1   
 37  18  22  ar  
 38  18  40  1   
 39  19  23  ar  
 40  19  41  1   
 41  20  24  1   
 42  21  42  1   
 43  21  43  1   
 44  21  44  1   
 45  22  25  ar  
 46  22  45  1   
 47  23  25  ar  
 48  23  46  1   
 49  24  47  1   
 50  24  48  1   
 51  24  49  1   
@<TRIPOS>SUBSTRUCTURE
  1 ****   3 GROUP 4 **** **** 0

# MOE 2024.06 (io_trps.svl 2023.06)
