@<TRIPOS>MOLECULE
NONAME
63 65 1 0 0 
SMALL
USER_CHARGES


@<TRIPOS>ATOM
  1 F       -1.2650    -1.1150    -1.6320 F     1 <1>  -0.1900 
  2 C       -2.3870    -0.5250    -1.3050 C.ar  1 <1>   0.1900 
  3 C       -2.4150     0.6440    -0.5370 C.ar  1 <1>   0.0830 
  4 C       -3.5490    -1.1170    -1.7640 C.ar  1 <1>  -0.1500 
  5 O       -1.3440     1.3190    -0.0280 O.3   1 <1>  -0.3630 
  6 C       -3.6540     1.1930    -0.2490 C.ar  1 <1>  -0.1500 
  7 C       -4.7680    -0.5420    -1.4580 C.ar  1 <1>  -0.1500 
  8 C       -0.0130     0.8800    -0.1850 C.3   1 <1>   0.0400 
  9 C       -4.8480     0.6210    -0.6910 C.ar  1 <1>   0.0530 
 10 C       -6.1100     1.2390    -0.3740 C.2   1 <1>   0.0870 
 11 O       -6.2330     2.5350    -0.5080 O.3   1 <1>  -0.0190 
 12 C       -7.3080     0.7690     0.0740 C.2   1 <1>  -0.0860 
 13 N       -7.4210     2.9720    -0.1930 N.2   1 <1>  -0.4100 
 14 C       -8.0880     1.9320     0.1610 C.2   1 <1>   0.3720 
 15 C       -7.7290    -0.5550     0.4230 C.2   1 <1>   0.7160 
 16 N       -9.4250     2.0010     0.5880 N.pl3 1 <1>  -0.8210 
 17 O       -6.9790    -1.5120     0.3630 O.2   1 <1>  -0.5700 
 18 N       -9.0070    -0.7850     0.8370 N.am  1 <1>  -0.7300 
 19 C      -10.3210     2.6160    -0.4330 C.3   1 <1>   0.1290 
 20 C       -9.5600     2.7020     1.8960 C.3   1 <1>   0.1290 
 21 C       -9.4990    -2.0180     1.4720 C.3   1 <1>   0.1400 
 22 C       -9.8780    -3.0140     0.3760 C.3   1 <1>  -0.1600 
 23 C      -10.1780    -4.3830     0.9790 C.3   1 <1>   0.3430 
 24 N      -10.3180    -5.4000    -0.0980 N.4   1 <1>  -0.9590 
 25 C      -11.5480    -5.1880    -0.9460 C.3   1 <1>   0.3430 
 26 C      -10.3220    -6.7930     0.4740 C.3   1 <1>   0.3430 
 27 C      -11.7610    -6.3340    -1.9620 C.3   1 <1>   0.2000 
 28 C      -10.5930    -7.8690    -0.6050 C.3   1 <1>   0.2000 
 29 O      -11.7650    -7.5590    -1.2950 O.3   1 <1>  -0.5600 
 30 C      -13.1020    -6.2180    -2.6810 C.3   1 <1>  -0.2400 
 31 C      -10.7920    -9.2530     0.0050 C.3   1 <1>  -0.2400 
 32 H       -3.4940    -2.0140    -2.3530 H     1 <1>   0.1500 
 33 H       -3.6900     2.0930     0.3390 H     1 <1>   0.1500 
 34 H       -5.6730    -0.9990    -1.8170 H     1 <1>   0.1500 
 35 H        0.6300     1.5730     0.3280 H     1 <1>   0.0800 
 36 H        0.2300     0.8650    -1.2330 H     1 <1>   0.0800 
 37 H        0.0860    -0.0990     0.2490 H     1 <1>   0.0800 
 38 H       -9.5860     0.0690     0.9050 H     1 <1>   0.3700 
 39 H      -11.3510     2.4870    -0.1470 H     1 <1>   0.0800 
 40 H      -10.1650     2.1460    -1.3890 H     1 <1>   0.0800 
 41 H      -10.1100     3.6690    -0.5290 H     1 <1>   0.0800 
 42 H      -10.5710     2.6190     2.2580 H     1 <1>   0.0800 
 43 H       -9.3060     3.7430     1.7880 H     1 <1>   0.0800 
 44 H       -8.8960     2.2590     2.6190 H     1 <1>   0.0800 
 45 H       -8.7140    -2.4230     2.0920 H     1 <1>   0.0800 
 46 H      -10.3460    -1.7870     2.0970 H     1 <1>   0.0800 
 47 H       -9.0480    -3.1050    -0.3030 H     1 <1>   0.0800 
 48 H      -10.7340    -2.6340    -0.1510 H     1 <1>   0.0800 
 49 H      -11.0790    -4.3390     1.5720 H     1 <1>   0.0800 
 50 H       -9.3610    -4.6610     1.6270 H     1 <1>   0.0800 
 51 H       -9.4970    -5.3210    -0.7140 H     1 <1>   0.4500 
 52 H      -12.4190    -5.1370    -0.3150 H     1 <1>   0.0800 
 53 H      -11.4730    -4.2570    -1.4820 H     1 <1>   0.0800 
 54 H       -9.3760    -7.0000     0.9470 H     1 <1>   0.0800 
 55 H      -11.0900    -6.8750     1.2240 H     1 <1>   0.0800 
 56 H      -10.9670    -6.3450    -2.6900 H     1 <1>   0.0800 
 57 H       -9.7810    -7.9060    -1.3130 H     1 <1>   0.0800 
 58 H      -13.9150    -6.2490    -1.9760 H     1 <1>   0.0800 
 59 H      -13.2130    -7.0320    -3.3760 H     1 <1>   0.0800 
 60 H      -13.1560    -5.2970    -3.2320 H     1 <1>   0.0800 
 61 H      -11.6250    -9.2520     0.6860 H     1 <1>   0.0800 
 62 H       -9.9100    -9.5610     0.5370 H     1 <1>   0.0800 
 63 H      -10.9810    -9.9710    -0.7740 H     1 <1>   0.0800 
@<TRIPOS>BOND
  1   1   2  1   
  2   2   3  ar  
  3   2   4  ar  
  4   3   5  1   
  5   3   6  ar  
  6   4   7  ar  
  7   4  32  1   
  8   5   8  1   
  9   6   9  ar  
 10   6  33  1   
 11   7   9  ar  
 12   7  34  1   
 13   8  35  1   
 14   8  36  1   
 15   8  37  1   
 16   9  10  1   
 17  10  11  1   
 18  10  12  2   
 19  11  13  1   
 20  12  14  1   
 21  12  15  1   
 22  13  14  2   
 23  14  16  1   
 24  15  17  2   
 25  15  18  am  
 26  16  19  1   
 27  16  20  1   
 28  18  21  1   
 29  18  38  1   
 30  19  39  1   
 31  19  40  1   
 32  19  41  1   
 33  20  42  1   
 34  20  43  1   
 35  20  44  1   
 36  21  22  1   
 37  21  45  1   
 38  21  46  1   
 39  22  23  1   
 40  22  47  1   
 41  22  48  1   
 42  23  24  1   
 43  23  49  1   
 44  23  50  1   
 45  24  25  1   
 46  24  26  1   
 47  24  51  1   
 48  25  27  1   
 49  25  52  1   
 50  25  53  1   
 51  26  28  1   
 52  26  54  1   
 53  26  55  1   
 54  27  29  1   
 55  27  30  1   
 56  27  56  1   
 57  28  29  1   
 58  28  31  1   
 59  28  57  1   
 60  30  58  1   
 61  30  59  1   
 62  30  60  1   
 63  31  61  1   
 64  31  62  1   
 65  31  63  1   
@<TRIPOS>SUBSTRUCTURE
  1 ****  17 GROUP 4 **** **** 0

# MOE 2024.06 (io_trps.svl 2023.06)
