@<TRIPOS>MOLECULE
NONAME
40 40 1 0 0 
SMALL
USER_CHARGES


@<TRIPOS>ATOM
  1 S        0.8340     0.3110    -0.8940 S.o2  1 <1>   1.3330 
  2 O        1.9900    -0.4290    -1.3490 O.2   1 <1>  -0.6500 
  3 O       -0.0260     0.9710    -1.8480 O.2   1 <1>  -0.6500 
  4 N        1.3790     1.4620     0.2280 N.am  1 <1>  -0.8490 
  5 C       -0.1940    -0.7570     0.0920 C.3   1 <1>  -0.1350 
  6 C        1.7890     2.7070    -0.4540 C.3   1 <1>   0.1960 
  7 C        2.4660     0.9380     1.0740 C.3   1 <1>   0.1160 
  8 C        1.9390     3.8940     0.5100 C.3   1 <1>   0.2090 
  9 N        2.4280     5.0900    -0.2190 N.pl3 1 <1>  -0.8690 
 10 C        3.6980     5.5570    -0.0960 C.ar  1 <1>   0.4100 
 11 N        3.7760     6.8670     0.0340 N.ar  1 <1>  -0.6200 
 12 C        4.8110     4.7200    -0.1060 C.ar  1 <1>  -0.1500 
 13 C        4.9960     7.3640     0.1620 C.ar  1 <1>   0.1600 
 14 C        6.0700     5.2530     0.0260 C.ar  1 <1>  -0.1500 
 15 C        6.1860     6.6350     0.1610 C.ar  1 <1>   0.0860 
 16 C        7.4580     7.3070     0.2950 C.2   1 <1>   0.5440 
 17 O        7.5220     8.4140     0.7930 O.2   1 <1>  -0.5700 
 18 N        8.6140     6.7220    -0.1470 N.am  1 <1>  -0.7300 
 19 C        9.9610     7.3140    -0.0370 C.3   1 <1>   0.1400 
 20 C       10.9630     6.1990     0.2330 C.3   1 <1>  -0.2400 
 21 H       -0.6330    -1.5140    -0.5280 H     1 <1>   0.0800 
 22 H       -0.9810    -0.1880     0.5480 H     1 <1>   0.0800 
 23 H        0.3810    -1.2340     0.8590 H     1 <1>   0.0800 
 24 H        1.0410     2.9910    -1.1740 H     1 <1>   0.0800 
 25 H        2.7110     2.5430    -0.9850 H     1 <1>   0.0800 
 26 H        2.1750     0.0010     1.5160 H     1 <1>   0.0800 
 27 H        2.6910     1.6200     1.8740 H     1 <1>   0.0800 
 28 H        3.3560     0.7750     0.4870 H     1 <1>   0.0800 
 29 H        2.6320     3.6610     1.2980 H     1 <1>   0.0800 
 30 H        0.9820     4.1160     0.9500 H     1 <1>   0.0800 
 31 H        1.7590     5.8660    -0.2380 H     1 <1>   0.4000 
 32 H        4.6750     3.6630    -0.2240 H     1 <1>   0.1500 
 33 H        5.0690     8.4330     0.2740 H     1 <1>   0.1500 
 34 H        6.9380     4.6200     0.0300 H     1 <1>   0.1500 
 35 H        8.5620     5.8610    -0.6920 H     1 <1>   0.3700 
 36 H        9.9830     8.0320     0.7670 H     1 <1>   0.0800 
 37 H       10.2030     7.8220    -0.9550 H     1 <1>   0.0800 
 38 H       10.7190     5.6960     1.1520 H     1 <1>   0.0800 
 39 H       11.9490     6.6170     0.3280 H     1 <1>   0.0800 
 40 H       10.9700     5.4920    -0.5770 H     1 <1>   0.0800 
@<TRIPOS>BOND
  1   1   2  2   
  2   1   3  2   
  3   1   4  am  
  4   1   5  1   
  5   4   6  1   
  6   4   7  1   
  7   5  21  1   
  8   5  22  1   
  9   5  23  1   
 10   6   8  1   
 11   6  24  1   
 12   6  25  1   
 13   7  26  1   
 14   7  27  1   
 15   7  28  1   
 16   8   9  1   
 17   8  29  1   
 18   8  30  1   
 19   9  10  1   
 20   9  31  1   
 21  10  11  ar  
 22  10  12  ar  
 23  11  13  ar  
 24  12  14  ar  
 25  12  32  1   
 26  13  15  ar  
 27  13  33  1   
 28  14  15  ar  
 29  14  34  1   
 30  15  16  1   
 31  16  17  2   
 32  16  18  am  
 33  18  19  1   
 34  18  35  1   
 35  19  20  1   
 36  19  36  1   
 37  19  37  1   
 38  20  38  1   
 39  20  39  1   
 40  20  40  1   
@<TRIPOS>SUBSTRUCTURE
  1 ****  12 GROUP 4 **** **** 0

# MOE 2024.06 (io_trps.svl 2023.06)
