@<TRIPOS>MOLECULE
NONAME
57 60 1 0 0 
SMALL
USER_CHARGES


@<TRIPOS>ATOM
  1 O       -2.1610     0.1640    -2.0900 O.2   1 <1>  -0.5700 
  2 C       -1.9210     0.2140    -0.9070 C.2   1 <1>   0.5690 
  3 N       -1.7470    -0.9150    -0.1780 N.am  1 <1>  -0.7300 
  4 C       -1.8580     1.5610    -0.1900 C.3   1 <1>  -0.0190 
  5 C       -1.8450    -2.2950    -0.7090 C.3   1 <1>   0.2200 
  6 C       -3.2750     2.1010     0.0770 C.3   1 <1>  -0.1600 
  7 C       -1.0290     2.5990    -0.9700 C.3   1 <1>  -0.1600 
  8 C       -3.2070    -2.9120    -0.4070 C.3   1 <1>  -0.0800 
  9 C       -0.9430    -3.1980     0.1200 C.3   1 <1>   0.1200 
 10 C       -3.2350     3.4530     0.8010 C.3   1 <1>  -0.1600 
 11 C       -0.9900     3.9530    -0.2480 C.3   1 <1>  -0.1600 
 12 C       -3.0360    -3.4020     1.0380 C.3   1 <1>   0.1200 
 13 C       -4.4130    -1.9740    -0.6290 C.3   1 <1>  -0.0170 
 14 O       -1.6610    -3.4460     1.2920 O.3   1 <1>  -0.5600 
 15 C       -2.4070     4.4930     0.0260 C.3   1 <1>  -0.0800 
 16 C       -5.8070    -2.5770    -0.4270 C.ar  1 <1>  -0.1440 
 17 C       -2.3830     5.8210     0.8060 C.3   1 <1>  -0.1600 
 18 C       -6.9390    -1.7240    -0.4230 C.ar  1 <1>   0.0000 
 19 C       -6.0380    -3.9130    -0.2530 C.ar  1 <1>  -0.1500 
 20 C       -1.7310     6.9730     0.0310 C.3   1 <1>  -0.2400 
 21 C       -8.2110    -2.3070    -0.2000 C.ar  1 <1>   0.3100 
 22 C       -6.8850    -0.3250    -0.6350 C.ar  1 <1>  -0.1500 
 23 C       -7.3400    -4.3880    -0.0520 C.ar  1 <1>   0.1600 
 24 N       -8.3930    -3.6380    -0.0160 N.ar  1 <1>  -0.6200 
 25 C       -9.3450    -1.4800    -0.1710 C.ar  1 <1>  -0.1500 
 26 C       -8.0110     0.4530    -0.6050 C.ar  1 <1>  -0.1500 
 27 C       -9.2580    -0.1290    -0.3660 C.ar  1 <1>  -0.1500 
 28 H       -1.5970    -0.8710     0.8330 H     1 <1>   0.3700 
 29 H       -1.3760     1.4070     0.7590 H     1 <1>   0.0800 
 30 H       -1.5990    -2.3170    -1.7580 H     1 <1>   0.0800 
 31 H       -3.7910     2.2150    -0.8620 H     1 <1>   0.0800 
 32 H       -3.8260     1.3940     0.6710 H     1 <1>   0.0800 
 33 H       -0.0260     2.2310    -1.1030 H     1 <1>   0.0800 
 34 H       -1.4580     2.7340    -1.9490 H     1 <1>   0.0800 
 35 H       -3.3150    -3.7700    -1.0450 H     1 <1>   0.0800 
 36 H        0.0010    -2.7420     0.3590 H     1 <1>   0.0800 
 37 H       -0.7830    -4.1390    -0.3760 H     1 <1>   0.0800 
 38 H       -2.8120     3.3170     1.7820 H     1 <1>   0.0800 
 39 H       -4.2420     3.8140     0.9250 H     1 <1>   0.0800 
 40 H       -0.4430     4.6470    -0.8610 H     1 <1>   0.0800 
 41 H       -0.4600     3.8460     0.6830 H     1 <1>   0.0800 
 42 H       -3.4450    -4.3860     1.1840 H     1 <1>   0.0800 
 43 H       -3.4760    -2.7180     1.7430 H     1 <1>   0.0800 
 44 H       -4.3580    -1.5830    -1.6310 H     1 <1>   0.0800 
 45 H       -4.3190    -1.1460     0.0490 H     1 <1>   0.0800 
 46 H       -2.8920     4.6660    -0.9210 H     1 <1>   0.0800 
 47 H       -3.3960     6.1060     1.0350 H     1 <1>   0.0800 
 48 H       -1.8660     5.6850     1.7410 H     1 <1>   0.0800 
 49 H       -5.2550    -4.6450    -0.2620 H     1 <1>   0.1500 
 50 H       -2.1990     7.0930    -0.9300 H     1 <1>   0.0800 
 51 H       -0.6800     6.7980    -0.1110 H     1 <1>   0.0800 
 52 H       -1.8440     7.8910     0.5810 H     1 <1>   0.0800 
 53 H       -5.9410     0.1470    -0.8320 H     1 <1>   0.1500 
 54 H       -7.4720    -5.4480     0.0850 H     1 <1>   0.1500 
 55 H      -10.2930    -1.9510     0.0100 H     1 <1>   0.1500 
 56 H       -7.9510     1.5150    -0.7660 H     1 <1>   0.1500 
 57 H      -10.1360     0.4930    -0.3420 H     1 <1>   0.1500 
@<TRIPOS>BOND
  1   1   2  2   
  2   2   3  am  
  3   2   4  1   
  4   3   5  1   
  5   3  28  1   
  6   4   6  1   
  7   4   7  1   
  8   4  29  1   
  9   5   8  1   
 10   5   9  1   
 11   5  30  1   
 12   6  10  1   
 13   6  31  1   
 14   6  32  1   
 15   7  11  1   
 16   7  33  1   
 17   7  34  1   
 18   8  12  1   
 19   8  13  1   
 20   8  35  1   
 21   9  14  1   
 22   9  36  1   
 23   9  37  1   
 24  10  15  1   
 25  10  38  1   
 26  10  39  1   
 27  11  15  1   
 28  11  40  1   
 29  11  41  1   
 30  12  14  1   
 31  12  42  1   
 32  12  43  1   
 33  13  16  1   
 34  13  44  1   
 35  13  45  1   
 36  15  17  1   
 37  15  46  1   
 38  16  18  ar  
 39  16  19  ar  
 40  17  20  1   
 41  17  47  1   
 42  17  48  1   
 43  18  21  ar  
 44  18  22  ar  
 45  19  23  ar  
 46  19  49  1   
 47  20  50  1   
 48  20  51  1   
 49  20  52  1   
 50  21  24  ar  
 51  21  25  ar  
 52  22  26  ar  
 53  22  53  1   
 54  23  24  ar  
 55  23  54  1   
 56  25  27  ar  
 57  25  55  1   
 58  26  27  ar  
 59  26  56  1   
 60  27  57  1   
@<TRIPOS>SUBSTRUCTURE
  1 ****  13 GROUP 4 **** **** 0

# MOE 2024.06 (io_trps.svl 2023.06)
