@<TRIPOS>MOLECULE
NONAME
49 51 1 0 0 
SMALL
USER_CHARGES


@<TRIPOS>ATOM
  1 O       -0.8470    -0.7680    -0.1840 O.3   1 <1>  -0.3630 
  2 C       -1.9600    -1.1730     0.4740 C.ar  1 <1>   0.0830 
  3 C       -0.4960     0.5990    -0.2540 C.3   1 <1>   0.1200 
  4 C       -2.1540    -2.5400     0.5790 C.ar  1 <1>  -0.1500 
  5 C       -2.8900    -0.3040     1.0350 C.ar  1 <1>  -0.1500 
  6 C        0.8490     0.7210    -0.9690 C.3   1 <1>   0.1200 
  7 C       -3.2660    -3.0500     1.2310 C.ar  1 <1>  -0.1440 
  8 C       -3.9970    -0.8090     1.6940 C.ar  1 <1>  -0.1500 
  9 O        1.1770     2.0630    -1.1060 O.3   1 <1>  -0.6800 
 10 C       -4.1850    -2.1760     1.7940 C.ar  1 <1>  -0.1500 
 11 C       -3.4790    -4.5480     1.3280 C.3   1 <1>   0.4860 
 12 N       -3.8690    -5.0620    -0.0140 N.4   1 <1>  -0.9590 
 13 C       -5.2220    -4.5450    -0.4030 C.3   1 <1>   0.3430 
 14 C       -3.9640    -6.5550    -0.0030 C.3   1 <1>   0.3430 
 15 C       -6.2070    -5.6580    -0.0410 C.3   1 <1>   0.2000 
 16 C       -5.4060    -6.9140    -0.3810 C.3   1 <1>  -0.0800 
 17 O       -6.4440    -5.6040     1.3310 O.3   1 <1>  -0.6800 
 18 C       -5.8850    -8.2300     0.2620 C.3   1 <1>  -0.0170 
 19 C       -4.9080    -9.3500    -0.0550 C.ar  1 <1>  -0.1430 
 20 C       -4.0570    -9.8700     0.9010 C.ar  1 <1>  -0.1500 
 21 C       -4.8170    -9.9020    -1.3180 C.ar  1 <1>  -0.1500 
 22 C       -3.1660   -10.8710     0.5520 C.ar  1 <1>   0.1600 
 23 C       -3.8900   -10.9010    -1.5630 C.ar  1 <1>   0.1600 
 24 N       -3.0560   -11.3880    -0.6600 N.ar  1 <1>  -0.6200 
 25 H       -1.2640     1.1140    -0.8010 H     1 <1>   0.0800 
 26 H       -0.4160     0.9800     0.7490 H     1 <1>   0.0800 
 27 H       -1.4120    -3.1870     0.1450 H     1 <1>   0.1500 
 28 H       -2.7710     0.7620     0.9730 H     1 <1>   0.1500 
 29 H        0.8090     0.2800    -1.9500 H     1 <1>   0.0800 
 30 H        1.6240     0.2520    -0.3880 H     1 <1>   0.0800 
 31 H       -4.7120    -0.1330     2.1330 H     1 <1>   0.1500 
 32 H        0.6150     2.4950    -1.7790 H     1 <1>   0.4000 
 33 H       -5.0530    -2.5460     2.3160 H     1 <1>   0.1500 
 34 H       -4.2510    -4.7650     2.0490 H     1 <1>   0.0800 
 35 H       -2.5640    -5.0150     1.6550 H     1 <1>   0.0800 
 36 H       -3.1670    -4.7270    -0.6850 H     1 <1>   0.4500 
 37 H       -5.4730    -3.6220     0.0940 H     1 <1>   0.0800 
 38 H       -5.2500    -4.3860    -1.4680 H     1 <1>   0.0800 
 39 H       -3.2680    -7.0000    -0.6970 H     1 <1>   0.0800 
 40 H       -3.7530    -6.9300     0.9850 H     1 <1>   0.0800 
 41 H       -7.1430    -5.5730    -0.5680 H     1 <1>   0.0800 
 42 H       -5.4280    -7.0410    -1.4490 H     1 <1>   0.0800 
 43 H       -7.2590    -6.0980     1.5690 H     1 <1>   0.4000 
 44 H       -6.8600    -8.4900    -0.1130 H     1 <1>   0.0800 
 45 H       -5.9640    -8.1280     1.3310 H     1 <1>   0.0800 
 46 H       -4.0740    -9.5160     1.9160 H     1 <1>   0.1500 
 47 H       -5.4560    -9.5720    -2.1170 H     1 <1>   0.1500 
 48 H       -2.5100   -11.2700     1.3070 H     1 <1>   0.1500 
 49 H       -3.8300   -11.3230    -2.5530 H     1 <1>   0.1500 
@<TRIPOS>BOND
  1   1   2  1   
  2   1   3  1   
  3   2   4  ar  
  4   2   5  ar  
  5   3   6  1   
  6   3  25  1   
  7   3  26  1   
  8   4   7  ar  
  9   4  27  1   
 10   5   8  ar  
 11   5  28  1   
 12   6   9  1   
 13   6  29  1   
 14   6  30  1   
 15   7  10  ar  
 16   7  11  1   
 17   8  10  ar  
 18   8  31  1   
 19   9  32  1   
 20  10  33  1   
 21  11  12  1   
 22  11  34  1   
 23  11  35  1   
 24  12  13  1   
 25  12  14  1   
 26  12  36  1   
 27  13  15  1   
 28  13  37  1   
 29  13  38  1   
 30  14  16  1   
 31  14  39  1   
 32  14  40  1   
 33  15  16  1   
 34  15  17  1   
 35  15  41  1   
 36  16  18  1   
 37  16  42  1   
 38  17  43  1   
 39  18  19  1   
 40  18  44  1   
 41  18  45  1   
 42  19  20  ar  
 43  19  21  ar  
 44  20  22  ar  
 45  20  46  1   
 46  21  23  ar  
 47  21  47  1   
 48  22  24  ar  
 49  22  48  1   
 50  23  24  ar  
 51  23  49  1   
@<TRIPOS>SUBSTRUCTURE
  1 ****  12 GROUP 4 **** **** 0

# MOE 2024.06 (io_trps.svl 2023.06)
