@<TRIPOS>MOLECULE
NONAME
56 59 1 0 0 
SMALL
USER_CHARGES


@<TRIPOS>ATOM
  1 S       -1.9960     1.3650     0.0240 S.3   1 <1>  -0.4600 
  2 C       -1.4900     2.3270     1.4630 C.3   1 <1>   0.0700 
  3 C       -2.7090     2.6110    -1.0680 C.3   1 <1>   0.0700 
  4 C       -0.5220     3.4080     0.9760 C.3   1 <1>  -0.1600 
  5 C       -1.6310     3.6660    -1.3250 C.3   1 <1>  -0.1600 
  6 C       -1.1900     4.3650    -0.0300 C.3   1 <1>   0.4230 
  7 N       -0.3010     5.5180    -0.3790 N.4   1 <1>  -0.9590 
  8 C        1.0450     5.1120    -0.9000 C.3   1 <1>   0.3430 
  9 C       -0.1940     6.4930     0.7490 C.3   1 <1>   0.3430 
 10 C        1.8070     6.3430    -1.3820 C.3   1 <1>  -0.1600 
 11 C        0.5470     7.7420     0.2840 C.3   1 <1>  -0.1600 
 12 C        1.9230     7.3800    -0.2700 C.3   1 <1>   0.2890 
 13 N        2.5430     8.5860    -0.8240 N.pl3 1 <1>  -0.8690 
 14 C        3.3200     9.3740    -0.0170 C.ar  1 <1>   0.4100 
 15 N        2.8180    10.5740     0.1690 N.ar  1 <1>  -0.6200 
 16 C        4.5200     8.9380     0.5630 C.ar  1 <1>   0.1600 
 17 C        3.5600    11.3460     0.9860 C.ar  1 <1>   0.3960 
 18 N        5.2600     9.6580     1.3780 N.ar  1 <1>  -0.6200 
 19 C        3.1600    12.7150     1.3140 C.2   1 <1>   0.5440 
 20 C        4.7390    10.8640     1.5670 C.ar  1 <1>   0.1600 
 21 O        3.3850    13.1380     2.4360 O.2   1 <1>  -0.5700 
 22 N        2.5620    13.5820     0.4170 N.am  1 <1>  -0.6600 
 23 C        2.3410    13.3210    -1.0250 C.3   1 <1>   0.1400 
 24 C        2.2560    14.9910     0.7480 C.3   1 <1>   0.1400 
 25 C        1.7520    14.6140    -1.5790 C.3   1 <1>  -0.1600 
 26 C        2.1900    15.6990    -0.5990 C.3   1 <1>  -0.1600 
 27 H       -1.0150     1.6440     2.1470 H     1 <1>   0.0800 
 28 H       -2.3780     2.7360     1.9130 H     1 <1>   0.0800 
 29 H       -3.5800     3.0150    -0.5810 H     1 <1>   0.0800 
 30 H       -2.9980     2.1060    -1.9750 H     1 <1>   0.0800 
 31 H        0.3240     2.9140     0.5310 H     1 <1>   0.0800 
 32 H       -0.1850     3.9500     1.8400 H     1 <1>   0.0800 
 33 H       -2.0410     4.3910    -2.0060 H     1 <1>   0.0800 
 34 H       -0.7980     3.1820    -1.8010 H     1 <1>   0.0800 
 35 H       -2.0800     4.7580     0.4380 H     1 <1>   0.0800 
 36 H       -0.7720     6.0140    -1.1470 H     1 <1>   0.4500 
 37 H        0.9360     4.4190    -1.7180 H     1 <1>   0.0800 
 38 H        1.6070     4.6250    -0.1200 H     1 <1>   0.0800 
 39 H        0.3390     6.0450     1.5720 H     1 <1>   0.0800 
 40 H       -1.1780     6.7700     1.0940 H     1 <1>   0.0800 
 41 H        1.3060     6.7630    -2.2360 H     1 <1>   0.0800 
 42 H        2.7940     6.0450    -1.6900 H     1 <1>   0.0800 
 43 H        0.6680     8.4080     1.1220 H     1 <1>   0.0800 
 44 H       -0.0390     8.2500    -0.4620 H     1 <1>   0.0800 
 45 H        2.5390     6.9870     0.5240 H     1 <1>   0.0800 
 46 H        1.8700     9.1800    -1.3180 H     1 <1>   0.4000 
 47 H        4.8620     7.9480     0.3250 H     1 <1>   0.1500 
 48 H        5.2790    11.5230     2.2260 H     1 <1>   0.1500 
 49 H        1.6600    12.5000    -1.1670 H     1 <1>   0.0800 
 50 H        3.2840    13.1000    -1.4960 H     1 <1>   0.0800 
 51 H        3.0140    15.4180     1.3830 H     1 <1>   0.0800 
 52 H        1.3030    15.0330     1.2470 H     1 <1>   0.0800 
 53 H        0.6790    14.5360    -1.5790 H     1 <1>   0.0800 
 54 H        2.0880    14.8080    -2.5820 H     1 <1>   0.0800 
 55 H        3.1740    16.0500    -0.8560 H     1 <1>   0.0800 
 56 H        1.5130    16.5340    -0.5790 H     1 <1>   0.0800 
@<TRIPOS>BOND
  1   1   2  1   
  2   1   3  1   
  3   2   4  1   
  4   2  27  1   
  5   2  28  1   
  6   3   5  1   
  7   3  29  1   
  8   3  30  1   
  9   4   6  1   
 10   4  31  1   
 11   4  32  1   
 12   5   6  1   
 13   5  33  1   
 14   5  34  1   
 15   6   7  1   
 16   6  35  1   
 17   7   8  1   
 18   7   9  1   
 19   7  36  1   
 20   8  10  1   
 21   8  37  1   
 22   8  38  1   
 23   9  11  1   
 24   9  39  1   
 25   9  40  1   
 26  10  12  1   
 27  10  41  1   
 28  10  42  1   
 29  11  12  1   
 30  11  43  1   
 31  11  44  1   
 32  12  13  1   
 33  12  45  1   
 34  13  14  1   
 35  13  46  1   
 36  14  15  ar  
 37  14  16  ar  
 38  15  17  ar  
 39  16  18  ar  
 40  16  47  1   
 41  17  19  1   
 42  17  20  ar  
 43  18  20  ar  
 44  19  21  2   
 45  19  22  am  
 46  20  48  1   
 47  22  23  1   
 48  22  24  1   
 49  23  25  1   
 50  23  49  1   
 51  23  50  1   
 52  24  26  1   
 53  24  51  1   
 54  24  52  1   
 55  25  26  1   
 56  25  53  1   
 57  25  54  1   
 58  26  55  1   
 59  26  56  1   
@<TRIPOS>SUBSTRUCTURE
  1 ****  11 GROUP 4 **** **** 0

# MOE 2024.06 (io_trps.svl 2023.06)
