@<TRIPOS>MOLECULE
NONAME
47 48 1 0 0 
SMALL
USER_CHARGES


@<TRIPOS>ATOM
  1 F       -0.3370     0.6700    -0.3550 F     1 <1>  -0.1900 
  2 C       -1.6270     0.8810    -0.3060 C.ar  1 <1>   0.1900 
  3 C       -2.2020     1.7600     0.6180 C.ar  1 <1>   0.0830 
  4 C       -2.3970     0.1900    -1.2220 C.ar  1 <1>  -0.1500 
  5 O       -1.5520     2.4960     1.5660 O.3   1 <1>  -0.3630 
  6 C       -3.5780     1.9160     0.5860 C.ar  1 <1>  -0.1500 
  7 C       -3.7680     0.3710    -1.2270 C.ar  1 <1>  -0.1500 
  8 C       -0.1590     2.4270     1.7720 C.3   1 <1>   0.0400 
  9 C       -4.3890     1.2330    -0.3210 C.ar  1 <1>   0.0530 
 10 C       -5.8160     1.4360    -0.3220 C.2   1 <1>   0.0870 
 11 O       -6.2870     2.6470    -0.1600 O.3   1 <1>  -0.0190 
 12 C       -6.8900     0.6100    -0.4690 C.2   1 <1>  -0.0860 
 13 N       -7.5900     2.7000    -0.1980 N.2   1 <1>  -0.4100 
 14 C       -7.9790     1.4890    -0.3850 C.2   1 <1>   0.3720 
 15 C       -6.9650    -0.8100    -0.6480 C.2   1 <1>   0.7160 
 16 N       -9.3370     1.1340    -0.4640 N.pl3 1 <1>  -0.8210 
 17 O       -5.9940    -1.5250    -0.4950 O.2   1 <1>  -0.5700 
 18 N       -8.1470    -1.3890    -0.9930 N.am  1 <1>  -0.7300 
 19 C      -10.1420     2.0400    -1.3330 C.3   1 <1>   0.1290 
 20 C       -9.9570     0.9840     0.8800 C.3   1 <1>   0.1290 
 21 C       -8.4390    -2.8290    -1.1190 C.3   1 <1>   0.1400 
 22 C       -9.5770    -3.1820    -0.1620 C.3   1 <1>  -0.1600 
 23 C       -9.9370    -4.6710    -0.2500 C.3   1 <1>  -0.1600 
 24 C      -11.0670    -5.0190     0.7180 C.3   1 <1>   0.1200 
 25 O      -11.3310    -6.3690     0.6100 O.3   1 <1>  -0.6800 
 26 H       -1.9290    -0.4800    -1.9200 H     1 <1>   0.1500 
 27 H       -4.0320     2.5900     1.2910 H     1 <1>   0.1500 
 28 H       -4.3660    -0.1660    -1.9420 H     1 <1>   0.1500 
 29 H        0.0910     3.0810     2.5870 H     1 <1>   0.0800 
 30 H        0.3440     2.7520     0.8780 H     1 <1>   0.0800 
 31 H        0.1100     1.4160     2.0200 H     1 <1>   0.0800 
 32 H       -8.9450    -0.7370    -1.0340 H     1 <1>   0.3700 
 33 H       -9.6310     2.1990    -2.2680 H     1 <1>   0.0800 
 34 H      -10.2810     2.9930    -0.8510 H     1 <1>   0.0800 
 35 H      -11.1030     1.6000    -1.5350 H     1 <1>   0.0800 
 36 H       -9.3800     0.2970     1.4750 H     1 <1>   0.0800 
 37 H      -10.9590     0.6020     0.7850 H     1 <1>   0.0800 
 38 H       -9.9860     1.9370     1.3820 H     1 <1>   0.0800 
 39 H       -7.5610    -3.4060    -0.8790 H     1 <1>   0.0800 
 40 H       -8.7230    -3.0440    -2.1350 H     1 <1>   0.0800 
 41 H      -10.4420    -2.5900    -0.4060 H     1 <1>   0.0800 
 42 H       -9.2700    -2.9500     0.8440 H     1 <1>   0.0800 
 43 H       -9.0700    -5.2600    -0.0010 H     1 <1>   0.0800 
 44 H      -10.2400    -4.9050    -1.2560 H     1 <1>   0.0800 
 45 H      -11.9670    -4.4760     0.4850 H     1 <1>   0.0800 
 46 H      -10.7800    -4.8190     1.7360 H     1 <1>   0.0800 
 47 H      -11.5940    -6.5980    -0.3020 H     1 <1>   0.4000 
@<TRIPOS>BOND
  1   1   2  1   
  2   2   3  ar  
  3   2   4  ar  
  4   3   5  1   
  5   3   6  ar  
  6   4   7  ar  
  7   4  26  1   
  8   5   8  1   
  9   6   9  ar  
 10   6  27  1   
 11   7   9  ar  
 12   7  28  1   
 13   8  29  1   
 14   8  30  1   
 15   8  31  1   
 16   9  10  1   
 17  10  11  1   
 18  10  12  2   
 19  11  13  1   
 20  12  14  1   
 21  12  15  1   
 22  13  14  2   
 23  14  16  1   
 24  15  17  2   
 25  15  18  am  
 26  16  19  1   
 27  16  20  1   
 28  18  21  1   
 29  18  32  1   
 30  19  33  1   
 31  19  34  1   
 32  19  35  1   
 33  20  36  1   
 34  20  37  1   
 35  20  38  1   
 36  21  22  1   
 37  21  39  1   
 38  21  40  1   
 39  22  23  1   
 40  22  41  1   
 41  22  42  1   
 42  23  24  1   
 43  23  43  1   
 44  23  44  1   
 45  24  25  1   
 46  24  45  1   
 47  24  46  1   
 48  25  47  1   
@<TRIPOS>SUBSTRUCTURE
  1 ****  12 GROUP 4 **** **** 0

# MOE 2024.06 (io_trps.svl 2023.06)
