@<TRIPOS>MOLECULE
Untitled Document
44 46 1 0 0 
SMALL
USER_CHARGES


@<TRIPOS>ATOM
  1 S       -0.1750     0.4090    -0.0330 S.3   1 <1>  -0.0800 
  2 C        0.7840    -1.0330     0.2930 C.2   1 <1>   0.1040 
  3 C       -1.6360    -0.5410    -0.2250 C.2   1 <1>  -0.1400 
  4 N        2.1520    -0.9180     0.4940 N.am  1 <1>  -0.4940 
  5 C       -0.0040    -2.1550     0.2690 C.2   1 <1>  -0.0860 
  6 C       -1.3790    -1.8380    -0.0320 C.2   1 <1>  -0.1810 
  7 C       -2.9720     0.0920    -0.5830 C.3   1 <1>   0.4600 
  8 C        3.0100     0.1370     0.7090 C.2   1 <1>   0.7160 
  9 C        0.4630    -3.4940     0.5170 C.2   1 <1>   0.7160 
 10 C       -2.5330    -2.8120    -0.1620 C.3   1 <1>   0.0210 
 11 O       -3.9850    -0.8850    -0.6250 O.3   1 <1>  -0.5600 
 12 C       -3.3900     1.1860     0.4010 C.3   1 <1>  -0.2400 
 13 C       -2.9090     0.6620    -1.9980 C.3   1 <1>  -0.2400 
 14 O        2.6040     1.2810     0.8010 O.2   1 <1>  -0.5700 
 15 C        4.4160    -0.1900     0.8460 C.2   1 <1>   0.2030 
 16 O       -0.0210    -4.4720    -0.0130 O.2   1 <1>  -0.5700 
 17 N        1.4700    -3.7330     1.3860 N.am  1 <1>  -0.8000 
 18 C       -3.8860    -2.0960     0.0870 C.3   1 <1>   0.2800 
 19 N        4.9080    -1.4200     0.8390 N.2   1 <1>  -0.7070 
 20 C        5.4490     0.7420     1.0080 C.2   1 <1>  -0.1500 
 21 C       -5.0370    -2.9580    -0.4360 C.3   1 <1>  -0.2400 
 22 C       -4.1130    -1.8250     1.5810 C.3   1 <1>  -0.2400 
 23 N        6.2340    -1.2710     0.9870 N.pl3 1 <1>   0.3000 
 24 C        6.5850     0.0240     1.0930 C.2   1 <1>  -0.3020 
 25 H        2.6890    -1.7910     0.4560 H     1 <1>   0.3700 
 26 H       -2.4280    -3.6140     0.5450 H     1 <1>   0.0800 
 27 H       -2.5150    -3.2400    -1.1480 H     1 <1>   0.0800 
 28 H       -3.3530     0.8310     1.4110 H     1 <1>   0.0800 
 29 H       -4.3840     1.5260     0.1750 H     1 <1>   0.0800 
 30 H       -2.7170     2.0200     0.3250 H     1 <1>   0.0800 
 31 H       -2.6310    -0.1130    -2.6880 H     1 <1>   0.0800 
 32 H       -2.1740     1.4440    -2.0510 H     1 <1>   0.0800 
 33 H       -3.8640     1.0640    -2.2800 H     1 <1>   0.0800 
 34 H        1.7040    -4.7060     1.5860 H     1 <1>   0.3700 
 35 H        1.7480    -3.0450     2.0850 H     1 <1>   0.3700 
 36 H        5.3130     1.8100     1.0490 H     1 <1>   0.1500 
 37 H       -4.9290    -3.1170    -1.4940 H     1 <1>   0.0800 
 38 H       -5.9770    -2.4710    -0.2520 H     1 <1>   0.0800 
 39 H       -5.0440    -3.9140     0.0550 H     1 <1>   0.0800 
 40 H       -3.2640    -1.3330     2.0160 H     1 <1>   0.0800 
 41 H       -4.2510    -2.7520     2.1060 H     1 <1>   0.0800 
 42 H       -4.9920    -1.2210     1.7200 H     1 <1>   0.0800 
 43 H        6.8830    -2.0690     1.0130 H     1 <1>   0.2700 
 44 H        7.6010     0.3530     1.2200 H     1 <1>   0.1500 
@<TRIPOS>BOND
  1   1   2  1   
  2   1   3  1   
  3   2   4  1   
  4   2   5  2   
  5   3   6  2   
  6   3   7  1   
  7   4   8  am  
  8   4  25  1   
  9   5   6  1   
 10   5   9  1   
 11   6  10  1   
 12   7  11  1   
 13   7  12  1   
 14   7  13  1   
 15   8  14  2   
 16   8  15  1   
 17   9  16  2   
 18   9  17  am  
 19  10  18  1   
 20  10  26  1   
 21  10  27  1   
 22  11  18  1   
 23  12  28  1   
 24  12  29  1   
 25  12  30  1   
 26  13  31  1   
 27  13  32  1   
 28  13  33  1   
 29  15  19  2   
 30  15  20  1   
 31  17  34  1   
 32  17  35  1   
 33  18  21  1   
 34  18  22  1   
 35  19  23  1   
 36  20  24  2   
 37  20  36  1   
 38  21  37  1   
 39  21  38  1   
 40  21  39  1   
 41  22  40  1   
 42  22  41  1   
 43  22  42  1   
 44  23  24  1   
 45  23  43  1   
 46  24  44  1   
@<TRIPOS>SUBSTRUCTURE
  1 ****   2 GROUP 4 **** **** 0

# MOE 2024.06 (io_trps.svl 2023.06)
