@<TRIPOS>MOLECULE
NONAME
54 57 1 0 0 
SMALL
USER_CHARGES


@<TRIPOS>ATOM
  1 O        0.4430     0.2170    -1.5320 O.2   1 <1>  -0.5700 
  2 C       -0.6460     0.0740    -1.0320 C.2   1 <1>   0.5690 
  3 N       -1.0870     0.8700    -0.0230 N.am  1 <1>  -0.7300 
  4 C       -1.5610    -1.0290    -1.5540 C.3   1 <1>  -0.0190 
  5 C       -0.3180     1.9800     0.5850 C.3   1 <1>   0.1400 
  6 C       -2.8670    -0.4460    -2.1290 C.3   1 <1>  -0.1600 
  7 C       -1.8560    -2.0740    -0.4600 C.3   1 <1>  -0.1600 
  8 C       -0.7890     3.3130     0.0060 C.3   1 <1>  -0.0170 
  9 C       -3.8480    -1.5380    -2.5640 C.3   1 <1>   0.2090 
 10 C       -2.8160    -3.1550    -0.9550 C.3   1 <1>   0.2090 
 11 C       -0.0280     4.4630     0.6480 C.ar  1 <1>  -0.1440 
 12 N       -4.0520    -2.5100    -1.4590 N.pl3 1 <1>  -0.8380 
 13 C        1.2310     4.8070     0.1810 C.ar  1 <1>  -0.1500 
 14 C       -0.5810     5.1720     1.7030 C.ar  1 <1>  -0.1500 
 15 C       -5.1260    -2.3660    -0.5930 C.ar  1 <1>   0.4100 
 16 C        1.9310     5.8490     0.7640 C.ar  1 <1>  -0.1500 
 17 C        0.1190     6.2150     2.2860 C.ar  1 <1>  -0.1500 
 18 N       -5.3600    -1.1580    -0.1170 N.ar  1 <1>  -0.3100 
 19 C       -5.9030    -3.4950    -0.2290 C.ar  1 <1>   0.0000 
 20 C        1.3760     6.5540     1.8170 C.ar  1 <1>  -0.1500 
 21 N       -6.3270    -0.9620     0.7700 N.ar  1 <1>  -0.3100 
 22 C       -6.9110    -3.2840     0.7230 C.ar  1 <1>   0.0000 
 23 C       -5.7370    -4.7920    -0.7630 C.ar  1 <1>  -0.1500 
 24 C       -7.0610    -1.9600     1.1780 C.ar  1 <1>   0.1670 
 25 C       -7.6910    -4.3890     1.1400 C.ar  1 <1>  -0.1500 
 26 C       -6.5090    -5.8420    -0.3500 C.ar  1 <1>  -0.1500 
 27 C       -8.1340    -1.6260     2.2000 C.3   1 <1>  -0.0970 
 28 C       -7.4950    -5.6380     0.6190 C.ar  1 <1>  -0.1500 
 29 H       -2.0290     0.7170     0.3460 H     1 <1>   0.3700 
 30 H       -1.0410    -1.5270    -2.3540 H     1 <1>   0.0800 
 31 H        0.7320     1.8500     0.3800 H     1 <1>   0.0800 
 32 H       -0.4570     1.9700     1.6520 H     1 <1>   0.0800 
 33 H       -2.6400     0.1810    -2.9730 H     1 <1>   0.0800 
 34 H       -3.3540     0.1690    -1.3940 H     1 <1>   0.0800 
 35 H       -2.2960    -1.6000     0.3990 H     1 <1>   0.0800 
 36 H       -0.9360    -2.5340    -0.1450 H     1 <1>   0.0800 
 37 H       -1.8430     3.4330     0.1800 H     1 <1>   0.0800 
 38 H       -0.6170     3.3200    -1.0560 H     1 <1>   0.0800 
 39 H       -3.4630    -2.0600    -3.4230 H     1 <1>   0.0800 
 40 H       -4.7920    -1.0940    -2.8360 H     1 <1>   0.0800 
 41 H       -3.0540    -3.8260    -0.1470 H     1 <1>   0.0800 
 42 H       -2.3630    -3.7250    -1.7480 H     1 <1>   0.0800 
 43 H        1.6710     4.2630    -0.6370 H     1 <1>   0.1500 
 44 H       -1.5570     4.9170     2.0770 H     1 <1>   0.1500 
 45 H        2.9080     6.1100     0.3970 H     1 <1>   0.1500 
 46 H       -0.3140     6.7620     3.1050 H     1 <1>   0.1500 
 47 H        1.9200     7.3640     2.2690 H     1 <1>   0.1500 
 48 H       -4.9850    -4.9420    -1.5170 H     1 <1>   0.1500 
 49 H       -8.4560    -4.2460     1.8800 H     1 <1>   0.1500 
 50 H       -6.3720    -6.8270    -0.7610 H     1 <1>   0.1500 
 51 H       -8.1210    -0.5760     2.4330 H     1 <1>   0.0800 
 52 H       -7.9620    -2.1770     3.1060 H     1 <1>   0.0800 
 53 H       -9.1030    -1.8720     1.8080 H     1 <1>   0.0800 
 54 H       -8.0930    -6.4740     0.9400 H     1 <1>   0.1500 
@<TRIPOS>BOND
  1   1   2  2   
  2   2   3  am  
  3   2   4  1   
  4   3   5  1   
  5   3  29  1   
  6   4   6  1   
  7   4   7  1   
  8   4  30  1   
  9   5   8  1   
 10   5  31  1   
 11   5  32  1   
 12   6   9  1   
 13   6  33  1   
 14   6  34  1   
 15   7  10  1   
 16   7  35  1   
 17   7  36  1   
 18   8  11  1   
 19   8  37  1   
 20   8  38  1   
 21   9  12  1   
 22   9  39  1   
 23   9  40  1   
 24  10  12  1   
 25  10  41  1   
 26  10  42  1   
 27  11  13  ar  
 28  11  14  ar  
 29  12  15  1   
 30  13  16  ar  
 31  13  43  1   
 32  14  17  ar  
 33  14  44  1   
 34  15  18  ar  
 35  15  19  ar  
 36  16  20  ar  
 37  16  45  1   
 38  17  20  ar  
 39  17  46  1   
 40  18  21  ar  
 41  19  22  ar  
 42  19  23  ar  
 43  20  47  1   
 44  21  24  ar  
 45  22  24  ar  
 46  22  25  ar  
 47  23  26  ar  
 48  23  48  1   
 49  24  27  1   
 50  25  28  ar  
 51  25  49  1   
 52  26  28  ar  
 53  26  50  1   
 54  27  51  1   
 55  27  52  1   
 56  27  53  1   
 57  28  54  1   
@<TRIPOS>SUBSTRUCTURE
  1 ****   6 GROUP 4 **** **** 0

# MOE 2024.06 (io_trps.svl 2023.06)
