@<TRIPOS>MOLECULE
NONAME
48 49 1 0 0 
SMALL
USER_CHARGES


@<TRIPOS>ATOM
  1 CL      -2.0990     0.8420    -1.4390 Cl    1 <1>  -0.1770 
  2 C       -2.6560    -0.7910    -1.1250 C.ar  1 <1>   0.1770 
  3 C       -3.9920    -0.9980    -0.7990 C.ar  1 <1>  -0.1440 
  4 C       -1.7520    -1.8430    -1.2120 C.ar  1 <1>  -0.1440 
  5 C       -4.4210    -2.2920    -0.5480 C.ar  1 <1>  -0.1500 
  6 C       -4.9740     0.1610    -0.7190 C.3   1 <1>  -0.0960 
  7 C       -2.2020    -3.1280    -0.9570 C.ar  1 <1>  -0.1500 
  8 C       -0.2960    -1.6040    -1.5830 C.3   1 <1>  -0.0960 
  9 C       -3.5260    -3.3490    -0.6090 C.ar  1 <1>   0.0820 
 10 O       -3.9530    -4.6120    -0.3760 O.3   1 <1>  -0.3630 
 11 C       -3.9800    -5.1850     0.9360 C.3   1 <1>   0.3410 
 12 C       -4.6380    -6.6050     0.8550 C.2   1 <1>   0.5690 
 13 C       -4.7700    -4.2810     1.9050 C.3   1 <1>  -0.2400 
 14 C       -2.5190    -5.2590     1.4370 C.3   1 <1>  -0.2400 
 15 O       -3.9880    -7.5420     1.2740 O.2   1 <1>  -0.5700 
 16 N       -5.9170    -6.8290     0.3740 N.am  1 <1>  -0.6600 
 17 C       -6.5110    -8.2110     0.4990 C.3   1 <1>   0.1400 
 18 C       -6.7930    -5.8060    -0.2890 C.3   1 <1>   0.1400 
 19 C       -8.0340    -8.1750     0.3440 C.3   1 <1>  -0.1860 
 20 C       -7.5370    -6.4340    -1.4660 C.3   1 <1>  -0.1600 
 21 C       -8.6830    -9.5270     0.4900 C.2   1 <1>   0.9060 
 22 C       -8.4240    -7.6000    -1.0160 C.3   1 <1>   0.2000 
 23 O       -7.9890   -10.5400     0.6070 O.co2 1 <1>  -0.9000 
 24 O       -9.9200    -9.5640     0.4520 O.co2 1 <1>  -0.9000 
 25 O       -9.7270    -7.1660    -0.9030 O.3   1 <1>  -0.6800 
 26 H       -5.4490    -2.4910    -0.3080 H     1 <1>   0.1500 
 27 H       -5.9590    -0.1820    -0.4580 H     1 <1>   0.0800 
 28 H       -5.0290     0.6610    -1.6700 H     1 <1>   0.0800 
 29 H       -4.6500     0.8670     0.0250 H     1 <1>   0.0800 
 30 H       -1.5360    -3.9690    -1.0280 H     1 <1>   0.1500 
 31 H        0.2540    -2.5280    -1.6030 H     1 <1>   0.0800 
 32 H        0.1640    -0.9490    -0.8650 H     1 <1>   0.0800 
 33 H       -0.2350    -1.1500    -2.5560 H     1 <1>   0.0800 
 34 H       -4.8460    -4.7690     2.8600 H     1 <1>   0.0800 
 35 H       -5.7650    -4.1020     1.5470 H     1 <1>   0.0800 
 36 H       -4.2710    -3.3410     2.0530 H     1 <1>   0.0800 
 37 H       -2.4880    -5.7400     2.3990 H     1 <1>   0.0800 
 38 H       -2.0890    -4.2810     1.5450 H     1 <1>   0.0800 
 39 H       -1.9280    -5.8430     0.7550 H     1 <1>   0.0800 
 40 H       -6.0850    -8.8510    -0.2550 H     1 <1>   0.0800 
 41 H       -6.2630    -8.6290     1.4610 H     1 <1>   0.0800 
 42 H       -7.5070    -5.4350     0.4260 H     1 <1>   0.0800 
 43 H       -6.2240    -4.9760    -0.6550 H     1 <1>   0.0800 
 44 H       -8.4240    -7.5610     1.1340 H     1 <1>   0.0800 
 45 H       -6.8030    -6.8030    -2.1590 H     1 <1>   0.0800 
 46 H       -8.1260    -5.6940    -1.9780 H     1 <1>   0.0800 
 47 H       -8.4080    -8.3750    -1.7660 H     1 <1>   0.0800 
 48 H      -10.2150    -7.9160    -0.4620 H     1 <1>   0.4000 
@<TRIPOS>BOND
  1   1   2  1   
  2   2   3  ar  
  3   2   4  ar  
  4   3   5  ar  
  5   3   6  1   
  6   4   7  ar  
  7   4   8  1   
  8   5   9  ar  
  9   5  26  1   
 10   6  27  1   
 11   6  28  1   
 12   6  29  1   
 13   7   9  ar  
 14   7  30  1   
 15   8  31  1   
 16   8  32  1   
 17   8  33  1   
 18   9  10  1   
 19  10  11  1   
 20  11  12  1   
 21  11  13  1   
 22  11  14  1   
 23  12  15  2   
 24  12  16  am  
 25  13  34  1   
 26  13  35  1   
 27  13  36  1   
 28  14  37  1   
 29  14  38  1   
 30  14  39  1   
 31  16  17  1   
 32  16  18  1   
 33  17  19  1   
 34  17  40  1   
 35  17  41  1   
 36  18  20  1   
 37  18  42  1   
 38  18  43  1   
 39  19  21  1   
 40  19  22  1   
 41  19  44  1   
 42  20  22  1   
 43  20  45  1   
 44  20  46  1   
 45  21  23  ar  
 46  21  24  ar  
 47  22  25  1   
 48  22  47  1   
 49  25  48  1   
@<TRIPOS>SUBSTRUCTURE
  1 ****  10 GROUP 4 **** **** 0

# MOE 2024.06 (io_trps.svl 2023.06)
