@<TRIPOS>MOLECULE
NONAME
53 54 1 0 0 
SMALL
USER_CHARGES


@<TRIPOS>ATOM
  1 O       -4.2900     3.2140     0.1240 O.2   1 <1>  -0.5700 
  2 C       -3.7000     2.5420    -0.7020 C.2   1 <1>   0.5440 
  3 N       -4.3940     1.5210    -1.3160 N.am  1 <1>  -0.6600 
  4 C       -2.3030     2.8080    -0.9800 C.ar  1 <1>   0.0860 
  5 C       -3.7190     0.3970    -2.0380 C.3   1 <1>   0.3210 
  6 C       -5.8430     1.3160    -1.0400 C.3   1 <1>   0.1400 
  7 C       -1.3470     2.7180     0.0300 C.ar  1 <1>  -0.1500 
  8 C       -1.8660     3.1530    -2.2580 C.ar  1 <1>  -0.1500 
  9 C       -3.5470    -0.8200    -1.1300 C.2   1 <1>   0.0460 
 10 C       -6.0500     0.9080     0.4300 C.3   1 <1>   0.3430 
 11 C       -0.0010     2.9360    -0.2130 C.ar  1 <1>  -0.1440 
 12 C       -0.5270     3.3730    -2.5180 C.ar  1 <1>  -0.1500 
 13 N       -4.5930    -1.6140    -0.7960 N.2   1 <1>  -0.5650 
 14 C       -2.4010    -1.2790    -0.5720 C.2   1 <1>  -0.3320 
 15 N       -7.4200     0.3550     0.6980 N.4   1 <1>  -0.9590 
 16 C        0.4020     3.2620    -1.5000 C.ar  1 <1>  -0.1500 
 17 C        1.0080     2.8260     0.9290 C.3   1 <1>   0.0630 
 18 C       -4.0560    -2.5380    -0.0660 C.2   1 <1>   0.0360 
 19 N       -2.7280    -2.3890     0.1130 N.pl3 1 <1>   0.0330 
 20 C       -0.9720    -0.7580    -0.6330 C.3   1 <1>  -0.0600 
 21 C       -7.6660     0.3200     2.1690 C.3   1 <1>   0.2630 
 22 C       -7.5520    -1.0170     0.1100 C.3   1 <1>   0.2630 
 23 C        1.6750     4.1790     1.1930 C.3   1 <1>  -0.2400 
 24 C        2.0590     1.7500     0.6370 C.3   1 <1>  -0.2400 
 25 H       -2.7580     0.7020    -2.4020 H     1 <1>   0.0800 
 26 H       -4.3060     0.1140    -2.8940 H     1 <1>   0.0800 
 27 H       -6.2210     0.5560    -1.7000 H     1 <1>   0.0800 
 28 H       -6.3670     2.2360    -1.2350 H     1 <1>   0.0800 
 29 H       -1.6830     2.4750     1.0230 H     1 <1>   0.1500 
 30 H       -2.5860     3.2520    -3.0510 H     1 <1>   0.1500 
 31 H       -5.8840     1.7780     1.0430 H     1 <1>   0.0800 
 32 H       -5.3100     0.1700     0.6920 H     1 <1>   0.0800 
 33 H       -0.2050     3.6370    -3.5110 H     1 <1>   0.1500 
 34 H       -8.1100     0.9840     0.2620 H     1 <1>   0.4500 
 35 H        1.4420     3.4390    -1.7150 H     1 <1>   0.1500 
 36 H        0.4860     2.5380     1.8260 H     1 <1>   0.0800 
 37 H       -4.5920    -3.3650     0.3680 H     1 <1>   0.1500 
 38 H       -2.1010    -3.0020     0.6430 H     1 <1>   0.2700 
 39 H       -0.8990     0.1100    -1.2620 H     1 <1>   0.0800 
 40 H       -0.3170    -1.5150    -1.0280 H     1 <1>   0.0800 
 41 H       -0.6360    -0.4880     0.3520 H     1 <1>   0.0800 
 42 H       -6.9470    -0.3210     2.6520 H     1 <1>   0.0800 
 43 H       -8.6560    -0.0540     2.3750 H     1 <1>   0.0800 
 44 H       -7.5790     1.3110     2.5850 H     1 <1>   0.0800 
 45 H       -6.8160    -1.6770     0.5400 H     1 <1>   0.0800 
 46 H       -7.3920    -0.9900    -0.9560 H     1 <1>   0.0800 
 47 H       -8.5340    -1.4170     0.3010 H     1 <1>   0.0800 
 48 H        2.2510     4.4960     0.3430 H     1 <1>   0.0800 
 49 H        2.3280     4.1130     2.0450 H     1 <1>   0.0800 
 50 H        0.9250     4.9230     1.3950 H     1 <1>   0.0800 
 51 H        2.6530     2.0150    -0.2190 H     1 <1>   0.0800 
 52 H        1.5790     0.8080     0.4430 H     1 <1>   0.0800 
 53 H        2.7130     1.6320     1.4830 H     1 <1>   0.0800 
@<TRIPOS>BOND
  1   1   2  2   
  2   2   3  am  
  3   2   4  1   
  4   3   5  1   
  5   3   6  1   
  6   4   7  ar  
  7   4   8  ar  
  8   5   9  1   
  9   5  25  1   
 10   5  26  1   
 11   6  10  1   
 12   6  27  1   
 13   6  28  1   
 14   7  11  ar  
 15   7  29  1   
 16   8  12  ar  
 17   8  30  1   
 18   9  13  1   
 19   9  14  2   
 20  10  15  1   
 21  10  31  1   
 22  10  32  1   
 23  11  16  ar  
 24  11  17  1   
 25  12  16  ar  
 26  12  33  1   
 27  13  18  2   
 28  14  19  1   
 29  14  20  1   
 30  15  21  1   
 31  15  22  1   
 32  15  34  1   
 33  16  35  1   
 34  17  23  1   
 35  17  24  1   
 36  17  36  1   
 37  18  19  1   
 38  18  37  1   
 39  19  38  1   
 40  20  39  1   
 41  20  40  1   
 42  20  41  1   
 43  21  42  1   
 44  21  43  1   
 45  21  44  1   
 46  22  45  1   
 47  22  46  1   
 48  22  47  1   
 49  23  48  1   
 50  23  49  1   
 51  23  50  1   
 52  24  51  1   
 53  24  52  1   
 54  24  53  1   
@<TRIPOS>SUBSTRUCTURE
  1 ****   2 GROUP 4 **** **** 0

# MOE 2024.06 (io_trps.svl 2023.06)
