@<TRIPOS>MOLECULE
NONAME
21 21 1 0 0 
SMALL
USER_CHARGES


@<TRIPOS>ATOM
  1 O        0.4860     0.8550    -1.1270 O.3   1 <1>  -0.5600 
  2 C        1.2890     0.7400     0.0270 C.3   1 <1>   0.2800 
  3 C       -0.8920     1.0120    -0.9060 C.3   1 <1>   0.1200 
  4 C        0.9510     1.8880     1.0140 C.3   1 <1>   0.1200 
  5 C        2.7570     0.8540    -0.4340 C.3   1 <1>   0.1200 
  6 C        1.0540    -0.6420     0.6570 C.3   1 <1>  -0.2400 
  7 C       -1.1660     2.1530     0.0880 C.3   1 <1>   0.1200 
  8 O       -0.4260     1.9630     1.2560 O.3   1 <1>  -0.5600 
  9 O        2.9280     1.9790    -1.2300 O.3   1 <1>  -0.6800 
 10 H       -1.2950     0.0860    -0.5370 H     1 <1>   0.0800 
 11 H       -1.3530     1.2280    -1.8530 H     1 <1>   0.0800 
 12 H        1.2780     2.8340     0.6190 H     1 <1>   0.0800 
 13 H        1.4430     1.7270     1.9560 H     1 <1>   0.0800 
 14 H        3.0270    -0.0080    -1.0180 H     1 <1>   0.0800 
 15 H        3.4240     0.9280     0.4070 H     1 <1>   0.0800 
 16 H        0.0670    -0.7130     1.0750 H     1 <1>   0.0800 
 17 H        1.7550    -0.8040     1.4560 H     1 <1>   0.0800 
 18 H        1.1880    -1.4150    -0.0780 H     1 <1>   0.0800 
 19 H       -2.2070     2.1750     0.3560 H     1 <1>   0.0800 
 20 H       -0.8980     3.1030    -0.3410 H     1 <1>   0.0800 
 21 H        2.1770     2.0040    -1.8620 H     1 <1>   0.4000 
@<TRIPOS>BOND
  1   1   2  1   
  2   1   3  1   
  3   2   4  1   
  4   2   5  1   
  5   2   6  1   
  6   3   7  1   
  7   3  10  1   
  8   3  11  1   
  9   4   8  1   
 10   4  12  1   
 11   4  13  1   
 12   5   9  1   
 13   5  14  1   
 14   5  15  1   
 15   6  16  1   
 16   6  17  1   
 17   6  18  1   
 18   7   8  1   
 19   7  19  1   
 20   7  20  1   
 21   9  21  1   
@<TRIPOS>SUBSTRUCTURE
  1 ****   2 GROUP 4 **** **** 0

# MOE 2024.06 (io_trps.svl 2023.06)
