@<TRIPOS>MOLECULE
NONAME
43 44 1 0 0 
SMALL
USER_CHARGES


@<TRIPOS>ATOM
  1 S        0.7640    -0.2780     1.0220 S.o2  1 <1>   1.4470 
  2 O        0.3570     0.4960     2.1680 O.2   1 <1>  -0.6500 
  3 O        1.8740    -1.2000     1.1190 O.2   1 <1>  -0.6500 
  4 N       -0.6040    -1.1690     0.6380 N.am  1 <1>  -0.9140 
  5 C        0.9510     0.8030    -0.4240 C.ar  1 <1>  -0.0090 
  6 C       -0.3520    -2.5400     0.2090 C.3   1 <1>   0.2760 
  7 C        0.0420     1.8250    -0.6660 C.ar  1 <1>  -0.1500 
  8 C        1.9880     0.6260    -1.3310 C.ar  1 <1>  -0.1500 
  9 C       -1.6210    -3.1240    -0.3980 C.3   1 <1>  -0.0800 
 10 C       -0.1970    -3.4450     1.4290 C.3   1 <1>   0.1200 
 11 C        0.1450     2.6600    -1.7730 C.ar  1 <1>   0.0730 
 12 C        2.1140     1.4440    -2.4400 C.ar  1 <1>  -0.1500 
 13 C       -2.3910    -3.6350     0.8290 C.3   1 <1>   0.1200 
 14 C       -2.4170    -2.1540    -1.3000 C.3   1 <1>  -0.0550 
 15 O       -1.4970    -3.6070     1.9020 O.3   1 <1>  -0.5600 
 16 C       -0.8100     3.7080    -1.9940 C.1   1 <1>   0.4840 
 17 C        1.1960     2.4550    -2.6580 C.ar  1 <1>  -0.1500 
 18 S       -3.7180    -2.9370    -2.2550 S.o2  1 <1>   1.3330 
 19 N       -1.5700     4.5410    -2.1670 N.1   1 <1>  -0.5570 
 20 O       -4.3720    -1.9330    -3.0630 O.2   1 <1>  -0.6500 
 21 O       -3.1500    -4.1070    -2.8850 O.2   1 <1>  -0.6500 
 22 N       -4.8330    -3.4590    -1.0840 N.am  1 <1>  -0.8490 
 23 C       -5.7360    -2.3960    -0.6290 C.3   1 <1>   0.1160 
 24 C       -5.6180    -4.6090    -1.5450 C.3   1 <1>   0.1160 
 25 H       -1.0900    -1.2610     1.5350 H     1 <1>   0.4200 
 26 H        0.4830    -2.5970    -0.4710 H     1 <1>   0.0800 
 27 H       -0.7680     1.9740     0.0300 H     1 <1>   0.1500 
 28 H        2.7090    -0.1590    -1.1690 H     1 <1>   0.1500 
 29 H       -1.3380    -3.9820    -0.9840 H     1 <1>   0.0800 
 30 H        0.4220    -3.0280     2.2040 H     1 <1>   0.0800 
 31 H        0.1790    -4.4130     1.1460 H     1 <1>   0.0800 
 32 H        2.9260     1.2940    -3.1320 H     1 <1>   0.1500 
 33 H       -2.7390    -4.6450     0.6880 H     1 <1>   0.0800 
 34 H       -3.2210    -2.9980     1.0820 H     1 <1>   0.0800 
 35 H       -1.7300    -1.7010    -1.9880 H     1 <1>   0.0800 
 36 H       -2.8360    -1.3660    -0.7050 H     1 <1>   0.0800 
 37 H        1.2980     3.0890    -3.5230 H     1 <1>   0.1500 
 38 H       -6.3610    -2.7580     0.1690 H     1 <1>   0.0800 
 39 H       -6.3630    -2.0610    -1.4400 H     1 <1>   0.0800 
 40 H       -5.1710    -1.5570    -0.2630 H     1 <1>   0.0800 
 41 H       -6.3050    -4.9240    -0.7800 H     1 <1>   0.0800 
 42 H       -4.9640    -5.4350    -1.7710 H     1 <1>   0.0800 
 43 H       -6.1700    -4.3530    -2.4350 H     1 <1>   0.0800 
@<TRIPOS>BOND
  1   1   2  2   
  2   1   3  2   
  3   1   4  am  
  4   1   5  1   
  5   4   6  1   
  6   4  25  1   
  7   5   7  ar  
  8   5   8  ar  
  9   6   9  1   
 10   6  10  1   
 11   6  26  1   
 12   7  11  ar  
 13   7  27  1   
 14   8  12  ar  
 15   8  28  1   
 16   9  13  1   
 17   9  14  1   
 18   9  29  1   
 19  10  15  1   
 20  10  30  1   
 21  10  31  1   
 22  11  16  1   
 23  11  17  ar  
 24  12  17  ar  
 25  12  32  1   
 26  13  15  1   
 27  13  33  1   
 28  13  34  1   
 29  14  18  1   
 30  14  35  1   
 31  14  36  1   
 32  16  19  3   
 33  17  37  1   
 34  18  20  2   
 35  18  21  2   
 36  18  22  am  
 37  22  23  1   
 38  22  24  1   
 39  23  38  1   
 40  23  39  1   
 41  23  40  1   
 42  24  41  1   
 43  24  42  1   
 44  24  43  1   
@<TRIPOS>SUBSTRUCTURE
  1 ****   4 GROUP 4 **** **** 0

# MOE 2024.06 (io_trps.svl 2023.06)
