@<TRIPOS>MOLECULE
NONAME
41 41 1 0 0 
SMALL
USER_CHARGES


@<TRIPOS>ATOM
  1 S       -0.6940     0.7800     2.0780 S.3   1 <1>  -0.4600 
  2 C        0.6950     0.8750     0.9240 C.3   1 <1>   0.0700 
  3 C       -0.9640    -1.0020     2.2630 C.3   1 <1>  -0.0100 
  4 C        0.9870     2.3590     0.6820 C.3   1 <1>  -0.1600 
  5 C        2.1760     2.5780    -0.2620 C.3   1 <1>   0.2810 
  6 N        3.3960     1.9750     0.3620 N.am  1 <1>  -0.7300 
  7 C        2.3620     4.0710    -0.5970 C.2   1 <1>   0.5690 
  8 C        4.5740     1.6950    -0.2340 C.2   1 <1>   0.5690 
  9 O        1.5720     4.5940    -1.3440 O.2   1 <1>  -0.5700 
 10 N        3.4370     4.7210    -0.0540 N.am  1 <1>  -0.4940 
 11 O        5.5400     1.4830     0.4450 O.2   1 <1>  -0.5700 
 12 C        4.7050     1.6930    -1.7380 C.3   1 <1>  -0.1790 
 13 C        3.8550     6.0470    -0.1940 C.2   1 <1>   0.2040 
 14 O        3.1130     6.9630    -0.7680 O.3   1 <1>  -0.0190 
 15 C        5.0030     6.6350     0.1970 C.2   1 <1>  -0.1810 
 16 N        3.7030     8.1310    -0.7780 N.2   1 <1>  -0.4100 
 17 C        4.8410     7.9610    -0.2040 C.2   1 <1>   0.1080 
 18 C        6.2080     6.0320     0.9020 C.3   1 <1>  -0.0590 
 19 C        5.8460     9.0830    -0.0080 C.3   1 <1>   0.0210 
 20 C        5.6960     9.7300     1.3730 C.3   1 <1>  -0.2400 
 21 H        1.5230     0.3630     1.3830 H     1 <1>   0.0800 
 22 H        0.3990     0.3730     0.0200 H     1 <1>   0.0800 
 23 H       -1.7830    -1.1390     2.9460 H     1 <1>   0.0800 
 24 H       -0.0630    -1.4380     2.6560 H     1 <1>   0.0800 
 25 H       -1.2010    -1.4060     1.2950 H     1 <1>   0.0800 
 26 H        0.1130     2.8100     0.2430 H     1 <1>   0.0800 
 27 H        1.1710     2.8560     1.6190 H     1 <1>   0.0800 
 28 H        1.9720     2.0690    -1.1880 H     1 <1>   0.0800 
 29 H        3.3800     1.8860     1.3820 H     1 <1>   0.3700 
 30 H        4.0570     4.1280     0.4960 H     1 <1>   0.3700 
 31 H        3.9750     1.0340    -2.1700 H     1 <1>   0.0800 
 32 H        5.6850     1.3470    -2.0120 H     1 <1>   0.0800 
 33 H        4.5700     2.6860    -2.1230 H     1 <1>   0.0800 
 34 H        6.3540     6.5090     1.8540 H     1 <1>   0.0800 
 35 H        7.0900     6.1700     0.3030 H     1 <1>   0.0800 
 36 H        6.0680     4.9780     1.0630 H     1 <1>   0.0800 
 37 H        6.8420     8.6990    -0.1270 H     1 <1>   0.0800 
 38 H        5.6860     9.8270    -0.7680 H     1 <1>   0.0800 
 39 H        5.8650     9.0040     2.1490 H     1 <1>   0.0800 
 40 H        4.7010    10.1260     1.4840 H     1 <1>   0.0800 
 41 H        6.4020    10.5320     1.4860 H     1 <1>   0.0800 
@<TRIPOS>BOND
  1   1   2  1   
  2   1   3  1   
  3   2   4  1   
  4   2  21  1   
  5   2  22  1   
  6   3  23  1   
  7   3  24  1   
  8   3  25  1   
  9   4   5  1   
 10   4  26  1   
 11   4  27  1   
 12   5   6  1   
 13   5   7  1   
 14   5  28  1   
 15   6   8  am  
 16   6  29  1   
 17   7   9  2   
 18   7  10  am  
 19   8  11  2   
 20   8  12  1   
 21  10  13  1   
 22  10  30  1   
 23  12  31  1   
 24  12  32  1   
 25  12  33  1   
 26  13  14  1   
 27  13  15  2   
 28  14  16  1   
 29  15  17  1   
 30  15  18  1   
 31  16  17  2   
 32  17  19  1   
 33  18  34  1   
 34  18  35  1   
 35  18  36  1   
 36  19  20  1   
 37  19  37  1   
 38  19  38  1   
 39  20  39  1   
 40  20  40  1   
 41  20  41  1   
@<TRIPOS>SUBSTRUCTURE
  1 ****  10 GROUP 4 **** **** 0

# MOE 2024.06 (io_trps.svl 2023.06)
