@<TRIPOS>MOLECULE
NONAME
41 43 1 0 0 
SMALL
USER_CHARGES


@<TRIPOS>ATOM
  1 O       -0.5810     0.0280    -0.9890 O.3   1 <1>  -0.0190 
  2 N       -1.0360    -1.1440    -0.6290 N.2   1 <1>  -0.4100 
  3 C       -1.3630     0.8730    -0.3600 C.2   1 <1>   0.2980 
  4 C       -2.0110    -0.9240     0.1600 C.2   1 <1>   0.5990 
  5 N       -2.2720     0.3520     0.3590 N.2   1 <1>  -0.5650 
  6 C       -1.1250     2.3600    -0.5420 C.3   1 <1>   0.0200 
  7 N       -2.7990    -1.8560     0.7820 N.pl3 1 <1>  -0.8520 
  8 C        0.2080     2.8010     0.0820 C.3   1 <1>  -0.1600 
  9 C       -3.1800    -3.0310    -0.0330 C.3   1 <1>   0.2890 
 10 C        0.4410     4.3060    -0.0890 C.3   1 <1>  -0.2400 
 11 C       -4.5270    -3.5790     0.3950 C.3   1 <1>  -0.0800 
 12 C       -2.2620    -4.2230     0.1950 C.3   1 <1>   0.1200 
 13 C       -4.4000    -5.0760     0.1000 C.3   1 <1>   0.1200 
 14 C       -5.7060    -2.9010    -0.3190 C.3   1 <1>  -0.0160 
 15 O       -3.0410    -5.3540    -0.0570 O.3   1 <1>  -0.5600 
 16 C       -7.0300    -3.5090     0.1160 C.ar  1 <1>  -0.1430 
 17 C       -7.7300    -4.3910    -0.6830 C.ar  1 <1>  -0.1500 
 18 C       -7.5990    -3.2100     1.3370 C.ar  1 <1>  -0.1500 
 19 C       -8.9280    -4.9190    -0.2310 C.ar  1 <1>   0.1600 
 20 C       -8.8030    -3.7930     1.6940 C.ar  1 <1>   0.1600 
 21 N       -9.4800    -4.6430     0.9390 N.ar  1 <1>  -0.6200 
 22 H       -1.1310     2.5850    -1.5930 H     1 <1>   0.0800 
 23 H       -1.9340     2.8980    -0.0800 H     1 <1>   0.0800 
 24 H       -3.6070    -1.3680     1.1650 H     1 <1>   0.4000 
 25 H        0.2050     2.5570     1.1310 H     1 <1>   0.0800 
 26 H        1.0170     2.2610    -0.3800 H     1 <1>   0.0800 
 27 H       -3.1810    -2.7880    -1.0830 H     1 <1>   0.0800 
 28 H       -0.3430     4.8670     0.3900 H     1 <1>   0.0800 
 29 H        0.4700     4.5690    -1.1320 H     1 <1>   0.0800 
 30 H        1.3790     4.5840     0.3590 H     1 <1>   0.0800 
 31 H       -4.6340    -3.4710     1.4600 H     1 <1>   0.0800 
 32 H       -1.9370    -4.2660     1.2200 H     1 <1>   0.0800 
 33 H       -1.4170    -4.2180    -0.4710 H     1 <1>   0.0800 
 34 H       -4.8920    -5.3470    -0.8180 H     1 <1>   0.0800 
 35 H       -4.7870    -5.6750     0.9070 H     1 <1>   0.0800 
 36 H       -5.5950    -2.9990    -1.3850 H     1 <1>   0.0800 
 37 H       -5.7110    -1.8490    -0.0900 H     1 <1>   0.0800 
 38 H       -7.3590    -4.6740    -1.6500 H     1 <1>   0.1500 
 39 H       -7.1180    -2.5290     2.0160 H     1 <1>   0.1500 
 40 H       -9.4620    -5.6060    -0.8670 H     1 <1>   0.1500 
 41 H       -9.2310    -3.5490     2.6510 H     1 <1>   0.1500 
@<TRIPOS>BOND
  1   1   2  1   
  2   1   3  1   
  3   2   4  2   
  4   3   5  2   
  5   3   6  1   
  6   4   5  1   
  7   4   7  1   
  8   6   8  1   
  9   6  22  1   
 10   6  23  1   
 11   7   9  1   
 12   7  24  1   
 13   8  10  1   
 14   8  25  1   
 15   8  26  1   
 16   9  11  1   
 17   9  12  1   
 18   9  27  1   
 19  10  28  1   
 20  10  29  1   
 21  10  30  1   
 22  11  13  1   
 23  11  14  1   
 24  11  31  1   
 25  12  15  1   
 26  12  32  1   
 27  12  33  1   
 28  13  15  1   
 29  13  34  1   
 30  13  35  1   
 31  14  16  1   
 32  14  36  1   
 33  14  37  1   
 34  16  17  ar  
 35  16  18  ar  
 36  17  19  ar  
 37  17  38  1   
 38  18  20  ar  
 39  18  39  1   
 40  19  21  ar  
 41  19  40  1   
 42  20  21  ar  
 43  20  41  1   
@<TRIPOS>SUBSTRUCTURE
  1 ****   9 GROUP 4 **** **** 0

# MOE 2024.06 (io_trps.svl 2023.06)
