@<TRIPOS>MOLECULE
NONAME
51 53 1 0 0 
SMALL
USER_CHARGES


@<TRIPOS>ATOM
  1 CL      -1.2320    -1.8220     0.3680 Cl    1 <1>  -0.1770 
  2 C       -2.2210    -0.3820     0.3220 C.ar  1 <1>   0.1770 
  3 C       -3.4380    -0.3710     0.9780 C.ar  1 <1>  -0.1440 
  4 C       -1.7610     0.7160    -0.3780 C.ar  1 <1>  -0.1500 
  5 C       -4.1950     0.7890     0.9350 C.ar  1 <1>  -0.1500 
  6 C       -3.9270    -1.5950     1.7230 C.3   1 <1>   0.4870 
  7 C       -2.5280     1.8770    -0.4360 C.ar  1 <1>   0.0820 
  8 C       -3.7640     1.9070     0.2390 C.ar  1 <1>   0.0820 
  9 N       -4.6230    -2.5010     0.7720 N.4   1 <1>  -0.9590 
 10 O       -2.1000     2.9630    -1.1410 O.3   1 <1>  -0.3620 
 11 O       -4.6410     2.9500     0.2950 O.3   1 <1>  -0.3620 
 12 C       -5.8190    -1.9120     0.0820 C.3   1 <1>   0.3430 
 13 C       -5.0450    -3.8010     1.3470 C.3   1 <1>   0.3430 
 14 C       -0.8610     2.9960    -1.8170 C.3   1 <1>   0.0400 
 15 C       -4.3020     4.2670    -0.0750 C.3   1 <1>   0.1200 
 16 C       -6.9120    -2.9930     0.1220 C.3   1 <1>   0.2000 
 17 C       -6.1550    -4.2900     0.4120 C.3   1 <1>  -0.0800 
 18 C       -5.4390     5.1860     0.3610 C.3   1 <1>  -0.2400 
 19 O       -7.7880    -2.7410     1.1710 O.3   1 <1>  -0.6800 
 20 C       -5.6500    -4.9260    -0.9140 C.3   1 <1>  -0.0170 
 21 C       -4.1950    -5.3720    -0.9010 C.ar  1 <1>   0.1670 
 22 N       -3.2880    -4.4090    -1.0190 N.ar  1 <1>  -0.6200 
 23 C       -3.8760    -6.7230    -0.7770 C.ar  1 <1>   0.1600 
 24 C       -2.0540    -4.8950    -1.0360 C.ar  1 <1>   0.1600 
 25 N       -2.6440    -7.1980    -0.7600 N.ar  1 <1>  -0.6200 
 26 C       -1.7430    -6.2430    -0.9060 C.ar  1 <1>   0.1600 
 27 H       -0.8080     0.6370    -0.8660 H     1 <1>   0.1500 
 28 H       -5.1410     0.8540     1.4460 H     1 <1>   0.1500 
 29 H       -4.5990    -1.2950     2.5100 H     1 <1>   0.0800 
 30 H       -3.0870    -2.1040     2.1690 H     1 <1>   0.0800 
 31 H       -3.9380    -2.7580     0.0300 H     1 <1>   0.4500 
 32 H       -6.1670    -1.0150     0.5670 H     1 <1>   0.0800 
 33 H       -5.5640    -1.6820    -0.9400 H     1 <1>   0.0800 
 34 H       -4.2220    -4.4970     1.4030 H     1 <1>   0.0800 
 35 H       -5.4480    -3.6530     2.3360 H     1 <1>   0.0800 
 36 H       -0.7590     3.9620    -2.2780 H     1 <1>   0.0800 
 37 H       -0.8510     2.2310    -2.5720 H     1 <1>   0.0800 
 38 H       -0.0680     2.8490    -1.1040 H     1 <1>   0.0800 
 39 H       -3.3840     4.5370     0.4170 H     1 <1>   0.0800 
 40 H       -4.1780     4.2990    -1.1430 H     1 <1>   0.0800 
 41 H       -7.4930    -3.0210    -0.7850 H     1 <1>   0.0800 
 42 H       -6.7810    -5.0050     0.9180 H     1 <1>   0.0800 
 43 H       -5.5670     5.1370     1.4270 H     1 <1>   0.0800 
 44 H       -6.3540     4.8990    -0.1260 H     1 <1>   0.0800 
 45 H       -5.2090     6.2000     0.0890 H     1 <1>   0.0800 
 46 H       -7.3560    -2.6960     2.0440 H     1 <1>   0.4000 
 47 H       -5.7540    -4.2330    -1.7320 H     1 <1>   0.0800 
 48 H       -6.2800    -5.7650    -1.1560 H     1 <1>   0.0800 
 49 H       -4.6690    -7.4460    -0.6870 H     1 <1>   0.1500 
 50 H       -1.2430    -4.1980    -1.1580 H     1 <1>   0.1500 
 51 H       -0.7090    -6.5430    -0.9250 H     1 <1>   0.1500 
@<TRIPOS>BOND
  1   1   2  1   
  2   2   3  ar  
  3   2   4  ar  
  4   3   5  ar  
  5   3   6  1   
  6   4   7  ar  
  7   4  27  1   
  8   5   8  ar  
  9   5  28  1   
 10   6   9  1   
 11   6  29  1   
 12   6  30  1   
 13   7   8  ar  
 14   7  10  1   
 15   8  11  1   
 16   9  12  1   
 17   9  13  1   
 18   9  31  1   
 19  10  14  1   
 20  11  15  1   
 21  12  16  1   
 22  12  32  1   
 23  12  33  1   
 24  13  17  1   
 25  13  34  1   
 26  13  35  1   
 27  14  36  1   
 28  14  37  1   
 29  14  38  1   
 30  15  18  1   
 31  15  39  1   
 32  15  40  1   
 33  16  17  1   
 34  16  19  1   
 35  16  41  1   
 36  17  20  1   
 37  17  42  1   
 38  18  43  1   
 39  18  44  1   
 40  18  45  1   
 41  19  46  1   
 42  20  21  1   
 43  20  47  1   
 44  20  48  1   
 45  21  22  ar  
 46  21  23  ar  
 47  22  24  ar  
 48  23  25  ar  
 49  23  49  1   
 50  24  26  ar  
 51  24  50  1   
 52  25  26  ar  
 53  26  51  1   
@<TRIPOS>SUBSTRUCTURE
  1 ****   9 GROUP 4 **** **** 0

# MOE 2024.06 (io_trps.svl 2023.06)
