@<TRIPOS>MOLECULE
NONAME
33 33 1 0 0 
SMALL
USER_CHARGES


@<TRIPOS>ATOM
  1 N        0.8780     0.0230     0.9080 N.4   1 <1>  -0.8530 
  2 C        1.2380    -0.7540    -0.2720 C.3   1 <1>   0.5660 
  3 C        1.1420    -2.2130     0.1290 C.ar  1 <1>  -0.1430 
  4 C        2.6290    -0.3390    -0.7370 C.3   1 <1>  -0.2400 
  5 C        0.0930    -2.9730    -0.3730 C.ar  1 <1>  -0.1500 
  6 C        2.0540    -2.8030     0.9940 C.ar  1 <1>  -0.1500 
  7 C       -0.0720    -4.3110    -0.0260 C.ar  1 <1>  -0.1430 
  8 C        1.9070    -4.1280     1.3490 C.ar  1 <1>  -0.1500 
  9 C        0.8560    -4.8690     0.8450 C.ar  1 <1>  -0.1500 
 10 C       -1.2240    -5.1910    -0.5640 C.3   1 <1>   0.1430 
 11 C       -2.0670    -5.7110     0.6110 C.3   1 <1>  -0.2400 
 12 C       -2.1730    -4.4420    -1.5160 C.3   1 <1>  -0.2400 
 13 C       -0.6410    -6.3820    -1.3390 C.3   1 <1>  -0.2400 
 14 H       -0.0410    -0.2910     1.2370 H     1 <1>   0.4500 
 15 H        0.8610     1.0260     0.7110 H     1 <1>   0.4500 
 16 H        1.5520    -0.1770     1.6510 H     1 <1>   0.4500 
 17 H        0.5310    -0.5630    -1.0650 H     1 <1>   0.0800 
 18 H        3.3630    -0.4430     0.0410 H     1 <1>   0.0800 
 19 H        2.6230     0.6780    -1.0870 H     1 <1>   0.0800 
 20 H        2.9250    -0.9660    -1.5590 H     1 <1>   0.0800 
 21 H       -0.6020    -2.5080    -1.0480 H     1 <1>   0.1500 
 22 H        2.8890    -2.2600     1.4010 H     1 <1>   0.1500 
 23 H        2.6130    -4.5930     2.0170 H     1 <1>   0.1500 
 24 H        0.7720    -5.9000     1.1420 H     1 <1>   0.1500 
 25 H       -2.4560    -4.8870     1.1810 H     1 <1>   0.0800 
 26 H       -1.4810    -6.3290     1.2660 H     1 <1>   0.0800 
 27 H       -2.8930    -6.3000     0.2540 H     1 <1>   0.0800 
 28 H       -2.6380    -3.6120    -1.0140 H     1 <1>   0.0800 
 29 H       -2.9540    -5.0970    -1.8600 H     1 <1>   0.0800 
 30 H       -1.6400    -4.0840    -2.3780 H     1 <1>   0.0800 
 31 H       -0.0430    -7.0060    -0.7020 H     1 <1>   0.0800 
 32 H       -0.0220    -6.0310    -2.1450 H     1 <1>   0.0800 
 33 H       -1.4280    -6.9890    -1.7520 H     1 <1>   0.0800 
@<TRIPOS>BOND
  1   1   2  1   
  2   1  14  1   
  3   1  15  1   
  4   1  16  1   
  5   2   3  1   
  6   2   4  1   
  7   2  17  1   
  8   3   5  ar  
  9   3   6  ar  
 10   4  18  1   
 11   4  19  1   
 12   4  20  1   
 13   5   7  ar  
 14   5  21  1   
 15   6   8  ar  
 16   6  22  1   
 17   7   9  ar  
 18   7  10  1   
 19   8   9  ar  
 20   8  23  1   
 21   9  24  1   
 22  10  11  1   
 23  10  12  1   
 24  10  13  1   
 25  11  25  1   
 26  11  26  1   
 27  11  27  1   
 28  12  28  1   
 29  12  29  1   
 30  12  30  1   
 31  13  31  1   
 32  13  32  1   
 33  13  33  1   
@<TRIPOS>SUBSTRUCTURE
  1 ****   5 GROUP 4 **** **** 0

# MOE 2024.06 (io_trps.svl 2023.06)
