@<TRIPOS>MOLECULE
NONAME
48 50 1 0 0 
SMALL
USER_CHARGES


@<TRIPOS>ATOM
  1 CL      -0.1990     0.3040     0.7590 Cl    1 <1>  -0.1770 
  2 C       -1.8640     0.6390     0.3600 C.ar  1 <1>   0.1770 
  3 C       -2.2080     0.9130    -0.9500 C.ar  1 <1>  -0.1500 
  4 C       -2.8190     0.6280     1.3570 C.ar  1 <1>  -0.1500 
  5 C       -3.5300     1.1790    -1.2600 C.ar  1 <1>  -0.1500 
  6 C       -4.1380     0.8970     1.0350 C.ar  1 <1>  -0.1500 
  7 C       -4.5240     1.1730    -0.2790 C.ar  1 <1>   0.0530 
  8 C       -5.8900     1.4680    -0.6290 C.2   1 <1>   0.0870 
  9 O       -6.1350     2.4720    -1.4330 O.3   1 <1>  -0.0190 
 10 C       -7.0930     0.9080    -0.3160 C.2   1 <1>  -0.0860 
 11 N       -7.4060     2.6420    -1.6720 N.2   1 <1>  -0.4100 
 12 C       -8.0020     1.7280    -1.0020 C.2   1 <1>   0.3720 
 13 C       -7.4230    -0.2510     0.4590 C.2   1 <1>   0.7160 
 14 N       -9.3890     1.6460    -1.0170 N.pl3 1 <1>  -0.8520 
 15 O       -6.5940    -0.8380     1.1250 O.2   1 <1>  -0.5700 
 16 N       -8.6980    -0.7260     0.4490 N.am  1 <1>  -0.7300 
 17 C      -10.0410     2.2600     0.1750 C.3   1 <1>   0.2090 
 18 C       -9.2330    -1.9130     1.1680 C.3   1 <1>   0.1400 
 19 C      -11.4260     1.6510     0.3930 C.3   1 <1>   0.1200 
 20 C       -9.7020    -2.9910     0.1820 C.3   1 <1>   0.2000 
 21 O      -12.0030     2.2550     1.5060 O.3   1 <1>  -0.5600 
 22 O      -10.4030    -3.9710     0.8720 O.3   1 <1>  -0.5600 
 23 C      -10.6920    -2.5150    -0.8750 C.3   1 <1>  -0.1600 
 24 C      -13.2650     1.7630     1.8270 C.3   1 <1>   0.0400 
 25 C      -11.2000    -4.6980    -0.0070 C.3   1 <1>   0.1200 
 26 C      -11.4890    -3.7710    -1.1870 C.3   1 <1>  -0.1600 
 27 H       -1.4480     0.9180    -1.7110 H     1 <1>   0.1500 
 28 H       -2.5320     0.4110     2.3710 H     1 <1>   0.1500 
 29 H       -3.8010     1.3940    -2.2790 H     1 <1>   0.1500 
 30 H       -4.8810     0.8920     1.8140 H     1 <1>   0.1500 
 31 H       -9.6990     2.1700    -1.8450 H     1 <1>   0.4000 
 32 H       -9.3520    -0.2040    -0.1490 H     1 <1>   0.3700 
 33 H       -9.4400     2.0880     1.0530 H     1 <1>   0.0800 
 34 H      -10.1350     3.3220     0.0220 H     1 <1>   0.0800 
 35 H       -8.4730    -2.3290     1.8080 H     1 <1>   0.0800 
 36 H      -10.0630    -1.6040     1.7790 H     1 <1>   0.0800 
 37 H      -11.3440     0.5950     0.5820 H     1 <1>   0.0800 
 38 H      -12.0550     1.8340    -0.4610 H     1 <1>   0.0800 
 39 H       -8.8530    -3.4660    -0.2790 H     1 <1>   0.0800 
 40 H      -11.3380    -1.7630    -0.4580 H     1 <1>   0.0800 
 41 H      -10.1900    -2.1170    -1.7390 H     1 <1>   0.0800 
 42 H      -13.6200     2.2940     2.6930 H     1 <1>   0.0800 
 43 H      -13.1910     0.7120     2.0520 H     1 <1>   0.0800 
 44 H      -13.9340     1.9290     1.0010 H     1 <1>   0.0800 
 45 H      -10.6490    -5.5690    -0.3190 H     1 <1>   0.0800 
 46 H      -12.0970    -4.9930     0.5090 H     1 <1>   0.0800 
 47 H      -11.1490    -4.2310    -2.0980 H     1 <1>   0.0800 
 48 H      -12.5410    -3.5640    -1.2700 H     1 <1>   0.0800 
@<TRIPOS>BOND
  1   1   2  1   
  2   2   3  ar  
  3   2   4  ar  
  4   3   5  ar  
  5   3  27  1   
  6   4   6  ar  
  7   4  28  1   
  8   5   7  ar  
  9   5  29  1   
 10   6   7  ar  
 11   6  30  1   
 12   7   8  1   
 13   8   9  1   
 14   8  10  2   
 15   9  11  1   
 16  10  12  1   
 17  10  13  1   
 18  11  12  2   
 19  12  14  1   
 20  13  15  2   
 21  13  16  am  
 22  14  17  1   
 23  14  31  1   
 24  16  18  1   
 25  16  32  1   
 26  17  19  1   
 27  17  33  1   
 28  17  34  1   
 29  18  20  1   
 30  18  35  1   
 31  18  36  1   
 32  19  21  1   
 33  19  37  1   
 34  19  38  1   
 35  20  22  1   
 36  20  23  1   
 37  20  39  1   
 38  21  24  1   
 39  22  25  1   
 40  23  26  1   
 41  23  40  1   
 42  23  41  1   
 43  24  42  1   
 44  24  43  1   
 45  24  44  1   
 46  25  26  1   
 47  25  45  1   
 48  25  46  1   
 49  26  47  1   
 50  26  48  1   
@<TRIPOS>SUBSTRUCTURE
  1 ****  13 GROUP 4 **** **** 0

# MOE 2024.06 (io_trps.svl 2023.06)
