@<TRIPOS>MOLECULE
NONAME
53 56 1 0 0 
SMALL
USER_CHARGES


@<TRIPOS>ATOM
  1 S        0.6310    -1.2630    -0.0830 S.o2  1 <1>   1.4470 
  2 O        1.2490    -2.4410    -0.6430 O.2   1 <1>  -0.6500 
  3 O        0.3060    -1.2750     1.3300 O.2   1 <1>  -0.6500 
  4 N       -0.8780    -1.1180    -0.8490 N.am  1 <1>  -0.8490 
  5 C        1.5140     0.2440    -0.5660 C.ar  1 <1>  -0.0090 
  6 C       -1.6660    -2.3440    -0.7090 C.3   1 <1>   0.1960 
  7 C       -1.6300     0.0610    -0.3960 C.3   1 <1>   0.1960 
  8 C        1.8840     1.1980     0.3490 C.ar  1 <1>  -0.1500 
  9 C        1.8210     0.4730    -1.9190 C.ar  1 <1>  -0.1500 
 10 C       -2.6720    -2.1820     0.4610 C.3   1 <1>   0.4230 
 11 C       -3.1730    -0.1470    -0.4380 C.3   1 <1>  -0.1600 
 12 C        2.5430     2.3860    -0.0230 C.ar  1 <1>   0.0000 
 13 C        2.4610     1.6140    -2.3150 C.ar  1 <1>  -0.1500 
 14 N       -2.6940    -3.4030     1.3650 N.4   1 <1>  -0.9590 
 15 C       -4.0060    -1.5100    -0.1250 C.3   1 <1>   0.0000 
 16 C        2.8360     2.6010    -1.3850 C.ar  1 <1>   0.0000 
 17 C        2.9200     3.3680     0.9150 C.ar  1 <1>  -0.1500 
 18 C       -3.1130    -4.6140     0.6300 C.3   1 <1>   0.3430 
 19 C       -1.3960    -3.6110     2.0890 C.3   1 <1>   0.2630 
 20 C       -4.8890    -2.8500     0.1040 C.3   1 <1>  -0.1600 
 21 C       -5.3200    -0.7630    -0.6640 C.3   1 <1>   0.1200 
 22 C        3.4910     3.7910    -1.7590 C.ar  1 <1>  -0.1500 
 23 C        3.5540     4.5150     0.5250 C.ar  1 <1>  -0.1500 
 24 C       -4.2700    -4.2180    -0.2710 C.3   1 <1>  -0.1600 
 25 O       -5.5380    -1.0890    -2.0030 O.3   1 <1>  -0.6800 
 26 C        3.8430     4.7290    -0.8280 C.ar  1 <1>  -0.1500 
 27 H       -2.2110    -2.4980    -1.6250 H     1 <1>   0.0800 
 28 H       -1.0290    -3.1990    -0.5750 H     1 <1>   0.0800 
 29 H       -1.3580     0.3140     0.6170 H     1 <1>   0.0800 
 30 H       -1.3560     0.9080    -1.0070 H     1 <1>   0.0800 
 31 H        1.6710     1.0520     1.3940 H     1 <1>   0.1500 
 32 H        1.5420    -0.2740    -2.6440 H     1 <1>   0.1500 
 33 H       -2.2500    -1.4450     1.1210 H     1 <1>   0.0800 
 34 H       -3.5310     0.6300     0.2210 H     1 <1>   0.0800 
 35 H       -3.3800     0.1770    -1.4480 H     1 <1>   0.0800 
 36 H        2.6920     1.7760    -3.3540 H     1 <1>   0.1500 
 37 H       -3.4190    -3.2170     2.0690 H     1 <1>   0.4500 
 38 H        2.7000     3.2010     1.9540 H     1 <1>   0.1500 
 39 H       -2.3020    -5.0040     0.0370 H     1 <1>   0.0800 
 40 H       -3.4280    -5.3740     1.3270 H     1 <1>   0.0800 
 41 H       -0.5990    -3.8180     1.3930 H     1 <1>   0.0800 
 42 H       -1.4760    -4.4380     2.7760 H     1 <1>   0.0800 
 43 H       -1.1320    -2.7260     2.6470 H     1 <1>   0.0800 
 44 H       -5.2130    -2.8730     1.1320 H     1 <1>   0.0800 
 45 H       -5.8140    -2.9260    -0.4510 H     1 <1>   0.0800 
 46 H       -5.3440     0.3150    -0.6120 H     1 <1>   0.0800 
 47 H       -6.2150    -1.0140    -0.1130 H     1 <1>   0.0800 
 48 H        3.7110     3.9510    -2.7990 H     1 <1>   0.1500 
 49 H        3.8400     5.2630     1.2450 H     1 <1>   0.1500 
 50 H       -3.9410    -4.1970    -1.2960 H     1 <1>   0.0800 
 51 H       -5.0220    -4.9870    -0.2080 H     1 <1>   0.0800 
 52 H       -4.9790    -0.5590    -2.6050 H     1 <1>   0.4000 
 53 H        4.3420     5.6370    -1.1190 H     1 <1>   0.1500 
@<TRIPOS>BOND
  1   1   2  2   
  2   1   3  2   
  3   1   4  am  
  4   1   5  1   
  5   4   6  1   
  6   4   7  1   
  7   5   8  ar  
  8   5   9  ar  
  9   6  10  1   
 10   6  27  1   
 11   6  28  1   
 12   7  11  1   
 13   7  29  1   
 14   7  30  1   
 15   8  12  ar  
 16   8  31  1   
 17   9  13  ar  
 18   9  32  1   
 19  10  14  1   
 20  10  15  1   
 21  10  33  1   
 22  11  15  1   
 23  11  34  1   
 24  11  35  1   
 25  12  16  ar  
 26  12  17  ar  
 27  13  16  ar  
 28  13  36  1   
 29  14  18  1   
 30  14  19  1   
 31  14  37  1   
 32  15  20  1   
 33  15  21  1   
 34  16  22  ar  
 35  17  23  ar  
 36  17  38  1   
 37  18  24  1   
 38  18  39  1   
 39  18  40  1   
 40  19  41  1   
 41  19  42  1   
 42  19  43  1   
 43  20  24  1   
 44  20  44  1   
 45  20  45  1   
 46  21  25  1   
 47  21  46  1   
 48  21  47  1   
 49  22  26  ar  
 50  22  48  1   
 51  23  26  ar  
 52  23  49  1   
 53  24  50  1   
 54  24  51  1   
 55  25  52  1   
 56  26  53  1   
@<TRIPOS>SUBSTRUCTURE
  1 ****   4 GROUP 4 **** **** 0

# MOE 2024.06 (io_trps.svl 2023.06)
