@<TRIPOS>MOLECULE
NONAME
41 42 1 0 0 
SMALL
USER_CHARGES


@<TRIPOS>ATOM
  1 S       -0.3580    -0.4030    -2.2130 S.3   1 <1>  -0.0800 
  2 C       -1.1210    -1.5430    -1.1170 C.2   1 <1>  -0.1400 
  3 C        1.2390    -0.9540    -1.7450 C.2   1 <1>  -0.1100 
  4 C       -0.1900    -2.2750    -0.4730 C.2   1 <1>  -0.1500 
  5 C       -2.6320    -1.5340    -1.0780 C.3   1 <1>   0.5230 
  6 C        1.1530    -1.9340    -0.8280 C.2   1 <1>  -0.1500 
  7 N       -3.0580    -1.3790     0.3430 N.4   1 <1>  -0.9590 
  8 C       -4.2820    -2.1720     0.6380 C.3   1 <1>   0.4860 
  9 C       -3.2310     0.0480     0.7710 C.3   1 <1>   0.3430 
 10 C       -3.9740    -3.6420     0.4050 C.ar  1 <1>  -0.1430 
 11 C       -1.9190     0.8430     0.8330 C.3   1 <1>   0.1200 
 12 C       -4.5720    -4.3590    -0.6260 C.ar  1 <1>  -0.1430 
 13 C       -3.0610    -4.2740     1.2400 C.ar  1 <1>  -0.1500 
 14 O       -2.1770     2.0110     1.5260 O.3   1 <1>  -0.6800 
 15 C       -4.2260    -5.6860    -0.8140 C.ar  1 <1>  -0.1500 
 16 C       -5.6100    -3.7420    -1.5570 C.3   1 <1>  -0.0970 
 17 C       -2.7040    -5.6050     1.0500 C.ar  1 <1>  -0.1430 
 18 C       -3.3020    -6.3030     0.0090 C.ar  1 <1>  -0.1500 
 19 C       -1.6750    -6.2710     1.9780 C.3   1 <1>   1.1630 
 20 F       -1.1440    -7.3780     1.4740 F     1 <1>  -0.3400 
 21 F       -0.6590    -5.4550     2.2400 F     1 <1>  -0.3400 
 22 F       -2.2020    -6.5990     3.1490 F     1 <1>  -0.3400 
 23 H        2.0860    -0.4820    -2.2140 H     1 <1>   0.1500 
 24 H       -0.3680    -3.0610     0.2430 H     1 <1>   0.1500 
 25 H       -2.9850    -2.4670    -1.4860 H     1 <1>   0.0800 
 26 H       -3.0190    -0.7290    -1.6810 H     1 <1>   0.0800 
 27 H        1.9920    -2.4440    -0.3830 H     1 <1>   0.1500 
 28 H       -2.2990    -1.7960     0.8930 H     1 <1>   0.4500 
 29 H       -5.0960    -1.8520     0.0100 H     1 <1>   0.0800 
 30 H       -4.5750    -2.0340     1.6660 H     1 <1>   0.0800 
 31 H       -3.6590     0.0650     1.7600 H     1 <1>   0.0800 
 32 H       -3.9120     0.5520     0.1050 H     1 <1>   0.0800 
 33 H       -1.5740     1.1120    -0.1500 H     1 <1>   0.0800 
 34 H       -1.1560     0.3030     1.3670 H     1 <1>   0.0800 
 35 H       -2.6140    -3.7330     2.0590 H     1 <1>   0.1500 
 36 H       -1.3820     2.5830     1.5810 H     1 <1>   0.4000 
 37 H       -4.6760    -6.2610    -1.6070 H     1 <1>   0.1500 
 38 H       -5.1930    -2.9210    -2.1100 H     1 <1>   0.0800 
 39 H       -6.4600    -3.3980    -0.9930 H     1 <1>   0.0800 
 40 H       -5.9660    -4.4680    -2.2670 H     1 <1>   0.0800 
 41 H       -3.0580    -7.3390    -0.1700 H     1 <1>   0.1500 
@<TRIPOS>BOND
  1   1   2  1   
  2   1   3  1   
  3   2   4  2   
  4   2   5  1   
  5   3   6  2   
  6   3  23  1   
  7   4   6  1   
  8   4  24  1   
  9   5   7  1   
 10   5  25  1   
 11   5  26  1   
 12   6  27  1   
 13   7   8  1   
 14   7   9  1   
 15   7  28  1   
 16   8  10  1   
 17   8  29  1   
 18   8  30  1   
 19   9  11  1   
 20   9  31  1   
 21   9  32  1   
 22  10  12  ar  
 23  10  13  ar  
 24  11  14  1   
 25  11  33  1   
 26  11  34  1   
 27  12  15  ar  
 28  12  16  1   
 29  13  17  ar  
 30  13  35  1   
 31  14  36  1   
 32  15  18  ar  
 33  15  37  1   
 34  16  38  1   
 35  16  39  1   
 36  16  40  1   
 37  17  18  ar  
 38  17  19  1   
 39  18  41  1   
 40  19  20  1   
 41  19  21  1   
 42  19  22  1   
@<TRIPOS>SUBSTRUCTURE
  1 ****  13 GROUP 4 **** **** 0

# MOE 2024.06 (io_trps.svl 2023.06)
