@<TRIPOS>MOLECULE
NONAME
40 42 1 0 0 
SMALL
USER_CHARGES


@<TRIPOS>ATOM
  1 S       -1.3820    -0.1480    -1.6670 S.3   1 <1>  -0.0800 
  2 C       -2.0880     0.9910    -0.5420 C.2   1 <1>   0.1980 
  3 C       -1.7550    -1.4300    -0.5540 C.2   1 <1>  -0.1100 
  4 N       -2.5440     0.4660     0.5230 N.2   1 <1>  -0.5650 
  5 C       -2.0860     2.4490    -0.9370 C.3   1 <1>  -0.0600 
  6 C       -2.3590    -0.9080     0.5260 C.2   1 <1>   0.0460 
  7 C       -2.8630    -1.6630     1.7440 C.3   1 <1>   0.0820 
  8 C       -3.1010    -3.1350     1.4540 C.2   1 <1>   0.5690 
  9 O       -2.3350    -3.9410     1.9270 O.2   1 <1>  -0.5700 
 10 N       -4.1590    -3.5280     0.6780 N.am  1 <1>  -0.6600 
 11 C       -5.1490    -2.6370     0.0190 C.3   1 <1>   0.1400 
 12 C       -4.4420    -4.9490     0.3660 C.3   1 <1>   0.1400 
 13 C       -6.0630    -3.5770    -0.7700 C.3   1 <1>   0.2000 
 14 C       -5.8840    -4.9590    -0.1450 C.3   1 <1>  -0.0800 
 15 O       -7.3910    -3.1900    -0.6840 O.3   1 <1>  -0.6800 
 16 C       -6.1990    -6.0970    -1.1310 C.3   1 <1>  -0.0170 
 17 C       -6.0650    -7.4650    -0.4800 C.ar  1 <1>   0.1670 
 18 N       -4.8440    -7.9710    -0.4120 N.ar  1 <1>  -0.6200 
 19 C       -7.1960    -8.1170     0.0100 C.ar  1 <1>   0.1600 
 20 C       -4.8280    -9.1560     0.1740 C.ar  1 <1>   0.1600 
 21 N       -7.1830    -9.3020     0.5970 N.ar  1 <1>  -0.6200 
 22 C       -5.9590    -9.8000     0.6630 C.ar  1 <1>   0.1600 
 23 H       -1.4820    -2.4340    -0.8250 H     1 <1>   0.1500 
 24 H       -2.5450     3.0350    -0.1620 H     1 <1>   0.0800 
 25 H       -2.6380     2.5800    -1.8490 H     1 <1>   0.0800 
 26 H       -1.0760     2.7860    -1.0800 H     1 <1>   0.0800 
 27 H       -3.7820    -1.2260     2.0810 H     1 <1>   0.0800 
 28 H       -2.1440    -1.5640     2.5360 H     1 <1>   0.0800 
 29 H       -5.7020    -2.0990     0.7680 H     1 <1>   0.0800 
 30 H       -4.6540    -1.9490    -0.6450 H     1 <1>   0.0800 
 31 H       -3.7590    -5.2840    -0.3980 H     1 <1>   0.0800 
 32 H       -4.3240    -5.5700     1.2390 H     1 <1>   0.0800 
 33 H       -5.7750    -3.5750    -1.8080 H     1 <1>   0.0800 
 34 H       -6.5220    -5.0470     0.7170 H     1 <1>   0.0800 
 35 H       -7.6800    -3.1660     0.2490 H     1 <1>   0.4000 
 36 H       -5.5350    -6.0460    -1.9760 H     1 <1>   0.0800 
 37 H       -7.2010    -5.9750    -1.5020 H     1 <1>   0.0800 
 38 H       -8.1540    -7.6380    -0.0870 H     1 <1>   0.1500 
 39 H       -3.8740    -9.6430     0.2740 H     1 <1>   0.1500 
 40 H       -5.8450   -10.7640     1.1250 H     1 <1>   0.1500 
@<TRIPOS>BOND
  1   1   2  1   
  2   1   3  1   
  3   2   4  2   
  4   2   5  1   
  5   3   6  2   
  6   3  23  1   
  7   4   6  1   
  8   5  24  1   
  9   5  25  1   
 10   5  26  1   
 11   6   7  1   
 12   7   8  1   
 13   7  27  1   
 14   7  28  1   
 15   8   9  2   
 16   8  10  am  
 17  10  11  1   
 18  10  12  1   
 19  11  13  1   
 20  11  29  1   
 21  11  30  1   
 22  12  14  1   
 23  12  31  1   
 24  12  32  1   
 25  13  14  1   
 26  13  15  1   
 27  13  33  1   
 28  14  16  1   
 29  14  34  1   
 30  15  35  1   
 31  16  17  1   
 32  16  36  1   
 33  16  37  1   
 34  17  18  ar  
 35  17  19  ar  
 36  18  20  ar  
 37  19  21  ar  
 38  19  38  1   
 39  20  22  ar  
 40  20  39  1   
 41  21  22  ar  
 42  22  40  1   
@<TRIPOS>SUBSTRUCTURE
  1 ****  10 GROUP 4 **** **** 0

# MOE 2024.06 (io_trps.svl 2023.06)
