@<TRIPOS>MOLECULE
NONAME
53 56 1 0 0 
SMALL
USER_CHARGES


@<TRIPOS>ATOM
  1 S       -0.3910     0.6510    -0.0890 S.3   1 <1>  -0.3310 
  2 C        1.0040    -0.2330    -0.8060 C.ar  1 <1>   0.1020 
  3 C       -0.8770     1.9580    -1.3200 C.3   1 <1>   0.1310 
  4 C        1.6170    -1.1850    -0.0110 C.ar  1 <1>  -0.1500 
  5 C        1.4560     0.0150    -2.0930 C.ar  1 <1>  -0.1500 
  6 C       -1.9780     2.8560    -0.7680 C.2   1 <1>   0.5690 
  7 C        2.6990    -1.8940    -0.5030 C.ar  1 <1>  -0.1500 
  8 C        2.5390    -0.6980    -2.5800 C.ar  1 <1>  -0.1500 
  9 O       -3.0580     2.7320    -1.2980 O.2   1 <1>  -0.5700 
 10 N       -1.7280     3.7700     0.2390 N.am  1 <1>  -0.6600 
 11 C        3.1590    -1.6490    -1.7860 C.ar  1 <1>  -0.1500 
 12 C       -2.7330     4.7080     0.8660 C.3   1 <1>   0.2200 
 13 C       -0.4050     3.8740     0.9350 C.3   1 <1>   0.1400 
 14 C       -2.2900     6.2030     0.7670 C.3   1 <1>   0.1380 
 15 C       -4.2220     4.5360     0.5320 C.3   1 <1>  -0.1600 
 16 C        0.0850     5.3290     0.9910 C.3   1 <1>  -0.1600 
 17 C       -2.0540     6.7560    -0.6680 C.2   1 <1>  -0.2760 
 18 C       -3.3900     7.0830     1.4200 C.3   1 <1>   0.1200 
 19 C       -0.9730     6.2820     1.5770 C.3   1 <1>  -0.1600 
 20 C       -5.0850     5.4570     1.4130 C.3   1 <1>   0.1200 
 21 C       -2.3260     6.1320    -1.8220 C.2   1 <1>  -0.2880 
 22 C       -1.4530     8.1630    -0.7570 C.3   1 <1>  -0.0220 
 23 O       -4.2920     6.3250     2.1750 O.3   1 <1>  -0.5600 
 24 C       -2.0550     6.7090    -3.2050 C.3   1 <1>   0.2580 
 25 C       -1.6370     8.7640    -2.1580 C.3   1 <1>   0.1200 
 26 O       -1.2360     7.8370    -3.1170 O.3   1 <1>  -0.5600 
 27 H       -0.0030     2.5320    -1.5590 H     1 <1>   0.0800 
 28 H       -1.2280     1.4440    -2.1950 H     1 <1>   0.0800 
 29 H        1.2490    -1.3660     0.9830 H     1 <1>   0.1500 
 30 H        0.9850     0.7430    -2.7240 H     1 <1>   0.1500 
 31 H        3.1810    -2.6350     0.1110 H     1 <1>   0.1500 
 32 H        2.9000    -0.5150    -3.5770 H     1 <1>   0.1500 
 33 H        4.0000    -2.2010    -2.1680 H     1 <1>   0.1500 
 34 H       -2.6960     4.4650     1.9150 H     1 <1>   0.0800 
 35 H       -0.5180     3.4970     1.9380 H     1 <1>   0.0800 
 36 H        0.3490     3.2820     0.4530 H     1 <1>   0.0800 
 37 H       -4.5200     3.5180     0.7030 H     1 <1>   0.0800 
 38 H       -4.4170     4.7720    -0.4950 H     1 <1>   0.0800 
 39 H        0.9770     5.3740     1.5900 H     1 <1>   0.0800 
 40 H        0.3500     5.6420    -0.0050 H     1 <1>   0.0800 
 41 H       -3.9580     7.5990     0.6640 H     1 <1>   0.0800 
 42 H       -2.9540     7.8180     2.0720 H     1 <1>   0.0800 
 43 H       -0.5880     7.2840     1.6000 H     1 <1>   0.0800 
 44 H       -1.1680     6.0010     2.5980 H     1 <1>   0.0800 
 45 H       -5.6680     4.8720     2.1030 H     1 <1>   0.0800 
 46 H       -5.7540     6.0470     0.8100 H     1 <1>   0.0800 
 47 H       -2.7640     5.1570    -1.8940 H     1 <1>   0.1500 
 48 H       -0.4010     8.1240    -0.5440 H     1 <1>   0.0800 
 49 H       -1.9130     8.8280    -0.0490 H     1 <1>   0.0800 
 50 H       -2.9750     6.9880    -3.6890 H     1 <1>   0.0800 
 51 H       -1.5410     5.9880    -3.8160 H     1 <1>   0.0800 
 52 H       -1.0320     9.6460    -2.2740 H     1 <1>   0.0800 
 53 H       -2.6680     9.0170    -2.3370 H     1 <1>   0.0800 
@<TRIPOS>BOND
  1   1   2  1   
  2   1   3  1   
  3   2   4  ar  
  4   2   5  ar  
  5   3   6  1   
  6   3  27  1   
  7   3  28  1   
  8   4   7  ar  
  9   4  29  1   
 10   5   8  ar  
 11   5  30  1   
 12   6   9  2   
 13   6  10  am  
 14   7  11  ar  
 15   7  31  1   
 16   8  11  ar  
 17   8  32  1   
 18  10  12  1   
 19  10  13  1   
 20  11  33  1   
 21  12  14  1   
 22  12  15  1   
 23  12  34  1   
 24  13  16  1   
 25  13  35  1   
 26  13  36  1   
 27  14  17  1   
 28  14  18  1   
 29  14  19  1   
 30  15  20  1   
 31  15  37  1   
 32  15  38  1   
 33  16  19  1   
 34  16  39  1   
 35  16  40  1   
 36  17  21  2   
 37  17  22  1   
 38  18  23  1   
 39  18  41  1   
 40  18  42  1   
 41  19  43  1   
 42  19  44  1   
 43  20  23  1   
 44  20  45  1   
 45  20  46  1   
 46  21  24  1   
 47  21  47  1   
 48  22  25  1   
 49  22  48  1   
 50  22  49  1   
 51  24  26  1   
 52  24  50  1   
 53  24  51  1   
 54  25  26  1   
 55  25  52  1   
 56  25  53  1   
@<TRIPOS>SUBSTRUCTURE
  1 ****  10 GROUP 4 **** **** 0

# MOE 2024.06 (io_trps.svl 2023.06)
