@<TRIPOS>MOLECULE
NONAME
50 52 1 0 0 
SMALL
USER_CHARGES


@<TRIPOS>ATOM
  1 F       -0.3600     1.0920    -0.5350 F     1 <1>  -0.1900 
  2 C       -1.6610     1.2280    -0.4910 C.ar  1 <1>   0.1900 
  3 C       -2.2820     2.1500     0.3580 C.ar  1 <1>   0.0830 
  4 C       -2.3920     0.4120    -1.3330 C.ar  1 <1>  -0.1500 
  5 O       -1.6740     3.0050     1.2290 O.3   1 <1>  -0.3630 
  6 C       -3.6660     2.2200     0.3280 C.ar  1 <1>  -0.1500 
  7 C       -3.7710     0.5090    -1.3380 C.ar  1 <1>  -0.1500 
  8 C       -0.2770     3.0380     1.4250 C.3   1 <1>   0.0400 
  9 C       -4.4390     1.4090    -0.5060 C.ar  1 <1>   0.0530 
 10 C       -5.8760     1.5250    -0.5090 C.2   1 <1>   0.0870 
 11 O       -6.4200     2.7130    -0.4330 O.3   1 <1>  -0.0190 
 12 C       -6.8960     0.6260    -0.5870 C.2   1 <1>  -0.0860 
 13 N       -7.7240     2.6830    -0.4640 N.2   1 <1>  -0.4100 
 14 C       -8.0390     1.4390    -0.5570 C.2   1 <1>   0.3720 
 15 C       -6.8840    -0.8050    -0.6640 C.2   1 <1>   0.7160 
 16 N       -9.3700     0.9900    -0.5970 N.pl3 1 <1>  -0.8210 
 17 O       -5.8810    -1.4490    -0.4220 O.2   1 <1>  -0.5700 
 18 N       -8.0140    -1.4760    -1.0050 N.am  1 <1>  -0.7300 
 19 C       -9.9180     0.6880     0.7530 C.3   1 <1>   0.1290 
 20 C      -10.2920     1.8620    -1.3800 C.3   1 <1>   0.1290 
 21 C       -8.2500    -2.9230    -0.9130 C.3   1 <1>   0.2350 
 22 C       -9.4740    -3.1350    -0.0200 C.3   1 <1>  -0.1950 
 23 C      -10.4250    -4.2790    -0.1640 C.3   1 <1>  -0.1900 
 24 C      -10.8670    -2.9010    -0.5470 C.3   1 <1>  -0.2000 
 25 C      -10.2600    -5.3240    -1.2750 C.3   1 <1>  -0.1450 
 26 C      -10.9990    -4.8980     1.1140 C.3   1 <1>  -0.1450 
 27 H       -1.8880    -0.2880    -1.9740 H     1 <1>   0.1500 
 28 H       -4.1560     2.9250     0.9750 H     1 <1>   0.1500 
 29 H       -4.3400    -0.1250    -1.9960 H     1 <1>   0.1500 
 30 H       -0.0630     3.7760     2.1770 H     1 <1>   0.0800 
 31 H        0.2000     3.3110     0.5010 H     1 <1>   0.0800 
 32 H        0.0530     2.0710     1.7600 H     1 <1>   0.0800 
 33 H       -8.8580    -0.8890    -1.0840 H     1 <1>   0.3700 
 34 H       -9.2450     0.0380     1.2870 H     1 <1>   0.0800 
 35 H      -10.8710     0.1970     0.6630 H     1 <1>   0.0800 
 36 H      -10.0380     1.6000     1.3150 H     1 <1>   0.0800 
 37 H       -9.8400     2.1160    -2.3240 H     1 <1>   0.0800 
 38 H      -10.4940     2.7710    -0.8390 H     1 <1>   0.0800 
 39 H      -11.2170     1.3450    -1.5670 H     1 <1>   0.0800 
 40 H       -7.3940    -3.4230    -0.4940 H     1 <1>   0.0800 
 41 H       -8.4220    -3.3060    -1.9030 H     1 <1>   0.0800 
 42 H       -9.2680    -2.8180     0.9870 H     1 <1>   0.1000 
 43 H      -10.9940    -2.6630    -1.5890 H     1 <1>   0.1000 
 44 H      -11.5750    -2.3840     0.0780 H     1 <1>   0.1000 
 45 H       -9.9630    -4.8710    -2.2030 H     1 <1>   0.0800 
 46 H      -11.1920    -5.8340    -1.4410 H     1 <1>   0.0800 
 47 H       -9.5180    -6.0490    -0.9920 H     1 <1>   0.0800 
 48 H      -11.1380    -4.1500     1.8750 H     1 <1>   0.0800 
 49 H      -10.3300    -5.6490     1.4950 H     1 <1>   0.0800 
 50 H      -11.9520    -5.3540     0.9120 H     1 <1>   0.0800 
@<TRIPOS>BOND
  1   1   2  1   
  2   2   3  ar  
  3   2   4  ar  
  4   3   5  1   
  5   3   6  ar  
  6   4   7  ar  
  7   4  27  1   
  8   5   8  1   
  9   6   9  ar  
 10   6  28  1   
 11   7   9  ar  
 12   7  29  1   
 13   8  30  1   
 14   8  31  1   
 15   8  32  1   
 16   9  10  1   
 17  10  11  1   
 18  10  12  2   
 19  11  13  1   
 20  12  14  1   
 21  12  15  1   
 22  13  14  2   
 23  14  16  1   
 24  15  17  2   
 25  15  18  am  
 26  16  19  1   
 27  16  20  1   
 28  18  21  1   
 29  18  33  1   
 30  19  34  1   
 31  19  35  1   
 32  19  36  1   
 33  20  37  1   
 34  20  38  1   
 35  20  39  1   
 36  21  22  1   
 37  21  40  1   
 38  21  41  1   
 39  22  23  1   
 40  22  24  1   
 41  22  42  1   
 42  23  24  1   
 43  23  25  1   
 44  23  26  1   
 45  24  43  1   
 46  24  44  1   
 47  25  45  1   
 48  25  46  1   
 49  25  47  1   
 50  26  48  1   
 51  26  49  1   
 52  26  50  1   
@<TRIPOS>SUBSTRUCTURE
  1 ****  12 GROUP 4 **** **** 0

# MOE 2024.06 (io_trps.svl 2023.06)
