@<TRIPOS>MOLECULE
NONAME
50 53 1 0 0 
SMALL
USER_CHARGES


@<TRIPOS>ATOM
  1 S       -1.5240     1.7170    -1.1760 S.3   1 <1>  -0.2820 
  2 C       -2.5850     1.2060     0.1080 C.2   1 <1>   0.6510 
  3 C       -0.5770     2.6500    -0.0180 C.2   1 <1>   0.5300 
  4 N       -3.6040     0.4280    -0.0800 N.2   1 <1>  -0.6210 
  5 N       -2.1510     1.7710     1.2760 N.am  1 <1>  -0.0580 
  6 N       -1.0110     2.5850     1.1720 N.2   1 <1>  -0.5120 
  7 C        0.6150     3.4030    -0.5870 C.3   1 <1>  -0.0990 
  8 C       -4.3330     0.1260     1.0380 C.2   1 <1>   0.0330 
  9 C       -2.8820     1.4850     2.4190 C.2   1 <1>   0.6160 
 10 C        1.3950     4.2060     0.4670 C.3   1 <1>  -0.2400 
 11 C       -4.0010     0.6260     2.2580 C.2   1 <1>  -0.1360 
 12 C       -5.5310    -0.8060     0.8470 C.3   1 <1>   0.4810 
 13 O       -2.5980     1.9440     3.5140 O.2   1 <1>  -0.5700 
 14 N       -6.6810    -0.0870     0.2210 N.4   1 <1>  -0.9590 
 15 C       -7.9740    -0.8030     0.3530 C.3   1 <1>   0.3430 
 16 C       -6.4180     0.3440    -1.1890 C.3   1 <1>   0.3430 
 17 C       -9.1330     0.1410     0.0120 C.3   1 <1>  -0.1600 
 18 C       -7.6600     0.9890    -1.8160 C.3   1 <1>  -0.1600 
 19 C       -8.7030     1.3900    -0.7680 C.3   1 <1>   0.4180 
 20 O       -8.0920     2.2430     0.1760 O.3   1 <1>  -0.5600 
 21 C       -9.9200     2.0570    -1.3960 C.2   1 <1>  -0.2880 
 22 C       -8.0120     3.6080    -0.1480 C.3   1 <1>   0.1200 
 23 C      -10.2680     3.3270    -1.1830 C.2   1 <1>  -0.2760 
 24 C       -9.4130     4.2140    -0.2970 C.3   1 <1>  -0.0220 
 25 C      -11.5020     3.9920    -1.7680 C.3   1 <1>  -0.1020 
 26 H        0.2620     4.0720    -1.3500 H     1 <1>   0.0800 
 27 H        1.2770     2.6920    -1.0480 H     1 <1>   0.0800 
 28 H        0.7550     4.9380     0.9300 H     1 <1>   0.0800 
 29 H        2.2240     4.7160     0.0080 H     1 <1>   0.0800 
 30 H        1.7750     3.5520     1.2320 H     1 <1>   0.0800 
 31 H       -4.5500     0.4080     3.1560 H     1 <1>   0.1500 
 32 H       -5.8300    -1.1850     1.8100 H     1 <1>   0.0800 
 33 H       -5.2380    -1.6410     0.2320 H     1 <1>   0.0800 
 34 H       -6.8220     0.8090     0.7250 H     1 <1>   0.4500 
 35 H       -8.1010    -1.1690     1.3600 H     1 <1>   0.0800 
 36 H       -7.9870    -1.6460    -0.3180 H     1 <1>   0.0800 
 37 H       -6.1010    -0.4950    -1.7860 H     1 <1>   0.0800 
 38 H       -5.6210     1.0700    -1.1910 H     1 <1>   0.0800 
 39 H       -9.6370     0.4480     0.9120 H     1 <1>   0.0800 
 40 H       -9.8480    -0.4160    -0.5660 H     1 <1>   0.0800 
 41 H       -8.1060     0.2870    -2.4970 H     1 <1>   0.0800 
 42 H       -7.3730     1.8410    -2.4040 H     1 <1>   0.0800 
 43 H      -10.4890     1.3990    -2.0300 H     1 <1>   0.1500 
 44 H       -7.4610     3.7140    -1.0660 H     1 <1>   0.0800 
 45 H       -7.4740     4.1080     0.6390 H     1 <1>   0.0800 
 46 H       -9.3170     5.1930    -0.7310 H     1 <1>   0.0800 
 47 H       -9.8730     4.3200     0.6700 H     1 <1>   0.0800 
 48 H      -12.1400     4.3470    -0.9790 H     1 <1>   0.0800 
 49 H      -12.0590     3.2950    -2.3690 H     1 <1>   0.0800 
 50 H      -11.2190     4.8240    -2.3880 H     1 <1>   0.0800 
@<TRIPOS>BOND
  1   1   2  1   
  2   1   3  1   
  3   2   4  2   
  4   2   5  1   
  5   3   6  2   
  6   3   7  1   
  7   4   8  1   
  8   5   6  1   
  9   5   9  am  
 10   7  10  1   
 11   7  26  1   
 12   7  27  1   
 13   8  11  2   
 14   8  12  1   
 15   9  11  1   
 16   9  13  2   
 17  10  28  1   
 18  10  29  1   
 19  10  30  1   
 20  11  31  1   
 21  12  14  1   
 22  12  32  1   
 23  12  33  1   
 24  14  15  1   
 25  14  16  1   
 26  14  34  1   
 27  15  17  1   
 28  15  35  1   
 29  15  36  1   
 30  16  18  1   
 31  16  37  1   
 32  16  38  1   
 33  17  19  1   
 34  17  39  1   
 35  17  40  1   
 36  18  19  1   
 37  18  41  1   
 38  18  42  1   
 39  19  20  1   
 40  19  21  1   
 41  20  22  1   
 42  21  23  2   
 43  21  43  1   
 44  22  24  1   
 45  22  44  1   
 46  22  45  1   
 47  23  24  1   
 48  23  25  1   
 49  24  46  1   
 50  24  47  1   
 51  25  48  1   
 52  25  49  1   
 53  25  50  1   
@<TRIPOS>SUBSTRUCTURE
  1 ****   8 GROUP 4 **** **** 0

# MOE 2024.06 (io_trps.svl 2023.06)
