@<TRIPOS>MOLECULE
NONAME
37 37 1 0 0 
SMALL
USER_CHARGES


@<TRIPOS>ATOM
  1 S       -1.5100    -0.6550    -0.8800 S.3   1 <1>  -0.0800 
  2 C       -1.3420    -1.5380     0.6020 C.2   1 <1>   0.4420 
  3 C       -1.0130     0.7550    -0.0110 C.2   1 <1>   0.1980 
  4 N       -0.9580    -0.7910     1.5720 N.2   1 <1>  -0.3380 
  5 N       -1.6300    -2.8830     0.5520 N.am  1 <1>  -0.4940 
  6 N       -0.7720     0.5170     1.2150 N.2   1 <1>  -0.3380 
  7 C       -0.9250     2.0580    -0.7810 C.3   1 <1>   0.0200 
  8 C       -1.6420    -3.8230     1.5420 C.2   1 <1>   0.5690 
  9 C       -0.4750     3.2070     0.1180 C.3   1 <1>   0.1200 
 10 O       -1.3970    -3.5880     2.6980 O.2   1 <1>  -0.5700 
 11 C       -1.9810    -5.2630     1.1490 C.3   1 <1>   0.2010 
 12 O       -0.4160     4.3630    -0.6530 O.3   1 <1>  -0.5600 
 13 N       -3.3050    -5.4140     0.4600 N.am  1 <1>  -0.7300 
 14 C       -0.0170     5.4880     0.0530 C.3   1 <1>   0.1200 
 15 C       -3.5600    -5.0420    -0.8180 C.2   1 <1>   0.5690 
 16 C       -0.0020     6.6590    -0.9210 C.3   1 <1>  -0.2400 
 17 O       -2.7310    -4.4660    -1.4790 O.2   1 <1>  -0.5700 
 18 C       -4.9260    -5.3340    -1.4090 C.3   1 <1>  -0.0990 
 19 C       -5.1420    -6.8290    -1.6910 C.3   1 <1>  -0.2400 
 20 H       -1.9210    -3.2390    -0.3670 H     1 <1>   0.3700 
 21 H       -1.8910     2.2870    -1.1900 H     1 <1>   0.0800 
 22 H       -0.2210     1.9410    -1.5840 H     1 <1>   0.0800 
 23 H        0.5030     3.0070     0.5230 H     1 <1>   0.0800 
 24 H       -1.1790     3.3560     0.9190 H     1 <1>   0.0800 
 25 H       -1.9750    -5.8700     2.0360 H     1 <1>   0.0800 
 26 H       -1.2050    -5.6250     0.4980 H     1 <1>   0.0800 
 27 H       -4.0480    -5.8430     1.0170 H     1 <1>   0.3700 
 28 H        0.9680     5.3160     0.4560 H     1 <1>   0.0800 
 29 H       -0.7170     5.6660     0.8520 H     1 <1>   0.0800 
 30 H        0.6900     6.4650    -1.7200 H     1 <1>   0.0800 
 31 H        0.3030     7.5540    -0.4100 H     1 <1>   0.0800 
 32 H       -0.9860     6.8130    -1.3270 H     1 <1>   0.0800 
 33 H       -5.0240    -4.7840    -2.3290 H     1 <1>   0.0800 
 34 H       -5.6810    -4.9770    -0.7340 H     1 <1>   0.0800 
 35 H       -4.3940    -7.1880    -2.3770 H     1 <1>   0.0800 
 36 H       -6.1120    -6.9860    -2.1300 H     1 <1>   0.0800 
 37 H       -5.0800    -7.4010    -0.7830 H     1 <1>   0.0800 
@<TRIPOS>BOND
  1   1   2  1   
  2   1   3  1   
  3   2   4  2   
  4   2   5  1   
  5   3   6  2   
  6   3   7  1   
  7   4   6  1   
  8   5   8  am  
  9   5  20  1   
 10   7   9  1   
 11   7  21  1   
 12   7  22  1   
 13   8  10  2   
 14   8  11  1   
 15   9  12  1   
 16   9  23  1   
 17   9  24  1   
 18  11  13  1   
 19  11  25  1   
 20  11  26  1   
 21  12  14  1   
 22  13  15  am  
 23  13  27  1   
 24  14  16  1   
 25  14  28  1   
 26  14  29  1   
 27  15  17  2   
 28  15  18  1   
 29  16  30  1   
 30  16  31  1   
 31  16  32  1   
 32  18  19  1   
 33  18  33  1   
 34  18  34  1   
 35  19  35  1   
 36  19  36  1   
 37  19  37  1   
@<TRIPOS>SUBSTRUCTURE
  1 ****   2 GROUP 4 **** **** 0

# MOE 2024.06 (io_trps.svl 2023.06)
