@<TRIPOS>MOLECULE
NONAME
50 54 1 0 0 
SMALL
USER_CHARGES


@<TRIPOS>ATOM
  1 S        1.2460    -1.5820    -0.2430 S.3   1 <1>  -0.0800 
  2 C        0.2250    -2.9970    -0.2750 C.2   1 <1>   0.1980 
  3 C       -0.1780    -0.5950    -0.2040 C.2   1 <1>  -0.1100 
  4 N       -1.0190    -2.7460    -0.2520 N.2   1 <1>  -0.5650 
  5 C        0.9080    -4.3440    -0.3270 C.3   1 <1>  -0.0600 
  6 C       -1.2900    -1.3640    -0.2080 C.2   1 <1>   0.1410 
  7 C       -2.6510    -0.8270    -0.2010 C.2   1 <1>   0.7160 
  8 O       -2.8320     0.3060    -0.6140 O.2   1 <1>  -0.5700 
  9 N       -3.7530    -1.5220     0.2650 N.am  1 <1>  -0.6600 
 10 C       -5.1410    -1.1730    -0.1670 C.3   1 <1>   0.1400 
 11 C       -3.6910    -2.6200     1.2680 C.3   1 <1>   0.1400 
 12 C       -5.9960    -0.7350     1.0350 C.3   1 <1>   0.1430 
 13 C       -4.5350    -2.2550     2.4960 C.3   1 <1>  -0.1600 
 14 C       -7.4280    -0.4760     0.6030 C.ar  1 <1>   0.1670 
 15 C       -5.9690    -1.8310     2.1240 C.3   1 <1>  -0.1600 
 16 C       -5.5590     0.6500     1.5860 C.3   1 <1>  -0.1600 
 17 N       -8.1590    -1.2890    -0.1210 N.ar  1 <1>  -0.6200 
 18 C       -7.8850     0.7190     1.0640 C.ar  1 <1>  -0.1440 
 19 C       -6.8430     1.4480     1.8730 C.3   1 <1>  -0.0170 
 20 C       -9.4030    -0.8720    -0.3910 C.ar  1 <1>   0.6200 
 21 C       -9.1690     1.0760     0.7450 C.ar  1 <1>   0.1600 
 22 N       -9.9330     0.2900     0.0210 N.ar  1 <1>  -0.6200 
 23 C      -10.2460    -1.7490    -1.1930 C.ar  1 <1>   0.0000 
 24 C       -9.7020    -2.6370    -2.1270 C.ar  1 <1>  -0.1500 
 25 C      -11.6390    -1.7450    -1.0680 C.ar  1 <1>  -0.1500 
 26 C      -10.4990    -3.4720    -2.8890 C.ar  1 <1>  -0.1500 
 27 C      -12.4420    -2.5760    -1.8270 C.ar  1 <1>  -0.1500 
 28 C      -11.8730    -3.4430    -2.7410 C.ar  1 <1>  -0.1500 
 29 H       -0.0600     0.4730    -0.1870 H     1 <1>   0.1500 
 30 H        1.5320    -4.4700     0.5390 H     1 <1>   0.0800 
 31 H        1.5110    -4.4120    -1.2130 H     1 <1>   0.0800 
 32 H        0.1700    -5.1250    -0.3450 H     1 <1>   0.0800 
 33 H       -5.5860    -2.0420    -0.6200 H     1 <1>   0.0800 
 34 H       -5.1280    -0.3950    -0.9110 H     1 <1>   0.0800 
 35 H       -2.6800    -2.7940     1.5890 H     1 <1>   0.0800 
 36 H       -4.0620    -3.5260     0.8170 H     1 <1>   0.0800 
 37 H       -4.0400    -1.4620     3.0270 H     1 <1>   0.0800 
 38 H       -4.5750    -3.1030     3.1560 H     1 <1>   0.0800 
 39 H       -6.4930    -2.6940     1.7510 H     1 <1>   0.0800 
 40 H       -6.4910    -1.4910     3.0010 H     1 <1>   0.0800 
 41 H       -5.0030     1.1750     0.8280 H     1 <1>   0.0800 
 42 H       -4.9370     0.5770     2.4590 H     1 <1>   0.0800 
 43 H       -6.7450     2.4750     1.5670 H     1 <1>   0.0800 
 44 H       -7.0960     1.3990     2.9180 H     1 <1>   0.0800 
 45 H       -9.5750     2.0140     1.0850 H     1 <1>   0.1500 
 46 H       -8.6350    -2.6730    -2.2570 H     1 <1>   0.1500 
 47 H      -12.1000    -1.0770    -0.3610 H     1 <1>   0.1500 
 48 H      -10.0490    -4.1440    -3.5990 H     1 <1>   0.1500 
 49 H      -13.5110    -2.5470    -1.7070 H     1 <1>   0.1500 
 50 H      -12.4960    -4.0910    -3.3330 H     1 <1>   0.1500 
@<TRIPOS>BOND
  1   1   2  1   
  2   1   3  1   
  3   2   4  2   
  4   2   5  1   
  5   3   6  2   
  6   3  29  1   
  7   4   6  1   
  8   5  30  1   
  9   5  31  1   
 10   5  32  1   
 11   6   7  1   
 12   7   8  2   
 13   7   9  am  
 14   9  10  1   
 15   9  11  1   
 16  10  12  1   
 17  10  33  1   
 18  10  34  1   
 19  11  13  1   
 20  11  35  1   
 21  11  36  1   
 22  12  14  1   
 23  12  15  1   
 24  12  16  1   
 25  13  15  1   
 26  13  37  1   
 27  13  38  1   
 28  14  17  ar  
 29  14  18  ar  
 30  15  39  1   
 31  15  40  1   
 32  16  19  1   
 33  16  41  1   
 34  16  42  1   
 35  17  20  ar  
 36  18  19  1   
 37  18  21  ar  
 38  19  43  1   
 39  19  44  1   
 40  20  22  ar  
 41  20  23  1   
 42  21  22  ar  
 43  21  45  1   
 44  23  24  ar  
 45  23  25  ar  
 46  24  26  ar  
 47  24  46  1   
 48  25  27  ar  
 49  25  47  1   
 50  26  28  ar  
 51  26  48  1   
 52  27  28  ar  
 53  27  49  1   
 54  28  50  1   
@<TRIPOS>SUBSTRUCTURE
  1 ****  10 GROUP 4 **** **** 0

# MOE 2024.06 (io_trps.svl 2023.06)
