@<TRIPOS>MOLECULE
NONAME
50 54 1 0 0 
SMALL
USER_CHARGES


@<TRIPOS>ATOM
  1 F       -2.0090     0.7310    -3.2580 F     1 <1>  -0.1900 
  2 C       -2.1220     1.9480    -2.7880 C.ar  1 <1>   0.1900 
  3 C       -3.0390     2.1880    -1.7610 C.ar  1 <1>   0.1000 
  4 C       -1.3300     2.9330    -3.3310 C.ar  1 <1>  -0.1500 
  5 N       -3.8400     1.1840    -1.2180 N.pl3 1 <1>  -0.6000 
  6 C       -3.1480     3.4950    -1.2630 C.ar  1 <1>   0.0860 
  7 C       -1.4450     4.2270    -2.8370 C.ar  1 <1>  -0.1500 
  8 C       -4.7610     1.3960    -0.2040 C.2   1 <1>   0.1140 
  9 C       -4.0880     3.7420    -0.2000 C.2   1 <1>   0.4690 
 10 C       -2.3410     4.4970    -1.8210 C.ar  1 <1>  -0.1500 
 11 C       -5.5630     0.2810     0.2790 C.2   1 <1>   0.6160 
 12 C       -4.8480     2.6600     0.2990 C.2   1 <1>  -0.1360 
 13 O       -4.2520     4.8600     0.2710 O.2   1 <1>  -0.5700 
 14 O       -5.0060    -0.7660     0.5530 O.2   1 <1>  -0.5700 
 15 N       -6.9340     0.3680     0.4280 N.am  1 <1>  -0.6600 
 16 C       -7.7760     1.3750    -0.3050 C.3   1 <1>   0.1400 
 17 C       -7.6760    -0.6620     1.2210 C.3   1 <1>   0.1400 
 18 C       -8.9810     1.8280     0.5420 C.3   1 <1>   0.1440 
 19 C       -9.1510    -0.7430     0.8090 C.3   1 <1>  -0.1600 
 20 C       -9.7060     2.9100    -0.2430 C.ar  1 <1>   0.1670 
 21 C       -9.8840     0.6130     0.8910 C.3   1 <1>  -0.1600 
 22 C       -8.5210     2.6080     1.8080 C.3   1 <1>  -0.1600 
 23 N      -10.4710     2.7120    -1.2940 N.ar  1 <1>  -0.6200 
 24 C       -9.4440     4.1530     0.2530 C.ar  1 <1>  -0.1430 
 25 C       -8.5150     4.1020     1.4390 C.3   1 <1>  -0.0170 
 26 C      -10.9830     3.8170    -1.8180 C.ar  1 <1>   0.4770 
 27 C      -10.0220     5.2300    -0.3710 C.ar  1 <1>   0.1600 
 28 N      -10.8050     5.0690    -1.4180 N.ar  1 <1>  -0.6200 
 29 C      -11.8790     3.6360    -3.0190 C.3   1 <1>  -0.0970 
 30 H       -0.6380     2.7030    -4.1210 H     1 <1>   0.1500 
 31 H       -3.6950     0.2140    -1.5380 H     1 <1>   0.4000 
 32 H       -0.8350     5.0140    -3.2490 H     1 <1>   0.1500 
 33 H       -2.4280     5.5000    -1.4390 H     1 <1>   0.1500 
 34 H       -5.5100     2.8860     1.1100 H     1 <1>   0.1500 
 35 H       -8.1420     0.9230    -1.2110 H     1 <1>   0.0800 
 36 H       -7.2000     2.2340    -0.5920 H     1 <1>   0.0800 
 37 H       -7.6070    -0.4080     2.2650 H     1 <1>   0.0800 
 38 H       -7.2200    -1.6280     1.0850 H     1 <1>   0.0800 
 39 H       -9.6570    -1.4630     1.4260 H     1 <1>   0.0800 
 40 H       -9.1940    -1.1090    -0.2030 H     1 <1>   0.0800 
 41 H      -10.7160     0.5710     0.2100 H     1 <1>   0.0800 
 42 H      -10.3050     0.7290     1.8730 H     1 <1>   0.0800 
 43 H       -7.5660     2.2840     2.1800 H     1 <1>   0.0800 
 44 H       -9.2410     2.4800     2.5970 H     1 <1>   0.0800 
 45 H       -7.5320     4.4240     1.1430 H     1 <1>   0.0800 
 46 H       -8.8700     4.7130     2.2510 H     1 <1>   0.0800 
 47 H       -9.8440     6.2300    -0.0150 H     1 <1>   0.1500 
 48 H      -11.8750     2.6120    -3.3430 H     1 <1>   0.0800 
 49 H      -11.5320     4.2590    -3.8220 H     1 <1>   0.0800 
 50 H      -12.8810     3.9190    -2.7600 H     1 <1>   0.0800 
@<TRIPOS>BOND
  1   1   2  1   
  2   2   3  ar  
  3   2   4  ar  
  4   3   5  1   
  5   3   6  ar  
  6   4   7  ar  
  7   4  30  1   
  8   5   8  1   
  9   5  31  1   
 10   6   9  1   
 11   6  10  ar  
 12   7  10  ar  
 13   7  32  1   
 14   8  11  1   
 15   8  12  2   
 16   9  12  1   
 17   9  13  2   
 18  10  33  1   
 19  11  14  2   
 20  11  15  am  
 21  12  34  1   
 22  15  16  1   
 23  15  17  1   
 24  16  18  1   
 25  16  35  1   
 26  16  36  1   
 27  17  19  1   
 28  17  37  1   
 29  17  38  1   
 30  18  20  1   
 31  18  21  1   
 32  18  22  1   
 33  19  21  1   
 34  19  39  1   
 35  19  40  1   
 36  20  23  ar  
 37  20  24  ar  
 38  21  41  1   
 39  21  42  1   
 40  22  25  1   
 41  22  43  1   
 42  22  44  1   
 43  23  26  ar  
 44  24  25  1   
 45  24  27  ar  
 46  25  45  1   
 47  25  46  1   
 48  26  28  ar  
 49  26  29  1   
 50  27  28  ar  
 51  27  47  1   
 52  29  48  1   
 53  29  49  1   
 54  29  50  1   
@<TRIPOS>SUBSTRUCTURE
  1 ****  16 GROUP 4 **** **** 0

# MOE 2024.06 (io_trps.svl 2023.06)
