@<TRIPOS>MOLECULE
NONAME
40 42 1 0 0 
SMALL
USER_CHARGES


@<TRIPOS>ATOM
  1 CL       0.6480     0.1380    -0.3160 Cl    1 <1>  -0.1770 
  2 C        0.5450     1.8780    -0.2860 C.ar  1 <1>   0.1770 
  3 C        1.6870     2.6460    -0.4240 C.ar  1 <1>   0.1600 
  4 C       -0.6750     2.4890    -0.1230 C.ar  1 <1>  -0.1500 
  5 N        1.7010     3.9700    -0.4100 N.ar  1 <1>  -0.6200 
  6 C       -0.6690     3.8680    -0.1110 C.ar  1 <1>  -0.1500 
  7 C        0.5170     4.6000    -0.2540 C.ar  1 <1>   0.3960 
  8 C        0.4320     6.0680    -0.2430 C.2   1 <1>   0.5440 
  9 O       -0.5460     6.5880    -0.7550 O.2   1 <1>  -0.5700 
 10 N        1.3710     6.9140     0.3410 N.am  1 <1>  -0.6600 
 11 C        2.4640     6.4170     1.2350 C.3   1 <1>   0.1400 
 12 C        1.2110     8.3990     0.2330 C.3   1 <1>   0.1400 
 13 C        3.7950     6.2760     0.4790 C.3   1 <1>   0.1400 
 14 C        2.5290     9.1820     0.1470 C.3   1 <1>  -0.1600 
 15 N        4.4230     7.6040     0.1900 N.am  1 <1>  -0.6600 
 16 C        3.6090     8.4930    -0.6910 C.3   1 <1>   0.1400 
 17 C        5.6570     7.9250     0.7010 C.2   1 <1>   0.5690 
 18 O        6.3040     7.1410     1.3540 O.2   1 <1>  -0.5700 
 19 C        6.2850     9.2820     0.4820 C.3   1 <1>   0.1570 
 20 N        6.9140     9.3150    -0.8400 N.pl3 1 <1>   0.3140 
 21 N        6.7060    10.2800    -1.7080 N.2   1 <1>  -0.4180 
 22 C        7.7450     8.4540    -1.3950 C.2   1 <1>   0.0360 
 23 N        7.4000     9.9870    -2.7480 N.2   1 <1>   0.0000 
 24 N        8.0580     8.8460    -2.5700 N.2   1 <1>  -0.3380 
 25 H        2.6270     2.1380    -0.5530 H     1 <1>   0.1500 
 26 H       -1.5780     1.9140    -0.0150 H     1 <1>   0.1500 
 27 H       -1.5960     4.4020     0.0060 H     1 <1>   0.1500 
 28 H        2.1910     5.4580     1.6370 H     1 <1>   0.0800 
 29 H        2.5910     7.0820     2.0710 H     1 <1>   0.0800 
 30 H        0.6360     8.7500     1.0730 H     1 <1>   0.0800 
 31 H        0.6450     8.6240    -0.6550 H     1 <1>   0.0800 
 32 H        3.6360     5.7480    -0.4450 H     1 <1>   0.0800 
 33 H        4.4580     5.6770     1.0780 H     1 <1>   0.0800 
 34 H        2.8980     9.3900     1.1350 H     1 <1>   0.0800 
 35 H        2.3030    10.1310    -0.3050 H     1 <1>   0.0800 
 36 H        4.2310     9.2360    -1.1570 H     1 <1>   0.0800 
 37 H        3.1610     7.9150    -1.4830 H     1 <1>   0.0800 
 38 H        7.0370     9.4570     1.2260 H     1 <1>   0.0800 
 39 H        5.5430    10.0540     0.5480 H     1 <1>   0.0800 
 40 H        8.0930     7.5570    -0.9140 H     1 <1>   0.1500 
@<TRIPOS>BOND
  1   1   2  1   
  2   2   3  ar  
  3   2   4  ar  
  4   3   5  ar  
  5   3  25  1   
  6   4   6  ar  
  7   4  26  1   
  8   5   7  ar  
  9   6   7  ar  
 10   6  27  1   
 11   7   8  1   
 12   8   9  2   
 13   8  10  am  
 14  10  11  1   
 15  10  12  1   
 16  11  13  1   
 17  11  28  1   
 18  11  29  1   
 19  12  14  1   
 20  12  30  1   
 21  12  31  1   
 22  13  15  1   
 23  13  32  1   
 24  13  33  1   
 25  14  16  1   
 26  14  34  1   
 27  14  35  1   
 28  15  16  1   
 29  15  17  am  
 30  16  36  1   
 31  16  37  1   
 32  17  18  2   
 33  17  19  1   
 34  19  20  1   
 35  19  38  1   
 36  19  39  1   
 37  20  21  1   
 38  20  22  1   
 39  21  23  2   
 40  22  24  2   
 41  22  40  1   
 42  23  24  1   
@<TRIPOS>SUBSTRUCTURE
  1 ****  13 GROUP 4 **** **** 0

# MOE 2024.06 (io_trps.svl 2023.06)
