@<TRIPOS>MOLECULE
NONAME
54 57 1 0 0 
SMALL
USER_CHARGES


@<TRIPOS>ATOM
  1 O       -0.5910     0.1330    -0.0610 O.2   1 <1>  -0.5700 
  2 C       -1.4880     0.8420     0.3560 C.2   1 <1>   0.5440 
  3 N       -2.6760     0.2470     0.7230 N.am  1 <1>  -0.6600 
  4 C       -1.3000     2.2770     0.4330 C.ar  1 <1>   0.0860 
  5 C       -2.7870    -1.2350     0.9090 C.3   1 <1>   0.1400 
  6 C       -4.0050     0.8890     0.4860 C.3   1 <1>   0.1400 
  7 C       -0.6660     2.9780    -0.5930 C.ar  1 <1>  -0.1500 
  8 C       -1.7400     3.0180     1.5310 C.ar  1 <1>  -0.1500 
  9 C       -3.6160    -1.8670    -0.2220 C.3   1 <1>   0.3440 
 10 C       -4.7860     0.1440    -0.6230 C.3   1 <1>   0.2950 
 11 C       -0.4980     4.3480    -0.5360 C.ar  1 <1>  -0.1500 
 12 C       -1.5710     4.3880     1.5910 C.ar  1 <1>  -0.1500 
 13 O       -4.8600    -1.2210    -0.3240 O.3   1 <1>  -0.5600 
 14 C       -3.8290    -3.3560     0.0380 C.ar  1 <1>  -0.1440 
 15 C       -6.2300     0.6320    -0.8320 C.3   1 <1>  -0.1950 
 16 C       -0.9530     5.0800     0.5560 C.ar  1 <1>   0.1170 
 17 C       -4.9270    -3.8210     0.7490 C.ar  1 <1>  -0.1500 
 18 C       -2.8980    -4.2700    -0.4350 C.ar  1 <1>  -0.1500 
 19 C       -6.6700     2.0490    -0.6120 C.3   1 <1>  -0.2000 
 20 C       -7.1730     0.9530     0.2870 C.3   1 <1>  -0.2000 
 21 N       -0.7970     6.4660     0.6640 N.am  1 <1>  -0.5470 
 22 C       -5.0900    -5.1760     0.9850 C.ar  1 <1>  -0.1500 
 23 C       -3.0590    -5.6250    -0.2010 C.ar  1 <1>  -0.1500 
 24 C       -0.6210     7.4240    -0.2960 C.2   1 <1>   0.5690 
 25 C       -4.1560    -6.0790     0.5100 C.ar  1 <1>  -0.1500 
 26 O       -0.6230     7.1990    -1.4800 O.2   1 <1>  -0.5700 
 27 C       -0.4330     8.8580     0.1710 C.3   1 <1>  -0.0990 
 28 C        0.8850     9.0710     0.9330 C.3   1 <1>  -0.2400 
 29 H       -1.8120    -1.6890     0.9310 H     1 <1>   0.0800 
 30 H       -3.2620    -1.4410     1.8510 H     1 <1>   0.0800 
 31 H       -4.5680     0.8720     1.4000 H     1 <1>   0.0800 
 32 H       -3.8780     1.9140     0.1890 H     1 <1>   0.0800 
 33 H       -0.3000     2.4300    -1.4450 H     1 <1>   0.1500 
 34 H       -2.2160     2.5020     2.3460 H     1 <1>   0.1500 
 35 H       -3.1000    -1.7420    -1.1580 H     1 <1>   0.0800 
 36 H       -4.2540     0.2510    -1.5530 H     1 <1>   0.0800 
 37 H       -0.0010     4.8480    -1.3480 H     1 <1>   0.1500 
 38 H       -1.9260     4.9270     2.4510 H     1 <1>   0.1500 
 39 H       -6.6620     0.1370    -1.6840 H     1 <1>   0.1000 
 40 H       -5.6610    -3.1270     1.1200 H     1 <1>   0.1500 
 41 H       -2.0380    -3.9310    -0.9880 H     1 <1>   0.1500 
 42 H       -6.0010     2.7790    -0.1900 H     1 <1>   0.1000 
 43 H       -7.3550     2.4880    -1.3170 H     1 <1>   0.1000 
 44 H       -8.1950     0.6300     0.1940 H     1 <1>   0.1000 
 45 H       -6.8260     0.9070     1.3040 H     1 <1>   0.1000 
 46 H       -0.8340     6.8280     1.6140 H     1 <1>   0.3700 
 47 H       -5.9460    -5.5250     1.5360 H     1 <1>   0.1500 
 48 H       -2.3320    -6.3260    -0.5710 H     1 <1>   0.1500 
 49 H       -4.2830    -7.1310     0.6920 H     1 <1>   0.1500 
 50 H       -0.4460     9.5000    -0.6930 H     1 <1>   0.0800 
 51 H       -1.2650     9.1340     0.7920 H     1 <1>   0.0800 
 52 H        1.7190     8.8040     0.3070 H     1 <1>   0.0800 
 53 H        0.9170     8.4700     1.8240 H     1 <1>   0.0800 
 54 H        0.9860    10.1050     1.2120 H     1 <1>   0.0800 
@<TRIPOS>BOND
  1   1   2  2   
  2   2   3  am  
  3   2   4  1   
  4   3   5  1   
  5   3   6  1   
  6   4   7  ar  
  7   4   8  ar  
  8   5   9  1   
  9   5  29  1   
 10   5  30  1   
 11   6  10  1   
 12   6  31  1   
 13   6  32  1   
 14   7  11  ar  
 15   7  33  1   
 16   8  12  ar  
 17   8  34  1   
 18   9  13  1   
 19   9  14  1   
 20   9  35  1   
 21  10  13  1   
 22  10  15  1   
 23  10  36  1   
 24  11  16  ar  
 25  11  37  1   
 26  12  16  ar  
 27  12  38  1   
 28  14  17  ar  
 29  14  18  ar  
 30  15  19  1   
 31  15  20  1   
 32  15  39  1   
 33  16  21  1   
 34  17  22  ar  
 35  17  40  1   
 36  18  23  ar  
 37  18  41  1   
 38  19  20  1   
 39  19  42  1   
 40  19  43  1   
 41  20  44  1   
 42  20  45  1   
 43  21  24  am  
 44  21  46  1   
 45  22  25  ar  
 46  22  47  1   
 47  23  25  ar  
 48  23  48  1   
 49  24  26  2   
 50  24  27  1   
 51  25  49  1   
 52  27  28  1   
 53  27  50  1   
 54  27  51  1   
 55  28  52  1   
 56  28  53  1   
 57  28  54  1   
@<TRIPOS>SUBSTRUCTURE
  1 ****   3 GROUP 4 **** **** 0

# MOE 2024.06 (io_trps.svl 2023.06)
