@<TRIPOS>MOLECULE
NONAME
52 54 1 0 0 
SMALL
USER_CHARGES


@<TRIPOS>ATOM
  1 O       -0.1270     0.1570     0.0520 O.2   1 <1>  -0.5700 
  2 C        0.0930     1.2710    -0.3640 C.2   1 <1>   0.5690 
  3 N       -0.7500     2.3170    -0.0620 N.am  1 <1>  -0.6600 
  4 C        1.3110     1.4580    -1.2670 C.3   1 <1>   0.0440 
  5 C       -1.8010     2.1550     0.9860 C.3   1 <1>   0.1400 
  6 C       -0.8180     3.6070    -0.8170 C.3   1 <1>   0.1400 
  7 C        2.6450     1.1330    -0.5750 C.ar  1 <1>  -0.1440 
  8 C       -3.2120     2.1580     0.3560 C.3   1 <1>   0.0000 
  9 C       -2.2120     4.2540    -0.7330 C.3   1 <1>  -0.1600 
 10 C        3.2490    -0.1150    -0.7410 C.ar  1 <1>  -0.1440 
 11 C        3.2720     2.0890     0.2260 C.ar  1 <1>  -0.1440 
 12 C       -4.2670     2.3780     1.4570 C.3   1 <1>   0.2000 
 13 C       -3.3160     3.1880    -0.8150 C.3   1 <1>  -0.1600 
 14 C       -3.6170     0.7650    -0.1540 C.3   1 <1>  -0.1600 
 15 C        4.4670    -0.3790    -0.1340 C.ar  1 <1>  -0.1500 
 16 C        2.6170    -1.2310    -1.5650 C.3   1 <1>  -0.0970 
 17 C        4.4890     1.8000     0.8230 C.ar  1 <1>  -0.1500 
 18 C        2.6650     3.4600     0.4920 C.3   1 <1>  -0.0970 
 19 O       -4.4430     3.7150     1.7670 O.3   1 <1>  -0.6800 
 20 C       -5.5680     1.7660     0.9350 C.3   1 <1>  -0.1600 
 21 C       -5.1490     0.7660    -0.1520 C.3   1 <1>  -0.1600 
 22 C        5.0960     0.5720     0.6450 C.ar  1 <1>  -0.1440 
 23 C        6.4280     0.2680     1.3050 C.3   1 <1>  -0.0970 
 24 H        1.1680     0.8360    -2.1270 H     1 <1>   0.0800 
 25 H        1.3620     2.4560    -1.6460 H     1 <1>   0.0800 
 26 H       -1.6440     1.2530     1.5530 H     1 <1>   0.0800 
 27 H       -1.7160     2.9770     1.6760 H     1 <1>   0.0800 
 28 H       -0.0790     4.2900    -0.4340 H     1 <1>   0.0800 
 29 H       -0.6030     3.4150    -1.8530 H     1 <1>   0.0800 
 30 H       -2.2980     4.8010     0.1900 H     1 <1>   0.0800 
 31 H       -2.3220     4.9610    -1.5360 H     1 <1>   0.0800 
 32 H       -3.9700     1.8670     2.3580 H     1 <1>   0.0800 
 33 H       -3.1900     2.6790    -1.7550 H     1 <1>   0.0800 
 34 H       -4.2840     3.6520    -0.8470 H     1 <1>   0.0800 
 35 H       -3.2040     0.5330    -1.1210 H     1 <1>   0.0800 
 36 H       -3.2710     0.0140     0.5370 H     1 <1>   0.0800 
 37 H        4.9320    -1.3390    -0.2640 H     1 <1>   0.1500 
 38 H        3.1570    -2.1520    -1.4470 H     1 <1>   0.0800 
 39 H        2.6210    -0.9690    -2.6070 H     1 <1>   0.0800 
 40 H        1.6060    -1.4020    -1.2440 H     1 <1>   0.0800 
 41 H        4.9740     2.5360     1.4390 H     1 <1>   0.1500 
 42 H        3.2850     4.0350     1.1560 H     1 <1>   0.0800 
 43 H        1.7030     3.3490     0.9560 H     1 <1>   0.0800 
 44 H        2.5640     4.0090    -0.4250 H     1 <1>   0.0800 
 45 H       -4.6910     4.2030     0.9600 H     1 <1>   0.4000 
 46 H       -6.0820     1.2640     1.7360 H     1 <1>   0.0800 
 47 H       -6.2130     2.5160     0.5120 H     1 <1>   0.0800 
 48 H       -5.5370    -0.2200     0.0420 H     1 <1>   0.0800 
 49 H       -5.5130     1.1000    -1.1090 H     1 <1>   0.0800 
 50 H        6.9920    -0.4260     0.7080 H     1 <1>   0.0800 
 51 H        6.2610    -0.1630     2.2750 H     1 <1>   0.0800 
 52 H        7.0060     1.1670     1.4170 H     1 <1>   0.0800 
@<TRIPOS>BOND
  1   1   2  2   
  2   2   3  am  
  3   2   4  1   
  4   3   5  1   
  5   3   6  1   
  6   4   7  1   
  7   4  24  1   
  8   4  25  1   
  9   5   8  1   
 10   5  26  1   
 11   5  27  1   
 12   6   9  1   
 13   6  28  1   
 14   6  29  1   
 15   7  10  ar  
 16   7  11  ar  
 17   8  12  1   
 18   8  13  1   
 19   8  14  1   
 20   9  13  1   
 21   9  30  1   
 22   9  31  1   
 23  10  15  ar  
 24  10  16  1   
 25  11  17  ar  
 26  11  18  1   
 27  12  19  1   
 28  12  20  1   
 29  12  32  1   
 30  13  33  1   
 31  13  34  1   
 32  14  21  1   
 33  14  35  1   
 34  14  36  1   
 35  15  22  ar  
 36  15  37  1   
 37  16  38  1   
 38  16  39  1   
 39  16  40  1   
 40  17  22  ar  
 41  17  41  1   
 42  18  42  1   
 43  18  43  1   
 44  18  44  1   
 45  19  45  1   
 46  20  21  1   
 47  20  46  1   
 48  20  47  1   
 49  21  48  1   
 50  21  49  1   
 51  22  23  1   
 52  23  50  1   
 53  23  51  1   
 54  23  52  1   
@<TRIPOS>SUBSTRUCTURE
  1 ****   2 GROUP 4 **** **** 0

# MOE 2024.06 (io_trps.svl 2023.06)
