@<TRIPOS>MOLECULE
NONAME
53 56 1 0 0 
SMALL
USER_CHARGES


@<TRIPOS>ATOM
  1 O       -0.2670    -0.2230     0.3560 O.3   1 <1>  -0.5600 
  2 C        0.0220    -1.5910     0.4830 C.3   1 <1>   0.1200 
  3 C        0.6370     0.5010    -0.4330 C.3   1 <1>   0.1200 
  4 C        1.4220    -1.8020     1.1090 C.3   1 <1>   0.5660 
  5 C        2.0710     0.3870     0.1320 C.3   1 <1>   0.4230 
  6 N        2.4670    -1.0550     0.3470 N.4   1 <1>  -0.9590 
  7 C        1.8490    -3.2610     1.2510 C.ar  1 <1>  -0.1430 
  8 C        3.0990     1.1300    -0.7600 C.3   1 <1>   0.1100 
  9 C        2.9280    -1.7100    -0.9250 C.3   1 <1>   0.3430 
 10 C        1.3730    -4.2810     0.4300 C.ar  1 <1>  -0.1500 
 11 C        2.7700    -3.5770     2.2420 C.ar  1 <1>  -0.1500 
 12 N        4.3540     0.3540    -0.8810 N.3   1 <1>  -0.8100 
 13 C        4.1290    -0.9490    -1.5410 C.3   1 <1>   0.1100 
 14 C        1.8140    -5.5810     0.5990 C.ar  1 <1>  -0.1500 
 15 C        3.2110    -4.8780     2.4090 C.ar  1 <1>  -0.1500 
 16 C        5.4970     1.1180    -1.4440 C.3   1 <1>   0.2530 
 17 C        2.7330    -5.8810     1.5870 C.ar  1 <1>  -0.1500 
 18 C        5.7870     2.4130    -0.6780 C.ar  1 <1>   0.1670 
 19 N        6.0310     2.3130     0.6230 N.ar  1 <1>  -0.6200 
 20 C        5.7770     3.6190    -1.3660 C.ar  1 <1>  -0.1500 
 21 C        6.2790     3.4510     1.2530 C.ar  1 <1>   0.1600 
 22 C        6.0290     4.7940    -0.6930 C.ar  1 <1>  -0.1500 
 23 C        6.2870     4.7040     0.6590 C.ar  1 <1>  -0.1430 
 24 C        6.5820     5.9510     1.4760 C.3   1 <1>  -0.0170 
 25 C        8.0820     6.2520     1.4750 C.3   1 <1>  -0.2400 
 26 H       -0.7300    -2.0270     1.1170 H     1 <1>   0.0800 
 27 H       -0.0480    -2.0390    -0.4910 H     1 <1>   0.0800 
 28 H        0.5850     0.1320    -1.4430 H     1 <1>   0.0800 
 29 H        0.3190     1.5290    -0.4290 H     1 <1>   0.0800 
 30 H        1.3710    -1.3910     2.1030 H     1 <1>   0.0800 
 31 H        2.0700     0.8840     1.0880 H     1 <1>   0.0800 
 32 H        3.3240    -0.9980     0.9140 H     1 <1>   0.4500 
 33 H        3.2920     2.0880    -0.3090 H     1 <1>   0.0800 
 34 H        2.6920     1.3100    -1.7410 H     1 <1>   0.0800 
 35 H        3.2260    -2.7280    -0.7360 H     1 <1>   0.0800 
 36 H        2.1200    -1.7320    -1.6370 H     1 <1>   0.0800 
 37 H        0.6570    -4.0980    -0.3500 H     1 <1>   0.1500 
 38 H        3.1580    -2.8170     2.9010 H     1 <1>   0.1500 
 39 H        3.9600    -0.8090    -2.5950 H     1 <1>   0.0800 
 40 H        5.0140    -1.5530    -1.4300 H     1 <1>   0.0800 
 41 H        1.4410    -6.3680    -0.0360 H     1 <1>   0.1500 
 42 H        3.9240    -5.1140     3.1810 H     1 <1>   0.1500 
 43 H        6.3820     0.5070    -1.3950 H     1 <1>   0.0800 
 44 H        5.3050     1.3430    -2.4780 H     1 <1>   0.0800 
 45 H        3.0740    -6.8940     1.7180 H     1 <1>   0.1500 
 46 H        5.5760     3.6460    -2.4210 H     1 <1>   0.1500 
 47 H        6.4890     3.3800     2.3060 H     1 <1>   0.1500 
 48 H        6.0290     5.7420    -1.2040 H     1 <1>   0.1500 
 49 H        6.0460     6.7900     1.0650 H     1 <1>   0.0800 
 50 H        6.2430     5.8140     2.4880 H     1 <1>   0.0800 
 51 H        8.4290     6.4130     0.4690 H     1 <1>   0.0800 
 52 H        8.6280     5.4280     1.8990 H     1 <1>   0.0800 
 53 H        8.2840     7.1350     2.0540 H     1 <1>   0.0800 
@<TRIPOS>BOND
  1   1   2  1   
  2   1   3  1   
  3   2   4  1   
  4   2  26  1   
  5   2  27  1   
  6   3   5  1   
  7   3  28  1   
  8   3  29  1   
  9   4   6  1   
 10   4   7  1   
 11   4  30  1   
 12   5   6  1   
 13   5   8  1   
 14   5  31  1   
 15   6   9  1   
 16   6  32  1   
 17   7  10  ar  
 18   7  11  ar  
 19   8  12  1   
 20   8  33  1   
 21   8  34  1   
 22   9  13  1   
 23   9  35  1   
 24   9  36  1   
 25  10  14  ar  
 26  10  37  1   
 27  11  15  ar  
 28  11  38  1   
 29  12  13  1   
 30  12  16  1   
 31  13  39  1   
 32  13  40  1   
 33  14  17  ar  
 34  14  41  1   
 35  15  17  ar  
 36  15  42  1   
 37  16  18  1   
 38  16  43  1   
 39  16  44  1   
 40  17  45  1   
 41  18  19  ar  
 42  18  20  ar  
 43  19  21  ar  
 44  20  22  ar  
 45  20  46  1   
 46  21  23  ar  
 47  21  47  1   
 48  22  23  ar  
 49  22  48  1   
 50  23  24  1   
 51  24  25  1   
 52  24  49  1   
 53  24  50  1   
 54  25  51  1   
 55  25  52  1   
 56  25  53  1   
@<TRIPOS>SUBSTRUCTURE
  1 ****  12 GROUP 4 **** **** 0

# MOE 2024.06 (io_trps.svl 2023.06)
