@<TRIPOS>MOLECULE
NONAME
57 60 1 0 0 
SMALL
USER_CHARGES


@<TRIPOS>ATOM
  1 O       -1.2930     0.3280     1.3900 O.2   1 <1>  -0.5700 
  2 C       -2.0350     0.7130     0.5160 C.2   1 <1>   0.5690 
  3 N       -3.0550    -0.0680     0.0470 N.am  1 <1>  -0.6600 
  4 C       -1.7720     2.1190    -0.0570 C.3   1 <1>   0.4040 
  5 C       -4.1050     0.3090    -0.9380 C.3   1 <1>   0.1400 
  6 C       -3.3650    -1.4000     0.6370 C.3   1 <1>   0.1400 
  7 N       -0.3790     2.6330     0.2310 N.4   1 <1>  -0.9590 
  8 C       -5.2650    -0.6470    -0.6550 C.3   1 <1>   0.2000 
  9 C       -4.6000    -1.9160    -0.1180 C.3   1 <1>  -0.0800 
 10 C       -0.2540     4.1050     0.0400 C.3   1 <1>   0.3430 
 11 C        0.6580     1.8620    -0.5150 C.3   1 <1>   0.3430 
 12 O       -6.0460    -0.1030     0.3510 O.3   1 <1>  -0.6800 
 13 C       -4.2200    -2.8690    -1.2700 C.3   1 <1>  -0.0170 
 14 C        1.1260     4.5680     0.5080 C.3   1 <1>  -0.1600 
 15 C        2.0500     2.2960    -0.0560 C.3   1 <1>  -0.1600 
 16 C       -3.5800    -4.1570    -0.7580 C.ar  1 <1>  -0.1440 
 17 C        2.2530     3.8100    -0.2090 C.3   1 <1>  -0.0800 
 18 C       -4.3340    -5.1900    -0.1510 C.ar  1 <1>   0.0000 
 19 C       -2.2340    -4.3450    -0.8740 C.ar  1 <1>  -0.1500 
 20 C        3.6200     4.2280     0.3440 C.3   1 <1>  -0.2400 
 21 C       -3.6310    -6.3280     0.3170 C.ar  1 <1>   0.3100 
 22 C       -5.7390    -5.1680     0.0150 C.ar  1 <1>  -0.1500 
 23 C       -1.6390    -5.5140    -0.3860 C.ar  1 <1>   0.1600 
 24 N       -2.2880    -6.4720     0.1930 N.ar  1 <1>  -0.6200 
 25 C       -4.3480    -7.3630     0.9380 C.ar  1 <1>  -0.1500 
 26 C       -6.4080    -6.1960     0.6220 C.ar  1 <1>  -0.1500 
 27 C       -5.7060    -7.3080     1.0920 C.ar  1 <1>  -0.1500 
 28 H       -2.4940     2.7840     0.3850 H     1 <1>   0.0800 
 29 H       -1.9400     2.0980    -1.1190 H     1 <1>   0.0800 
 30 H       -4.4170     1.3340    -0.8380 H     1 <1>   0.0800 
 31 H       -3.7340     0.1360    -1.9330 H     1 <1>   0.0800 
 32 H       -2.5190    -2.0600     0.5520 H     1 <1>   0.0800 
 33 H       -3.5950    -1.2770     1.6820 H     1 <1>   0.0800 
 34 H       -0.2110     2.4140     1.2270 H     1 <1>   0.4500 
 35 H       -5.8950    -0.8110    -1.5140 H     1 <1>   0.0800 
 36 H       -5.2580    -2.4360     0.5560 H     1 <1>   0.0800 
 37 H       -0.3790     4.3510    -1.0020 H     1 <1>   0.0800 
 38 H       -1.0130     4.6190     0.6070 H     1 <1>   0.0800 
 39 H        0.5380     0.8060    -0.3300 H     1 <1>   0.0800 
 40 H        0.5580     2.0390    -1.5740 H     1 <1>   0.0800 
 41 H       -5.5300    -0.0330     1.1780 H     1 <1>   0.4000 
 42 H       -3.5360    -2.3750    -1.9380 H     1 <1>   0.0800 
 43 H       -5.0930    -3.1170    -1.8480 H     1 <1>   0.0800 
 44 H        1.2240     5.6220     0.3120 H     1 <1>   0.0800 
 45 H        1.2030     4.4300     1.5730 H     1 <1>   0.0800 
 46 H        2.1880     2.0020     0.9710 H     1 <1>   0.0800 
 47 H        2.7870     1.7740    -0.6410 H     1 <1>   0.0800 
 48 H        2.2260     4.0590    -1.2580 H     1 <1>   0.0800 
 49 H       -1.5960    -3.6120    -1.3330 H     1 <1>   0.1500 
 50 H        3.6990     4.0000     1.3930 H     1 <1>   0.0800 
 51 H        3.7710     5.2860     0.2130 H     1 <1>   0.0800 
 52 H        4.4090     3.7130    -0.1770 H     1 <1>   0.0800 
 53 H       -6.3020    -4.3280    -0.3440 H     1 <1>   0.1500 
 54 H       -0.5730    -5.6210    -0.4960 H     1 <1>   0.1500 
 55 H       -3.7870    -8.2090     1.2890 H     1 <1>   0.1500 
 56 H       -7.4780    -6.1640     0.7430 H     1 <1>   0.1500 
 57 H       -6.2430    -8.1090     1.5700 H     1 <1>   0.1500 
@<TRIPOS>BOND
  1   1   2  2   
  2   2   3  am  
  3   2   4  1   
  4   3   5  1   
  5   3   6  1   
  6   4   7  1   
  7   4  28  1   
  8   4  29  1   
  9   5   8  1   
 10   5  30  1   
 11   5  31  1   
 12   6   9  1   
 13   6  32  1   
 14   6  33  1   
 15   7  10  1   
 16   7  11  1   
 17   7  34  1   
 18   8   9  1   
 19   8  12  1   
 20   8  35  1   
 21   9  13  1   
 22   9  36  1   
 23  10  14  1   
 24  10  37  1   
 25  10  38  1   
 26  11  15  1   
 27  11  39  1   
 28  11  40  1   
 29  12  41  1   
 30  13  16  1   
 31  13  42  1   
 32  13  43  1   
 33  14  17  1   
 34  14  44  1   
 35  14  45  1   
 36  15  17  1   
 37  15  46  1   
 38  15  47  1   
 39  16  18  ar  
 40  16  19  ar  
 41  17  20  1   
 42  17  48  1   
 43  18  21  ar  
 44  18  22  ar  
 45  19  23  ar  
 46  19  49  1   
 47  20  50  1   
 48  20  51  1   
 49  20  52  1   
 50  21  24  ar  
 51  21  25  ar  
 52  22  26  ar  
 53  22  53  1   
 54  23  24  ar  
 55  23  54  1   
 56  25  27  ar  
 57  25  55  1   
 58  26  27  ar  
 59  26  56  1   
 60  27  57  1   
@<TRIPOS>SUBSTRUCTURE
  1 ****   6 GROUP 4 **** **** 0

# MOE 2024.06 (io_trps.svl 2023.06)
