@<TRIPOS>MOLECULE
NONAME
28 29 1 0 0 
SMALL
USER_CHARGES


@<TRIPOS>ATOM
  1 N       -7.6410    -0.7110    -0.3430 N.4   1 <1>  -0.9590 
  2 C       -6.3520    -0.4510     0.3820 C.3   1 <1>   0.4230 
  3 C       -8.5660     0.3720     0.0870 C.3   1 <1>   0.3430 
  4 C       -8.2440    -2.0620    -0.0940 C.3   1 <1>   0.2630 
  5 C       -6.2720     1.0820     0.5010 C.3   1 <1>  -0.0800 
  6 C       -5.0810    -1.0580    -0.2950 C.3   1 <1>   0.3430 
  7 C       -7.6760     1.6030     0.1620 C.3   1 <1>  -0.1600 
  8 C       -5.1900     1.7020    -0.4080 C.3   1 <1>  -0.1600 
  9 N       -3.7990    -0.3470     0.0770 N.4   1 <1>  -0.9060 
 10 C       -3.7860     1.1390    -0.1380 C.3   1 <1>   0.3430 
 11 H       -7.5130    -0.5790    -1.3590 H     1 <1>   0.4500 
 12 H       -6.4390    -0.8540     1.3780 H     1 <1>   0.0800 
 13 H       -8.9640     0.1530     1.0660 H     1 <1>   0.0800 
 14 H       -9.3810     0.5090    -0.6070 H     1 <1>   0.0800 
 15 H       -8.4300    -2.2060     0.9590 H     1 <1>   0.0800 
 16 H       -7.5870    -2.8440    -0.4390 H     1 <1>   0.0800 
 17 H       -9.1820    -2.1540    -0.6180 H     1 <1>   0.0800 
 18 H       -6.0410     1.3260     1.5260 H     1 <1>   0.0800 
 19 H       -5.2050    -0.9870    -1.3630 H     1 <1>   0.0800 
 20 H       -5.0050    -2.1020    -0.0370 H     1 <1>   0.0800 
 21 H       -8.0420     2.2910     0.9060 H     1 <1>   0.0800 
 22 H       -7.6960     2.1040    -0.7910 H     1 <1>   0.0800 
 23 H       -5.1620     2.7690    -0.2600 H     1 <1>   0.0800 
 24 H       -5.4330     1.5410    -1.4450 H     1 <1>   0.0800 
 25 H       -3.0140    -0.7530    -0.4590 H     1 <1>   0.4500 
 26 H       -3.5580    -0.5330     1.0620 H     1 <1>   0.4500 
 27 H       -3.3750     1.6200     0.7370 H     1 <1>   0.0800 
 28 H       -3.1440     1.3860    -0.9710 H     1 <1>   0.0800 
@<TRIPOS>BOND
  1   1   2  1   
  2   1   3  1   
  3   1   4  1   
  4   1  11  1   
  5   2   5  1   
  6   2   6  1   
  7   2  12  1   
  8   3   7  1   
  9   3  13  1   
 10   3  14  1   
 11   4  15  1   
 12   4  16  1   
 13   4  17  1   
 14   5   7  1   
 15   5   8  1   
 16   5  18  1   
 17   6   9  1   
 18   6  19  1   
 19   6  20  1   
 20   7  21  1   
 21   7  22  1   
 22   8  10  1   
 23   8  23  1   
 24   8  24  1   
 25   9  10  1   
 26   9  25  1   
 27   9  26  1   
 28  10  27  1   
 29  10  28  1   
@<TRIPOS>SUBSTRUCTURE
  1 ****   2 GROUP 4 **** **** 0

# MOE 2024.06 (io_trps.svl 2023.06)
