@<TRIPOS>MOLECULE
NONAME
36 36 1 0 0 
SMALL
USER_CHARGES


@<TRIPOS>ATOM
  1 S        0.9550     0.3980    -0.9010 S.3   1 <1>  -0.4600 
  2 C        1.8020     1.0250     0.5960 C.3   1 <1>   0.2110 
  3 C        0.5240    -1.3100    -0.4710 C.3   1 <1>  -0.0100 
  4 C        1.6300     2.5480     0.7740 C.2   1 <1>   0.5690 
  5 C        3.2560     0.5320     0.5720 C.3   1 <1>  -0.2400 
  6 O        1.0640     2.8950     1.7860 O.2   1 <1>  -0.5700 
  7 N        2.1030     3.4930    -0.1120 N.am  1 <1>  -0.6600 
  8 C        1.9890     4.9520     0.2190 C.3   1 <1>   0.3200 
  9 C        2.7810     3.2290    -1.4160 C.3   1 <1>   0.0600 
 10 C        3.3550     5.5990     0.4010 C.2   1 <1>   0.2980 
 11 O        4.0970     5.2210     1.4120 O.3   1 <1>  -0.0190 
 12 N        3.8680     6.4910    -0.3520 N.2   1 <1>  -0.5650 
 13 N        5.1760     5.9320     1.2900 N.2   1 <1>  -0.4100 
 14 C        5.0300     6.6680     0.2600 C.2   1 <1>   0.3350 
 15 C        6.0340     7.6740    -0.2830 C.3   1 <1>   0.0210 
 16 C        7.3470     7.7350     0.5160 C.3   1 <1>  -0.1600 
 17 C        8.3230     8.7590    -0.0750 C.3   1 <1>  -0.2400 
 18 H        1.2960     0.5550     1.4200 H     1 <1>   0.0800 
 19 H       -0.0100    -1.7310    -1.3040 H     1 <1>   0.0800 
 20 H       -0.0960    -1.2870     0.4070 H     1 <1>   0.0800 
 21 H        1.4350    -1.8520    -0.2890 H     1 <1>   0.0800 
 22 H        3.7740     0.8880    -0.2970 H     1 <1>   0.0800 
 23 H        3.2850    -0.5420     0.5760 H     1 <1>   0.0800 
 24 H        3.7700     0.8890     1.4470 H     1 <1>   0.0800 
 25 H        1.4190     5.1060     1.1170 H     1 <1>   0.0800 
 26 H        1.4710     5.4500    -0.5800 H     1 <1>   0.0800 
 27 H        2.6550     2.2130    -1.7350 H     1 <1>   0.0800 
 28 H        3.8350     3.4330    -1.3250 H     1 <1>   0.0800 
 29 H        2.3690     3.8680    -2.1770 H     1 <1>   0.0800 
 30 H        5.5690     8.6430    -0.2810 H     1 <1>   0.0800 
 31 H        6.2490     7.4120    -1.3030 H     1 <1>   0.0800 
 32 H        7.8090     6.7620     0.5170 H     1 <1>   0.0800 
 33 H        7.1300     7.9970     1.5380 H     1 <1>   0.0800 
 34 H        8.5730     8.5010    -1.0890 H     1 <1>   0.0800 
 35 H        9.2290     8.7780     0.5050 H     1 <1>   0.0800 
 36 H        7.8890     9.7440    -0.0630 H     1 <1>   0.0800 
@<TRIPOS>BOND
  1   1   2  1   
  2   1   3  1   
  3   2   4  1   
  4   2   5  1   
  5   2  18  1   
  6   3  19  1   
  7   3  20  1   
  8   3  21  1   
  9   4   6  2   
 10   4   7  am  
 11   5  22  1   
 12   5  23  1   
 13   5  24  1   
 14   7   8  1   
 15   7   9  1   
 16   8  10  1   
 17   8  25  1   
 18   8  26  1   
 19   9  27  1   
 20   9  28  1   
 21   9  29  1   
 22  10  11  1   
 23  10  12  2   
 24  11  13  1   
 25  12  14  1   
 26  13  14  2   
 27  14  15  1   
 28  15  16  1   
 29  15  30  1   
 30  15  31  1   
 31  16  17  1   
 32  16  32  1   
 33  16  33  1   
 34  17  34  1   
 35  17  35  1   
 36  17  36  1   
@<TRIPOS>SUBSTRUCTURE
  1 ****  10 GROUP 4 **** **** 0

# MOE 2024.06 (io_trps.svl 2023.06)
