@<TRIPOS>MOLECULE
NONAME
15 14 1 0 0 
SMALL
USER_CHARGES


@<TRIPOS>ATOM
  1 S        0.2030    -0.0670    -0.2760 S.o2  1 <1>   1.3110 
  2 O        1.4400    -0.7990    -0.0310 O.2   1 <1>  -0.7170 
  3 O       -0.2270     0.0500    -1.6620 O.2   1 <1>  -0.7170 
  4 N        0.4050     1.4030     0.3450 N.2   1 <1>  -0.3680 
  5 C       -1.2090    -0.7570     0.7950 C.3   1 <1>   1.0900 
  6 S        1.1260     2.5250    -0.5550 S.o2  1 <1>   1.3110 
  7 F       -1.5830    -2.0100     0.5090 F     1 <1>  -0.4280 
  8 F       -0.9390    -0.7920     2.1060 F     1 <1>  -0.4280 
  9 F       -2.3480    -0.0560     0.7300 F     1 <1>  -0.4280 
 10 O        2.2640     1.9340    -1.2440 O.co2 1 <1>  -0.7170 
 11 O        0.0900     3.1230    -1.3870 O.co2 1 <1>  -0.7170 
 12 C        1.7250     3.7610     0.7620 C.3   1 <1>   1.0900 
 13 F        0.7490     4.2700     1.5240 F     1 <1>  -0.4280 
 14 F        2.5820     3.2490     1.6540 F     1 <1>  -0.4280 
 15 F        2.3590     4.8400     0.2860 F     1 <1>  -0.4280 
@<TRIPOS>BOND
  1   1   2  2   
  2   1   3  2   
  3   1   4  1   
  4   1   5  1   
  5   4   6  2   
  6   5   7  1   
  7   5   8  1   
  8   5   9  1   
  9   6  10  ar  
 10   6  11  ar  
 11   6  12  1   
 12  12  13  1   
 13  12  14  1   
 14  12  15  1   
@<TRIPOS>SUBSTRUCTURE
  1 ****   4 GROUP 4 **** **** 0

# MOE 2024.06 (io_trps.svl 2023.06)
