@<TRIPOS>MOLECULE
NONAME
53 55 1 0 0 
SMALL
USER_CHARGES


@<TRIPOS>ATOM
  1 O       -0.4390    -0.0350     1.2770 O.2   1 <1>  -0.5700 
  2 C        0.5060    -0.5820     0.7610 C.2   1 <1>   0.5690 
  3 N        1.5710     0.0610     0.2130 N.am  1 <1>  -0.4930 
  4 C        0.5230    -2.0920     0.7140 C.3   1 <1>  -0.0990 
  5 C        1.9380     1.4280     0.1560 C.2   1 <1>   0.0630 
  6 C       -0.0110    -2.6020    -0.6260 C.3   1 <1>   0.0210 
  7 C        3.2810     1.8140     0.0880 C.2   1 <1>   0.3720 
  8 C        1.2420     2.5860     0.1370 C.2   1 <1>  -0.3320 
  9 C        0.1950    -4.1020    -0.7230 C.2   1 <1>  -0.1810 
 10 N        3.4300     3.1000     0.0570 N.2   1 <1>  -0.7070 
 11 N        4.3550     0.9010     0.0610 N.pl3 1 <1>  -0.8210 
 12 N        2.1670     3.5800     0.0970 N.pl3 1 <1>   0.3140 
 13 C       -0.2610     2.8250     0.1420 C.3   1 <1>  -0.0600 
 14 C        1.3030    -4.7520    -1.2600 C.2   1 <1>   0.1080 
 15 C       -0.6210    -5.0970    -0.3120 C.2   1 <1>  -0.3320 
 16 C        5.1150     0.9280     1.3400 C.3   1 <1>   0.2090 
 17 C        5.3120     1.1790    -1.0480 C.3   1 <1>   0.2090 
 18 C        1.9160     5.0270     0.0920 C.3   1 <1>   0.0160 
 19 N        1.1940    -6.0390    -1.1940 N.2   1 <1>  -0.7070 
 20 C        2.5170    -4.0850    -1.8640 C.3   1 <1>  -0.0590 
 21 N        0.0050    -6.2570    -0.6110 N.pl3 1 <1>   0.3140 
 22 C       -1.9820    -5.0140     0.3650 C.3   1 <1>  -0.0600 
 23 C        6.5850     0.8620     0.9580 C.3   1 <1>  -0.1600 
 24 C        6.6350     1.5520    -0.3940 C.3   1 <1>  -0.1600 
 25 C       -0.4780    -7.6200    -0.3630 C.3   1 <1>   0.0160 
 26 H        2.3740    -0.5170    -0.0380 H     1 <1>   0.3700 
 27 H       -0.0850    -2.4780     1.5120 H     1 <1>   0.0800 
 28 H        1.5270    -2.4420     0.8670 H     1 <1>   0.0800 
 29 H        0.4970    -2.1180    -1.4410 H     1 <1>   0.0800 
 30 H       -1.0570    -2.3670    -0.7120 H     1 <1>   0.0800 
 31 H       -0.7790     1.9500    -0.2070 H     1 <1>   0.0800 
 32 H       -0.5220     3.6390    -0.5080 H     1 <1>   0.0800 
 33 H       -0.5960     3.0450     1.1400 H     1 <1>   0.0800 
 34 H        4.8340     0.0960     1.9610 H     1 <1>   0.0800 
 35 H        4.9180     1.8460     1.8710 H     1 <1>   0.0800 
 36 H        4.9640     1.9680    -1.6950 H     1 <1>   0.0800 
 37 H        5.4290     0.2820    -1.6300 H     1 <1>   0.0800 
 38 H        1.2390     5.2710     0.8880 H     1 <1>   0.0800 
 39 H        1.4930     5.3060    -0.8530 H     1 <1>   0.0800 
 40 H        2.8460     5.5450     0.2390 H     1 <1>   0.0800 
 41 H        2.9370    -3.3830    -1.1680 H     1 <1>   0.0800 
 42 H        2.2380    -3.5740    -2.7670 H     1 <1>   0.0800 
 43 H        3.2590    -4.8260    -2.1000 H     1 <1>   0.0800 
 44 H       -2.2630    -3.9900     0.5320 H     1 <1>   0.0800 
 45 H       -1.9530    -5.5150     1.3160 H     1 <1>   0.0800 
 46 H       -2.7300    -5.4760    -0.2540 H     1 <1>   0.0800 
 47 H        6.8770    -0.1690     0.8600 H     1 <1>   0.0800 
 48 H        7.2100     1.3430     1.6890 H     1 <1>   0.0800 
 49 H        6.6610     2.6200    -0.2590 H     1 <1>   0.0800 
 50 H        7.4780     1.2480    -0.9870 H     1 <1>   0.0800 
 51 H       -1.4100    -7.7610    -0.8750 H     1 <1>   0.0800 
 52 H       -0.6080    -7.7610     0.6920 H     1 <1>   0.0800 
 53 H        0.2470    -8.3210    -0.7340 H     1 <1>   0.0800 
@<TRIPOS>BOND
  1   1   2  2   
  2   2   3  am  
  3   2   4  1   
  4   3   5  1   
  5   3  26  1   
  6   4   6  1   
  7   4  27  1   
  8   4  28  1   
  9   5   7  1   
 10   5   8  2   
 11   6   9  1   
 12   6  29  1   
 13   6  30  1   
 14   7  10  2   
 15   7  11  1   
 16   8  12  1   
 17   8  13  1   
 18   9  14  1   
 19   9  15  2   
 20  10  12  1   
 21  11  16  1   
 22  11  17  1   
 23  12  18  1   
 24  13  31  1   
 25  13  32  1   
 26  13  33  1   
 27  14  19  2   
 28  14  20  1   
 29  15  21  1   
 30  15  22  1   
 31  16  23  1   
 32  16  34  1   
 33  16  35  1   
 34  17  24  1   
 35  17  36  1   
 36  17  37  1   
 37  18  38  1   
 38  18  39  1   
 39  18  40  1   
 40  19  21  1   
 41  20  41  1   
 42  20  42  1   
 43  20  43  1   
 44  21  25  1   
 45  22  44  1   
 46  22  45  1   
 47  22  46  1   
 48  23  24  1   
 49  23  47  1   
 50  23  48  1   
 51  24  49  1   
 52  24  50  1   
 53  25  51  1   
 54  25  52  1   
 55  25  53  1   
@<TRIPOS>SUBSTRUCTURE
  1 ****   3 GROUP 4 **** **** 0

# MOE 2024.06 (io_trps.svl 2023.06)
