@<TRIPOS>MOLECULE
NONAME
53 56 1 0 0 
SMALL
USER_CHARGES


@<TRIPOS>ATOM
  1 F       -1.5870    -0.3150     1.7620 F     1 <1>  -0.1900 
  2 C       -2.1970    -0.9340     0.7780 C.ar  1 <1>   0.1900 
  3 C       -2.6390    -0.2020    -0.3390 C.ar  1 <1>   0.1000 
  4 C       -2.3820    -2.2880     0.9080 C.ar  1 <1>  -0.1500 
  5 N       -2.4730     1.1750    -0.5230 N.pl3 1 <1>  -0.8380 
  6 C       -3.2890    -0.9250    -1.3240 C.ar  1 <1>  -0.1500 
  7 C       -3.0410    -3.0110    -0.0950 C.ar  1 <1>   0.0860 
  8 C       -1.1810     1.8660    -0.2150 C.3   1 <1>   0.2090 
  9 C       -3.6620     2.0770    -0.4660 C.3   1 <1>   0.2090 
 10 C       -3.4930    -2.2980    -1.2200 C.ar  1 <1>   0.1000 
 11 C       -3.2710    -4.4310    -0.0150 C.2   1 <1>   0.4690 
 12 C       -1.3060     2.8040     1.0030 C.3   1 <1>   0.1200 
 13 C       -3.6270     2.9750     0.7840 C.3   1 <1>   0.1200 
 14 N       -4.1420    -2.9930    -2.2320 N.pl3 1 <1>  -0.6000 
 15 O       -2.8830    -5.0490     0.9690 O.2   1 <1>  -0.5700 
 16 C       -3.9560    -5.0850    -1.0880 C.2   1 <1>   0.0290 
 17 O       -2.4080     3.6590     0.8760 O.3   1 <1>  -0.5600 
 18 C       -4.3520    -4.3380    -2.1650 C.2   1 <1>  -0.0500 
 19 C       -4.2030    -6.5000    -1.0530 C.2   1 <1>   0.6160 
 20 O       -3.8520    -7.1700    -2.0100 O.2   1 <1>  -0.5700 
 21 N       -4.9030    -7.1280    -0.0380 N.am  1 <1>  -0.6600 
 22 C       -5.0240    -8.6140     0.0260 C.3   1 <1>   0.1400 
 23 C       -5.6700    -6.3840     1.0040 C.3   1 <1>   0.1400 
 24 C       -6.4800    -9.0380    -0.2510 C.3   1 <1>  -0.0800 
 25 C       -6.8970    -7.1790     1.4730 C.3   1 <1>  -0.1600 
 26 C       -7.4820    -8.0000     0.3200 C.3   1 <1>   0.2000 
 27 C       -6.7250   -10.4760     0.2420 C.3   1 <1>   0.1200 
 28 O       -8.6450    -8.5970     0.7720 O.3   1 <1>  -0.6800 
 29 O       -5.7630   -11.3290    -0.2760 O.3   1 <1>  -0.6800 
 30 H       -2.0220    -2.7980     1.7840 H     1 <1>   0.1500 
 31 H       -3.6340    -0.4020    -2.1950 H     1 <1>   0.1500 
 32 H       -0.4080     1.1400    -0.0340 H     1 <1>   0.0800 
 33 H       -0.8870     2.4480    -1.0700 H     1 <1>   0.0800 
 34 H       -3.6760     2.6980    -1.3450 H     1 <1>   0.0800 
 35 H       -4.5650     1.4920    -0.4570 H     1 <1>   0.0800 
 36 H       -0.4250     3.4140     1.0900 H     1 <1>   0.0800 
 37 H       -1.4170     2.2340     1.9080 H     1 <1>   0.0800 
 38 H       -3.7590     2.3840     1.6730 H     1 <1>   0.0800 
 39 H       -4.4120     3.7080     0.7350 H     1 <1>   0.0800 
 40 H       -4.4360    -2.4640    -3.0640 H     1 <1>   0.4000 
 41 H       -4.8440    -4.8130    -3.0010 H     1 <1>   0.1500 
 42 H       -4.3610    -9.0870    -0.6790 H     1 <1>   0.0800 
 43 H       -4.7260    -8.9370     1.0090 H     1 <1>   0.0800 
 44 H       -5.0270    -6.1790     1.8440 H     1 <1>   0.0800 
 45 H       -6.0010    -5.4450     0.5950 H     1 <1>   0.0800 
 46 H       -6.6150    -9.0350    -1.3180 H     1 <1>   0.0800 
 47 H       -7.6320    -6.4910     1.8510 H     1 <1>   0.0800 
 48 H       -6.6010    -7.8320     2.2740 H     1 <1>   0.0800 
 49 H       -7.7660    -7.3260    -0.4720 H     1 <1>   0.0800 
 50 H       -7.6910   -10.8340    -0.0730 H     1 <1>   0.0800 
 51 H       -6.6600   -10.5280     1.3150 H     1 <1>   0.0800 
 52 H       -8.4850    -9.0480     1.6220 H     1 <1>   0.4000 
 53 H       -5.7960   -11.3330    -1.2530 H     1 <1>   0.4000 
@<TRIPOS>BOND
  1   1   2  1   
  2   2   3  ar  
  3   2   4  ar  
  4   3   5  1   
  5   3   6  ar  
  6   4   7  ar  
  7   4  30  1   
  8   5   8  1   
  9   5   9  1   
 10   6  10  ar  
 11   6  31  1   
 12   7  10  ar  
 13   7  11  1   
 14   8  12  1   
 15   8  32  1   
 16   8  33  1   
 17   9  13  1   
 18   9  34  1   
 19   9  35  1   
 20  10  14  1   
 21  11  15  2   
 22  11  16  1   
 23  12  17  1   
 24  12  36  1   
 25  12  37  1   
 26  13  17  1   
 27  13  38  1   
 28  13  39  1   
 29  14  18  1   
 30  14  40  1   
 31  16  18  2   
 32  16  19  1   
 33  18  41  1   
 34  19  20  2   
 35  19  21  am  
 36  21  22  1   
 37  21  23  1   
 38  22  24  1   
 39  22  42  1   
 40  22  43  1   
 41  23  25  1   
 42  23  44  1   
 43  23  45  1   
 44  24  26  1   
 45  24  27  1   
 46  24  46  1   
 47  25  26  1   
 48  25  47  1   
 49  25  48  1   
 50  26  28  1   
 51  26  49  1   
 52  27  29  1   
 53  27  50  1   
 54  27  51  1   
 55  28  52  1   
 56  29  53  1   
@<TRIPOS>SUBSTRUCTURE
  1 ****  11 GROUP 4 **** **** 0

# MOE 2024.06 (io_trps.svl 2023.06)
