@<TRIPOS>MOLECULE
NONAME
43 46 1 0 0 
SMALL
USER_CHARGES


@<TRIPOS>ATOM
  1 O       -1.9420     0.6380    -1.7200 O.2   1 <1>  -0.5700 
  2 C       -1.8000     0.6530    -0.5080 C.2   1 <1>   0.7160 
  3 N       -1.8790    -0.5300     0.1660 N.am  1 <1>  -0.7300 
  4 C       -1.5690     1.8840     0.2310 C.2   1 <1>   0.2030 
  5 C       -2.0970    -1.8710    -0.4200 C.3   1 <1>   0.2200 
  6 N       -1.4550     1.9810     1.5460 N.2   1 <1>  -0.7070 
  7 C       -1.4340     3.1470    -0.3580 C.2   1 <1>  -0.1500 
  8 C       -3.5100    -2.3680    -0.1530 C.3   1 <1>  -0.0800 
  9 C       -1.2850    -2.8960     0.3610 C.3   1 <1>   0.1200 
 10 N       -1.2470     3.2850     1.7850 N.pl3 1 <1>   0.3000 
 11 C       -1.2310     4.0130     0.6530 C.2   1 <1>  -0.2370 
 12 C       -3.4020    -2.9700     1.2510 C.3   1 <1>   0.1200 
 13 C       -4.6330    -1.3260    -0.3090 C.3   1 <1>  -0.0160 
 14 O       -2.0430    -3.1910     1.4950 O.3   1 <1>  -0.5600 
 15 C       -1.0160     5.5120     0.6290 C.3   1 <1>  -0.0150 
 16 C       -5.9980    -1.9640    -0.0990 C.ar  1 <1>  -0.1430 
 17 C       -0.3240     6.1520    -0.5300 C.3   1 <1>  -0.2000 
 18 C        0.3630     6.0590     0.8010 C.3   1 <1>  -0.2000 
 19 C       -6.6700    -1.8780     1.1030 C.ar  1 <1>  -0.1500 
 20 C       -6.6330    -2.6650    -1.1040 C.ar  1 <1>  -0.1500 
 21 C       -7.9070    -2.4850     1.2400 C.ar  1 <1>   0.1600 
 22 C       -7.8720    -3.2350    -0.8630 C.ar  1 <1>   0.1600 
 23 N       -8.5240    -3.1640     0.2860 N.ar  1 <1>  -0.6200 
 24 H       -1.7690    -0.4890     1.1840 H     1 <1>   0.3700 
 25 H       -1.8480    -1.8710    -1.4680 H     1 <1>   0.0800 
 26 H       -1.4890     3.3430    -1.4150 H     1 <1>   0.1500 
 27 H       -3.7070    -3.1780    -0.8340 H     1 <1>   0.0800 
 28 H       -0.3180    -2.5260     0.6550 H     1 <1>   0.0800 
 29 H       -1.1740    -3.8040    -0.2050 H     1 <1>   0.0800 
 30 H       -1.1130     3.6630     2.7310 H     1 <1>   0.2700 
 31 H       -3.9310    -3.9050     1.3300 H     1 <1>   0.0800 
 32 H       -3.7570    -2.2870     2.0030 H     1 <1>   0.0800 
 33 H       -4.5870    -0.8960    -1.2940 H     1 <1>   0.0800 
 34 H       -4.5040    -0.5250     0.3980 H     1 <1>   0.0800 
 35 H       -1.8320     6.0590     1.0720 H     1 <1>   0.1000 
 36 H        0.0290     5.5310    -1.3350 H     1 <1>   0.1000 
 37 H       -0.6720     7.1110    -0.8700 H     1 <1>   0.1000 
 38 H        0.4980     6.9570     1.3770 H     1 <1>   0.1000 
 39 H        1.1880     5.3730     0.9000 H     1 <1>   0.1000 
 40 H       -6.2460    -1.3450     1.9340 H     1 <1>   0.1500 
 41 H       -6.1770    -2.7730    -2.0710 H     1 <1>   0.1500 
 42 H       -8.4170    -2.4070     2.1850 H     1 <1>   0.1500 
 43 H       -8.3530    -3.7780    -1.6590 H     1 <1>   0.1500 
@<TRIPOS>BOND
  1   1   2  2   
  2   2   3  am  
  3   2   4  1   
  4   3   5  1   
  5   3  24  1   
  6   4   6  2   
  7   4   7  1   
  8   5   8  1   
  9   5   9  1   
 10   5  25  1   
 11   6  10  1   
 12   7  11  2   
 13   7  26  1   
 14   8  12  1   
 15   8  13  1   
 16   8  27  1   
 17   9  14  1   
 18   9  28  1   
 19   9  29  1   
 20  10  11  1   
 21  10  30  1   
 22  11  15  1   
 23  12  14  1   
 24  12  31  1   
 25  12  32  1   
 26  13  16  1   
 27  13  33  1   
 28  13  34  1   
 29  15  17  1   
 30  15  18  1   
 31  15  35  1   
 32  16  19  ar  
 33  16  20  ar  
 34  17  18  1   
 35  17  36  1   
 36  17  37  1   
 37  18  38  1   
 38  18  39  1   
 39  19  21  ar  
 40  19  40  1   
 41  20  22  ar  
 42  20  41  1   
 43  21  23  ar  
 44  21  42  1   
 45  22  23  ar  
 46  22  43  1   
@<TRIPOS>SUBSTRUCTURE
  1 ****   3 GROUP 4 **** **** 0

# MOE 2024.06 (io_trps.svl 2023.06)
