@<TRIPOS>MOLECULE
NONAME
55 58 1 0 0 
SMALL
USER_CHARGES


@<TRIPOS>ATOM
  1 O       -0.5000    -0.2740     0.3990 O.2   1 <1>  -0.5700 
  2 C       -1.3900     0.3760    -0.1140 C.2   1 <1>   0.7160 
  3 N       -2.3420    -0.2800    -0.8330 N.am  1 <1>  -0.7300 
  4 C       -1.4650     1.7990     0.0340 C.2   1 <1>  -0.0860 
  5 C       -2.4900    -1.7380    -1.0030 C.3   1 <1>   0.1400 
  6 C       -2.6180     2.5800    -0.1330 C.2   1 <1>   0.3720 
  7 C       -0.5150     2.7180     0.3620 C.2   1 <1>   0.0870 
  8 C       -3.8110    -2.1720    -0.3690 C.3   1 <1>  -0.1600 
  9 N       -2.3720     3.8250     0.0740 N.2   1 <1>  -0.4100 
 10 N       -3.8960     2.0920    -0.4550 N.pl3 1 <1>  -0.8210 
 11 O       -1.1050     3.8860     0.3740 O.3   1 <1>  -0.0190 
 12 C        0.8950     2.6400     0.6560 C.ar  1 <1>   0.0530 
 13 C       -4.0310    -3.6850    -0.5240 C.3   1 <1>  -0.1600 
 14 C       -4.7640     3.0050    -1.2740 C.3   1 <1>   0.2090 
 15 C       -4.6420     1.5260     0.7170 C.3   1 <1>   0.2090 
 16 C        1.4670     3.4790     1.6130 C.ar  1 <1>  -0.1500 
 17 C        1.7440     1.7510    -0.0040 C.ar  1 <1>  -0.1500 
 18 C       -5.3280    -4.1600     0.1550 C.3   1 <1>  -0.0800 
 19 C       -5.5900     3.9760    -0.4080 C.3   1 <1>   0.1200 
 20 C       -5.4420     2.6040     1.4700 C.3   1 <1>   0.1200 
 21 C        2.8180     3.4310     1.9030 C.ar  1 <1>  -0.1500 
 22 C        3.0950     1.6960     0.2820 C.ar  1 <1>  -0.1500 
 23 C       -5.5290    -5.6760     0.0440 C.3   1 <1>   0.1200 
 24 C       -6.5900    -3.5850    -0.4800 C.3   1 <1>  -0.1600 
 25 O       -6.2870     3.2870     0.5910 O.3   1 <1>  -0.5600 
 26 C        3.6360     2.5360     1.2380 C.ar  1 <1>  -0.1500 
 27 O       -6.7270    -5.8710    -0.6360 O.3   1 <1>  -0.5600 
 28 C       -7.5460    -4.7640    -0.4790 C.3   1 <1>   0.1200 
 29 H       -3.1300     0.3080    -1.1390 H     1 <1>   0.3700 
 30 H       -1.6660    -2.2500    -0.5330 H     1 <1>   0.0800 
 31 H       -2.4840    -1.9730    -2.0540 H     1 <1>   0.0800 
 32 H       -4.6180    -1.6390    -0.8390 H     1 <1>   0.0800 
 33 H       -3.7930    -1.9220     0.6780 H     1 <1>   0.0800 
 34 H       -3.1990    -4.2060    -0.0800 H     1 <1>   0.0800 
 35 H       -4.0590    -3.9430    -1.5700 H     1 <1>   0.0800 
 36 H       -5.4370     2.4090    -1.8640 H     1 <1>   0.0800 
 37 H       -4.1520     3.5720    -1.9550 H     1 <1>   0.0800 
 38 H       -3.9510     1.0600     1.4000 H     1 <1>   0.0800 
 39 H       -5.3200     0.7670     0.3700 H     1 <1>   0.0800 
 40 H        0.8410     4.1790     2.1380 H     1 <1>   0.1500 
 41 H        1.3420     1.0920    -0.7520 H     1 <1>   0.1500 
 42 H       -5.2970    -3.9060     1.2010 H     1 <1>   0.0800 
 43 H       -6.3110     4.4920    -1.0160 H     1 <1>   0.0800 
 44 H       -4.9500     4.7060     0.0570 H     1 <1>   0.0800 
 45 H       -4.7780     3.3120     1.9360 H     1 <1>   0.0800 
 46 H       -6.0540     2.1500     2.2290 H     1 <1>   0.0800 
 47 H        3.2340     4.0880     2.6470 H     1 <1>   0.1500 
 48 H        3.7260     0.9960    -0.2380 H     1 <1>   0.1500 
 49 H       -5.6190    -6.1280     1.0160 H     1 <1>   0.0800 
 50 H       -4.7450    -6.1600    -0.5130 H     1 <1>   0.0800 
 51 H       -6.4150    -3.2920    -1.5010 H     1 <1>   0.0800 
 52 H       -6.9870    -2.7490     0.0670 H     1 <1>   0.0800 
 53 H        4.6880     2.4940     1.4620 H     1 <1>   0.1500 
 54 H       -8.2550    -4.7290    -1.2870 H     1 <1>   0.0800 
 55 H       -8.0560    -4.8570     0.4650 H     1 <1>   0.0800 
@<TRIPOS>BOND
  1   1   2  2   
  2   2   3  am  
  3   2   4  1   
  4   3   5  1   
  5   3  29  1   
  6   4   6  1   
  7   4   7  2   
  8   5   8  1   
  9   5  30  1   
 10   5  31  1   
 11   6   9  2   
 12   6  10  1   
 13   7  11  1   
 14   7  12  1   
 15   8  13  1   
 16   8  32  1   
 17   8  33  1   
 18   9  11  1   
 19  10  14  1   
 20  10  15  1   
 21  12  16  ar  
 22  12  17  ar  
 23  13  18  1   
 24  13  34  1   
 25  13  35  1   
 26  14  19  1   
 27  14  36  1   
 28  14  37  1   
 29  15  20  1   
 30  15  38  1   
 31  15  39  1   
 32  16  21  ar  
 33  16  40  1   
 34  17  22  ar  
 35  17  41  1   
 36  18  23  1   
 37  18  24  1   
 38  18  42  1   
 39  19  25  1   
 40  19  43  1   
 41  19  44  1   
 42  20  25  1   
 43  20  45  1   
 44  20  46  1   
 45  21  26  ar  
 46  21  47  1   
 47  22  26  ar  
 48  22  48  1   
 49  23  27  1   
 50  23  49  1   
 51  23  50  1   
 52  24  28  1   
 53  24  51  1   
 54  24  52  1   
 55  26  53  1   
 56  27  28  1   
 57  28  54  1   
 58  28  55  1   
@<TRIPOS>SUBSTRUCTURE
  1 ****   2 GROUP 4 **** **** 0

# MOE 2024.06 (io_trps.svl 2023.06)
