@<TRIPOS>MOLECULE
NONAME
48 50 1 0 0 
SMALL
USER_CHARGES


@<TRIPOS>ATOM
  1 CL       4.0090     1.0430    -2.8850 Cl    1 <1>  -0.1770 
  2 C        3.4250     0.0180    -1.5940 C.ar  1 <1>   0.1770 
  3 C        3.0950     0.5360    -0.3360 C.ar  1 <1>   0.0860 
  4 C        3.2980    -1.3270    -1.8920 C.ar  1 <1>  -0.1500 
  5 C        3.2180     1.9350     0.0330 C.2   1 <1>   0.5440 
  6 C        2.6150    -0.3800     0.6040 C.ar  1 <1>  -0.1500 
  7 C        2.8270    -2.2060    -0.9350 C.ar  1 <1>  -0.1500 
  8 O        2.4340     2.4280     0.8210 O.2   1 <1>  -0.5700 
  9 N        4.2270     2.7270    -0.4380 N.am  1 <1>  -0.7300 
 10 C        2.4830    -1.7270     0.3160 C.ar  1 <1>  -0.1500 
 11 C        4.3740     4.1810    -0.1560 C.3   1 <1>   0.1400 
 12 C        4.9620     4.4130     1.2390 C.3   1 <1>   0.2090 
 13 N        5.1010     5.8710     1.5040 N.pl3 1 <1>  -0.8690 
 14 C        6.2110     6.6080     1.1880 C.ar  1 <1>   0.4100 
 15 N        7.1020     6.0590     0.3730 N.ar  1 <1>  -0.6200 
 16 C        6.3630     7.8860     1.7180 C.ar  1 <1>  -0.1500 
 17 C        8.1640     6.7940     0.0870 C.ar  1 <1>   0.1600 
 18 C        7.4690     8.6380     1.4030 C.ar  1 <1>  -0.1500 
 19 C        8.4140     8.0860     0.5440 C.ar  1 <1>   0.0860 
 20 C        9.6110     8.7860     0.1380 C.2   1 <1>   0.5440 
 21 O       10.6600     8.1730     0.0660 O.2   1 <1>  -0.5700 
 22 N        9.6070    10.1270    -0.1840 N.am  1 <1>  -0.6600 
 23 C       10.8720    10.9170    -0.2930 C.3   1 <1>   0.1400 
 24 C        8.4230    10.8420    -0.7520 C.3   1 <1>   0.1400 
 25 C       11.0500    11.4610    -1.7190 C.3   1 <1>   0.1200 
 26 C        8.7460    11.4050    -2.1480 C.3   1 <1>   0.1200 
 27 O        9.9130    12.1760    -2.1170 O.3   1 <1>  -0.5600 
 28 H        3.5660    -1.6820    -2.8710 H     1 <1>   0.1500 
 29 H        2.3390    -0.0220     1.5820 H     1 <1>   0.1500 
 30 H        2.7260    -3.2550    -1.1610 H     1 <1>   0.1500 
 31 H        4.8530     2.3580    -1.1580 H     1 <1>   0.3700 
 32 H        2.1110    -2.4040     1.0670 H     1 <1>   0.1500 
 33 H        3.4070     4.6510    -0.2140 H     1 <1>   0.0800 
 34 H        5.0200     4.6230    -0.8930 H     1 <1>   0.0800 
 35 H        5.9270     3.9390     1.3060 H     1 <1>   0.0800 
 36 H        4.3120     3.9790     1.9790 H     1 <1>   0.0800 
 37 H        4.4440     6.2450     2.1910 H     1 <1>   0.4000 
 38 H        5.6070     8.2710     2.3750 H     1 <1>   0.1500 
 39 H        8.9000     6.3480    -0.5610 H     1 <1>   0.1500 
 40 H        7.6120     9.6240     1.8100 H     1 <1>   0.1500 
 41 H       11.7240    10.3120    -0.0330 H     1 <1>   0.0800 
 42 H       10.8340    11.7410     0.3960 H     1 <1>   0.0800 
 43 H        8.1510    11.6520    -0.0990 H     1 <1>   0.0800 
 44 H        7.5810    10.1780    -0.8350 H     1 <1>   0.0800 
 45 H       11.2150    10.6540    -2.4120 H     1 <1>   0.0800 
 46 H       11.8910    12.1300    -1.7590 H     1 <1>   0.0800 
 47 H        7.9450    12.0370    -2.4880 H     1 <1>   0.0800 
 48 H        8.8810    10.6070    -2.8570 H     1 <1>   0.0800 
@<TRIPOS>BOND
  1   1   2  1   
  2   2   3  ar  
  3   2   4  ar  
  4   3   5  1   
  5   3   6  ar  
  6   4   7  ar  
  7   4  28  1   
  8   5   8  2   
  9   5   9  am  
 10   6  10  ar  
 11   6  29  1   
 12   7  10  ar  
 13   7  30  1   
 14   9  11  1   
 15   9  31  1   
 16  10  32  1   
 17  11  12  1   
 18  11  33  1   
 19  11  34  1   
 20  12  13  1   
 21  12  35  1   
 22  12  36  1   
 23  13  14  1   
 24  13  37  1   
 25  14  15  ar  
 26  14  16  ar  
 27  15  17  ar  
 28  16  18  ar  
 29  16  38  1   
 30  17  19  ar  
 31  17  39  1   
 32  18  19  ar  
 33  18  40  1   
 34  19  20  1   
 35  20  21  2   
 36  20  22  am  
 37  22  23  1   
 38  22  24  1   
 39  23  25  1   
 40  23  41  1   
 41  23  42  1   
 42  24  26  1   
 43  24  43  1   
 44  24  44  1   
 45  25  27  1   
 46  25  45  1   
 47  25  46  1   
 48  26  27  1   
 49  26  47  1   
 50  26  48  1   
@<TRIPOS>SUBSTRUCTURE
  1 ****  15 GROUP 4 **** **** 0

# MOE 2024.06 (io_trps.svl 2023.06)
