@<TRIPOS>MOLECULE
NONAME
47 49 1 0 0 
SMALL
USER_CHARGES


@<TRIPOS>ATOM
  1 S       -0.4870     0.5670    -1.3150 S.o2  1 <1>   1.4470 
  2 O        0.1930     1.1700    -2.4400 O.2   1 <1>  -0.6500 
  3 O       -1.7500    -0.1090    -1.5340 O.2   1 <1>  -0.6500 
  4 N       -0.7860     1.8020    -0.1900 N.am  1 <1>  -0.8490 
  5 C        0.6690    -0.5280    -0.4400 C.ar  1 <1>  -0.0090 
  6 C       -1.3910     1.3310     1.0720 C.3   1 <1>   0.1960 
  7 C       -1.4290     2.9860    -0.7780 C.3   1 <1>   0.1960 
  8 C        1.9650    -0.1160    -0.1530 C.ar  1 <1>  -0.1500 
  9 C        0.2890    -1.7970    -0.0190 C.ar  1 <1>  -0.1500 
 10 C       -2.5670     2.1950     1.5430 C.3   1 <1>  -0.1600 
 11 C       -2.9360     2.7630    -0.9150 C.3   1 <1>  -0.1600 
 12 C        2.8490    -0.9400     0.5240 C.ar  1 <1>  -0.1500 
 13 C        1.1690    -2.6240     0.6580 C.ar  1 <1>  -0.1500 
 14 C       -3.6160     2.4300     0.4350 C.3   1 <1>   0.2800 
 15 C        2.4650    -2.2080     0.9400 C.ar  1 <1>   0.0730 
 16 O       -4.2790     3.6140     0.8230 O.3   1 <1>  -0.5600 
 17 C       -4.6200     1.2350     0.3520 C.3   1 <1>   0.2000 
 18 C        3.3790    -3.0660     1.6410 C.1   1 <1>   0.4840 
 19 C       -5.6820     3.6760     0.8100 C.3   1 <1>   0.1200 
 20 O       -4.0220     0.0060     0.0250 O.3   1 <1>  -0.6800 
 21 C       -5.8720     1.5380    -0.5240 C.3   1 <1>   0.2800 
 22 N        4.1020    -3.7470     2.2000 N.1   1 <1>  -0.5570 
 23 C       -6.2330     3.0300    -0.4640 C.3   1 <1>  -0.1600 
 24 O       -6.9220     0.8430     0.0390 O.3   1 <1>  -0.6800 
 25 C       -5.8170     1.0550    -1.9820 C.3   1 <1>  -0.2400 
 26 H       -1.7290     0.3140     0.9710 H     1 <1>   0.0800 
 27 H       -0.6300     1.3320     1.8350 H     1 <1>   0.0800 
 28 H       -1.2490     3.8390    -0.1440 H     1 <1>   0.0800 
 29 H       -0.9980     3.2110    -1.7390 H     1 <1>   0.0800 
 30 H        2.2830     0.8650    -0.4680 H     1 <1>   0.1500 
 31 H       -0.7110    -2.1460    -0.2260 H     1 <1>   0.1500 
 32 H       -2.1750     3.1390     1.8770 H     1 <1>   0.0800 
 33 H       -3.0290     1.7250     2.3920 H     1 <1>   0.0800 
 34 H       -3.0880     1.9780    -1.6240 H     1 <1>   0.0800 
 35 H       -3.3730     3.6480    -1.3400 H     1 <1>   0.0800 
 36 H        3.8480    -0.5910     0.7290 H     1 <1>   0.1500 
 37 H        0.8450    -3.6030     0.9690 H     1 <1>   0.1500 
 38 H       -4.9800     1.1000     1.3570 H     1 <1>   0.0800 
 39 H       -6.0560     3.1750     1.6880 H     1 <1>   0.0800 
 40 H       -5.9630     4.7140     0.8600 H     1 <1>   0.0800 
 41 H       -3.4010     0.0880    -0.7410 H     1 <1>   0.4000 
 42 H       -5.8130     3.5530    -1.3030 H     1 <1>   0.0800 
 43 H       -7.3000     3.1570    -0.5120 H     1 <1>   0.0800 
 44 H       -6.6760    -0.1030     0.0680 H     1 <1>   0.4000 
 45 H       -5.0610     1.5790    -2.5330 H     1 <1>   0.0800 
 46 H       -6.7600     1.2410    -2.4640 H     1 <1>   0.0800 
 47 H       -5.6050     0.0030    -2.0330 H     1 <1>   0.0800 
@<TRIPOS>BOND
  1   1   2  2   
  2   1   3  2   
  3   1   4  am  
  4   1   5  1   
  5   4   6  1   
  6   4   7  1   
  7   5   8  ar  
  8   5   9  ar  
  9   6  10  1   
 10   6  26  1   
 11   6  27  1   
 12   7  11  1   
 13   7  28  1   
 14   7  29  1   
 15   8  12  ar  
 16   8  30  1   
 17   9  13  ar  
 18   9  31  1   
 19  10  14  1   
 20  10  32  1   
 21  10  33  1   
 22  11  14  1   
 23  11  34  1   
 24  11  35  1   
 25  12  15  ar  
 26  12  36  1   
 27  13  15  ar  
 28  13  37  1   
 29  14  16  1   
 30  14  17  1   
 31  15  18  1   
 32  16  19  1   
 33  17  20  1   
 34  17  21  1   
 35  17  38  1   
 36  18  22  3   
 37  19  23  1   
 38  19  39  1   
 39  19  40  1   
 40  20  41  1   
 41  21  23  1   
 42  21  24  1   
 43  21  25  1   
 44  23  42  1   
 45  23  43  1   
 46  24  44  1   
 47  25  45  1   
 48  25  46  1   
 49  25  47  1   
@<TRIPOS>SUBSTRUCTURE
  1 ****   6 GROUP 4 **** **** 0

# MOE 2024.06 (io_trps.svl 2023.06)
