@<TRIPOS>MOLECULE
NONAME
45 47 1 0 0 
SMALL
USER_CHARGES


@<TRIPOS>ATOM
  1 CL      -0.4190     3.8350     0.8580 Cl    1 <1>  -0.1770 
  2 C        1.2900     3.4900     0.8620 C.ar  1 <1>   0.1770 
  3 C        1.9600     3.3730    -0.3410 C.ar  1 <1>  -0.1500 
  4 C        1.9510     3.3410     2.0660 C.ar  1 <1>  -0.1500 
  5 C        3.3180     3.1060    -0.3350 C.ar  1 <1>  -0.1500 
  6 C        3.3090     3.0730     2.0650 C.ar  1 <1>  -0.1500 
  7 C        4.0030     2.9560     0.8660 C.ar  1 <1>  -0.1430 
  8 C        5.5130     2.6840     0.8760 C.3   1 <1>   0.1250 
  9 C        6.3100     3.8850     0.3460 C.2   1 <1>   0.5690 
 10 C        5.8170     1.3740     0.1240 C.3   1 <1>  -0.2400 
 11 O        7.4510     3.7200    -0.0150 O.2   1 <1>  -0.5700 
 12 N        5.6900     5.1060     0.3190 N.am  1 <1>  -0.4940 
 13 C        6.0850     6.3610    -0.2050 C.2   1 <1>  -0.0880 
 14 N        7.3130     6.9620    -0.1400 N.pl3 1 <1>   0.3140 
 15 C        5.2680     7.2180    -0.8630 C.2   1 <1>  -0.1810 
 16 N        7.2780     8.1810    -0.7490 N.2   1 <1>  -0.7070 
 17 C        8.5270     6.4630     0.5850 C.3   1 <1>   0.1760 
 18 C        6.0630     8.3130    -1.1740 C.2   1 <1>   0.1390 
 19 C        3.8000     7.0740    -1.2200 C.3   1 <1>  -0.0590 
 20 C        9.2340     7.5630     1.3890 C.3   1 <1>  -0.1600 
 21 C        9.6040     5.9810    -0.3910 C.3   1 <1>  -0.1600 
 22 C       10.3080     8.1610     0.4710 C.3   1 <1>  -0.1600 
 23 C       10.4410     7.2150    -0.7280 C.3   1 <1>  -0.1600 
 24 H        1.4220     3.4890    -1.2650 H     1 <1>   0.1500 
 25 H        1.4050     3.4340     2.9880 H     1 <1>   0.1500 
 26 H        3.8380     3.0190    -1.2750 H     1 <1>   0.1500 
 27 H        3.8190     2.9570     3.0070 H     1 <1>   0.1500 
 28 H        5.8290     2.5420     1.8940 H     1 <1>   0.0800 
 29 H        5.6160     1.4810    -0.9260 H     1 <1>   0.0800 
 30 H        5.2160     0.5720     0.5150 H     1 <1>   0.0800 
 31 H        6.8540     1.1140     0.2430 H     1 <1>   0.0800 
 32 H        4.6980     5.0570     0.5670 H     1 <1>   0.3700 
 33 H        8.2240     5.6740     1.2460 H     1 <1>   0.0800 
 34 H        5.7200     9.1830    -1.7070 H     1 <1>   0.1500 
 35 H        3.4260     6.1100    -0.9290 H     1 <1>   0.0800 
 36 H        3.6720     7.1850    -2.2810 H     1 <1>   0.0800 
 37 H        3.2270     7.8340    -0.7180 H     1 <1>   0.0800 
 38 H        9.7200     7.1090     2.2350 H     1 <1>   0.0800 
 39 H        8.5440     8.3080     1.7460 H     1 <1>   0.0800 
 40 H        9.1790     5.5190    -1.2650 H     1 <1>   0.0800 
 41 H       10.2240     5.2610     0.1130 H     1 <1>   0.0800 
 42 H       11.2440     8.2570     0.9940 H     1 <1>   0.0800 
 43 H        9.9980     9.1340     0.1270 H     1 <1>   0.0800 
 44 H       10.0270     7.6930    -1.6000 H     1 <1>   0.0800 
 45 H       11.4670     6.9560    -0.9260 H     1 <1>   0.0800 
@<TRIPOS>BOND
  1   1   2  1   
  2   2   3  ar  
  3   2   4  ar  
  4   3   5  ar  
  5   3  24  1   
  6   4   6  ar  
  7   4  25  1   
  8   5   7  ar  
  9   5  26  1   
 10   6   7  ar  
 11   6  27  1   
 12   7   8  1   
 13   8   9  1   
 14   8  10  1   
 15   8  28  1   
 16   9  11  2   
 17   9  12  am  
 18  10  29  1   
 19  10  30  1   
 20  10  31  1   
 21  12  13  1   
 22  12  32  1   
 23  13  14  1   
 24  13  15  2   
 25  14  16  1   
 26  14  17  1   
 27  15  18  1   
 28  15  19  1   
 29  16  18  2   
 30  17  20  1   
 31  17  21  1   
 32  17  33  1   
 33  18  34  1   
 34  19  35  1   
 35  19  36  1   
 36  19  37  1   
 37  20  22  1   
 38  20  38  1   
 39  20  39  1   
 40  21  23  1   
 41  21  40  1   
 42  21  41  1   
 43  22  23  1   
 44  22  42  1   
 45  22  43  1   
 46  23  44  1   
 47  23  45  1   
@<TRIPOS>SUBSTRUCTURE
  1 ****  12 GROUP 4 **** **** 0

# MOE 2024.06 (io_trps.svl 2023.06)
