@<TRIPOS>MOLECULE
NONAME
50 52 1 0 0 
SMALL
USER_CHARGES


@<TRIPOS>ATOM
  1 O        0.0360    -0.0980    -0.5900 O.2   1 <1>  -0.5700 
  2 C       -0.9380     0.5040    -0.2110 C.2   1 <1>   0.5690 
  3 N       -2.0030    -0.1330     0.3750 N.am  1 <1>  -0.6600 
  4 C       -0.9080     2.0100    -0.3940 C.3   1 <1>  -0.0990 
  5 C       -1.9930    -1.6190     0.5090 C.3   1 <1>   0.3200 
  6 C       -3.1770     0.5690     0.9850 C.3   1 <1>   0.1400 
  7 C       -0.1550     2.6810     0.7610 C.3   1 <1>   0.0200 
  8 C       -3.2200    -2.1970    -0.1640 C.2   1 <1>  -0.3320 
  9 C       -4.2820     0.8360    -0.0460 C.3   1 <1>   0.1200 
 10 C       -0.1590     4.1880     0.6090 C.2   1 <1>   0.2980 
 11 N       -4.2820    -2.7160     0.4820 N.pl3 1 <1>   0.0330 
 12 C       -3.4940    -2.2950    -1.4820 C.2   1 <1>   0.0770 
 13 O       -5.2370     1.6510     0.5420 O.3   1 <1>  -0.6800 
 14 O       -1.2850     4.8330     0.7670 O.3   1 <1>  -0.0190 
 15 N        0.8480     4.9070     0.3350 N.2   1 <1>  -0.5650 
 16 C       -5.1420    -3.0840    -0.4910 C.2   1 <1>   0.0070 
 17 N       -4.7060    -2.8450    -1.6830 N.2   1 <1>  -0.5650 
 18 N       -0.9670     6.0730     0.5720 N.2   1 <1>  -0.4100 
 19 C        0.2930     6.1250     0.3170 C.2   1 <1>   0.4620 
 20 C       -6.4860    -3.7170    -0.2020 C.3   1 <1>  -0.0600 
 21 C        1.0550     7.3320     0.0380 C.ar  1 <1>   0.0540 
 22 C        2.4220     7.2910    -0.2450 C.ar  1 <1>  -0.1500 
 23 C        0.4450     8.5880     0.0430 C.ar  1 <1>  -0.1500 
 24 C        3.1500     8.4380    -0.5120 C.ar  1 <1>  -0.1440 
 25 C        1.1610     9.7400    -0.2210 C.ar  1 <1>  -0.1500 
 26 C        2.5140     9.6660    -0.4980 C.ar  1 <1>  -0.1500 
 27 C        4.6350     8.3590    -0.8160 C.3   1 <1>  -0.0970 
 28 H       -1.9000     2.4100    -0.4790 H     1 <1>   0.0800 
 29 H       -0.3980     2.2270    -1.3150 H     1 <1>   0.0800 
 30 H       -1.9720    -1.8840     1.5510 H     1 <1>   0.0800 
 31 H       -1.1180    -2.0410     0.0460 H     1 <1>   0.0800 
 32 H       -2.8570     1.5050     1.4060 H     1 <1>   0.0800 
 33 H       -3.5780    -0.0280     1.7840 H     1 <1>   0.0800 
 34 H        0.8620     2.3310     0.7740 H     1 <1>   0.0800 
 35 H       -0.6080     2.4250     1.7010 H     1 <1>   0.0800 
 36 H       -4.7640    -0.0760    -0.3500 H     1 <1>   0.0800 
 37 H       -3.8930     1.3450    -0.9100 H     1 <1>   0.0800 
 38 H       -4.4260    -2.8170     1.4910 H     1 <1>   0.2700 
 39 H       -2.8750    -1.9850    -2.3080 H     1 <1>   0.1500 
 40 H       -5.9730     1.8180    -0.0800 H     1 <1>   0.4000 
 41 H       -7.0910    -3.0510     0.3850 H     1 <1>   0.0800 
 42 H       -6.3530    -4.6420     0.3280 H     1 <1>   0.0800 
 43 H       -6.9960    -3.9210    -1.1270 H     1 <1>   0.0800 
 44 H        2.9200     6.3370    -0.2550 H     1 <1>   0.1500 
 45 H       -0.6070     8.6630     0.2570 H     1 <1>   0.1500 
 46 H        0.6670    10.6960    -0.2100 H     1 <1>   0.1500 
 47 H        3.0670    10.5660    -0.7020 H     1 <1>   0.1500 
 48 H        4.9270     7.3500    -1.0440 H     1 <1>   0.0800 
 49 H        5.1990     8.6980     0.0340 H     1 <1>   0.0800 
 50 H        4.8730     8.9800    -1.6610 H     1 <1>   0.0800 
@<TRIPOS>BOND
  1   1   2  2   
  2   2   3  am  
  3   2   4  1   
  4   3   5  1   
  5   3   6  1   
  6   4   7  1   
  7   4  28  1   
  8   4  29  1   
  9   5   8  1   
 10   5  30  1   
 11   5  31  1   
 12   6   9  1   
 13   6  32  1   
 14   6  33  1   
 15   7  10  1   
 16   7  34  1   
 17   7  35  1   
 18   8  11  1   
 19   8  12  2   
 20   9  13  1   
 21   9  36  1   
 22   9  37  1   
 23  10  14  1   
 24  10  15  2   
 25  11  16  1   
 26  11  38  1   
 27  12  17  1   
 28  12  39  1   
 29  13  40  1   
 30  14  18  1   
 31  15  19  1   
 32  16  17  2   
 33  16  20  1   
 34  18  19  2   
 35  19  21  1   
 36  20  41  1   
 37  20  42  1   
 38  20  43  1   
 39  21  22  ar  
 40  21  23  ar  
 41  22  24  ar  
 42  22  44  1   
 43  23  25  ar  
 44  23  45  1   
 45  24  26  ar  
 46  24  27  1   
 47  25  26  ar  
 48  25  46  1   
 49  26  47  1   
 50  27  48  1   
 51  27  49  1   
 52  27  50  1   
@<TRIPOS>SUBSTRUCTURE
  1 ****   4 GROUP 4 **** **** 0

# MOE 2024.06 (io_trps.svl 2023.06)
