@<TRIPOS>MOLECULE
NONAME
44 46 1 0 0 
SMALL
USER_CHARGES


@<TRIPOS>ATOM
  1 N       -0.5980    -0.4680    -0.4760 N.ar  1 <1>  -0.6200 
  2 C       -1.5560     0.4380    -0.4750 C.ar  1 <1>   0.4100 
  3 C        0.5670    -0.0760    -0.0010 C.ar  1 <1>   0.4700 
  4 N       -2.7990     0.0650    -0.9500 N.pl3 1 <1>  -0.8380 
  5 C       -1.3040     1.7170    -0.0110 C.ar  1 <1>  -0.1500 
  6 N        0.9070     1.1100     0.4740 N.ar  1 <1>  -0.6200 
  7 C       -2.9610    -1.0470    -1.9540 C.3   1 <1>   0.3900 
  8 C       -4.0740     0.6840    -0.4860 C.3   1 <1>   0.1290 
  9 C       -0.0520     2.0160     0.4620 C.ar  1 <1>   0.1670 
 10 C       -3.9370    -2.1300    -1.4930 C.2   1 <1>   0.1080 
 11 C        0.2940     3.4080     0.9920 C.3   1 <1>   0.0640 
 12 N       -5.0550    -2.4060    -2.1080 N.2   1 <1>  -0.7070 
 13 C       -3.7570    -2.9370    -0.3720 C.2   1 <1>  -0.1810 
 14 C       -0.5690     3.7760     2.2070 C.3   1 <1>  -0.2400 
 15 C        0.1630     4.4730    -0.1050 C.3   1 <1>  -0.2400 
 16 N       -5.6100    -3.4000    -1.3840 N.pl3 1 <1>   0.3000 
 17 C       -4.8430    -3.7290    -0.3270 C.2   1 <1>  -0.3320 
 18 C       -2.6300    -2.9770     0.6400 C.3   1 <1>   0.0210 
 19 C       -5.1120    -4.7840     0.7290 C.3   1 <1>   0.0200 
 20 C       -2.7250    -4.2590     1.4900 C.3   1 <1>  -0.1600 
 21 C       -4.1730    -4.5610     1.9300 C.3   1 <1>  -0.1600 
 22 H        1.3460    -0.8190     0.0010 H     1 <1>   0.1500 
 23 H       -2.0740     2.4580    -0.0340 H     1 <1>   0.1500 
 24 H       -2.0170    -1.5100    -2.1750 H     1 <1>   0.0800 
 25 H       -3.3320    -0.6260    -2.8710 H     1 <1>   0.0800 
 26 H       -3.9100     1.2900     0.3860 H     1 <1>   0.0800 
 27 H       -4.7870    -0.0790    -0.2250 H     1 <1>   0.0800 
 28 H       -4.4880     1.2920    -1.2710 H     1 <1>   0.0800 
 29 H        1.3220     3.3940     1.3130 H     1 <1>   0.0800 
 30 H       -1.6060     3.8490     1.9360 H     1 <1>   0.0800 
 31 H       -0.2510     4.7180     2.6170 H     1 <1>   0.0800 
 32 H       -0.4640     3.0210     2.9670 H     1 <1>   0.0800 
 33 H       -0.8560     4.5600    -0.4380 H     1 <1>   0.0800 
 34 H        0.7780     4.2050    -0.9460 H     1 <1>   0.0800 
 35 H        0.4890     5.4290     0.2630 H     1 <1>   0.0800 
 36 H       -6.5090    -3.8270    -1.6360 H     1 <1>   0.2700 
 37 H       -2.7050    -2.1080     1.2700 H     1 <1>   0.0800 
 38 H       -1.6810    -2.9430     0.1350 H     1 <1>   0.0800 
 39 H       -4.9340    -5.7560     0.3040 H     1 <1>   0.0800 
 40 H       -6.1360    -4.7340     1.0570 H     1 <1>   0.0800 
 41 H       -2.0910    -4.1600     2.3530 H     1 <1>   0.0800 
 42 H       -2.3610    -5.0870     0.9060 H     1 <1>   0.0800 
 43 H       -4.1900    -5.4300     2.5630 H     1 <1>   0.0800 
 44 H       -4.5380    -3.7270     2.5040 H     1 <1>   0.0800 
@<TRIPOS>BOND
  1   1   2  ar  
  2   1   3  ar  
  3   2   4  1   
  4   2   5  ar  
  5   3   6  ar  
  6   3  22  1   
  7   4   7  1   
  8   4   8  1   
  9   5   9  ar  
 10   5  23  1   
 11   6   9  ar  
 12   7  10  1   
 13   7  24  1   
 14   7  25  1   
 15   8  26  1   
 16   8  27  1   
 17   8  28  1   
 18   9  11  1   
 19  10  12  2   
 20  10  13  1   
 21  11  14  1   
 22  11  15  1   
 23  11  29  1   
 24  12  16  1   
 25  13  17  2   
 26  13  18  1   
 27  14  30  1   
 28  14  31  1   
 29  14  32  1   
 30  15  33  1   
 31  15  34  1   
 32  15  35  1   
 33  16  17  1   
 34  16  36  1   
 35  17  19  1   
 36  18  20  1   
 37  18  37  1   
 38  18  38  1   
 39  19  21  1   
 40  19  39  1   
 41  19  40  1   
 42  20  21  1   
 43  20  41  1   
 44  20  42  1   
 45  21  43  1   
 46  21  44  1   
@<TRIPOS>SUBSTRUCTURE
  1 ****   4 GROUP 4 **** **** 0

# MOE 2024.06 (io_trps.svl 2023.06)
