@<TRIPOS>MOLECULE
NONAME
55 57 1 0 0 
SMALL
USER_CHARGES


@<TRIPOS>ATOM
  1 S        1.1450    -1.5710     2.3840 S.o2  1 <1>   1.4470 
  2 O        2.0200    -2.7120     2.2280 O.2   1 <1>  -0.6500 
  3 O        0.8370    -1.0720     3.7020 O.2   1 <1>  -0.6500 
  4 N       -0.3410    -2.0230     1.7550 N.am  1 <1>  -0.9140 
  5 C        1.6390    -0.2200     1.2810 C.ar  1 <1>  -0.0090 
  6 C       -0.2690    -2.9490     0.6320 C.3   1 <1>   0.2760 
  7 C        2.8130    -0.2830     0.5390 C.ar  1 <1>  -0.1500 
  8 C        0.8430     0.9100     1.1390 C.ar  1 <1>  -0.1500 
  9 C       -1.5660    -2.8980    -0.1640 C.3   1 <1>  -0.0800 
 10 C       -0.3220    -4.3890     1.1390 C.3   1 <1>   0.1200 
 11 C        3.1760     0.7420    -0.3180 C.ar  1 <1>  -0.1500 
 12 C        1.2000     1.9390     0.2840 C.ar  1 <1>  -0.1500 
 13 C       -2.4860    -3.8470     0.6150 C.3   1 <1>   0.1200 
 14 C       -2.1540    -1.4930    -0.3960 C.3   1 <1>  -0.0170 
 15 O       -1.6630    -4.6100     1.4510 O.3   1 <1>  -0.5600 
 16 C        2.3690     1.8590    -0.4520 C.ar  1 <1>  -0.1430 
 17 C       -3.3920    -1.5640    -1.2740 C.ar  1 <1>  -0.1430 
 18 C        2.7670     2.9890    -1.3900 C.3   1 <1>  -0.0170 
 19 C       -4.6660    -1.5390    -0.7430 C.ar  1 <1>  -0.1500 
 20 C       -3.3040    -1.6590    -2.6480 C.ar  1 <1>  -0.1500 
 21 C        3.6220     4.0250    -0.6520 C.3   1 <1>  -0.1600 
 22 C       -5.7600    -1.6140    -1.5890 C.ar  1 <1>   0.1600 
 23 C       -4.4620    -1.7290    -3.4040 C.ar  1 <1>   0.1600 
 24 C        4.0350     5.1770    -1.5780 C.3   1 <1>  -0.1600 
 25 N       -5.6870    -1.7110    -2.9060 N.ar  1 <1>  -0.6200 
 26 C        4.8890     6.2070    -0.8300 C.3   1 <1>  -0.1600 
 27 C        5.3000     7.3570    -1.7530 C.3   1 <1>  -0.2400 
 28 H       -0.7990    -2.5340     2.5100 H     1 <1>   0.4200 
 29 H        0.5900    -2.7530     0.0120 H     1 <1>   0.0800 
 30 H        3.4540    -1.1430     0.6320 H     1 <1>   0.1500 
 31 H       -0.0680     0.9850     1.7080 H     1 <1>   0.1500 
 32 H       -1.3810    -3.3480    -1.1230 H     1 <1>   0.0800 
 33 H        0.2860    -4.5630     2.0090 H     1 <1>   0.0800 
 34 H       -0.0460    -5.0780     0.3600 H     1 <1>   0.0800 
 35 H        4.0920     0.6680    -0.8790 H     1 <1>   0.1500 
 36 H        0.5640     2.8030     0.1970 H     1 <1>   0.1500 
 37 H       -3.0300    -4.5050    -0.0410 H     1 <1>   0.0800 
 38 H       -3.1740    -3.3070     1.2430 H     1 <1>   0.0800 
 39 H       -1.4160    -0.8690    -0.8700 H     1 <1>   0.0800 
 40 H       -2.4110    -1.0310     0.5420 H     1 <1>   0.0800 
 41 H        3.3190     2.5880    -2.2230 H     1 <1>   0.0800 
 42 H        1.8820     3.4600    -1.7820 H     1 <1>   0.0800 
 43 H       -4.8200    -1.4610     0.3170 H     1 <1>   0.1500 
 44 H       -2.3480    -1.6790    -3.1380 H     1 <1>   0.1500 
 45 H        3.0620     4.4150     0.1800 H     1 <1>   0.0800 
 46 H        4.5020     3.5430    -0.2630 H     1 <1>   0.0800 
 47 H       -6.7480    -1.5940    -1.1600 H     1 <1>   0.1500 
 48 H       -4.3760    -1.8030    -4.4750 H     1 <1>   0.1500 
 49 H        4.5960     4.7870    -2.4100 H     1 <1>   0.0800 
 50 H        3.1540     5.6600    -1.9660 H     1 <1>   0.0800 
 51 H        4.3320     6.6040     0.0020 H     1 <1>   0.0800 
 52 H        5.7740     5.7310    -0.4420 H     1 <1>   0.0800 
 53 H        4.4310     7.8620    -2.1350 H     1 <1>   0.0800 
 54 H        5.8780     6.9860    -2.5810 H     1 <1>   0.0800 
 55 H        5.8980     8.0680    -1.2110 H     1 <1>   0.0800 
@<TRIPOS>BOND
  1   1   2  2   
  2   1   3  2   
  3   1   4  am  
  4   1   5  1   
  5   4   6  1   
  6   4  28  1   
  7   5   7  ar  
  8   5   8  ar  
  9   6   9  1   
 10   6  10  1   
 11   6  29  1   
 12   7  11  ar  
 13   7  30  1   
 14   8  12  ar  
 15   8  31  1   
 16   9  13  1   
 17   9  14  1   
 18   9  32  1   
 19  10  15  1   
 20  10  33  1   
 21  10  34  1   
 22  11  16  ar  
 23  11  35  1   
 24  12  16  ar  
 25  12  36  1   
 26  13  15  1   
 27  13  37  1   
 28  13  38  1   
 29  14  17  1   
 30  14  39  1   
 31  14  40  1   
 32  16  18  1   
 33  17  19  ar  
 34  17  20  ar  
 35  18  21  1   
 36  18  41  1   
 37  18  42  1   
 38  19  22  ar  
 39  19  43  1   
 40  20  23  ar  
 41  20  44  1   
 42  21  24  1   
 43  21  45  1   
 44  21  46  1   
 45  22  25  ar  
 46  22  47  1   
 47  23  25  ar  
 48  23  48  1   
 49  24  26  1   
 50  24  49  1   
 51  24  50  1   
 52  26  27  1   
 53  26  51  1   
 54  26  52  1   
 55  27  53  1   
 56  27  54  1   
 57  27  55  1   
@<TRIPOS>SUBSTRUCTURE
  1 ****   8 GROUP 4 **** **** 0

# MOE 2024.06 (io_trps.svl 2023.06)
