@<TRIPOS>MOLECULE
NONAME
47 49 1 0 0 
SMALL
USER_CHARGES


@<TRIPOS>ATOM
  1 CL       1.0900     0.8200     2.8600 Cl    1 <1>  -0.1770 
  2 C        2.0240    -0.0130     1.6420 C.ar  1 <1>   0.1770 
  3 C        3.3190     0.3890     1.3800 C.ar  1 <1>  -0.1500 
  4 C        1.4480    -1.0640     0.9560 C.ar  1 <1>  -0.1500 
  5 C        4.0660    -0.2690     0.4110 C.ar  1 <1>  -0.1440 
  6 C        2.1860    -1.7270    -0.0100 C.ar  1 <1>  -0.1500 
  7 C        3.4960    -1.3350    -0.2860 C.ar  1 <1>   0.0830 
  8 C        5.5000     0.1820     0.1350 C.3   1 <1>   0.3530 
  9 O        4.2600    -1.9600    -1.2210 O.3   1 <1>  -0.3630 
 10 N        5.5650     1.6600    -0.0470 N.pl3 1 <1>  -0.8380 
 11 C        3.7800    -3.0570    -1.9670 C.3   1 <1>   0.0400 
 12 C        6.5730     2.3890     0.5560 C.ar  1 <1>   0.4100 
 13 C        4.6880     2.2260    -1.1060 C.3   1 <1>   0.1290 
 14 N        7.7770     1.8180     0.4960 N.ar  1 <1>  -0.6200 
 15 C        6.3410     3.6340     1.1770 C.ar  1 <1>   0.0860 
 16 C        8.7780     2.4700     1.0520 C.ar  1 <1>   0.1600 
 17 C        5.0340     4.2320     1.2330 C.2   1 <1>   0.5440 
 18 C        7.4210     4.2890     1.7510 C.ar  1 <1>  -0.1500 
 19 C        8.6590     3.6940     1.6840 C.ar  1 <1>  -0.1500 
 20 O        4.2040     3.8370     2.0330 O.2   1 <1>  -0.5700 
 21 N        4.7070     5.2930     0.4190 N.am  1 <1>  -0.6600 
 22 C        5.5860     5.8950    -0.6060 C.3   1 <1>   0.1400 
 23 C        3.3510     5.8770     0.3750 C.3   1 <1>   0.1400 
 24 C        4.6320     6.6430    -1.5290 C.3   1 <1>  -0.1600 
 25 C        3.4470     7.0130    -0.6390 C.3   1 <1>  -0.1600 
 26 H        3.7380     1.2160     1.9280 H     1 <1>   0.1500 
 27 H        0.4380    -1.3540     1.1790 H     1 <1>   0.1500 
 28 H        1.7230    -2.5410    -0.5320 H     1 <1>   0.1500 
 29 H        5.8990    -0.2870    -0.7470 H     1 <1>   0.0800 
 30 H        6.1160    -0.1090     0.9670 H     1 <1>   0.0800 
 31 H        4.5630    -3.3780    -2.6310 H     1 <1>   0.0800 
 32 H        2.9240    -2.7440    -2.5380 H     1 <1>   0.0800 
 33 H        3.5240    -3.8550    -1.2920 H     1 <1>   0.0800 
 34 H        4.5900     1.5240    -1.9170 H     1 <1>   0.0800 
 35 H        5.1070     3.1380    -1.4900 H     1 <1>   0.0800 
 36 H        3.7140     2.4300    -0.6970 H     1 <1>   0.0800 
 37 H        9.7480     2.0050     1.0030 H     1 <1>   0.1500 
 38 H        7.2800     5.2370     2.2410 H     1 <1>   0.1500 
 39 H        9.5230     4.1640     2.1170 H     1 <1>   0.1500 
 40 H        6.1480     5.1450    -1.1370 H     1 <1>   0.0800 
 41 H        6.2600     6.5840    -0.1270 H     1 <1>   0.0800 
 42 H        3.0590     6.2320     1.3500 H     1 <1>   0.0800 
 43 H        2.6560     5.1240     0.0450 H     1 <1>   0.0800 
 44 H        4.3080     5.9780    -2.3100 H     1 <1>   0.0800 
 45 H        5.0970     7.5060    -1.9730 H     1 <1>   0.0800 
 46 H        3.6540     7.9290    -0.1150 H     1 <1>   0.0800 
 47 H        2.5340     7.1270    -1.1960 H     1 <1>   0.0800 
@<TRIPOS>BOND
  1   1   2  1   
  2   2   3  ar  
  3   2   4  ar  
  4   3   5  ar  
  5   3  26  1   
  6   4   6  ar  
  7   4  27  1   
  8   5   7  ar  
  9   5   8  1   
 10   6   7  ar  
 11   6  28  1   
 12   7   9  1   
 13   8  10  1   
 14   8  29  1   
 15   8  30  1   
 16   9  11  1   
 17  10  12  1   
 18  10  13  1   
 19  11  31  1   
 20  11  32  1   
 21  11  33  1   
 22  12  14  ar  
 23  12  15  ar  
 24  13  34  1   
 25  13  35  1   
 26  13  36  1   
 27  14  16  ar  
 28  15  17  1   
 29  15  18  ar  
 30  16  19  ar  
 31  16  37  1   
 32  17  20  2   
 33  17  21  am  
 34  18  19  ar  
 35  18  38  1   
 36  19  39  1   
 37  21  22  1   
 38  21  23  1   
 39  22  24  1   
 40  22  40  1   
 41  22  41  1   
 42  23  25  1   
 43  23  42  1   
 44  23  43  1   
 45  24  25  1   
 46  24  44  1   
 47  24  45  1   
 48  25  46  1   
 49  25  47  1   
@<TRIPOS>SUBSTRUCTURE
  1 ****  10 GROUP 4 **** **** 0

# MOE 2024.06 (io_trps.svl 2023.06)
