@<TRIPOS>MOLECULE
NONAME
55 58 1 0 0 
SMALL
USER_CHARGES


@<TRIPOS>ATOM
  1 CL      -3.2490     2.4750    -2.9730 Cl    1 <1>  -0.1230 
  2 C       -2.6450     3.2610    -1.5270 C.2   1 <1>   0.3500 
  3 N       -2.0970     4.4770    -1.5960 N.2   1 <1>  -0.5650 
  4 C       -2.6780     2.7700    -0.2720 C.2   1 <1>  -0.3320 
  5 C       -1.7700     4.7210    -0.3680 C.2   1 <1>   0.0060 
  6 N       -2.0930     3.7230     0.4910 N.pl3 1 <1>   0.0330 
  7 C       -3.2290     1.4590     0.2260 C.3   1 <1>   0.5230 
  8 C       -1.0890     6.0030     0.0810 C.3   1 <1>   0.0200 
  9 N       -4.5690     1.2870    -0.3740 N.4   1 <1>  -0.9590 
 10 C        0.3470     5.7370     0.5520 C.3   1 <1>  -0.1600 
 11 C       -5.5400     2.3190     0.1330 C.3   1 <1>   0.3430 
 12 C       -5.0980    -0.0940    -0.1990 C.3   1 <1>   0.3430 
 13 C        1.0440     7.0320     0.9860 C.3   1 <1>  -0.1600 
 14 C       -6.8900     2.2470    -0.5990 C.3   1 <1>   0.1430 
 15 C       -6.4110    -0.2390    -0.9740 C.3   1 <1>  -0.1600 
 16 C        2.4760     6.7560     1.4540 C.3   1 <1>  -0.2400 
 17 C       -7.8440     3.2050     0.0720 C.ar  1 <1>   0.1670 
 18 C       -7.4540     0.8110    -0.5470 C.3   1 <1>  -0.1600 
 19 C       -6.8230     2.8010    -2.0480 C.3   1 <1>  -0.1600 
 20 N       -8.0190     3.2920     1.3700 N.ar  1 <1>  -0.6200 
 21 C       -8.4970     3.9860    -0.8300 C.ar  1 <1>  -0.1430 
 22 C       -8.0800     3.6720    -2.2450 C.3   1 <1>  -0.0170 
 23 C       -8.9120     4.2060     1.7330 C.ar  1 <1>   0.4770 
 24 C       -9.3940     4.9040    -0.3430 C.ar  1 <1>   0.1600 
 25 N       -9.6080     5.0190     0.9510 N.ar  1 <1>  -0.6200 
 26 C       -9.1710     4.3450     3.2140 C.3   1 <1>  -0.0970 
 27 H       -1.9040     3.7320     1.5000 H     1 <1>   0.2700 
 28 H       -3.3020     1.4610     1.3020 H     1 <1>   0.0800 
 29 H       -2.5750     0.6560    -0.0770 H     1 <1>   0.0800 
 30 H       -1.6610     6.4550     0.8710 H     1 <1>   0.0800 
 31 H       -1.0700     6.6910    -0.7470 H     1 <1>   0.0800 
 32 H       -4.4520     1.4530    -1.3840 H     1 <1>   0.4500 
 33 H        0.9000     5.2880    -0.2570 H     1 <1>   0.0800 
 34 H        0.3390     5.0450     1.3750 H     1 <1>   0.0800 
 35 H       -5.1340     3.3100     0.0100 H     1 <1>   0.0800 
 36 H       -5.7170     2.1630     1.1850 H     1 <1>   0.0800 
 37 H       -5.2750    -0.2900     0.8460 H     1 <1>   0.0800 
 38 H       -4.3850    -0.8160    -0.5670 H     1 <1>   0.0800 
 39 H        0.4940     7.4940     1.7880 H     1 <1>   0.0800 
 40 H        1.0720     7.7240     0.1600 H     1 <1>   0.0800 
 41 H       -6.8120    -1.2220    -0.7970 H     1 <1>   0.0800 
 42 H       -6.2140    -0.1640    -2.0290 H     1 <1>   0.0800 
 43 H        2.4770     6.0860     2.2950 H     1 <1>   0.0800 
 44 H        2.9500     7.6750     1.7500 H     1 <1>   0.0800 
 45 H        3.0530     6.3170     0.6590 H     1 <1>   0.0800 
 46 H       -8.3310     0.7360    -1.1680 H     1 <1>   0.0800 
 47 H       -7.7640     0.5970     0.4630 H     1 <1>   0.0800 
 48 H       -6.7650     2.0300    -2.7950 H     1 <1>   0.0800 
 49 H       -5.9640     3.4410    -2.1520 H     1 <1>   0.0800 
 50 H       -8.8600     3.1160    -2.7370 H     1 <1>   0.0800 
 51 H       -7.8610     4.5650    -2.8050 H     1 <1>   0.0800 
 52 H       -9.9410     5.5480    -1.0110 H     1 <1>   0.1500 
 53 H       -8.6700     3.5700     3.7630 H     1 <1>   0.0800 
 54 H      -10.2270     4.2790     3.4010 H     1 <1>   0.0800 
 55 H       -8.8150     5.3020     3.5490 H     1 <1>   0.0800 
@<TRIPOS>BOND
  1   1   2  1   
  2   2   3  1   
  3   2   4  2   
  4   3   5  2   
  5   4   6  1   
  6   4   7  1   
  7   5   6  1   
  8   5   8  1   
  9   6  27  1   
 10   7   9  1   
 11   7  28  1   
 12   7  29  1   
 13   8  10  1   
 14   8  30  1   
 15   8  31  1   
 16   9  11  1   
 17   9  12  1   
 18   9  32  1   
 19  10  13  1   
 20  10  33  1   
 21  10  34  1   
 22  11  14  1   
 23  11  35  1   
 24  11  36  1   
 25  12  15  1   
 26  12  37  1   
 27  12  38  1   
 28  13  16  1   
 29  13  39  1   
 30  13  40  1   
 31  14  17  1   
 32  14  18  1   
 33  14  19  1   
 34  15  18  1   
 35  15  41  1   
 36  15  42  1   
 37  16  43  1   
 38  16  44  1   
 39  16  45  1   
 40  17  20  ar  
 41  17  21  ar  
 42  18  46  1   
 43  18  47  1   
 44  19  22  1   
 45  19  48  1   
 46  19  49  1   
 47  20  23  ar  
 48  21  22  1   
 49  21  24  ar  
 50  22  50  1   
 51  22  51  1   
 52  23  25  ar  
 53  23  26  1   
 54  24  25  ar  
 55  24  52  1   
 56  26  53  1   
 57  26  54  1   
 58  26  55  1   
@<TRIPOS>SUBSTRUCTURE
  1 ****  11 GROUP 4 **** **** 0

# MOE 2024.06 (io_trps.svl 2023.06)
