@<TRIPOS>MOLECULE
NONAME
59 61 1 0 0 
SMALL
USER_CHARGES


@<TRIPOS>ATOM
  1 S       -0.0380     0.9080     0.3190 S.3   1 <1>  -0.0800 
  2 C        0.7910    -0.6100     0.6380 C.2   1 <1>  -0.1400 
  3 C        1.2090     1.4090    -0.8150 C.2   1 <1>  -0.1400 
  4 C        1.9290    -0.6790    -0.0770 C.2   1 <1>  -0.1500 
  5 C        0.1460    -1.5820     1.6120 C.3   1 <1>   0.5230 
  6 C        2.1660     0.4650    -0.9040 C.2   1 <1>  -0.1500 
  7 C        1.0380     2.7520    -1.5010 C.3   1 <1>   0.5230 
  8 N       -1.1190    -2.0840     1.0400 N.4   1 <1>  -0.9590 
  9 N        1.1150     3.8350    -0.4860 N.4   1 <1>  -0.9590 
 10 C       -0.8820    -2.8800    -0.2150 C.3   1 <1>   0.3430 
 11 C       -1.9090    -2.8690     2.0390 C.3   1 <1>   0.3430 
 12 C        0.7070     5.1490    -1.0610 C.3   1 <1>   0.3430 
 13 C        2.4640     3.8980     0.1530 C.3   1 <1>   0.3430 
 14 C       -2.2390    -3.2320    -0.8560 C.3   1 <1>   0.2000 
 15 C       -3.2560    -3.2960     1.4380 C.3   1 <1>  -0.1600 
 16 C        0.6620     6.2040     0.0460 C.3   1 <1>  -0.1600 
 17 C        2.4490     4.9280     1.2830 C.3   1 <1>  -0.1600 
 18 O       -2.9030    -2.0280    -1.1140 O.3   1 <1>  -0.6800 
 19 C       -3.0480    -4.1120     0.1290 C.3   1 <1>  -0.1060 
 20 C        2.0000     6.3090     0.7890 C.3   1 <1>  -0.1600 
 21 C       -2.1420    -5.3260     0.4220 C.2   1 <1>   0.9060 
 22 C       -4.3880    -4.6550    -0.4460 C.3   1 <1>  -0.1600 
 23 O       -2.0340    -5.7360     1.5810 O.co2 1 <1>  -0.9000 
 24 O       -1.4210    -5.7530    -0.4840 O.co2 1 <1>  -0.9000 
 25 C       -5.5130    -3.6460    -0.7490 C.3   1 <1>  -0.1600 
 26 C       -6.7950    -4.3790    -1.1520 C.3   1 <1>  -0.2400 
 27 H        2.6300    -1.5000    -0.0720 H     1 <1>   0.1500 
 28 H       -0.0470    -1.0780     2.5450 H     1 <1>   0.0800 
 29 H        0.8110    -2.4090     1.8010 H     1 <1>   0.0800 
 30 H        3.0460     0.5060    -1.5260 H     1 <1>   0.1500 
 31 H        0.0800     2.7740    -1.9960 H     1 <1>   0.0800 
 32 H        1.8090     2.8840    -2.2430 H     1 <1>   0.0800 
 33 H       -1.7060    -1.3010     0.7200 H     1 <1>   0.4500 
 34 H        0.4450     3.5940     0.2550 H     1 <1>   0.4500 
 35 H       -0.3080    -2.3090    -0.9230 H     1 <1>   0.0800 
 36 H       -0.3350    -3.7820     0.0090 H     1 <1>   0.0800 
 37 H       -1.3550    -3.7470     2.3350 H     1 <1>   0.0800 
 38 H       -2.0880    -2.2760     2.9210 H     1 <1>   0.0800 
 39 H        1.4140     5.4530    -1.8160 H     1 <1>   0.0800 
 40 H       -0.2670     5.0700    -1.5180 H     1 <1>   0.0800 
 41 H        2.7320     2.9330     0.5540 H     1 <1>   0.0800 
 42 H        3.2040     4.1780    -0.5790 H     1 <1>   0.0800 
 43 H       -2.0850    -3.7450    -1.7920 H     1 <1>   0.0800 
 44 H       -3.7700    -3.9100     2.1590 H     1 <1>   0.0800 
 45 H       -3.8600    -2.4240     1.2720 H     1 <1>   0.0800 
 46 H        0.4220     7.1600    -0.3880 H     1 <1>   0.0800 
 47 H       -0.1250     5.9620     0.7400 H     1 <1>   0.0800 
 48 H        1.7960     4.5880     2.0680 H     1 <1>   0.0800 
 49 H        3.4390     5.0050     1.7010 H     1 <1>   0.0800 
 50 H       -3.7880    -2.2410    -1.4740 H     1 <1>   0.4000 
 51 H        1.9040     6.9840     1.6240 H     1 <1>   0.0800 
 52 H        2.7480     6.7150     0.1270 H     1 <1>   0.0800 
 53 H       -4.1690    -5.2080    -1.3450 H     1 <1>   0.0800 
 54 H       -4.7680    -5.3710     0.2640 H     1 <1>   0.0800 
 55 H       -5.7240    -3.0450     0.1180 H     1 <1>   0.0800 
 56 H       -5.2360    -3.0000    -1.5590 H     1 <1>   0.0800 
 57 H       -7.1310    -5.0190    -0.3530 H     1 <1>   0.0800 
 58 H       -6.6250    -4.9820    -2.0270 H     1 <1>   0.0800 
 59 H       -7.5740    -3.6700    -1.3710 H     1 <1>   0.0800 
@<TRIPOS>BOND
  1   1   2  1   
  2   1   3  1   
  3   2   4  2   
  4   2   5  1   
  5   3   6  2   
  6   3   7  1   
  7   4   6  1   
  8   4  27  1   
  9   5   8  1   
 10   5  28  1   
 11   5  29  1   
 12   6  30  1   
 13   7   9  1   
 14   7  31  1   
 15   7  32  1   
 16   8  10  1   
 17   8  11  1   
 18   8  33  1   
 19   9  12  1   
 20   9  13  1   
 21   9  34  1   
 22  10  14  1   
 23  10  35  1   
 24  10  36  1   
 25  11  15  1   
 26  11  37  1   
 27  11  38  1   
 28  12  16  1   
 29  12  39  1   
 30  12  40  1   
 31  13  17  1   
 32  13  41  1   
 33  13  42  1   
 34  14  18  1   
 35  14  19  1   
 36  14  43  1   
 37  15  19  1   
 38  15  44  1   
 39  15  45  1   
 40  16  20  1   
 41  16  46  1   
 42  16  47  1   
 43  17  20  1   
 44  17  48  1   
 45  17  49  1   
 46  18  50  1   
 47  19  21  1   
 48  19  22  1   
 49  20  51  1   
 50  20  52  1   
 51  21  23  ar  
 52  21  24  ar  
 53  22  25  1   
 54  22  53  1   
 55  22  54  1   
 56  25  26  1   
 57  25  55  1   
 58  25  56  1   
 59  26  57  1   
 60  26  58  1   
 61  26  59  1   
@<TRIPOS>SUBSTRUCTURE
  1 ****   2 GROUP 4 **** **** 0

# MOE 2024.06 (io_trps.svl 2023.06)
