@<TRIPOS>MOLECULE
NONAME
46 49 1 0 0 
SMALL
USER_CHARGES


@<TRIPOS>ATOM
  1 F       -0.8390    -0.5320     0.4570 F     1 <1>  -0.1900 
  2 C       -1.9780    -1.0330     0.0230 C.ar  1 <1>   0.1900 
  3 C       -3.1370    -0.2640    -0.0590 C.ar  1 <1>   0.4100 
  4 C       -2.0170    -2.3410    -0.3660 C.ar  1 <1>   0.1600 
  5 N       -4.2440    -0.8150    -0.5200 N.ar  1 <1>  -0.6200 
  6 N       -3.2140     1.0760     0.3180 N.pl3 1 <1>  -0.8380 
  7 N       -3.1240    -2.8940    -0.8180 N.ar  1 <1>  -0.6200 
  8 C       -4.1910    -2.0940    -0.8810 C.ar  1 <1>   0.7200 
  9 C       -2.5950     1.5660     1.5790 C.3   1 <1>   0.1290 
 10 C       -4.2310     1.9790    -0.2880 C.3   1 <1>   0.1290 
 11 N       -5.3620    -2.6520    -1.3610 N.pl3 1 <1>  -0.8380 
 12 C       -5.4500    -4.1050    -1.7150 C.3   1 <1>   0.2090 
 13 C       -6.6950    -2.1470    -0.8940 C.3   1 <1>   0.2090 
 14 C       -5.9020    -4.9380    -0.5000 C.3   1 <1>   0.2090 
 15 C       -7.1840    -2.9440     0.3310 C.3   1 <1>   0.2090 
 16 N       -7.1890    -4.4250     0.0770 N.pl3 1 <1>  -0.8380 
 17 C       -8.3630    -5.0860    -0.1940 C.ar  1 <1>   0.4100 
 18 N       -9.2290    -4.4710    -0.9480 N.ar  1 <1>  -0.6200 
 19 C       -8.5980    -6.3920     0.3090 C.ar  1 <1>   0.0000 
 20 C      -10.3310    -5.1570    -1.2690 C.ar  1 <1>   0.4700 
 21 C       -9.7810    -7.0070    -0.1140 C.ar  1 <1>   0.3100 
 22 C       -7.7550    -7.0930     1.1950 C.ar  1 <1>  -0.1500 
 23 N      -10.6510    -6.3620    -0.9190 N.ar  1 <1>  -0.6200 
 24 C      -10.0700    -8.3080     0.3180 C.ar  1 <1>  -0.1500 
 25 C       -8.0580    -8.3640     1.6110 C.ar  1 <1>  -0.1500 
 26 C       -9.2270    -8.9830     1.1630 C.ar  1 <1>  -0.1500 
 27 H       -1.1290    -2.9440    -0.3070 H     1 <1>   0.1500 
 28 H       -2.2550     0.7400     2.1790 H     1 <1>   0.0800 
 29 H       -3.3140     2.1270     2.1500 H     1 <1>   0.0800 
 30 H       -1.7560     2.1990     1.3460 H     1 <1>   0.0800 
 31 H       -4.4640     1.6570    -1.2890 H     1 <1>   0.0800 
 32 H       -3.8510     2.9840    -0.3330 H     1 <1>   0.0800 
 33 H       -5.1310     1.9600     0.3010 H     1 <1>   0.0800 
 34 H       -4.5070    -4.4720    -2.0810 H     1 <1>   0.0800 
 35 H       -6.1690    -4.2280    -2.5060 H     1 <1>   0.0800 
 36 H       -7.4110    -2.2600    -1.6880 H     1 <1>   0.0800 
 37 H       -6.6540    -1.1010    -0.6470 H     1 <1>   0.0800 
 38 H       -5.1360    -4.9010     0.2540 H     1 <1>   0.0800 
 39 H       -6.0220    -5.9620    -0.8060 H     1 <1>   0.0800 
 40 H       -8.1740    -2.6170     0.5950 H     1 <1>   0.0800 
 41 H       -6.5360    -2.7330     1.1640 H     1 <1>   0.0800 
 42 H      -11.0260    -4.6300    -1.9010 H     1 <1>   0.1500 
 43 H       -6.8640    -6.6070     1.5500 H     1 <1>   0.1500 
 44 H      -10.9790    -8.7610    -0.0340 H     1 <1>   0.1500 
 45 H       -7.4060    -8.8930     2.2840 H     1 <1>   0.1500 
 46 H       -9.4560    -9.9820     1.4910 H     1 <1>   0.1500 
@<TRIPOS>BOND
  1   1   2  1   
  2   2   3  ar  
  3   2   4  ar  
  4   3   5  ar  
  5   3   6  1   
  6   4   7  ar  
  7   4  27  1   
  8   5   8  ar  
  9   6   9  1   
 10   6  10  1   
 11   7   8  ar  
 12   8  11  1   
 13   9  28  1   
 14   9  29  1   
 15   9  30  1   
 16  10  31  1   
 17  10  32  1   
 18  10  33  1   
 19  11  12  1   
 20  11  13  1   
 21  12  14  1   
 22  12  34  1   
 23  12  35  1   
 24  13  15  1   
 25  13  36  1   
 26  13  37  1   
 27  14  16  1   
 28  14  38  1   
 29  14  39  1   
 30  15  16  1   
 31  15  40  1   
 32  15  41  1   
 33  16  17  1   
 34  17  18  ar  
 35  17  19  ar  
 36  18  20  ar  
 37  19  21  ar  
 38  19  22  ar  
 39  20  23  ar  
 40  20  42  1   
 41  21  23  ar  
 42  21  24  ar  
 43  22  25  ar  
 44  22  43  1   
 45  24  26  ar  
 46  24  44  1   
 47  25  26  ar  
 48  25  45  1   
 49  26  46  1   
@<TRIPOS>SUBSTRUCTURE
  1 ****  15 GROUP 4 **** **** 0

# MOE 2024.06 (io_trps.svl 2023.06)
