@<TRIPOS>MOLECULE
NONAME
58 62 1 0 0 
SMALL
USER_CHARGES


@<TRIPOS>ATOM
  1 O       -0.3790    -1.7770    -2.5790 O.2   1 <1>  -0.5700 
  2 C        0.4960    -2.4130    -2.0290 C.2   1 <1>   0.6900 
  3 N        0.3450    -3.2350    -0.9440 N.am  1 <1>  -0.4770 
  4 N        1.7770    -2.3530    -2.4250 N.am  1 <1>  -0.7300 
  5 C       -0.7940    -3.4490    -0.1470 C.ar  1 <1>   0.1170 
  6 C        1.6770    -3.7680    -0.5540 C.3   1 <1>   0.1400 
  7 C        2.6650    -3.1010    -1.5270 C.3   1 <1>   0.1400 
  8 C       -1.0140    -4.6830     0.4540 C.ar  1 <1>  -0.1500 
  9 C       -1.7200    -2.4360     0.0770 C.ar  1 <1>  -0.1500 
 10 C       -2.1160    -4.9280     1.2680 C.ar  1 <1>   0.0860 
 11 C       -2.8200    -2.6480     0.8870 C.ar  1 <1>  -0.1500 
 12 C       -2.3060    -6.2310     1.8780 C.2   1 <1>   0.5440 
 13 C       -3.0120    -3.8810     1.4810 C.ar  1 <1>  -0.1500 
 14 O       -1.3890    -6.7160     2.5140 O.2   1 <1>  -0.5700 
 15 N       -3.4870    -6.9360     1.7500 N.am  1 <1>  -0.6600 
 16 C       -3.7640    -8.1620     2.5520 C.3   1 <1>   0.1400 
 17 C       -4.5130    -6.6600     0.7060 C.3   1 <1>   0.1400 
 18 C       -3.8510    -9.3750     1.6220 C.3   1 <1>  -0.1600 
 19 C       -4.6050    -7.8550    -0.2470 C.3   1 <1>  -0.1600 
 20 C       -4.8860    -9.1740     0.5010 C.3   1 <1>   0.4240 
 21 O       -6.1040    -8.9960     1.1930 O.3   1 <1>  -0.5600 
 22 C       -4.9430   -10.4020    -0.4540 C.ar  1 <1>  -0.1430 
 23 C       -7.2860    -9.2260     0.5010 C.3   1 <1>   0.1200 
 24 C       -3.8350   -10.8140    -1.2080 C.ar  1 <1>   0.0830 
 25 C       -6.1270   -11.1280    -0.5810 C.ar  1 <1>  -0.1430 
 26 C       -7.3650   -10.7120     0.1860 C.3   1 <1>  -0.0170 
 27 O       -2.6770   -10.1080    -1.1190 O.3   1 <1>  -0.3620 
 28 C       -3.9270   -11.9290    -2.0400 C.ar  1 <1>  -0.1500 
 29 C       -6.2060   -12.2360    -1.4080 C.ar  1 <1>  -0.1500 
 30 C       -1.4700   -10.5400    -1.7050 C.3   1 <1>   0.0400 
 31 C       -5.1060   -12.6380    -2.1370 C.ar  1 <1>  -0.1500 
 32 H        2.0860    -1.6480    -3.0940 H     1 <1>   0.3700 
 33 H        1.6980    -4.8370    -0.6710 H     1 <1>   0.0800 
 34 H        1.9020    -3.5080     0.4650 H     1 <1>   0.0800 
 35 H        3.3270    -2.4310    -1.0050 H     1 <1>   0.0800 
 36 H        3.2320    -3.8350    -2.0720 H     1 <1>   0.0800 
 37 H       -0.3220    -5.4880     0.2920 H     1 <1>   0.1500 
 38 H       -1.5770    -1.4740    -0.3810 H     1 <1>   0.1500 
 39 H       -3.5230    -1.8500     1.0540 H     1 <1>   0.1500 
 40 H       -3.8620    -4.0430     2.1200 H     1 <1>   0.1500 
 41 H       -4.6940    -8.0340     3.0780 H     1 <1>   0.0800 
 42 H       -2.9910    -8.3220     3.2840 H     1 <1>   0.0800 
 43 H       -4.2640    -5.7820     0.1380 H     1 <1>   0.0800 
 44 H       -5.4640    -6.4940     1.1830 H     1 <1>   0.0800 
 45 H       -4.1130   -10.2490     2.1880 H     1 <1>   0.0800 
 46 H       -2.8720    -9.5400     1.2190 H     1 <1>   0.0800 
 47 H       -3.6720    -7.9180    -0.7710 H     1 <1>   0.0800 
 48 H       -5.3630    -7.6820    -0.9850 H     1 <1>   0.0800 
 49 H       -7.2980    -8.6350    -0.3980 H     1 <1>   0.0800 
 50 H       -8.1040    -8.9300     1.1330 H     1 <1>   0.0800 
 51 H       -8.2490   -10.9030    -0.3950 H     1 <1>   0.0800 
 52 H       -7.4320   -11.2710     1.1030 H     1 <1>   0.0800 
 53 H       -3.0930   -12.2620    -2.6250 H     1 <1>   0.1500 
 54 H       -7.1250   -12.7900    -1.4890 H     1 <1>   0.1500 
 55 H       -0.6970    -9.8500    -1.4190 H     1 <1>   0.0800 
 56 H       -1.5810   -10.5410    -2.7740 H     1 <1>   0.0800 
 57 H       -1.2360   -11.5240    -1.3370 H     1 <1>   0.0800 
 58 H       -5.1710   -13.4990    -2.7790 H     1 <1>   0.1500 
@<TRIPOS>BOND
  1   1   2  2   
  2   2   3  am  
  3   2   4  am  
  4   3   5  1   
  5   3   6  1   
  6   4   7  1   
  7   4  32  1   
  8   5   8  ar  
  9   5   9  ar  
 10   6   7  1   
 11   6  33  1   
 12   6  34  1   
 13   7  35  1   
 14   7  36  1   
 15   8  10  ar  
 16   8  37  1   
 17   9  11  ar  
 18   9  38  1   
 19  10  12  1   
 20  10  13  ar  
 21  11  13  ar  
 22  11  39  1   
 23  12  14  2   
 24  12  15  am  
 25  13  40  1   
 26  15  16  1   
 27  15  17  1   
 28  16  18  1   
 29  16  41  1   
 30  16  42  1   
 31  17  19  1   
 32  17  43  1   
 33  17  44  1   
 34  18  20  1   
 35  18  45  1   
 36  18  46  1   
 37  19  20  1   
 38  19  47  1   
 39  19  48  1   
 40  20  21  1   
 41  20  22  1   
 42  21  23  1   
 43  22  24  ar  
 44  22  25  ar  
 45  23  26  1   
 46  23  49  1   
 47  23  50  1   
 48  24  27  1   
 49  24  28  ar  
 50  25  26  1   
 51  25  29  ar  
 52  26  51  1   
 53  26  52  1   
 54  27  30  1   
 55  28  31  ar  
 56  28  53  1   
 57  29  31  ar  
 58  29  54  1   
 59  30  55  1   
 60  30  56  1   
 61  30  57  1   
 62  31  58  1   
@<TRIPOS>SUBSTRUCTURE
  1 ****  17 GROUP 4 **** **** 0

# MOE 2024.06 (io_trps.svl 2023.06)
