@<TRIPOS>MOLECULE
NONAME
53 56 1 0 0 
SMALL
USER_CHARGES


@<TRIPOS>ATOM
  1 O        1.1230    -0.4870     1.3650 O.2   1 <1>  -0.5700 
  2 C        1.6550    -0.7500     0.3080 C.2   1 <1>   0.5690 
  3 N        2.5130     0.1690    -0.2730 N.am  1 <1>  -0.6600 
  4 C        1.3790    -2.1180    -0.3580 C.3   1 <1>   0.1710 
  5 C        2.7140     1.4830     0.4230 C.3   1 <1>   0.1400 
  6 C        3.4620    -0.1730    -1.3830 C.3   1 <1>   0.1400 
  7 N        0.1150    -2.8250    -0.0020 N.3   1 <1>  -0.8100 
  8 C        4.0170     1.5520     1.2630 C.3   1 <1>   0.4230 
  9 C        4.9560     0.0890    -1.0710 C.3   1 <1>  -0.0800 
 10 C        0.0720    -4.1630    -0.6180 C.3   1 <1>   0.2540 
 11 C       -1.0750    -2.0210    -0.3590 C.3   1 <1>   0.1100 
 12 N        5.1930     2.0780     0.4770 N.4   1 <1>  -0.9590 
 13 C        4.4020     0.2290     1.9810 C.3   1 <1>   0.1200 
 14 C        5.5520    -0.7630     0.0710 C.3   1 <1>   0.1200 
 15 C        5.2630     1.5820    -0.9310 C.3   1 <1>   0.3430 
 16 C       -0.8550    -5.1140     0.1240 C.ar  1 <1>  -0.1440 
 17 C       -2.3780    -2.5600     0.2440 C.3   1 <1>   0.1200 
 18 C        5.2510     3.5720     0.5110 C.3   1 <1>   0.2630 
 19 O        4.6840    -0.8740     1.1520 O.3   1 <1>  -0.5600 
 20 C       -2.2260    -4.8900     0.1720 C.ar  1 <1>   0.0820 
 21 C       -0.3430    -6.2500     0.7340 C.ar  1 <1>  -0.1500 
 22 O       -2.7670    -3.7770    -0.3600 O.3   1 <1>  -0.3620 
 23 C       -3.0720    -5.8040     0.7790 C.ar  1 <1>  -0.1500 
 24 C       -1.1850    -7.1580     1.3570 C.ar  1 <1>  -0.1500 
 25 C       -2.5520    -6.9390     1.3740 C.ar  1 <1>  -0.1500 
 26 H        2.2050    -2.7520    -0.0920 H     1 <1>   0.0800 
 27 H        1.3890    -1.9840    -1.4240 H     1 <1>   0.0800 
 28 H        2.6850     2.2800    -0.2980 H     1 <1>   0.0800 
 29 H        1.8900     1.6640     1.0910 H     1 <1>   0.0800 
 30 H        3.3710    -1.2130    -1.6400 H     1 <1>   0.0800 
 31 H        3.1750     0.3900    -2.2550 H     1 <1>   0.0800 
 32 H        3.8220     2.2630     2.0490 H     1 <1>   0.0800 
 33 H        5.4810    -0.2120    -1.9600 H     1 <1>   0.0800 
 34 H       -0.2440    -4.0860    -1.6440 H     1 <1>   0.0800 
 35 H        1.0600    -4.5890    -0.6120 H     1 <1>   0.0800 
 36 H       -0.9510    -1.0240     0.0240 H     1 <1>   0.0800 
 37 H       -1.1770    -1.9500    -1.4280 H     1 <1>   0.0800 
 38 H        6.0240     1.7140     0.9620 H     1 <1>   0.4500 
 39 H        3.5790    -0.0720     2.6090 H     1 <1>   0.0800 
 40 H        5.2520     0.3860     2.6200 H     1 <1>   0.0800 
 41 H        6.4990    -0.3870     0.4160 H     1 <1>   0.0800 
 42 H        5.7080    -1.7670    -0.2870 H     1 <1>   0.0800 
 43 H        4.5740     2.1350    -1.5480 H     1 <1>   0.0800 
 44 H        6.2560     1.7660    -1.3110 H     1 <1>   0.0800 
 45 H       -3.1710    -1.8560     0.0720 H     1 <1>   0.0800 
 46 H       -2.2700    -2.7090     1.3050 H     1 <1>   0.0800 
 47 H        4.3900     3.9940     0.0180 H     1 <1>   0.0800 
 48 H        6.1400     3.9250     0.0130 H     1 <1>   0.0800 
 49 H        5.2700     3.9240     1.5300 H     1 <1>   0.0800 
 50 H        0.7160    -6.4380     0.7250 H     1 <1>   0.1500 
 51 H       -4.1290    -5.6160     0.7870 H     1 <1>   0.1500 
 52 H       -0.7760    -8.0350     1.8260 H     1 <1>   0.1500 
 53 H       -3.2070    -7.6470     1.8510 H     1 <1>   0.1500 
@<TRIPOS>BOND
  1   1   2  2   
  2   2   3  am  
  3   2   4  1   
  4   3   5  1   
  5   3   6  1   
  6   4   7  1   
  7   4  26  1   
  8   4  27  1   
  9   5   8  1   
 10   5  28  1   
 11   5  29  1   
 12   6   9  1   
 13   6  30  1   
 14   6  31  1   
 15   7  10  1   
 16   7  11  1   
 17   8  12  1   
 18   8  13  1   
 19   8  32  1   
 20   9  14  1   
 21   9  15  1   
 22   9  33  1   
 23  10  16  1   
 24  10  34  1   
 25  10  35  1   
 26  11  17  1   
 27  11  36  1   
 28  11  37  1   
 29  12  15  1   
 30  12  18  1   
 31  12  38  1   
 32  13  19  1   
 33  13  39  1   
 34  13  40  1   
 35  14  19  1   
 36  14  41  1   
 37  14  42  1   
 38  15  43  1   
 39  15  44  1   
 40  16  20  ar  
 41  16  21  ar  
 42  17  22  1   
 43  17  45  1   
 44  17  46  1   
 45  18  47  1   
 46  18  48  1   
 47  18  49  1   
 48  20  22  1   
 49  20  23  ar  
 50  21  24  ar  
 51  21  50  1   
 52  23  25  ar  
 53  23  51  1   
 54  24  25  ar  
 55  24  52  1   
 56  25  53  1   
@<TRIPOS>SUBSTRUCTURE
  1 ****   4 GROUP 4 **** **** 0

# MOE 2024.06 (io_trps.svl 2023.06)
