@<TRIPOS>MOLECULE
NONAME
55 57 1 0 0 
SMALL
USER_CHARGES


@<TRIPOS>ATOM
  1 O        1.3900     0.0100     0.9290 O.2   1 <1>  -0.5700 
  2 C        0.9430    -1.0670     0.6050 C.2   1 <1>   0.5690 
  3 N       -0.4130    -1.2720     0.6280 N.am  1 <1>  -0.6600 
  4 C        1.9120    -2.2050     0.2330 C.3   1 <1>  -0.0190 
  5 C       -1.3480    -0.1900     1.0150 C.3   1 <1>   0.1400 
  6 C       -1.1350    -2.5600     0.5090 C.3   1 <1>   0.1400 
  7 C        3.4240    -1.9210     0.4640 C.3   1 <1>  -0.0190 
  8 C        1.7090    -2.7650    -1.1970 C.3   1 <1>  -0.1600 
  9 C       -2.7330    -0.8280     0.9950 C.3   1 <1>  -0.1600 
 10 C       -2.4730    -2.3170     1.1940 C.3   1 <1>  -0.1600 
 11 C        4.0520    -0.9360    -0.5470 C.2   1 <1>   0.5690 
 12 C        4.1650    -3.2880     0.5080 C.3   1 <1>  -0.1600 
 13 C        2.8160    -3.7510    -1.6300 C.3   1 <1>  -0.1600 
 14 O        4.8970    -1.3040    -1.3300 O.2   1 <1>  -0.5700 
 15 N        3.6680     0.3630    -0.5230 N.am  1 <1>  -0.7300 
 16 C        3.5720    -4.3580    -0.4370 C.3   1 <1>  -0.1600 
 17 C        4.1610     1.4380    -1.4030 C.3   1 <1>   0.1400 
 18 C        4.7960     2.5320    -0.5460 C.3   1 <1>  -0.1600 
 19 C        5.3380     3.6700    -1.4160 C.3   1 <1>   0.0210 
 20 C        5.9570     4.7540    -0.5560 C.2   1 <1>  -0.1810 
 21 C        7.1910     4.7080     0.0850 C.2   1 <1>   0.1390 
 22 C        5.4570     5.9660    -0.2380 C.2   1 <1>  -0.3020 
 23 N        7.4430     5.7970     0.7450 N.2   1 <1>  -0.7070 
 24 N        6.3660     6.5750     0.5460 N.pl3 1 <1>   0.3140 
 25 C        6.2670     7.9120     1.1380 C.3   1 <1>   0.0160 
 26 H        1.6590    -2.9920     0.9190 H     1 <1>   0.0800 
 27 H       -1.1020     0.1480     2.0080 H     1 <1>   0.0800 
 28 H       -1.2800     0.6360     0.3280 H     1 <1>   0.0800 
 29 H       -1.2970    -2.7780    -0.5330 H     1 <1>   0.0800 
 30 H       -0.5970    -3.3660     0.9770 H     1 <1>   0.0800 
 31 H        3.5410    -1.4690     1.4320 H     1 <1>   0.0800 
 32 H        0.7680    -3.2760    -1.2530 H     1 <1>   0.0800 
 33 H        1.6750    -1.9510    -1.9020 H     1 <1>   0.0800 
 34 H       -3.3730    -0.4170     1.7550 H     1 <1>   0.0800 
 35 H       -3.1810    -0.6590     0.0310 H     1 <1>   0.0800 
 36 H       -3.2540    -2.9300     0.7790 H     1 <1>   0.0800 
 37 H       -2.3750    -2.5350     2.2430 H     1 <1>   0.0800 
 38 H        5.2080    -3.1460     0.2830 H     1 <1>   0.0800 
 39 H        4.1230    -3.6730     1.5120 H     1 <1>   0.0800 
 40 H        2.3880    -4.5370    -2.2270 H     1 <1>   0.0800 
 41 H        3.5240    -3.2360    -2.2570 H     1 <1>   0.0800 
 42 H        2.8900     0.6140     0.1070 H     1 <1>   0.3700 
 43 H        4.3620    -4.9950    -0.7950 H     1 <1>   0.0800 
 44 H        2.8890    -4.9780     0.1180 H     1 <1>   0.0800 
 45 H        4.8890     1.0410    -2.0920 H     1 <1>   0.0800 
 46 H        3.3360     1.8350    -1.9690 H     1 <1>   0.0800 
 47 H        4.0620     2.9270     0.1350 H     1 <1>   0.0800 
 48 H        5.6020     2.1080     0.0270 H     1 <1>   0.0800 
 49 H        4.5380     4.0960    -1.9950 H     1 <1>   0.0800 
 50 H        6.0810     3.2920    -2.0970 H     1 <1>   0.0800 
 51 H        7.8680     3.8710     0.0450 H     1 <1>   0.1500 
 52 H        4.5250     6.4200    -0.5200 H     1 <1>   0.1500 
 53 H        5.2340     8.1910     1.2220 H     1 <1>   0.0800 
 54 H        6.7870     8.6100     0.5100 H     1 <1>   0.0800 
 55 H        6.7200     7.8970     2.1110 H     1 <1>   0.0800 
@<TRIPOS>BOND
  1   1   2  2   
  2   2   3  am  
  3   2   4  1   
  4   3   5  1   
  5   3   6  1   
  6   4   7  1   
  7   4   8  1   
  8   4  26  1   
  9   5   9  1   
 10   5  27  1   
 11   5  28  1   
 12   6  10  1   
 13   6  29  1   
 14   6  30  1   
 15   7  11  1   
 16   7  12  1   
 17   7  31  1   
 18   8  13  1   
 19   8  32  1   
 20   8  33  1   
 21   9  10  1   
 22   9  34  1   
 23   9  35  1   
 24  10  36  1   
 25  10  37  1   
 26  11  14  2   
 27  11  15  am  
 28  12  16  1   
 29  12  38  1   
 30  12  39  1   
 31  13  16  1   
 32  13  40  1   
 33  13  41  1   
 34  15  17  1   
 35  15  42  1   
 36  16  43  1   
 37  16  44  1   
 38  17  18  1   
 39  17  45  1   
 40  17  46  1   
 41  18  19  1   
 42  18  47  1   
 43  18  48  1   
 44  19  20  1   
 45  19  49  1   
 46  19  50  1   
 47  20  21  1   
 48  20  22  2   
 49  21  23  2   
 50  21  51  1   
 51  22  24  1   
 52  22  52  1   
 53  23  24  1   
 54  24  25  1   
 55  25  53  1   
 56  25  54  1   
 57  25  55  1   
@<TRIPOS>SUBSTRUCTURE
  1 ****  15 GROUP 4 **** **** 0

# MOE 2024.06 (io_trps.svl 2023.06)
