@<TRIPOS>MOLECULE
NONAME
50 53 1 0 0 
SMALL
USER_CHARGES


@<TRIPOS>ATOM
  1 O       -0.3030     0.2880     0.1910 O.2   1 <1>  -0.5700 
  2 C       -1.3230     0.9550     0.1470 C.2   1 <1>   0.7150 
  3 N       -2.5180     0.2690     0.0410 N.am  1 <1>  -0.6600 
  4 C       -1.2420     2.4070     0.1930 C.2   1 <1>   0.0550 
  5 C       -3.8350     0.8610    -0.3070 C.3   1 <1>   0.1400 
  6 C       -2.5940    -1.2120     0.0370 C.3   1 <1>   0.1400 
  7 O       -2.3010     3.1300     0.6010 O.3   1 <1>  -0.2800 
  8 C       -0.2180     3.2590    -0.1030 C.2   1 <1>  -0.1810 
  9 C       -4.6840    -0.3220    -0.7700 C.3   1 <1>   0.2000 
 10 C       -4.0830    -1.5410    -0.0760 C.3   1 <1>  -0.0800 
 11 C       -1.9720     4.4190     0.5730 C.ar  1 <1>   0.1400 
 12 C       -0.6710     4.5680     0.1380 C.ar  1 <1>   0.0000 
 13 C        1.1860     2.9610    -0.6040 C.3   1 <1>  -0.0590 
 14 O       -6.0140    -0.1710    -0.4110 O.3   1 <1>  -0.6800 
 15 C       -4.3700    -2.8590    -0.8120 C.3   1 <1>   0.0210 
 16 C       -2.7660     5.5030     0.9130 C.ar  1 <1>  -0.1500 
 17 C       -0.1300     5.8520     0.0380 C.ar  1 <1>  -0.1500 
 18 C       -3.6590    -4.0210    -0.1470 C.2   1 <1>   0.1080 
 19 C       -2.2320     6.7730     0.8140 C.ar  1 <1>   0.0830 
 20 C       -0.9070     6.9420     0.3730 C.ar  1 <1>  -0.1500 
 21 N       -3.8970    -4.3850     1.0750 N.2   1 <1>  -0.7070 
 22 C       -2.6840    -4.8080    -0.7490 C.2   1 <1>  -0.1500 
 23 O       -3.0410     7.8060     1.1560 O.3   1 <1>  -0.3630 
 24 N       -3.0720    -5.4270     1.2860 N.pl3 1 <1>   0.3000 
 25 C       -2.3250    -5.7020     0.1960 C.2   1 <1>  -0.3320 
 26 C       -2.5970     9.1440     1.1020 C.3   1 <1>   0.0400 
 27 C       -1.3000    -6.8180     0.1250 C.3   1 <1>  -0.0600 
 28 H       -4.2580     1.3160     0.5710 H     1 <1>   0.0800 
 29 H       -3.7300     1.5900    -1.0920 H     1 <1>   0.0800 
 30 H       -2.0480    -1.5900    -0.8110 H     1 <1>   0.0800 
 31 H       -2.1710    -1.6210     0.9400 H     1 <1>   0.0800 
 32 H       -4.6290    -0.4100    -1.8410 H     1 <1>   0.0800 
 33 H       -4.4660    -1.6110     0.9280 H     1 <1>   0.0800 
 34 H        1.3820     3.5240    -1.4990 H     1 <1>   0.0800 
 35 H        1.3100     1.9180    -0.8280 H     1 <1>   0.0800 
 36 H        1.9050     3.2380     0.1460 H     1 <1>   0.0800 
 37 H       -6.1040    -0.1880     0.5620 H     1 <1>   0.4000 
 38 H       -4.0530    -2.7870    -1.8370 H     1 <1>   0.0800 
 39 H       -5.4280    -3.0520    -0.8020 H     1 <1>   0.0800 
 40 H       -3.7740     5.3530     1.2480 H     1 <1>   0.1500 
 41 H        0.8840     5.9720    -0.2990 H     1 <1>   0.1500 
 42 H       -0.4800     7.9230     0.2920 H     1 <1>   0.1500 
 43 H       -2.3130    -4.7040    -1.7530 H     1 <1>   0.1500 
 44 H       -3.0430    -5.9280     2.1830 H     1 <1>   0.2700 
 45 H       -3.4060     9.7760     1.4210 H     1 <1>   0.0800 
 46 H       -2.3250     9.3820     0.0890 H     1 <1>   0.0800 
 47 H       -1.7590     9.2620     1.7660 H     1 <1>   0.0800 
 48 H       -0.8380    -6.8340    -0.8470 H     1 <1>   0.0800 
 49 H       -1.7720    -7.7690     0.2950 H     1 <1>   0.0800 
 50 H       -0.5340    -6.6680     0.8650 H     1 <1>   0.0800 
@<TRIPOS>BOND
  1   1   2  2   
  2   2   3  am  
  3   2   4  1   
  4   3   5  1   
  5   3   6  1   
  6   4   7  1   
  7   4   8  2   
  8   5   9  1   
  9   5  28  1   
 10   5  29  1   
 11   6  10  1   
 12   6  30  1   
 13   6  31  1   
 14   7  11  1   
 15   8  12  1   
 16   8  13  1   
 17   9  10  1   
 18   9  14  1   
 19   9  32  1   
 20  10  15  1   
 21  10  33  1   
 22  11  12  ar  
 23  11  16  ar  
 24  12  17  ar  
 25  13  34  1   
 26  13  35  1   
 27  13  36  1   
 28  14  37  1   
 29  15  18  1   
 30  15  38  1   
 31  15  39  1   
 32  16  19  ar  
 33  16  40  1   
 34  17  20  ar  
 35  17  41  1   
 36  18  21  2   
 37  18  22  1   
 38  19  20  ar  
 39  19  23  1   
 40  20  42  1   
 41  21  24  1   
 42  22  25  2   
 43  22  43  1   
 44  23  26  1   
 45  24  25  1   
 46  24  44  1   
 47  25  27  1   
 48  26  45  1   
 49  26  46  1   
 50  26  47  1   
 51  27  48  1   
 52  27  49  1   
 53  27  50  1   
@<TRIPOS>SUBSTRUCTURE
  1 ****   3 GROUP 4 **** **** 0

# MOE 2024.06 (io_trps.svl 2023.06)
