@<TRIPOS>MOLECULE
NONAME
52 54 1 0 0 
SMALL
USER_CHARGES


@<TRIPOS>ATOM
  1 S       -0.5720     0.9120    -0.3190 S.o2  1 <1>   1.3330 
  2 O       -0.2790     0.2980    -1.5950 O.2   1 <1>  -0.6500 
  3 O       -1.6500     0.3880     0.4890 O.2   1 <1>  -0.6500 
  4 N        0.8380     0.8400     0.6240 N.am  1 <1>  -0.8490 
  5 C       -0.8380     2.6640    -0.5980 C.3   1 <1>  -0.0550 
  6 C        0.6290     1.2380     2.0220 C.3   1 <1>   0.1160 
  7 C        1.4670    -0.4820     0.5700 C.3   1 <1>   0.1160 
  8 C        0.2280     3.3530    -1.4800 C.3   1 <1>  -0.0800 
  9 C       -0.1040     4.8080    -1.8370 C.3   1 <1>   0.2000 
 10 C        1.6270     3.3990    -0.8510 C.3   1 <1>   0.2090 
 11 O       -0.7590     5.4200    -0.7770 O.3   1 <1>  -0.6800 
 12 C        1.2540     5.4810    -2.0560 C.3   1 <1>   0.2090 
 13 N        2.2200     4.6930    -1.2550 N.pl3 1 <1>  -0.8380 
 14 C        3.1960     5.2650    -0.4680 C.ar  1 <1>   0.4100 
 15 N        4.4290     5.0250    -0.9040 N.ar  1 <1>  -0.6200 
 16 C        2.9130     6.0160     0.6900 C.ar  1 <1>   0.0860 
 17 C        5.4200     5.5160    -0.1890 C.ar  1 <1>   0.1600 
 18 C        1.5630     6.2840     1.1140 C.2   1 <1>   0.5440 
 19 C        3.9840     6.5130     1.4200 C.ar  1 <1>  -0.1500 
 20 C        5.2570     6.2560     0.9680 C.ar  1 <1>  -0.1500 
 21 O        0.8300     5.3800     1.4820 O.2   1 <1>  -0.5700 
 22 N        1.0660     7.5670     1.1100 N.am  1 <1>  -0.6600 
 23 C        1.7140     8.7050     0.4170 C.3   1 <1>   0.1400 
 24 C       -0.3330     7.9000     1.4670 C.3   1 <1>   0.1400 
 25 C        0.6720     9.8200     0.4160 C.3   1 <1>  -0.1600 
 26 C       -0.6650     9.1100     0.6060 C.3   1 <1>  -0.1600 
 27 H       -1.7900     2.7850    -1.0770 H     1 <1>   0.0800 
 28 H       -0.8990     3.1650     0.3490 H     1 <1>   0.0800 
 29 H        1.5660     1.2320     2.5510 H     1 <1>   0.0800 
 30 H       -0.0540     0.5620     2.5090 H     1 <1>   0.0800 
 31 H        0.2260     2.2350     2.0710 H     1 <1>   0.0800 
 32 H        2.3720    -0.4890     1.1530 H     1 <1>   0.0800 
 33 H        1.7220    -0.7260    -0.4480 H     1 <1>   0.0800 
 34 H        0.7930    -1.2320     0.9480 H     1 <1>   0.0800 
 35 H        0.3180     2.8070    -2.4020 H     1 <1>   0.0800 
 36 H       -0.7370     4.8880    -2.7030 H     1 <1>   0.0800 
 37 H        2.2370     2.5850    -1.2050 H     1 <1>   0.0800 
 38 H        1.5750     3.3520     0.2220 H     1 <1>   0.0800 
 39 H       -0.1760     5.3970     0.0280 H     1 <1>   0.4000 
 40 H        1.2380     6.5170    -1.7700 H     1 <1>   0.0800 
 41 H        1.5350     5.4020    -3.0920 H     1 <1>   0.0800 
 42 H        6.4180     5.3180    -0.5410 H     1 <1>   0.1500 
 43 H        3.8120     7.0820     2.3170 H     1 <1>   0.1500 
 44 H        6.1170     6.6210     1.5010 H     1 <1>   0.1500 
 45 H        2.6080     9.0110     0.9330 H     1 <1>   0.0800 
 46 H        1.9580     8.4190    -0.5930 H     1 <1>   0.0800 
 47 H       -1.0050     7.0810     1.2710 H     1 <1>   0.0800 
 48 H       -0.3750     8.1560     2.5120 H     1 <1>   0.0800 
 49 H        0.8590    10.4730     1.2510 H     1 <1>   0.0800 
 50 H        0.7040    10.3960    -0.4910 H     1 <1>   0.0800 
 51 H       -1.0380     8.7650    -0.3440 H     1 <1>   0.0800 
 52 H       -1.4060     9.7390     1.0670 H     1 <1>   0.0800 
@<TRIPOS>BOND
  1   1   2  2   
  2   1   3  2   
  3   1   4  am  
  4   1   5  1   
  5   4   6  1   
  6   4   7  1   
  7   5   8  1   
  8   5  27  1   
  9   5  28  1   
 10   6  29  1   
 11   6  30  1   
 12   6  31  1   
 13   7  32  1   
 14   7  33  1   
 15   7  34  1   
 16   8   9  1   
 17   8  10  1   
 18   8  35  1   
 19   9  11  1   
 20   9  12  1   
 21   9  36  1   
 22  10  13  1   
 23  10  37  1   
 24  10  38  1   
 25  11  39  1   
 26  12  13  1   
 27  12  40  1   
 28  12  41  1   
 29  13  14  1   
 30  14  15  ar  
 31  14  16  ar  
 32  15  17  ar  
 33  16  18  1   
 34  16  19  ar  
 35  17  20  ar  
 36  17  42  1   
 37  18  21  2   
 38  18  22  am  
 39  19  20  ar  
 40  19  43  1   
 41  20  44  1   
 42  22  23  1   
 43  22  24  1   
 44  23  25  1   
 45  23  45  1   
 46  23  46  1   
 47  24  26  1   
 48  24  47  1   
 49  24  48  1   
 50  25  26  1   
 51  25  49  1   
 52  25  50  1   
 53  26  51  1   
 54  26  52  1   
@<TRIPOS>SUBSTRUCTURE
  1 ****  13 GROUP 4 **** **** 0

# MOE 2024.06 (io_trps.svl 2023.06)
