@<TRIPOS>MOLECULE
NONAME
58 60 1 0 0 
SMALL
USER_CHARGES


@<TRIPOS>ATOM
  1 S       -1.0130    -1.0730     0.0850 S.3   1 <1>  -0.0800 
  2 C       -1.6010    -2.0610     1.4140 C.2   1 <1>  -0.1400 
  3 C       -1.0160     0.3660     1.0910 C.2   1 <1>  -0.1400 
  4 C       -1.7750    -1.3110     2.5190 C.2   1 <1>  -0.1500 
  5 C       -1.8240    -3.5280     1.1240 C.3   1 <1>   0.5230 
  6 C       -1.4450     0.0690     2.3320 C.2   1 <1>  -0.1500 
  7 C       -0.5760     1.6810     0.4670 C.3   1 <1>   0.0200 
  8 N       -2.8000    -3.6290     0.0100 N.4   1 <1>  -0.9590 
  9 C        0.9220     1.9750     0.6750 C.3   1 <1>  -0.0800 
 10 C       -2.7940    -5.0180    -0.5820 C.3   1 <1>   0.3430 
 11 C       -4.1450    -3.0900     0.4220 C.3   1 <1>   0.3430 
 12 C        1.2650     3.3710     0.1380 C.3   1 <1>  -0.2400 
 13 C        1.8280     0.9340     0.0020 C.3   1 <1>  -0.2400 
 14 C       -3.7820    -5.2280    -1.7600 C.3   1 <1>   0.2200 
 15 C       -5.1710    -3.0660    -0.7170 C.3   1 <1>  -0.0190 
 16 N       -5.1530    -5.4570    -1.2310 N.am  1 <1>  -0.6600 
 17 C       -3.8280    -4.0100    -2.7080 C.3   1 <1>  -0.1600 
 18 C       -5.8430    -4.4200    -0.6890 C.2   1 <1>   0.5690 
 19 C       -4.5540    -2.7770    -2.1090 C.3   1 <1>  -0.1600 
 20 C       -5.6270    -6.8800    -1.1200 C.3   1 <1>   0.2010 
 21 O       -6.9040    -4.5470    -0.1340 O.2   1 <1>  -0.5700 
 22 C       -4.9100    -7.6510    -0.0020 C.2   1 <1>   0.5690 
 23 O       -3.7250    -7.8570    -0.1590 O.2   1 <1>  -0.5700 
 24 N       -5.5650    -8.0630     1.1360 N.am  1 <1>  -0.6600 
 25 C       -4.9140    -8.9670     2.1280 C.3   1 <1>   0.0600 
 26 C       -6.9690    -7.6970     1.4810 C.3   1 <1>   0.0600 
 27 H       -2.1240    -1.6550     3.4780 H     1 <1>   0.1500 
 28 H       -2.1980    -4.0310     2.0010 H     1 <1>   0.0800 
 29 H       -0.8850    -3.9770     0.8410 H     1 <1>   0.0800 
 30 H       -1.5420     0.7740     3.1400 H     1 <1>   0.1500 
 31 H       -0.8130     1.6800    -0.5820 H     1 <1>   0.0800 
 32 H       -1.1450     2.4710     0.9250 H     1 <1>   0.0800 
 33 H       -2.4500    -2.9840    -0.7120 H     1 <1>   0.4500 
 34 H        1.1240     1.9640     1.7330 H     1 <1>   0.0800 
 35 H       -1.8030    -5.2320    -0.9450 H     1 <1>   0.0800 
 36 H       -3.0160    -5.7410     0.1850 H     1 <1>   0.0800 
 37 H       -4.5420    -3.6710     1.2400 H     1 <1>   0.0800 
 38 H       -4.0190    -2.0780     0.7730 H     1 <1>   0.0800 
 39 H        1.0850     3.4250    -0.9220 H     1 <1>   0.0800 
 40 H        2.3000     3.5970     0.3210 H     1 <1>   0.0800 
 41 H        0.6670     4.1200     0.6280 H     1 <1>   0.0800 
 42 H        1.6130     0.8640    -1.0500 H     1 <1>   0.0800 
 43 H        1.6910    -0.0330     0.4510 H     1 <1>   0.0800 
 44 H        2.8620     1.2060     0.1220 H     1 <1>   0.0800 
 45 H       -3.4700    -6.0990    -2.3120 H     1 <1>   0.0800 
 46 H       -5.9130    -2.3220    -0.4900 H     1 <1>   0.0800 
 47 H       -2.8310    -3.7420    -3.0110 H     1 <1>   0.0800 
 48 H       -4.3480    -4.3110    -3.6020 H     1 <1>   0.0800 
 49 H       -5.3530    -2.5040    -2.7790 H     1 <1>   0.0800 
 50 H       -3.8890    -1.9310    -2.0560 H     1 <1>   0.0800 
 51 H       -6.6900    -6.9000    -0.9710 H     1 <1>   0.0800 
 52 H       -5.4350    -7.3850    -2.0490 H     1 <1>   0.0800 
 53 H       -5.5270    -9.8380     2.2830 H     1 <1>   0.0800 
 54 H       -4.7890    -8.4520     3.0640 H     1 <1>   0.0800 
 55 H       -3.9480    -9.2910     1.7800 H     1 <1>   0.0800 
 56 H       -7.1080    -7.7220     2.5480 H     1 <1>   0.0800 
 57 H       -7.6500    -8.3960     1.0260 H     1 <1>   0.0800 
 58 H       -7.2010    -6.7030     1.1410 H     1 <1>   0.0800 
@<TRIPOS>BOND
  1   1   2  1   
  2   1   3  1   
  3   2   4  2   
  4   2   5  1   
  5   3   6  2   
  6   3   7  1   
  7   4   6  1   
  8   4  27  1   
  9   5   8  1   
 10   5  28  1   
 11   5  29  1   
 12   6  30  1   
 13   7   9  1   
 14   7  31  1   
 15   7  32  1   
 16   8  10  1   
 17   8  11  1   
 18   8  33  1   
 19   9  12  1   
 20   9  13  1   
 21   9  34  1   
 22  10  14  1   
 23  10  35  1   
 24  10  36  1   
 25  11  15  1   
 26  11  37  1   
 27  11  38  1   
 28  12  39  1   
 29  12  40  1   
 30  12  41  1   
 31  13  42  1   
 32  13  43  1   
 33  13  44  1   
 34  14  16  1   
 35  14  17  1   
 36  14  45  1   
 37  15  18  1   
 38  15  19  1   
 39  15  46  1   
 40  16  18  am  
 41  16  20  1   
 42  17  19  1   
 43  17  47  1   
 44  17  48  1   
 45  18  21  2   
 46  19  49  1   
 47  19  50  1   
 48  20  22  1   
 49  20  51  1   
 50  20  52  1   
 51  22  23  2   
 52  22  24  am  
 53  24  25  1   
 54  24  26  1   
 55  25  53  1   
 56  25  54  1   
 57  25  55  1   
 58  26  56  1   
 59  26  57  1   
 60  26  58  1   
@<TRIPOS>SUBSTRUCTURE
  1 ****   8 GROUP 4 **** **** 0

# MOE 2024.06 (io_trps.svl 2023.06)
