@<TRIPOS>MOLECULE
NONAME
48 50 1 0 0 
SMALL
USER_CHARGES


@<TRIPOS>ATOM
  1 O       -0.3440     0.1920    -0.5060 O.3   1 <1>  -0.6800 
  2 C        0.8490    -0.1990    -1.1000 C.3   1 <1>   0.2000 
  3 C        1.2340    -1.5600    -0.5210 C.3   1 <1>  -0.0800 
  4 C        1.9630     0.7420    -0.6100 C.3   1 <1>   0.3430 
  5 C        1.7950    -1.1450     0.8410 C.3   1 <1>   0.3430 
  6 C        2.2630    -2.2840    -1.4320 C.3   1 <1>   0.0210 
  7 N        2.6280     0.0360     0.5290 N.4   1 <1>  -0.9590 
  8 C        3.5310    -2.7430    -0.7280 C.2   1 <1>   0.1080 
  9 C        2.9540     0.9030     1.6820 C.3   1 <1>   0.4860 
 10 N        4.4930    -1.9320    -0.3980 N.2   1 <1>  -0.7070 
 11 C        3.8040    -4.0580    -0.3750 C.2   1 <1>  -0.1500 
 12 C        3.8340     2.0360     1.1950 C.ar  1 <1>  -0.1430 
 13 N        5.4330    -2.7350     0.1540 N.pl3 1 <1>   0.3000 
 14 C        5.0280    -4.0200     0.1900 C.2   1 <1>  -0.3320 
 15 C        3.3570     3.3380     1.1980 C.ar  1 <1>  -0.1500 
 16 C        5.1150     1.7840     0.7290 C.ar  1 <1>  -0.1500 
 17 C        5.8560    -5.1590     0.7580 C.3   1 <1>  -0.0600 
 18 C        4.1410     4.3840     0.7380 C.ar  1 <1>  -0.1430 
 19 C        5.9010     2.8240     0.2690 C.ar  1 <1>  -0.1500 
 20 C        5.4230     4.1250     0.2680 C.ar  1 <1>  -0.1430 
 21 C        3.5770     5.7980     0.7600 C.3   1 <1>  -0.0970 
 22 C        6.3230     5.2400    -0.2480 C.3   1 <1>  -0.0970 
 23 H       -1.1150    -0.2390    -0.9320 H     1 <1>   0.4000 
 24 H        0.7250    -0.1770    -2.1700 H     1 <1>   0.0800 
 25 H        0.3750    -2.1960    -0.3910 H     1 <1>   0.0800 
 26 H        1.5400     1.6840    -0.3010 H     1 <1>   0.0800 
 27 H        2.6840     0.9150    -1.3920 H     1 <1>   0.0800 
 28 H        2.3720    -1.9320     1.3020 H     1 <1>   0.0800 
 29 H        0.9820    -0.8600     1.4900 H     1 <1>   0.0800 
 30 H        2.5700    -1.6470    -2.2430 H     1 <1>   0.0800 
 31 H        1.7910    -3.1410    -1.8810 H     1 <1>   0.0800 
 32 H        3.5200    -0.3620     0.1630 H     1 <1>   0.4500 
 33 H        2.0490     1.3010     2.1110 H     1 <1>   0.0800 
 34 H        3.4770     0.3380     2.4360 H     1 <1>   0.0800 
 35 H        3.1680    -4.9120    -0.5360 H     1 <1>   0.1500 
 36 H        6.3440    -2.3890     0.4840 H     1 <1>   0.2700 
 37 H        2.3650     3.5460     1.5620 H     1 <1>   0.1500 
 38 H        5.5130     0.7840     0.7170 H     1 <1>   0.1500 
 39 H        5.3210    -6.0880     0.6670 H     1 <1>   0.0800 
 40 H        6.0680    -4.9870     1.7990 H     1 <1>   0.0800 
 41 H        6.7850    -5.2490     0.2220 H     1 <1>   0.0800 
 42 H        6.8940     2.6140    -0.0900 H     1 <1>   0.1500 
 43 H        2.5790     5.8140     1.1570 H     1 <1>   0.0800 
 44 H        3.5490     6.2000    -0.2370 H     1 <1>   0.0800 
 45 H        4.1930     6.4300     1.3740 H     1 <1>   0.0800 
 46 H        7.2710     4.8540    -0.5750 H     1 <1>   0.0800 
 47 H        6.5040     5.9570     0.5320 H     1 <1>   0.0800 
 48 H        5.8560     5.7360    -1.0790 H     1 <1>   0.0800 
@<TRIPOS>BOND
  1   1   2  1   
  2   1  23  1   
  3   2   3  1   
  4   2   4  1   
  5   2  24  1   
  6   3   5  1   
  7   3   6  1   
  8   3  25  1   
  9   4   7  1   
 10   4  26  1   
 11   4  27  1   
 12   5   7  1   
 13   5  28  1   
 14   5  29  1   
 15   6   8  1   
 16   6  30  1   
 17   6  31  1   
 18   7   9  1   
 19   7  32  1   
 20   8  10  2   
 21   8  11  1   
 22   9  12  1   
 23   9  33  1   
 24   9  34  1   
 25  10  13  1   
 26  11  14  2   
 27  11  35  1   
 28  12  15  ar  
 29  12  16  ar  
 30  13  14  1   
 31  13  36  1   
 32  14  17  1   
 33  15  18  ar  
 34  15  37  1   
 35  16  19  ar  
 36  16  38  1   
 37  17  39  1   
 38  17  40  1   
 39  17  41  1   
 40  18  20  ar  
 41  18  21  1   
 42  19  20  ar  
 43  19  42  1   
 44  20  22  1   
 45  21  43  1   
 46  21  44  1   
 47  21  45  1   
 48  22  46  1   
 49  22  47  1   
 50  22  48  1   
@<TRIPOS>SUBSTRUCTURE
  1 ****   7 GROUP 4 **** **** 0

# MOE 2024.06 (io_trps.svl 2023.06)
