@<TRIPOS>MOLECULE
NONAME
51 55 1 0 0 
SMALL
USER_CHARGES


@<TRIPOS>ATOM
  1 S       -0.2880    -0.2930     0.9750 S.o2  1 <1>   1.5760 
  2 O       -0.1380    -1.7000     1.2750 O.2   1 <1>  -0.6500 
  3 O       -0.4130     0.6600     2.0550 O.2   1 <1>  -0.6500 
  4 N       -1.5710    -0.0560    -0.1020 N.am  1 <1>  -0.8490 
  5 N        1.0030     0.1870     0.0040 N.am  1 <1>  -0.8490 
  6 C       -2.8880    -0.0100     0.5300 C.3   1 <1>   0.1960 
  7 C       -1.5690    -0.8860    -1.3130 C.3   1 <1>   0.1960 
  8 C        0.9890     1.6000    -0.3340 C.3   1 <1>   0.1960 
  9 C        2.2880    -0.0460     0.6320 C.3   1 <1>   0.1960 
 10 C       -3.3660    -1.4100     0.9150 C.3   1 <1>  -0.1600 
 11 C       -2.0600    -2.3130    -1.0560 C.3   1 <1>  -0.1600 
 12 C        2.4020     1.8800    -0.8300 C.3   1 <1>  -0.1600 
 13 C        3.2660     0.8010    -0.1750 C.3   1 <1>  -0.1600 
 14 C       -3.3890    -2.3410    -0.3010 C.3   1 <1>   0.4600 
 15 O       -4.3650    -1.8830    -1.2120 O.3   1 <1>  -0.5600 
 16 C       -3.7110    -3.7670     0.1200 C.2   1 <1>  -0.3320 
 17 C       -5.7060    -2.2590    -0.9960 C.3   1 <1>   0.1200 
 18 N       -2.9250    -4.5660     0.9030 N.pl3 1 <1>   0.0330 
 19 C       -4.8260    -4.4350    -0.2280 C.2   1 <1>  -0.1810 
 20 C       -5.8830    -3.7850    -1.0850 C.3   1 <1>   0.0210 
 21 C       -3.5640    -5.7740     1.0450 C.ar  1 <1>  -0.1520 
 22 C       -4.7650    -5.7240     0.3400 C.ar  1 <1>   0.0000 
 23 C       -3.1880    -6.9260     1.7390 C.ar  1 <1>  -0.1500 
 24 C       -5.6050    -6.8410     0.3270 C.ar  1 <1>  -0.1500 
 25 C       -4.0250    -8.0180     1.7180 C.ar  1 <1>  -0.1500 
 26 C       -5.2340    -7.9760     1.0110 C.ar  1 <1>  -0.1500 
 27 H       -3.5900     0.4250    -0.1620 H     1 <1>   0.0800 
 28 H       -2.8570     0.6240     1.4010 H     1 <1>   0.0800 
 29 H       -0.5800    -0.9130    -1.7400 H     1 <1>   0.0800 
 30 H       -2.2200    -0.4280    -2.0380 H     1 <1>   0.0800 
 31 H        0.7910     2.1950     0.5430 H     1 <1>   0.0800 
 32 H        0.2460     1.8100    -1.0850 H     1 <1>   0.0800 
 33 H        2.5420    -1.0930     0.6100 H     1 <1>   0.0800 
 34 H        2.2650     0.2980     1.6550 H     1 <1>   0.0800 
 35 H       -4.3440    -1.3550     1.3530 H     1 <1>   0.0800 
 36 H       -2.7150    -1.8130     1.6670 H     1 <1>   0.0800 
 37 H       -1.3120    -2.8540    -0.5110 H     1 <1>   0.0800 
 38 H       -2.1830    -2.8250    -1.9920 H     1 <1>   0.0800 
 39 H        2.7130     2.8730    -0.5570 H     1 <1>   0.0800 
 40 H        2.4330     1.7830    -1.9010 H     1 <1>   0.0800 
 41 H        3.7360     0.1920    -0.9270 H     1 <1>   0.0800 
 42 H        4.0230     1.2200     0.4640 H     1 <1>   0.0800 
 43 H       -6.3070    -1.7720    -1.7430 H     1 <1>   0.0800 
 44 H       -6.0080    -1.9070    -0.0260 H     1 <1>   0.0800 
 45 H       -2.0140    -4.3190     1.3070 H     1 <1>   0.2700 
 46 H       -5.7750    -4.1100    -2.1040 H     1 <1>   0.0800 
 47 H       -6.8620    -4.0580    -0.7370 H     1 <1>   0.0800 
 48 H       -2.2580    -6.9490     2.2780 H     1 <1>   0.1500 
 49 H       -6.5280    -6.7950    -0.2200 H     1 <1>   0.1500 
 50 H       -3.7580    -8.9170     2.2450 H     1 <1>   0.1500 
 51 H       -5.8700    -8.8430     1.0100 H     1 <1>   0.1500 
@<TRIPOS>BOND
  1   1   2  2   
  2   1   3  2   
  3   1   4  am  
  4   1   5  am  
  5   4   6  1   
  6   4   7  1   
  7   5   8  1   
  8   5   9  1   
  9   6  10  1   
 10   6  27  1   
 11   6  28  1   
 12   7  11  1   
 13   7  29  1   
 14   7  30  1   
 15   8  12  1   
 16   8  31  1   
 17   8  32  1   
 18   9  13  1   
 19   9  33  1   
 20   9  34  1   
 21  10  14  1   
 22  10  35  1   
 23  10  36  1   
 24  11  14  1   
 25  11  37  1   
 26  11  38  1   
 27  12  13  1   
 28  12  39  1   
 29  12  40  1   
 30  13  41  1   
 31  13  42  1   
 32  14  15  1   
 33  14  16  1   
 34  15  17  1   
 35  16  18  1   
 36  16  19  2   
 37  17  20  1   
 38  17  43  1   
 39  17  44  1   
 40  18  21  1   
 41  18  45  1   
 42  19  20  1   
 43  19  22  1   
 44  20  46  1   
 45  20  47  1   
 46  21  22  ar  
 47  21  23  ar  
 48  22  24  ar  
 49  23  25  ar  
 50  23  48  1   
 51  24  26  ar  
 52  24  49  1   
 53  25  26  ar  
 54  25  50  1   
 55  26  51  1   
@<TRIPOS>SUBSTRUCTURE
  1 ****  14 GROUP 4 **** **** 0

# MOE 2024.06 (io_trps.svl 2023.06)
