@<TRIPOS>MOLECULE
NONAME
44 46 1 0 0 
SMALL
USER_CHARGES


@<TRIPOS>ATOM
  1 F       -0.7630    -1.0590    -0.8460 F     1 <1>  -0.3400 
  2 C       -0.2360    -1.5960     0.2450 C.3   1 <1>   1.0200 
  3 F        0.9570    -1.0440     0.4050 F     1 <1>  -0.3400 
  4 F       -0.9850    -1.1880     1.2600 F     1 <1>  -0.3400 
  5 C       -0.1630    -3.1190     0.1590 C.3   1 <1>  -0.1600 
  6 C       -1.5410    -3.7970    -0.0260 C.3   1 <1>  -0.0990 
  7 C       -1.4710    -5.3150    -0.1160 C.2   1 <1>   0.5690 
  8 O       -0.4000    -5.8590     0.0010 O.2   1 <1>  -0.5700 
  9 N       -2.6180    -6.0270    -0.3250 N.am  1 <1>  -0.6600 
 10 C       -3.9930    -5.4800    -0.4390 C.3   1 <1>   0.1400 
 11 C       -2.6360    -7.5070    -0.4090 C.3   1 <1>   0.1400 
 12 C       -4.8980    -6.7030    -0.6050 C.3   1 <1>   0.2000 
 13 C       -4.0840    -7.8990    -0.1130 C.3   1 <1>  -0.0800 
 14 O       -6.0570    -6.5790     0.1450 O.3   1 <1>  -0.6800 
 15 C       -4.5180    -9.2210    -0.7660 C.3   1 <1>  -0.0170 
 16 C       -3.6770   -10.3850    -0.2710 C.ar  1 <1>   0.1670 
 17 N       -2.5820   -10.6460    -0.9160 N.ar  1 <1>  -0.6200 
 18 C       -4.1110   -11.1090     0.8510 C.ar  1 <1>  -0.1500 
 19 C       -1.8150   -11.6740    -0.4700 C.ar  1 <1>   0.3100 
 20 C       -3.3640   -12.1470     1.3170 C.ar  1 <1>  -0.1500 
 21 C       -2.1680   -12.4590     0.6500 C.ar  1 <1>   0.0000 
 22 C       -0.6200   -11.9720    -1.1450 C.ar  1 <1>  -0.1500 
 23 C       -1.3150   -13.5080     1.0470 C.ar  1 <1>  -0.1500 
 24 C        0.1960   -12.9960    -0.7420 C.ar  1 <1>  -0.1500 
 25 C       -0.1570   -13.7720     0.3670 C.ar  1 <1>  -0.1500 
 26 H        0.4770    -3.3790    -0.6650 H     1 <1>   0.0800 
 27 H        0.2960    -3.4840     1.0600 H     1 <1>   0.0800 
 28 H       -1.9980    -3.4310    -0.9280 H     1 <1>   0.0800 
 29 H       -2.1770    -3.5420     0.8020 H     1 <1>   0.0800 
 30 H       -4.2400    -4.9370     0.4570 H     1 <1>   0.0800 
 31 H       -4.0680    -4.8380    -1.2990 H     1 <1>   0.0800 
 32 H       -2.3510    -7.8060    -1.4040 H     1 <1>   0.0800 
 33 H       -1.9530    -7.9480     0.2990 H     1 <1>   0.0800 
 34 H       -5.1730    -6.8140    -1.6400 H     1 <1>   0.0800 
 35 H       -4.1740    -7.9830     0.9560 H     1 <1>   0.0800 
 36 H       -5.8430    -6.5290     1.0970 H     1 <1>   0.4000 
 37 H       -4.4220    -9.1520    -1.8350 H     1 <1>   0.0800 
 38 H       -5.5550    -9.4070    -0.5470 H     1 <1>   0.0800 
 39 H       -5.0320   -10.8330     1.3320 H     1 <1>   0.1500 
 40 H       -3.6630   -12.7250     2.1730 H     1 <1>   0.1500 
 41 H       -0.3670   -11.3630    -1.9920 H     1 <1>   0.1500 
 42 H       -1.5910   -14.1000     1.9010 H     1 <1>   0.1500 
 43 H        1.1100   -13.2120    -1.2680 H     1 <1>   0.1500 
 44 H        0.4930   -14.5730     0.6730 H     1 <1>   0.1500 
@<TRIPOS>BOND
  1   1   2  1   
  2   2   3  1   
  3   2   4  1   
  4   2   5  1   
  5   5   6  1   
  6   5  26  1   
  7   5  27  1   
  8   6   7  1   
  9   6  28  1   
 10   6  29  1   
 11   7   8  2   
 12   7   9  am  
 13   9  10  1   
 14   9  11  1   
 15  10  12  1   
 16  10  30  1   
 17  10  31  1   
 18  11  13  1   
 19  11  32  1   
 20  11  33  1   
 21  12  13  1   
 22  12  14  1   
 23  12  34  1   
 24  13  15  1   
 25  13  35  1   
 26  14  36  1   
 27  15  16  1   
 28  15  37  1   
 29  15  38  1   
 30  16  17  ar  
 31  16  18  ar  
 32  17  19  ar  
 33  18  20  ar  
 34  18  39  1   
 35  19  21  ar  
 36  19  22  ar  
 37  20  21  ar  
 38  20  40  1   
 39  21  23  ar  
 40  22  24  ar  
 41  22  41  1   
 42  23  25  ar  
 43  23  42  1   
 44  24  25  ar  
 45  24  43  1   
 46  25  44  1   
@<TRIPOS>SUBSTRUCTURE
  1 ****  11 GROUP 4 **** **** 0

# MOE 2024.06 (io_trps.svl 2023.06)
