@<TRIPOS>MOLECULE
NONAME
49 51 1 0 0 
SMALL
USER_CHARGES


@<TRIPOS>ATOM
  1 S        2.0670     0.4280     1.9930 S.3   1 <1>  -0.0800 
  2 C        1.9180     1.0610     0.3590 C.2   1 <1>  -0.1400 
  3 C        2.1830    -1.2170     1.3970 C.2   1 <1>  -0.1100 
  4 C        1.9600     0.0540    -0.5370 C.2   1 <1>  -0.1500 
  5 C        1.7780     2.5680     0.2240 C.3   1 <1>   0.3800 
  6 C        2.1100    -1.2410     0.0540 C.2   1 <1>  -0.1500 
  7 O        1.4030     2.8510    -1.0760 O.3   1 <1>  -0.6800 
  8 C        3.0950     3.3140     0.5450 C.3   1 <1>  -0.0800 
  9 C        2.9270     4.8440     0.4470 C.3   1 <1>  -0.1600 
 10 C        4.2720     2.8510    -0.3420 C.3   1 <1>  -0.1600 
 11 C        4.2370     5.5830     0.7130 C.3   1 <1>   0.3430 
 12 C        5.5500     3.6390    -0.0610 C.3   1 <1>   0.3430 
 13 N        5.2820     5.0900    -0.2300 N.4   1 <1>  -0.9590 
 14 C        6.5290     5.8780    -0.1170 C.3   1 <1>   0.5230 
 15 C        6.2500     7.3030    -0.5340 C.2   1 <1>  -0.3320 
 16 N        6.9260     8.3680    -0.0420 N.pl3 1 <1>   0.0480 
 17 C        5.3600     7.7960    -1.4280 C.2   1 <1>   0.0770 
 18 C        6.3780     9.4330    -0.6690 C.2   1 <1>   0.0360 
 19 C        8.0000     8.4410     0.9810 C.3   1 <1>   0.0960 
 20 N        5.4370     9.1310    -1.5000 N.2   1 <1>  -0.5650 
 21 C        9.3360     7.8930     0.4680 C.3   1 <1>   0.1200 
 22 O        9.2450     6.5110     0.2910 O.3   1 <1>  -0.5600 
 23 C       10.4350     5.9330    -0.1490 C.3   1 <1>   0.0400 
 24 H        2.2940    -2.0020     2.1240 H     1 <1>   0.1500 
 25 H        1.8950     0.1600    -1.6060 H     1 <1>   0.1500 
 26 H        0.9880     2.9120     0.8700 H     1 <1>   0.0800 
 27 H        2.1550    -2.1260    -0.5580 H     1 <1>   0.1500 
 28 H        0.6370     2.2890    -1.3070 H     1 <1>   0.4000 
 29 H        3.3450     3.0810     1.5660 H     1 <1>   0.0800 
 30 H        2.1920     5.1720     1.1620 H     1 <1>   0.0800 
 31 H        2.5660     5.1210    -0.5290 H     1 <1>   0.0800 
 32 H        4.0180     2.9550    -1.3830 H     1 <1>   0.0800 
 33 H        4.4710     1.8080    -0.1660 H     1 <1>   0.0800 
 34 H        4.5510     5.4120     1.7300 H     1 <1>   0.0800 
 35 H        4.0830     6.6420     0.5780 H     1 <1>   0.0800 
 36 H        6.3230     3.3210    -0.7420 H     1 <1>   0.0800 
 37 H        5.8810     3.4410     0.9470 H     1 <1>   0.0800 
 38 H        4.9290     5.2380    -1.1810 H     1 <1>   0.4500 
 39 H        7.2970     5.4670    -0.7530 H     1 <1>   0.0800 
 40 H        6.8880     5.8550     0.8990 H     1 <1>   0.0800 
 41 H        4.6510     7.2680    -2.0440 H     1 <1>   0.1500 
 42 H        6.7050    10.4420    -0.4800 H     1 <1>   0.1500 
 43 H        7.6970     7.9030     1.8600 H     1 <1>   0.0800 
 44 H        8.1330     9.4720     1.2550 H     1 <1>   0.0800 
 45 H       10.1100     8.0890     1.1920 H     1 <1>   0.0800 
 46 H        9.5990     8.3550    -0.4690 H     1 <1>   0.0800 
 47 H       10.2810     4.8740    -0.2560 H     1 <1>   0.0800 
 48 H       11.2100     6.1100     0.5780 H     1 <1>   0.0800 
 49 H       10.7090     6.3560    -1.1010 H     1 <1>   0.0800 
@<TRIPOS>BOND
  1   1   2  1   
  2   1   3  1   
  3   2   4  2   
  4   2   5  1   
  5   3   6  2   
  6   3  24  1   
  7   4   6  1   
  8   4  25  1   
  9   5   7  1   
 10   5   8  1   
 11   5  26  1   
 12   6  27  1   
 13   7  28  1   
 14   8   9  1   
 15   8  10  1   
 16   8  29  1   
 17   9  11  1   
 18   9  30  1   
 19   9  31  1   
 20  10  12  1   
 21  10  32  1   
 22  10  33  1   
 23  11  13  1   
 24  11  34  1   
 25  11  35  1   
 26  12  13  1   
 27  12  36  1   
 28  12  37  1   
 29  13  14  1   
 30  13  38  1   
 31  14  15  1   
 32  14  39  1   
 33  14  40  1   
 34  15  16  1   
 35  15  17  2   
 36  16  18  1   
 37  16  19  1   
 38  17  20  1   
 39  17  41  1   
 40  18  20  2   
 41  18  42  1   
 42  19  21  1   
 43  19  43  1   
 44  19  44  1   
 45  21  22  1   
 46  21  45  1   
 47  21  46  1   
 48  22  23  1   
 49  23  47  1   
 50  23  48  1   
 51  23  49  1   
@<TRIPOS>SUBSTRUCTURE
  1 ****  13 GROUP 4 **** **** 0

# MOE 2024.06 (io_trps.svl 2023.06)
