@<TRIPOS>MOLECULE
NONAME
37 38 1 0 0 
SMALL
USER_CHARGES


@<TRIPOS>ATOM
  1 O        0.3910     0.2210     0.2770 O.3   1 <1>  -0.0190 
  2 N       -0.2920     1.2900    -0.0660 N.2   1 <1>  -0.4100 
  3 C        1.6570     0.5760     0.2700 C.2   1 <1>  -0.0400 
  4 C        0.5120     2.2640    -0.2740 C.2   1 <1>   0.1080 
  5 C        1.8240     1.8670    -0.0730 C.2   1 <1>  -0.0540 
  6 C        2.6990    -0.4660     0.6240 C.3   1 <1>  -0.0600 
  7 C        0.0710     3.6550    -0.6760 C.3   1 <1>  -0.0590 
  8 C        3.0230     2.6610    -0.2040 C.ar  1 <1>   0.0540 
  9 C        3.8240     2.9290     0.9000 C.ar  1 <1>  -0.1500 
 10 C        3.4130     3.1760    -1.4350 C.ar  1 <1>  -0.1500 
 11 C        4.9750     3.6860     0.7780 C.ar  1 <1>  -0.1500 
 12 C        4.5630     3.9340    -1.5600 C.ar  1 <1>  -0.1500 
 13 C        5.3580     4.1980    -0.4540 C.ar  1 <1>  -0.1430 
 14 C        6.6210     5.0430    -0.6020 C.3   1 <1>   0.3430 
 15 O        7.6190     4.5120     0.2150 O.3   1 <1>  -0.5600 
 16 C        6.3560     6.4850    -0.1710 C.3   1 <1>  -0.2400 
 17 C        8.9220     4.7230    -0.2160 C.3   1 <1>   0.1200 
 18 C        9.8510     4.0880     0.8110 C.3   1 <1>  -0.2400 
 19 H        2.6230    -1.2980    -0.0530 H     1 <1>   0.0800 
 20 H        2.5380    -0.8150     1.6270 H     1 <1>   0.0800 
 21 H        3.6870    -0.0500     0.5520 H     1 <1>   0.0800 
 22 H       -0.9890     3.7600    -0.5310 H     1 <1>   0.0800 
 23 H        0.3000     3.8250    -1.7110 H     1 <1>   0.0800 
 24 H        0.5780     4.3880    -0.0750 H     1 <1>   0.0800 
 25 H        3.5400     2.5400     1.8610 H     1 <1>   0.1500 
 26 H        2.8090     2.9730    -2.3010 H     1 <1>   0.1500 
 27 H        5.5830     3.8790     1.6460 H     1 <1>   0.1500 
 28 H        4.8380     4.3190    -2.5270 H     1 <1>   0.1500 
 29 H        6.9530     5.0070    -1.6260 H     1 <1>   0.0800 
 30 H        6.0780     6.5110     0.8670 H     1 <1>   0.0800 
 31 H        5.5470     6.8900    -0.7510 H     1 <1>   0.0800 
 32 H        7.2250     7.0960    -0.3270 H     1 <1>   0.0800 
 33 H        9.1070     5.7810    -0.2880 H     1 <1>   0.0800 
 34 H        9.0500     4.2570    -1.1790 H     1 <1>   0.0800 
 35 H        9.7050     4.5480     1.7720 H     1 <1>   0.0800 
 36 H       10.8740     4.2250     0.5140 H     1 <1>   0.0800 
 37 H        9.6510     3.0340     0.8850 H     1 <1>   0.0800 
@<TRIPOS>BOND
  1   1   2  1   
  2   1   3  1   
  3   2   4  2   
  4   3   5  2   
  5   3   6  1   
  6   4   5  1   
  7   4   7  1   
  8   5   8  1   
  9   6  19  1   
 10   6  20  1   
 11   6  21  1   
 12   7  22  1   
 13   7  23  1   
 14   7  24  1   
 15   8   9  ar  
 16   8  10  ar  
 17   9  11  ar  
 18   9  25  1   
 19  10  12  ar  
 20  10  26  1   
 21  11  13  ar  
 22  11  27  1   
 23  12  13  ar  
 24  12  28  1   
 25  13  14  1   
 26  14  15  1   
 27  14  16  1   
 28  14  29  1   
 29  15  17  1   
 30  16  30  1   
 31  16  31  1   
 32  16  32  1   
 33  17  18  1   
 34  17  33  1   
 35  17  34  1   
 36  18  35  1   
 37  18  36  1   
 38  18  37  1   
@<TRIPOS>SUBSTRUCTURE
  1 ****   9 GROUP 4 **** **** 0

# MOE 2024.06 (io_trps.svl 2023.06)
