@<TRIPOS>MOLECULE
NONAME
49 52 1 0 0 
SMALL
USER_CHARGES


@<TRIPOS>ATOM
  1 S        0.9660    -3.4790     1.1880 S.3   1 <1>  -0.0800 
  2 C        0.4060    -1.9300     0.5630 C.2   1 <1>   0.3250 
  3 C       -0.6090    -3.8080     1.8140 C.2   1 <1>  -0.1100 
  4 N       -0.8460    -1.7400     0.8310 N.2   1 <1>  -0.5650 
  5 C        1.3580    -1.0850    -0.1520 C.ar  1 <1>   0.6730 
  6 C       -1.4510    -2.7900     1.5360 C.2   1 <1>   0.1410 
  7 N        0.8840     0.0170    -0.7560 N.ar  1 <1>  -0.6200 
  8 N        2.6500    -1.4510    -0.1710 N.ar  1 <1>  -0.6200 
  9 C       -2.8580    -2.7770     1.9550 C.2   1 <1>   0.7160 
 10 C        1.7430     0.7740    -1.3940 C.ar  1 <1>   0.1600 
 11 C        3.4880    -0.6770    -0.8170 C.ar  1 <1>   0.1600 
 12 O       -3.2000    -3.5690     2.8180 O.2   1 <1>  -0.5700 
 13 N       -3.8350    -1.9430     1.4320 N.am  1 <1>  -0.6600 
 14 C        3.0780     0.4660    -1.4550 C.ar  1 <1>  -0.1500 
 15 C       -3.6560    -1.1530     0.1760 C.3   1 <1>   0.1400 
 16 C       -5.1600    -1.8150     2.1120 C.3   1 <1>   0.1400 
 17 C       -5.0070    -0.9230    -0.5040 C.3   1 <1>  -0.1600 
 18 C       -5.7460    -0.4190     1.8840 C.3   1 <1>  -0.1600 
 19 C       -5.9650    -0.0980     0.3870 C.3   1 <1>   0.2800 
 20 O       -5.5500     1.2420     0.2280 O.3   1 <1>  -0.5600 
 21 C       -7.4680    -0.2890    -0.0060 C.3   1 <1>   0.2000 
 22 C       -6.4220     2.1830    -0.3290 C.3   1 <1>   0.1200 
 23 O       -7.8490    -1.6390     0.0550 O.3   1 <1>  -0.6800 
 24 C       -7.8490     0.3820    -1.3650 C.3   1 <1>   0.2800 
 25 C       -6.9880     1.6270    -1.6350 C.3   1 <1>  -0.1600 
 26 O       -9.1550     0.8220    -1.2570 O.3   1 <1>  -0.6800 
 27 C       -7.8360    -0.5550    -2.5820 C.3   1 <1>  -0.2400 
 28 H       -0.7710    -4.7320     2.3390 H     1 <1>   0.1500 
 29 H        1.3710     1.6610    -1.8790 H     1 <1>   0.1500 
 30 H        4.5270    -0.9620    -0.8380 H     1 <1>   0.1500 
 31 H        3.7740     1.0930    -1.9810 H     1 <1>   0.1500 
 32 H       -3.1970    -0.2070     0.4120 H     1 <1>   0.0800 
 33 H       -3.0130    -1.6850    -0.5020 H     1 <1>   0.0800 
 34 H       -5.8300    -2.5650     1.7270 H     1 <1>   0.0800 
 35 H       -5.0450    -1.9810     3.1700 H     1 <1>   0.0800 
 36 H       -5.4210    -1.8900    -0.7210 H     1 <1>   0.0800 
 37 H       -4.8480    -0.4220    -1.4390 H     1 <1>   0.0800 
 38 H       -5.0670     0.2930     2.3190 H     1 <1>   0.0800 
 39 H       -6.6730    -0.3470     2.4220 H     1 <1>   0.0800 
 40 H       -8.0430     0.2030     0.7590 H     1 <1>   0.0800 
 41 H       -7.2020     2.3990     0.3820 H     1 <1>   0.0800 
 42 H       -5.8570     3.0810    -0.5090 H     1 <1>   0.0800 
 43 H       -7.6160    -2.0890    -0.7780 H     1 <1>   0.4000 
 44 H       -6.1560     1.3810    -2.2690 H     1 <1>   0.0800 
 45 H       -7.5580     2.3870    -2.1390 H     1 <1>   0.0800 
 46 H       -9.4870     1.0980    -2.1310 H     1 <1>   0.4000 
 47 H       -6.8650    -0.9960    -2.7070 H     1 <1>   0.0800 
 48 H       -8.0660    -0.0090    -3.4800 H     1 <1>   0.0800 
 49 H       -8.5580    -1.3430    -2.4640 H     1 <1>   0.0800 
@<TRIPOS>BOND
  1   1   2  1   
  2   1   3  1   
  3   2   4  2   
  4   2   5  1   
  5   3   6  2   
  6   3  28  1   
  7   4   6  1   
  8   5   7  ar  
  9   5   8  ar  
 10   6   9  1   
 11   7  10  ar  
 12   8  11  ar  
 13   9  12  2   
 14   9  13  am  
 15  10  14  ar  
 16  10  29  1   
 17  11  14  ar  
 18  11  30  1   
 19  13  15  1   
 20  13  16  1   
 21  14  31  1   
 22  15  17  1   
 23  15  32  1   
 24  15  33  1   
 25  16  18  1   
 26  16  34  1   
 27  16  35  1   
 28  17  19  1   
 29  17  36  1   
 30  17  37  1   
 31  18  19  1   
 32  18  38  1   
 33  18  39  1   
 34  19  20  1   
 35  19  21  1   
 36  20  22  1   
 37  21  23  1   
 38  21  24  1   
 39  21  40  1   
 40  22  25  1   
 41  22  41  1   
 42  22  42  1   
 43  23  43  1   
 44  24  25  1   
 45  24  26  1   
 46  24  27  1   
 47  25  44  1   
 48  25  45  1   
 49  26  46  1   
 50  27  47  1   
 51  27  48  1   
 52  27  49  1   
@<TRIPOS>SUBSTRUCTURE
  1 ****  15 GROUP 4 **** **** 0

# MOE 2024.06 (io_trps.svl 2023.06)
