@<TRIPOS>MOLECULE
NONAME
48 49 1 0 0 
SMALL
USER_CHARGES


@<TRIPOS>ATOM
  1 O       -0.0110     0.9260    -0.7050 O.co2 1 <1>  -0.9000 
  2 C       -0.6270     1.3610     0.2700 C.2   1 <1>   0.9060 
  3 O       -0.9910     0.6780     1.2260 O.co2 1 <1>  -0.9000 
  4 C       -0.9730     2.8140     0.2910 C.3   1 <1>  -0.1860 
  5 C       -2.4890     2.9680     0.4160 C.3   1 <1>   0.2000 
  6 C       -0.4700     3.4600    -0.9840 C.3   1 <1>   0.3430 
  7 O       -2.7580     3.0540     1.7600 O.3   1 <1>  -0.6800 
  8 C       -3.0190     4.2370    -0.2580 C.3   1 <1>  -0.1600 
  9 N       -0.7360     4.9460    -0.9710 N.4   1 <1>  -0.9590 
 10 C       -1.9620     5.3310    -0.1810 C.3   1 <1>   0.3430 
 11 C        0.4870     5.6420    -0.4550 C.3   1 <1>   0.3430 
 12 C        0.4310     7.1610    -0.6420 C.3   1 <1>   0.1200 
 13 O        1.6540     7.6890    -0.1900 O.3   1 <1>  -0.3630 
 14 C        1.8980     9.0250    -0.2260 C.ar  1 <1>   0.0820 
 15 C        1.0020     9.9660    -0.7260 C.ar  1 <1>  -0.1500 
 16 C        3.1210     9.4460     0.2730 C.ar  1 <1>  -0.1500 
 17 C        1.3390    11.3080    -0.7200 C.ar  1 <1>  -0.1500 
 18 C        3.4560    10.7890     0.2790 C.ar  1 <1>  -0.1500 
 19 C        2.5600    11.7300    -0.2210 C.ar  1 <1>   0.0820 
 20 O        2.8030    13.0650    -0.2560 O.3   1 <1>  -0.3620 
 21 C        4.0160    13.5980     0.2270 C.3   1 <1>   0.1200 
 22 C        3.9760    15.1150     0.0470 C.3   1 <1>  -0.1600 
 23 C        5.2660    15.7720     0.5510 C.3   1 <1>  -0.2400 
 24 H       -0.4590     3.2490     1.1280 H     1 <1>   0.0800 
 25 H       -3.0070     2.1010     0.0340 H     1 <1>   0.0800 
 26 H       -0.9800     2.9980    -1.8140 H     1 <1>   0.0800 
 27 H        0.5830     3.2550    -1.1010 H     1 <1>   0.0800 
 28 H       -2.4270     2.2150     2.1690 H     1 <1>   0.4000 
 29 H       -3.2510     4.0350    -1.2870 H     1 <1>   0.0800 
 30 H       -3.9270     4.5530     0.2250 H     1 <1>   0.0800 
 31 H       -0.8780     5.2110    -1.9530 H     1 <1>   0.4500 
 32 H       -1.6990     5.4610     0.8570 H     1 <1>   0.0800 
 33 H       -2.3650     6.2610    -0.5480 H     1 <1>   0.0800 
 34 H        0.6080     5.4210     0.5930 H     1 <1>   0.0800 
 35 H        1.3530     5.2700    -0.9790 H     1 <1>   0.0800 
 36 H       -0.3560     7.5980    -0.0530 H     1 <1>   0.0800 
 37 H        0.3250     7.4150    -1.6820 H     1 <1>   0.0800 
 38 H        0.0460     9.6870    -1.1240 H     1 <1>   0.1500 
 39 H        3.8110     8.7170     0.6590 H     1 <1>   0.1500 
 40 H        0.6560    12.0450    -1.1040 H     1 <1>   0.1500 
 41 H        4.4110    11.0790     0.6720 H     1 <1>   0.1500 
 42 H        4.1090    13.3410     1.2680 H     1 <1>   0.0800 
 43 H        4.8240    13.1690    -0.3390 H     1 <1>   0.0800 
 44 H        3.8460    15.3440    -0.9970 H     1 <1>   0.0800 
 45 H        3.1390    15.5140     0.5930 H     1 <1>   0.0800 
 46 H        6.1170    15.4000     0.0070 H     1 <1>   0.0800 
 47 H        5.4080    15.5700     1.5990 H     1 <1>   0.0800 
 48 H        5.2130    16.8380     0.4140 H     1 <1>   0.0800 
@<TRIPOS>BOND
  1   1   2  ar  
  2   2   3  ar  
  3   2   4  1   
  4   4   5  1   
  5   4   6  1   
  6   4  24  1   
  7   5   7  1   
  8   5   8  1   
  9   5  25  1   
 10   6   9  1   
 11   6  26  1   
 12   6  27  1   
 13   7  28  1   
 14   8  10  1   
 15   8  29  1   
 16   8  30  1   
 17   9  10  1   
 18   9  11  1   
 19   9  31  1   
 20  10  32  1   
 21  10  33  1   
 22  11  12  1   
 23  11  34  1   
 24  11  35  1   
 25  12  13  1   
 26  12  36  1   
 27  12  37  1   
 28  13  14  1   
 29  14  15  ar  
 30  14  16  ar  
 31  15  17  ar  
 32  15  38  1   
 33  16  18  ar  
 34  16  39  1   
 35  17  19  ar  
 36  17  40  1   
 37  18  19  ar  
 38  18  41  1   
 39  19  20  1   
 40  20  21  1   
 41  21  22  1   
 42  21  42  1   
 43  21  43  1   
 44  22  23  1   
 45  22  44  1   
 46  22  45  1   
 47  23  46  1   
 48  23  47  1   
 49  23  48  1   
@<TRIPOS>SUBSTRUCTURE
  1 ****  12 GROUP 4 **** **** 0

# MOE 2024.06 (io_trps.svl 2023.06)
