@<TRIPOS>MOLECULE
NONAME
49 50 1 0 0 
SMALL
USER_CHARGES


@<TRIPOS>ATOM
  1 S        1.2170     1.1560     0.2000 S.o2  1 <1>   1.3330 
  2 O        2.2960     2.1170     0.1270 O.2   1 <1>  -0.6500 
  3 O        0.9590     0.4760     1.4460 O.2   1 <1>  -0.6500 
  4 N        1.3700     0.0340    -1.0580 N.am  1 <1>  -0.8490 
  5 C       -0.2570     2.0810    -0.2290 C.3   1 <1>  -0.0550 
  6 C        2.7670    -0.3380    -1.3120 C.3   1 <1>   0.1160 
  7 C        0.5730    -1.1830    -0.8530 C.3   1 <1>   0.1160 
  8 C       -0.8130     2.9570     0.9240 C.3   1 <1>  -0.0800 
  9 C       -1.6340     4.1190     0.3760 C.3   1 <1>   0.2000 
 10 C        0.2630     3.6860     1.7440 C.3   1 <1>   0.3430 
 11 O       -2.4180     4.6160     1.4080 O.3   1 <1>  -0.6800 
 12 C       -0.5650     5.1680     0.0400 C.3   1 <1>   0.3430 
 13 N        0.5290     4.9860     1.0530 N.4   1 <1>  -0.9590 
 14 C        1.9110     5.0490     0.4970 C.3   1 <1>   0.3430 
 15 C        2.2450     6.4760     0.0680 C.3   1 <1>  -0.1600 
 16 C        3.6900     6.5700    -0.4420 C.3   1 <1>   0.0960 
 17 N        3.9670     7.9480    -0.8930 N.pl3 1 <1>   0.0480 
 18 C        4.5140     8.9830    -0.2070 C.2   1 <1>   0.0060 
 19 C        3.6740     8.4560    -2.1030 C.2   1 <1>  -0.3020 
 20 N        4.5760    10.0790    -0.8880 N.2   1 <1>  -0.5650 
 21 C        5.0110     8.8880     1.2210 C.3   1 <1>  -0.0600 
 22 C        4.0520     9.7510    -2.0820 C.2   1 <1>   0.0770 
 23 H       -0.0250     2.6870    -1.0830 H     1 <1>   0.0800 
 24 H       -1.0260     1.3950    -0.5300 H     1 <1>   0.0800 
 25 H        2.8250    -1.0310    -2.1340 H     1 <1>   0.0800 
 26 H        3.2000    -0.7940    -0.4360 H     1 <1>   0.0800 
 27 H        3.3430     0.5340    -1.5690 H     1 <1>   0.0800 
 28 H        0.6450    -1.8230    -1.7160 H     1 <1>   0.0800 
 29 H       -0.4640    -0.9330    -0.7050 H     1 <1>   0.0800 
 30 H        0.9230    -1.7230     0.0120 H     1 <1>   0.0800 
 31 H       -1.3950     2.3250     1.5740 H     1 <1>   0.0800 
 32 H       -2.2670     3.8750    -0.4610 H     1 <1>   0.0800 
 33 H        1.1600     3.1060     1.8790 H     1 <1>   0.0800 
 34 H       -0.1460     3.8940     2.7210 H     1 <1>   0.0800 
 35 H       -3.2210     4.0690     1.5510 H     1 <1>   0.4000 
 36 H       -0.9800     6.1630     0.0710 H     1 <1>   0.0800 
 37 H       -0.1800     4.9750    -0.9470 H     1 <1>   0.0800 
 38 H        0.4120     5.7230     1.7630 H     1 <1>   0.4500 
 39 H        2.6160     4.7290     1.2480 H     1 <1>   0.0800 
 40 H        2.0020     4.3820    -0.3450 H     1 <1>   0.0800 
 41 H        2.1300     7.1410     0.9070 H     1 <1>   0.0800 
 42 H        1.5830     6.7850    -0.7220 H     1 <1>   0.0800 
 43 H        3.8430     5.9060    -1.2740 H     1 <1>   0.0800 
 44 H        4.3880     6.3100     0.3340 H     1 <1>   0.0800 
 45 H        3.2270     7.8910    -2.9000 H     1 <1>   0.1500 
 46 H        5.3790     9.8470     1.5390 H     1 <1>   0.0800 
 47 H        5.8150     8.1780     1.2870 H     1 <1>   0.0800 
 48 H        4.2130     8.5950     1.8770 H     1 <1>   0.0800 
 49 H        3.9760    10.4780    -2.8740 H     1 <1>   0.1500 
@<TRIPOS>BOND
  1   1   2  2   
  2   1   3  2   
  3   1   4  am  
  4   1   5  1   
  5   4   6  1   
  6   4   7  1   
  7   5   8  1   
  8   5  23  1   
  9   5  24  1   
 10   6  25  1   
 11   6  26  1   
 12   6  27  1   
 13   7  28  1   
 14   7  29  1   
 15   7  30  1   
 16   8   9  1   
 17   8  10  1   
 18   8  31  1   
 19   9  11  1   
 20   9  12  1   
 21   9  32  1   
 22  10  13  1   
 23  10  33  1   
 24  10  34  1   
 25  11  35  1   
 26  12  13  1   
 27  12  36  1   
 28  12  37  1   
 29  13  14  1   
 30  13  38  1   
 31  14  15  1   
 32  14  39  1   
 33  14  40  1   
 34  15  16  1   
 35  15  41  1   
 36  15  42  1   
 37  16  17  1   
 38  16  43  1   
 39  16  44  1   
 40  17  18  1   
 41  17  19  1   
 42  18  20  2   
 43  18  21  1   
 44  19  22  2   
 45  19  45  1   
 46  20  22  1   
 47  21  46  1   
 48  21  47  1   
 49  21  48  1   
 50  22  49  1   
@<TRIPOS>SUBSTRUCTURE
  1 ****  14 GROUP 4 **** **** 0

# MOE 2024.06 (io_trps.svl 2023.06)
