@<TRIPOS>MOLECULE
NONAME
53 56 1 0 0 
SMALL
USER_CHARGES


@<TRIPOS>ATOM
  1 O        0.3230    -0.2340     0.2980 O.2   1 <1>  -0.5700 
  2 C        1.3350    -0.8350    -0.0080 C.2   1 <1>   0.5440 
  3 N        2.4840    -0.1180    -0.2710 N.am  1 <1>  -0.6600 
  4 C        1.3050    -2.2830    -0.0730 C.ar  1 <1>   0.0860 
  5 C        2.4790     1.3710    -0.4070 C.3   1 <1>   0.1400 
  6 C        3.8620    -0.6930    -0.2000 C.3   1 <1>   0.1400 
  7 C        0.7840    -3.0370     0.9770 C.ar  1 <1>  -0.1500 
  8 C        1.7900    -2.9820    -1.1780 C.ar  1 <1>  -0.1500 
  9 C        3.4130     2.0130     0.6320 C.3   1 <1>   0.1200 
 10 C        4.7180     0.0730     0.8230 C.3   1 <1>   0.1200 
 11 C        0.7630    -4.4180     0.9330 C.ar  1 <1>  -0.1500 
 12 C        1.7690    -4.3630    -1.2230 C.ar  1 <1>  -0.1500 
 13 O        4.6920     1.4470     0.5610 O.3   1 <1>  -0.5600 
 14 C        1.2500    -5.1160    -0.1710 C.ar  1 <1>   0.0860 
 15 C        1.2310    -6.5640    -0.2340 C.2   1 <1>   0.5440 
 16 O        2.2460    -7.1660    -0.5250 O.2   1 <1>  -0.5700 
 17 N        0.0840    -7.2830     0.0130 N.am  1 <1>  -0.6600 
 18 C       -1.2910    -6.7240    -0.0200 C.3   1 <1>   0.1400 
 19 C        0.0460    -8.7650    -0.0720 C.3   1 <1>   0.1400 
 20 C       -2.1990    -7.9260    -0.2760 C.3   1 <1>   0.2000 
 21 C       -1.4110    -9.1440     0.2000 C.3   1 <1>  -0.0800 
 22 O       -3.3900    -7.8270     0.4270 O.3   1 <1>  -0.6800 
 23 C       -1.8640   -10.4460    -0.4820 C.3   1 <1>  -0.0170 
 24 C       -1.1100   -11.6530     0.0530 C.ar  1 <1>   0.1670 
 25 N        0.0740   -11.8970    -0.4850 N.ar  1 <1>  -0.6200 
 26 C       -1.6710   -12.4340     1.0620 C.ar  1 <1>   0.1600 
 27 C        0.6540   -12.9590     0.0490 C.ar  1 <1>   0.1600 
 28 N       -1.0930   -13.4950     1.5990 N.ar  1 <1>  -0.6200 
 29 C        0.0900   -13.7310     1.0570 C.ar  1 <1>   0.1600 
 30 H        2.8150     1.6360    -1.3930 H     1 <1>   0.0800 
 31 H        1.4860     1.7650    -0.2820 H     1 <1>   0.0800 
 32 H        3.8320    -1.7290     0.0840 H     1 <1>   0.0800 
 33 H        4.3250    -0.6240    -1.1690 H     1 <1>   0.0800 
 34 H        0.3930    -2.5180     1.8370 H     1 <1>   0.1500 
 35 H        2.1860    -2.4260    -2.0110 H     1 <1>   0.1500 
 36 H        3.0250     1.8730     1.6260 H     1 <1>   0.0800 
 37 H        3.5080     3.0670     0.4430 H     1 <1>   0.0800 
 38 H        5.7410    -0.2520     0.7700 H     1 <1>   0.0800 
 39 H        4.3530    -0.0940     1.8220 H     1 <1>   0.0800 
 40 H        0.3680    -4.9720     1.7670 H     1 <1>   0.1500 
 41 H        2.1590    -4.8810    -2.0830 H     1 <1>   0.1500 
 42 H       -1.5140    -6.2740     0.9310 H     1 <1>   0.0800 
 43 H       -1.3880    -5.9980    -0.8090 H     1 <1>   0.0800 
 44 H        0.3470    -9.0690    -1.0610 H     1 <1>   0.0800 
 45 H        0.7150    -9.2070     0.6480 H     1 <1>   0.0800 
 46 H       -2.4270    -7.9930    -1.3270 H     1 <1>   0.0800 
 47 H       -1.5170    -9.2430     1.2670 H     1 <1>   0.0800 
 48 H       -3.2190    -7.7800     1.3870 H     1 <1>   0.4000 
 49 H       -1.7090   -10.3790    -1.5450 H     1 <1>   0.0800 
 50 H       -2.9180   -10.5820    -0.3180 H     1 <1>   0.0800 
 51 H       -2.6410   -12.1680     1.4440 H     1 <1>   0.1500 
 52 H        1.6240   -13.2310    -0.3290 H     1 <1>   0.1500 
 53 H        0.6400   -14.5780     1.4280 H     1 <1>   0.1500 
@<TRIPOS>BOND
  1   1   2  2   
  2   2   3  am  
  3   2   4  1   
  4   3   5  1   
  5   3   6  1   
  6   4   7  ar  
  7   4   8  ar  
  8   5   9  1   
  9   5  30  1   
 10   5  31  1   
 11   6  10  1   
 12   6  32  1   
 13   6  33  1   
 14   7  11  ar  
 15   7  34  1   
 16   8  12  ar  
 17   8  35  1   
 18   9  13  1   
 19   9  36  1   
 20   9  37  1   
 21  10  13  1   
 22  10  38  1   
 23  10  39  1   
 24  11  14  ar  
 25  11  40  1   
 26  12  14  ar  
 27  12  41  1   
 28  14  15  1   
 29  15  16  2   
 30  15  17  am  
 31  17  18  1   
 32  17  19  1   
 33  18  20  1   
 34  18  42  1   
 35  18  43  1   
 36  19  21  1   
 37  19  44  1   
 38  19  45  1   
 39  20  21  1   
 40  20  22  1   
 41  20  46  1   
 42  21  23  1   
 43  21  47  1   
 44  22  48  1   
 45  23  24  1   
 46  23  49  1   
 47  23  50  1   
 48  24  25  ar  
 49  24  26  ar  
 50  25  27  ar  
 51  26  28  ar  
 52  26  51  1   
 53  27  29  ar  
 54  27  52  1   
 55  28  29  ar  
 56  29  53  1   
@<TRIPOS>SUBSTRUCTURE
  1 ****  14 GROUP 4 **** **** 0

# MOE 2024.06 (io_trps.svl 2023.06)
