@<TRIPOS>MOLECULE
NONAME
35 37 1 0 0 
SMALL
USER_CHARGES


@<TRIPOS>ATOM
  1 O        0.1270    -0.1310     0.3920 O.2   1 <1>  -0.5700 
  2 C        1.2000    -0.6500     0.1240 C.2   1 <1>   0.5440 
  3 N        2.3020     0.1420    -0.0550 N.am  1 <1>  -0.4930 
  4 C        1.3360    -2.1000    -0.0090 C.ar  1 <1>   0.3960 
  5 C        2.4470     1.5540    -0.0070 C.2   1 <1>   0.0630 
  6 N        2.5540    -2.6100    -0.2810 N.ar  1 <1>  -0.6200 
  7 C        0.2240    -2.9250     0.1440 C.ar  1 <1>  -0.1500 
  8 C        3.6260     2.2240    -0.0160 C.2   1 <1>  -0.0680 
  9 C        1.4670     2.5500     0.0360 C.2   1 <1>   0.1390 
 10 C        2.6430    -3.9230    -0.3960 C.ar  1 <1>   0.1600 
 11 C        0.3320    -4.2920     0.0230 C.ar  1 <1>   0.0830 
 12 N        3.3050     3.5440    -0.0010 N.pl3 1 <1>   0.3140 
 13 N        4.9570     1.7410    -0.0290 N.pl3 1 <1>  -0.8530 
 14 N        1.9690     3.7520     0.0430 N.2   1 <1>  -0.7070 
 15 C        1.5860    -4.8010    -0.2570 C.ar  1 <1>  -0.1500 
 16 O       -0.7820    -5.0370     0.1820 O.3   1 <1>  -0.3630 
 17 C        4.3080     4.6200     0.0400 C.3   1 <1>   0.0960 
 18 C        6.0180     2.7390     0.2740 C.3   1 <1>   0.2090 
 19 C       -0.7570    -6.4430     0.0740 C.3   1 <1>   0.0400 
 20 C        5.6860     4.0840    -0.3920 C.3   1 <1>  -0.1600 
 21 H        3.1540    -0.3640    -0.3090 H     1 <1>   0.3700 
 22 H       -0.7360    -2.4940     0.3610 H     1 <1>   0.1500 
 23 H        0.4100     2.3460     0.0590 H     1 <1>   0.1500 
 24 H        3.6190    -4.3270    -0.6140 H     1 <1>   0.1500 
 25 H        5.0740     0.8820     0.5220 H     1 <1>   0.4000 
 26 H        1.7580    -5.8540    -0.3690 H     1 <1>   0.1500 
 27 H        4.3490     4.9870     1.0480 H     1 <1>   0.0800 
 28 H        3.9870     5.4140    -0.6080 H     1 <1>   0.0800 
 29 H        6.9610     2.3730    -0.0960 H     1 <1>   0.0800 
 30 H        6.0930     2.8640     1.3410 H     1 <1>   0.0800 
 31 H       -1.7540    -6.8080     0.2400 H     1 <1>   0.0800 
 32 H       -0.0940    -6.8390     0.8230 H     1 <1>   0.0800 
 33 H       -0.4290    -6.7120    -0.9140 H     1 <1>   0.0800 
 34 H        6.4440     4.8050    -0.1490 H     1 <1>   0.0800 
 35 H        5.6950     3.9500    -1.4600 H     1 <1>   0.0800 
@<TRIPOS>BOND
  1   1   2  2   
  2   2   3  am  
  3   2   4  1   
  4   3   5  1   
  5   3  21  1   
  6   4   6  ar  
  7   4   7  ar  
  8   5   8  2   
  9   5   9  1   
 10   6  10  ar  
 11   7  11  ar  
 12   7  22  1   
 13   8  12  1   
 14   8  13  1   
 15   9  14  2   
 16   9  23  1   
 17  10  15  ar  
 18  10  24  1   
 19  11  15  ar  
 20  11  16  1   
 21  12  14  1   
 22  12  17  1   
 23  13  18  1   
 24  13  25  1   
 25  15  26  1   
 26  16  19  1   
 27  17  20  1   
 28  17  27  1   
 29  17  28  1   
 30  18  20  1   
 31  18  29  1   
 32  18  30  1   
 33  19  31  1   
 34  19  32  1   
 35  19  33  1   
 36  20  34  1   
 37  20  35  1   
@<TRIPOS>SUBSTRUCTURE
  1 ****   3 GROUP 4 **** **** 0

# MOE 2024.06 (io_trps.svl 2023.06)
