@<TRIPOS>MOLECULE
NONAME
46 47 1 0 0 
SMALL
USER_CHARGES


@<TRIPOS>ATOM
  1 S        0.8310    -0.1880     1.7060 S.o2  1 <1>   1.3330 
  2 O        1.2460     0.8670     2.6040 O.2   1 <1>  -0.6500 
  3 O        0.0440    -1.2900     2.1980 O.2   1 <1>  -0.6500 
  4 N        2.2660    -0.8150     0.9670 N.am  1 <1>  -0.6930 
  5 C        0.0030     0.5500     0.3150 C.3   1 <1>  -0.1350 
  6 C        2.2330    -1.8410     0.0240 C.ar  1 <1>   0.1990 
  7 C        3.5570    -0.1050     1.2330 C.3   1 <1>   0.2570 
  8 C        1.7070    -3.0880     0.3430 C.ar  1 <1>  -0.1500 
  9 C        2.7260    -1.6420    -1.2610 C.ar  1 <1>  -0.1500 
 10 C        3.6820     1.2580     0.5400 C.2   1 <1>   0.5690 
 11 C        1.6600    -4.1090    -0.5900 C.ar  1 <1>  -0.1440 
 12 C        2.6880    -2.6560    -2.2000 C.ar  1 <1>  -0.1500 
 13 O        4.3710     1.3580    -0.4490 O.2   1 <1>  -0.5700 
 14 N        3.0260     2.3350     1.0490 N.am  1 <1>  -0.7300 
 15 C        2.1550    -3.8890    -1.8650 C.ar  1 <1>  -0.1500 
 16 C        1.0780    -5.4620    -0.2240 C.3   1 <1>  -0.0970 
 17 C        3.0230     3.6870     0.4460 C.3   1 <1>   0.1400 
 18 C        4.2460     4.4770     0.9090 C.3   1 <1>   0.0200 
 19 C        4.4340     5.6810     0.0090 C.2   1 <1>   0.0060 
 20 N        3.9410     6.8450     0.2810 N.2   1 <1>  -0.5650 
 21 N        5.1210     5.6370    -1.1600 N.pl3 1 <1>   0.0480 
 22 C        4.3260     7.6070    -0.7580 C.2   1 <1>   0.0770 
 23 C        5.0450     6.8880    -1.6460 C.2   1 <1>  -0.3020 
 24 C        5.8060     4.4900    -1.7880 C.3   1 <1>   0.0160 
 25 H       -0.9120     1.0110     0.6330 H     1 <1>   0.0800 
 26 H       -0.2270    -0.2000    -0.4160 H     1 <1>   0.0800 
 27 H        0.6260     1.2950    -0.1400 H     1 <1>   0.0800 
 28 H        4.3720    -0.7250     0.9040 H     1 <1>   0.0800 
 29 H        3.6690     0.0330     2.2930 H     1 <1>   0.0800 
 30 H        1.3350    -3.2580     1.3370 H     1 <1>   0.1500 
 31 H        3.1390    -0.6880    -1.5360 H     1 <1>   0.1500 
 32 H        3.0740    -2.4900    -3.1910 H     1 <1>   0.1500 
 33 H        2.4320     2.2030     1.8850 H     1 <1>   0.3700 
 34 H        2.1280    -4.6750    -2.6000 H     1 <1>   0.1500 
 35 H        0.4590    -5.3850     0.6520 H     1 <1>   0.0800 
 36 H        1.8720    -6.1590    -0.0270 H     1 <1>   0.0800 
 37 H        0.4750    -5.8380    -1.0310 H     1 <1>   0.0800 
 38 H        2.1240     4.2130     0.7170 H     1 <1>   0.0800 
 39 H        3.0430     3.5900    -0.6270 H     1 <1>   0.0800 
 40 H        5.1270     3.8620     0.8730 H     1 <1>   0.0800 
 41 H        4.0980     4.8080     1.9210 H     1 <1>   0.0800 
 42 H        4.0610     8.6490    -0.8130 H     1 <1>   0.1500 
 43 H        5.4940     7.1940    -2.5730 H     1 <1>   0.1500 
 44 H        5.1580     3.6330    -1.7810 H     1 <1>   0.0800 
 45 H        6.7000     4.2660    -1.2360 H     1 <1>   0.0800 
 46 H        6.0630     4.7340    -2.8020 H     1 <1>   0.0800 
@<TRIPOS>BOND
  1   1   2  2   
  2   1   3  2   
  3   1   4  am  
  4   1   5  1   
  5   4   6  1   
  6   4   7  1   
  7   5  25  1   
  8   5  26  1   
  9   5  27  1   
 10   6   8  ar  
 11   6   9  ar  
 12   7  10  1   
 13   7  28  1   
 14   7  29  1   
 15   8  11  ar  
 16   8  30  1   
 17   9  12  ar  
 18   9  31  1   
 19  10  13  2   
 20  10  14  am  
 21  11  15  ar  
 22  11  16  1   
 23  12  15  ar  
 24  12  32  1   
 25  14  17  1   
 26  14  33  1   
 27  15  34  1   
 28  16  35  1   
 29  16  36  1   
 30  16  37  1   
 31  17  18  1   
 32  17  38  1   
 33  17  39  1   
 34  18  19  1   
 35  18  40  1   
 36  18  41  1   
 37  19  20  2   
 38  19  21  1   
 39  20  22  1   
 40  21  23  1   
 41  21  24  1   
 42  22  23  2   
 43  22  42  1   
 44  23  43  1   
 45  24  44  1   
 46  24  45  1   
 47  24  46  1   
@<TRIPOS>SUBSTRUCTURE
  1 ****  10 GROUP 4 **** **** 0

# MOE 2024.06 (io_trps.svl 2023.06)
