@<TRIPOS>MOLECULE
NONAME
43 44 1 0 0 
SMALL
USER_CHARGES


@<TRIPOS>ATOM
  1 S       -1.6380    -1.1890    -1.2950 S.3   1 <1>  -0.4600 
  2 C       -2.2370    -2.9010    -1.5000 C.3   1 <1>   0.2510 
  3 C       -0.0810    -1.1670    -2.2230 C.3   1 <1>  -0.0100 
  4 C       -3.5440    -3.1050    -0.7470 C.2   1 <1>   0.3350 
  5 N       -4.6970    -3.1370    -1.2890 N.2   1 <1>  -0.4100 
  6 N       -3.5750    -3.2940     0.5670 N.2   1 <1>  -0.5650 
  7 O       -5.5620    -3.3230    -0.3400 O.3   1 <1>  -0.0190 
  8 C       -4.8310    -3.4110     0.7440 C.2   1 <1>   0.2980 
  9 C       -5.5300    -3.6590     2.0730 C.3   1 <1>   0.3200 
 10 N       -6.1920    -4.9860     2.0730 N.am  1 <1>  -0.7300 
 11 C       -7.5310    -5.1880     2.1070 C.2   1 <1>   0.5690 
 12 O       -8.3050    -4.3080     2.3950 O.2   1 <1>  -0.5700 
 13 C       -8.0520    -6.5790     1.7290 C.3   1 <1>   0.1710 
 14 N       -7.1710    -7.3050     0.7660 N.3   1 <1>  -0.8100 
 15 C       -7.1950    -6.6630    -0.5700 C.3   1 <1>   0.1100 
 16 C       -7.5860    -8.7150     0.6190 C.3   1 <1>   0.1100 
 17 C       -6.3310    -7.4460    -1.5810 C.3   1 <1>   0.2000 
 18 C       -6.7230    -9.4480    -0.4330 C.3   1 <1>   0.2000 
 19 O       -6.7680    -8.7700    -1.6530 O.3   1 <1>  -0.5600 
 20 C       -6.4250    -6.8600    -2.9870 C.3   1 <1>  -0.2400 
 21 C       -7.2200   -10.8670    -0.6940 C.3   1 <1>  -0.2400 
 22 H       -2.3770    -3.0640    -2.5520 H     1 <1>   0.0800 
 23 H       -1.4760    -3.5570    -1.1190 H     1 <1>   0.0800 
 24 H        0.3320    -0.1770    -2.1420 H     1 <1>   0.0800 
 25 H       -0.2980    -1.4070    -3.2490 H     1 <1>   0.0800 
 26 H        0.5810    -1.8930    -1.7840 H     1 <1>   0.0800 
 27 H       -6.2550    -2.8810     2.2410 H     1 <1>   0.0800 
 28 H       -4.8060    -3.6250     2.8670 H     1 <1>   0.0800 
 29 H       -5.6360    -5.7720     1.7210 H     1 <1>   0.3700 
 30 H       -9.0400    -6.4760     1.3160 H     1 <1>   0.0800 
 31 H       -8.1290    -7.1480     2.6370 H     1 <1>   0.0800 
 32 H       -8.2060    -6.6150    -0.9400 H     1 <1>   0.0800 
 33 H       -6.8200    -5.6580    -0.5030 H     1 <1>   0.0800 
 34 H       -7.4840    -9.2160     1.5660 H     1 <1>   0.0800 
 35 H       -8.6190    -8.7660     0.3200 H     1 <1>   0.0800 
 36 H       -5.3040    -7.4450    -1.2580 H     1 <1>   0.0800 
 37 H       -5.6980    -9.4800    -0.1030 H     1 <1>   0.0800 
 38 H       -7.4420    -6.8850    -3.3330 H     1 <1>   0.0800 
 39 H       -5.8070    -7.4280    -3.6580 H     1 <1>   0.0800 
 40 H       -6.0830    -5.8410    -2.9840 H     1 <1>   0.0800 
 41 H       -8.2310   -10.8460    -1.0580 H     1 <1>   0.0800 
 42 H       -7.1870   -11.4430     0.2120 H     1 <1>   0.0800 
 43 H       -6.5900   -11.3420    -1.4250 H     1 <1>   0.0800 
@<TRIPOS>BOND
  1   1   2  1   
  2   1   3  1   
  3   2   4  1   
  4   2  22  1   
  5   2  23  1   
  6   3  24  1   
  7   3  25  1   
  8   3  26  1   
  9   4   5  2   
 10   4   6  1   
 11   5   7  1   
 12   6   8  2   
 13   7   8  1   
 14   8   9  1   
 15   9  10  1   
 16   9  27  1   
 17   9  28  1   
 18  10  11  am  
 19  10  29  1   
 20  11  12  2   
 21  11  13  1   
 22  13  14  1   
 23  13  30  1   
 24  13  31  1   
 25  14  15  1   
 26  14  16  1   
 27  15  17  1   
 28  15  32  1   
 29  15  33  1   
 30  16  18  1   
 31  16  34  1   
 32  16  35  1   
 33  17  19  1   
 34  17  20  1   
 35  17  36  1   
 36  18  19  1   
 37  18  21  1   
 38  18  37  1   
 39  20  38  1   
 40  20  39  1   
 41  20  40  1   
 42  21  41  1   
 43  21  42  1   
 44  21  43  1   
@<TRIPOS>SUBSTRUCTURE
  1 ****   7 GROUP 4 **** **** 0

# MOE 2024.06 (io_trps.svl 2023.06)
