@<TRIPOS>MOLECULE
NONAME
55 58 1 0 0 
SMALL
USER_CHARGES


@<TRIPOS>ATOM
  1 O        0.4020     0.5130    -1.1150 O.2   1 <1>  -0.5700 
  2 C        1.5210     0.3540    -0.6820 C.2   1 <1>   0.7150 
  3 N        1.7830    -0.8970    -0.2230 N.am  1 <1>  -0.7300 
  4 C        2.4520     1.4450    -0.6890 C.2   1 <1>  -0.2370 
  5 C        2.8330    -1.4680     0.6660 C.3   1 <1>   0.1400 
  6 N        3.7910     1.3670    -0.5220 N.pl3 1 <1>   0.3140 
  7 C        2.2020     2.7650    -0.8830 C.2   1 <1>  -0.1500 
  8 C        4.0230    -0.5480     0.9790 C.3   1 <1>   0.2000 
  9 N        4.3870     2.5580    -0.5980 N.2   1 <1>  -0.7070 
 10 C        4.5870     0.1630    -0.2490 C.3   1 <1>   0.0960 
 11 C        3.4220     3.4370    -0.8200 C.2   1 <1>   0.2030 
 12 O        5.0290    -1.3270     1.5390 O.3   1 <1>  -0.6800 
 13 C        3.5340     4.8920    -0.9630 C.2   1 <1>   0.7160 
 14 O        2.5200     5.5670    -0.8590 O.2   1 <1>  -0.5700 
 15 N        4.7200     5.5700    -1.2110 N.am  1 <1>  -0.6600 
 16 C        5.9420     4.9150    -1.7510 C.3   1 <1>   0.2350 
 17 C        4.7950     7.0540    -1.0820 C.3   1 <1>   0.1400 
 18 C        6.9960     4.7620    -0.6500 C.3   1 <1>  -0.1950 
 19 C        4.8450     7.4670     0.3920 C.3   1 <1>  -0.0220 
 20 C        7.9680     5.8510    -0.3150 C.3   1 <1>  -0.2000 
 21 C        8.4420     4.6020    -1.0020 C.3   1 <1>  -0.2000 
 22 C        5.1120     8.9600     0.5370 C.2   1 <1>  -0.2760 
 23 C        6.2990     9.4450     0.9180 C.2   1 <1>  -0.2880 
 24 C        3.9150     9.8570     0.2310 C.3   1 <1>  -0.0220 
 25 C        6.6020    10.9220     1.1080 C.3   1 <1>  -0.0220 
 26 C        4.3330    11.3260     0.0600 C.3   1 <1>  -0.1600 
 27 C        5.3140    11.7560     1.1590 C.3   1 <1>  -0.1600 
 28 H        0.9740    -1.5100    -0.3530 H     1 <1>   0.3700 
 29 H        3.2020    -2.3620     0.1940 H     1 <1>   0.0800 
 30 H        2.3710    -1.7520     1.5970 H     1 <1>   0.0800 
 31 H        1.2460     3.2310    -1.0550 H     1 <1>   0.1500 
 32 H        3.7450     0.1760     1.7270 H     1 <1>   0.0800 
 33 H        5.5970     0.4770    -0.0570 H     1 <1>   0.0800 
 34 H        4.5640    -0.4720    -1.1140 H     1 <1>   0.0800 
 35 H        5.3860    -1.9770     0.9030 H     1 <1>   0.4000 
 36 H        6.3380     5.5120    -2.5540 H     1 <1>   0.0800 
 37 H        5.7050     3.9520    -2.1650 H     1 <1>   0.0800 
 38 H        3.9370     7.4980    -1.5570 H     1 <1>   0.0800 
 39 H        5.6730     7.4250    -1.5810 H     1 <1>   0.0800 
 40 H        6.6340     4.1490     0.1580 H     1 <1>   0.1000 
 41 H        5.6300     6.9200     0.8800 H     1 <1>   0.0800 
 42 H        3.9180     7.2160     0.8770 H     1 <1>   0.0800 
 43 H        8.2240     6.0070     0.7190 H     1 <1>   0.1000 
 44 H        7.9430     6.7700    -0.8750 H     1 <1>   0.1000 
 45 H        8.7500     4.6700    -2.0310 H     1 <1>   0.1000 
 46 H        9.0330     3.8970    -0.4410 H     1 <1>   0.1000 
 47 H        7.1490     8.8170     1.1230 H     1 <1>   0.1500 
 48 H        3.2110     9.7750     1.0410 H     1 <1>   0.0800 
 49 H        3.4210     9.5360    -0.6680 H     1 <1>   0.0800 
 50 H        7.2210    11.2560     0.2930 H     1 <1>   0.0800 
 51 H        7.1480    11.0640     2.0240 H     1 <1>   0.0800 
 52 H        3.4590    11.9520     0.0800 H     1 <1>   0.0800 
 53 H        4.8070    11.4450    -0.8990 H     1 <1>   0.0800 
 54 H        5.5550    12.7990     1.0520 H     1 <1>   0.0800 
 55 H        4.8450    11.6180     2.1180 H     1 <1>   0.0800 
@<TRIPOS>BOND
  1   1   2  2   
  2   2   3  am  
  3   2   4  1   
  4   3   5  1   
  5   3  28  1   
  6   4   6  1   
  7   4   7  2   
  8   5   8  1   
  9   5  29  1   
 10   5  30  1   
 11   6   9  1   
 12   6  10  1   
 13   7  11  1   
 14   7  31  1   
 15   8  10  1   
 16   8  12  1   
 17   8  32  1   
 18   9  11  2   
 19  10  33  1   
 20  10  34  1   
 21  11  13  1   
 22  12  35  1   
 23  13  14  2   
 24  13  15  am  
 25  15  16  1   
 26  15  17  1   
 27  16  18  1   
 28  16  36  1   
 29  16  37  1   
 30  17  19  1   
 31  17  38  1   
 32  17  39  1   
 33  18  20  1   
 34  18  21  1   
 35  18  40  1   
 36  19  22  1   
 37  19  41  1   
 38  19  42  1   
 39  20  21  1   
 40  20  43  1   
 41  20  44  1   
 42  21  45  1   
 43  21  46  1   
 44  22  23  2   
 45  22  24  1   
 46  23  25  1   
 47  23  47  1   
 48  24  26  1   
 49  24  48  1   
 50  24  49  1   
 51  25  27  1   
 52  25  50  1   
 53  25  51  1   
 54  26  27  1   
 55  26  52  1   
 56  26  53  1   
 57  27  54  1   
 58  27  55  1   
@<TRIPOS>SUBSTRUCTURE
  1 ****  13 GROUP 4 **** **** 0

# MOE 2024.06 (io_trps.svl 2023.06)
