@<TRIPOS>MOLECULE
NONAME
44 45 1 0 0 
SMALL
USER_CHARGES


@<TRIPOS>ATOM
  1 F        0.4120     1.0280     0.5600 F     1 <1>  -0.1900 
  2 C        1.6460     1.4540     0.4100 C.ar  1 <1>   0.1900 
  3 C        1.9290     2.7870     0.1810 C.ar  1 <1>   0.3920 
  4 C        2.6850     0.5680     0.4770 C.ar  1 <1>   0.1600 
  5 O        0.9100     3.6700     0.0930 O.3   1 <1>  -0.3630 
  6 N        3.1730     3.2130     0.0390 N.ar  1 <1>  -0.6200 
  7 N        3.9300     0.9690     0.3280 N.ar  1 <1>  -0.6200 
  8 C        1.1170     5.0150    -0.2800 C.3   1 <1>   0.0400 
  9 C        4.1170     2.2710     0.1110 C.ar  1 <1>   0.7200 
 10 N        5.4270     2.6950    -0.0410 N.pl3 1 <1>  -0.8380 
 11 C        5.7440     4.0740    -0.4990 C.3   1 <1>   0.2090 
 12 C        6.5520     1.7080    -0.0920 C.3   1 <1>   0.1290 
 13 C        5.6250     5.0370     0.6960 C.3   1 <1>   0.3430 
 14 N        5.6870     6.4960     0.3190 N.4   1 <1>  -0.9590 
 15 C        7.0510     7.0810     0.4780 C.3   1 <1>   0.4230 
 16 C        4.6830     7.2380     1.1450 C.3   1 <1>   0.2630 
 17 C        7.0930     8.5520     0.0560 C.3   1 <1>  -0.1600 
 18 C        8.0870     6.4100    -0.4160 C.3   1 <1>  -0.1600 
 19 C        8.4870     8.8010    -0.5330 C.3   1 <1>  -0.1600 
 20 C        9.1970     7.4480    -0.5530 C.3   1 <1>  -0.1600 
 21 H        2.4930    -0.4760     0.6540 H     1 <1>   0.1500 
 22 H        0.1590     5.5010    -0.3240 H     1 <1>   0.0800 
 23 H        1.5860     5.0380    -1.2480 H     1 <1>   0.0800 
 24 H        1.7380     5.4880     0.4580 H     1 <1>   0.0800 
 25 H        5.0490     4.3550    -1.2710 H     1 <1>   0.0800 
 26 H        6.7360     4.0970    -0.9110 H     1 <1>   0.0800 
 27 H        6.4370     0.9670     0.6820 H     1 <1>   0.0800 
 28 H        7.4980     2.1980     0.0540 H     1 <1>   0.0800 
 29 H        6.5540     1.2100    -1.0470 H     1 <1>   0.0800 
 30 H        6.3930     4.8070     1.4140 H     1 <1>   0.0800 
 31 H        4.6730     4.8370     1.1600 H     1 <1>   0.0800 
 32 H        5.4220     6.5910    -0.6700 H     1 <1>   0.4500 
 33 H        7.3770     7.0040     1.5040 H     1 <1>   0.0800 
 34 H        4.9460     7.1890     2.1890 H     1 <1>   0.0800 
 35 H        3.7030     6.8060     1.0170 H     1 <1>   0.0800 
 36 H        4.6390     8.2740     0.8490 H     1 <1>   0.0800 
 37 H        6.9220     9.1960     0.9010 H     1 <1>   0.0800 
 38 H        6.3600     8.7550    -0.7050 H     1 <1>   0.0800 
 39 H        7.6770     6.2220    -1.3930 H     1 <1>   0.0800 
 40 H        8.4680     5.5000     0.0120 H     1 <1>   0.0800 
 41 H        9.0440     9.5110     0.0570 H     1 <1>   0.0800 
 42 H        8.3990     9.1880    -1.5350 H     1 <1>   0.0800 
 43 H        9.7720     7.3090    -1.4540 H     1 <1>   0.0800 
 44 H        9.8620     7.3810     0.2930 H     1 <1>   0.0800 
@<TRIPOS>BOND
  1   1   2  1   
  2   2   3  ar  
  3   2   4  ar  
  4   3   5  1   
  5   3   6  ar  
  6   4   7  ar  
  7   4  21  1   
  8   5   8  1   
  9   6   9  ar  
 10   7   9  ar  
 11   8  22  1   
 12   8  23  1   
 13   8  24  1   
 14   9  10  1   
 15  10  11  1   
 16  10  12  1   
 17  11  13  1   
 18  11  25  1   
 19  11  26  1   
 20  12  27  1   
 21  12  28  1   
 22  12  29  1   
 23  13  14  1   
 24  13  30  1   
 25  13  31  1   
 26  14  15  1   
 27  14  16  1   
 28  14  32  1   
 29  15  17  1   
 30  15  18  1   
 31  15  33  1   
 32  16  34  1   
 33  16  35  1   
 34  16  36  1   
 35  17  19  1   
 36  17  37  1   
 37  17  38  1   
 38  18  20  1   
 39  18  39  1   
 40  18  40  1   
 41  19  20  1   
 42  19  41  1   
 43  19  42  1   
 44  20  43  1   
 45  20  44  1   
@<TRIPOS>SUBSTRUCTURE
  1 ****  11 GROUP 4 **** **** 0

# MOE 2024.06 (io_trps.svl 2023.06)
