@<TRIPOS>MOLECULE
NONAME
50 53 1 0 0 
SMALL
USER_CHARGES


@<TRIPOS>ATOM
  1 O        0.0830    -0.8570     1.3660 O.2   1 <1>  -0.5700 
  2 C        0.6020    -0.0660     0.5930 C.2   1 <1>   0.5440 
  3 N        1.0220    -0.4990    -0.6450 N.am  1 <1>  -0.4200 
  4 C        0.8030     1.3150     0.9300 C.ar  1 <1>   0.0860 
  5 C        1.6230     0.3880    -1.5060 C.2   1 <1>   0.4500 
  6 C        0.8240    -1.9100    -1.0590 C.3   1 <1>   0.1400 
  7 C        1.4250     2.1270    -0.0270 C.ar  1 <1>   0.1790 
  8 C        0.4170     1.8820     2.1490 C.ar  1 <1>  -0.1500 
  9 N        1.8280     1.6230    -1.2490 N.2   1 <1>  -0.6290 
 10 C        1.9310    -2.7930    -0.4840 C.3   1 <1>  -0.0990 
 11 C        1.6430     3.4710     0.2540 C.ar  1 <1>  -0.1500 
 12 C        0.6400     3.2180     2.4130 C.ar  1 <1>  -0.1500 
 13 C        1.6190    -4.2350    -0.7880 C.2   1 <1>   0.5690 
 14 C        1.2560     4.0170     1.4610 C.ar  1 <1>  -0.1500 
 15 O        1.7240    -4.6270    -1.9230 O.2   1 <1>  -0.5700 
 16 N        1.1920    -5.0360     0.2140 N.am  1 <1>  -0.7300 
 17 C        0.8280    -6.4640     0.0690 C.3   1 <1>   0.2200 
 18 C       -0.6820    -6.6550     0.1250 C.3   1 <1>  -0.0800 
 19 C        1.2480    -7.2060     1.3300 C.3   1 <1>   0.1200 
 20 C       -0.9680    -6.7080     1.6310 C.3   1 <1>   0.1200 
 21 C       -1.5220    -5.6170    -0.6420 C.3   1 <1>  -0.0170 
 22 O        0.2610    -6.9080     2.2690 O.3   1 <1>  -0.5600 
 23 C       -3.0000    -5.9690    -0.5910 C.ar  1 <1>  -0.1430 
 24 C       -3.5480    -6.9220    -1.4240 C.ar  1 <1>  -0.1500 
 25 C       -3.8690    -5.3570     0.2900 C.ar  1 <1>  -0.1500 
 26 C       -4.8990    -7.2150    -1.3350 C.ar  1 <1>   0.1600 
 27 C       -5.2050    -5.7230     0.2980 C.ar  1 <1>   0.1600 
 28 N       -5.7410    -6.6400    -0.4920 N.ar  1 <1>  -0.6200 
 29 H        1.9340    -0.0080    -2.4570 H     1 <1>   0.0600 
 30 H       -0.1350    -2.2500    -0.7050 H     1 <1>   0.0800 
 31 H        0.8210    -1.9830    -2.1340 H     1 <1>   0.0800 
 32 H       -0.0600     1.2590     2.8860 H     1 <1>   0.1500 
 33 H        2.0000    -2.6590     0.5800 H     1 <1>   0.0800 
 34 H        2.8750    -2.5410    -0.9310 H     1 <1>   0.0800 
 35 H        2.1210     4.0810    -0.4920 H     1 <1>   0.1500 
 36 H        0.3380     3.6440     3.3550 H     1 <1>   0.1500 
 37 H        1.4300     5.0590     1.6660 H     1 <1>   0.1500 
 38 H        1.0710    -4.6740     1.1650 H     1 <1>   0.3700 
 39 H        1.2700    -6.8820    -0.8200 H     1 <1>   0.0800 
 40 H       -0.9040    -7.6280    -0.2770 H     1 <1>   0.0800 
 41 H        2.2090    -6.8950     1.6990 H     1 <1>   0.0800 
 42 H        1.2420    -8.2700     1.1690 H     1 <1>   0.0800 
 43 H       -1.6300    -7.5190     1.8820 H     1 <1>   0.0800 
 44 H       -1.3750    -5.7810     1.9940 H     1 <1>   0.0800 
 45 H       -1.1980    -5.5850    -1.6690 H     1 <1>   0.0800 
 46 H       -1.3770    -4.6350    -0.2270 H     1 <1>   0.0800 
 47 H       -2.9380    -7.4400    -2.1420 H     1 <1>   0.1500 
 48 H       -3.5240    -4.6000     0.9700 H     1 <1>   0.1500 
 49 H       -5.3090    -7.9620    -1.9930 H     1 <1>   0.1500 
 50 H       -5.8680    -5.2360     0.9920 H     1 <1>   0.1500 
@<TRIPOS>BOND
  1   1   2  2   
  2   2   3  am  
  3   2   4  1   
  4   3   5  1   
  5   3   6  1   
  6   4   7  ar  
  7   4   8  ar  
  8   5   9  2   
  9   5  29  1   
 10   6  10  1   
 11   6  30  1   
 12   6  31  1   
 13   7   9  1   
 14   7  11  ar  
 15   8  12  ar  
 16   8  32  1   
 17  10  13  1   
 18  10  33  1   
 19  10  34  1   
 20  11  14  ar  
 21  11  35  1   
 22  12  14  ar  
 23  12  36  1   
 24  13  15  2   
 25  13  16  am  
 26  14  37  1   
 27  16  17  1   
 28  16  38  1   
 29  17  18  1   
 30  17  19  1   
 31  17  39  1   
 32  18  20  1   
 33  18  21  1   
 34  18  40  1   
 35  19  22  1   
 36  19  41  1   
 37  19  42  1   
 38  20  22  1   
 39  20  43  1   
 40  20  44  1   
 41  21  23  1   
 42  21  45  1   
 43  21  46  1   
 44  23  24  ar  
 45  23  25  ar  
 46  24  26  ar  
 47  24  47  1   
 48  25  27  ar  
 49  25  48  1   
 50  26  28  ar  
 51  26  49  1   
 52  27  28  ar  
 53  27  50  1   
@<TRIPOS>SUBSTRUCTURE
  1 ****   6 GROUP 4 **** **** 0

# MOE 2024.06 (io_trps.svl 2023.06)
