@<TRIPOS>MOLECULE
NONAME
60 64 1 0 0 
SMALL
USER_CHARGES


@<TRIPOS>ATOM
  1 S       -0.9700     1.9370    -2.1960 S.3   1 <1>  -0.0800 
  2 C       -2.6260     1.7810    -2.7310 C.2   1 <1>   0.2280 
  3 C       -1.0250     0.2890    -1.6370 C.2   1 <1>  -0.1100 
  4 N       -3.1460     0.6420    -2.4920 N.2   1 <1>  -0.5650 
  5 C       -2.2450    -0.2160    -1.8820 C.2   1 <1>   0.0460 
  6 C       -2.7070    -1.6330    -1.5590 C.3   1 <1>   0.0210 
  7 C       -3.8710    -1.7870    -0.5340 C.3   1 <1>   0.0610 
  8 C       -3.8410    -3.2450    -0.0730 C.2   1 <1>   0.5690 
  9 C       -3.7120    -0.8580     0.6960 C.3   1 <1>   0.4230 
 10 C       -5.2410    -1.2820    -1.0900 C.3   1 <1>  -0.1600 
 11 O       -3.0060    -3.5600     0.7400 O.2   1 <1>  -0.5700 
 12 N       -4.7320    -4.1410    -0.5510 N.am  1 <1>  -0.7300 
 13 N       -4.2760     0.3970     0.1720 N.4   1 <1>  -0.9590 
 14 C       -4.7360    -1.1810     1.8080 C.3   1 <1>  -0.1600 
 15 C       -5.6080    -0.1220    -0.1520 C.3   1 <1>   0.4230 
 16 C       -5.1480    -5.3470     0.1870 C.3   1 <1>   0.3200 
 17 C       -4.2140     1.6080     1.0340 C.3   1 <1>   0.5230 
 18 C       -6.0610    -0.7070     1.1910 C.3   1 <1>  -0.1600 
 19 C       -6.5870    -5.1360     0.6480 C.2   1 <1>   0.0060 
 20 C       -4.1330     2.8340     0.1530 C.2   1 <1>  -0.0400 
 21 N       -7.3520    -4.1560     0.2640 N.2   1 <1>  -0.5650 
 22 N       -7.1930    -5.9780     1.5150 N.pl3 1 <1>   0.0330 
 23 O       -5.0430     3.0340    -0.7600 O.3   1 <1>  -0.0190 
 24 C       -3.2500     3.8430     0.0850 C.2   1 <1>  -0.1500 
 25 C       -8.5120    -4.3770     0.9120 C.2   1 <1>   0.0770 
 26 C       -8.4320    -5.4830     1.6820 C.2   1 <1>  -0.3020 
 27 N       -4.8120     4.1150    -1.4420 N.2   1 <1>  -0.4100 
 28 C       -3.7400     4.6340    -0.9520 C.2   1 <1>   0.1080 
 29 C       -3.0900     5.9280    -1.4370 C.3   1 <1>   0.1010 
 30 C       -4.0960     7.0860    -1.4230 C.3   1 <1>  -0.2400 
 31 C       -2.5040     5.7470    -2.8420 C.3   1 <1>  -0.2400 
 32 H       -3.0770     2.6400    -3.2020 H     1 <1>   0.1500 
 33 H       -0.1340    -0.1210    -1.1950 H     1 <1>   0.1500 
 34 H       -2.9870    -2.1150    -2.4800 H     1 <1>   0.0800 
 35 H       -1.8480    -2.1650    -1.1880 H     1 <1>   0.0800 
 36 H       -2.6940    -0.7810     1.0430 H     1 <1>   0.0800 
 37 H       -6.0250    -2.0170    -1.0760 H     1 <1>   0.0800 
 38 H       -5.1620    -0.9240    -2.1000 H     1 <1>   0.0800 
 39 H       -5.5080    -3.8180    -1.1360 H     1 <1>   0.3700 
 40 H       -3.8200     0.6320    -0.7320 H     1 <1>   0.4500 
 41 H       -4.7710    -2.2210     2.0810 H     1 <1>   0.0800 
 42 H       -4.5050    -0.6240     2.6990 H     1 <1>   0.0800 
 43 H       -6.2810     0.6030    -0.5860 H     1 <1>   0.0800 
 44 H       -5.0910    -6.2020    -0.4640 H     1 <1>   0.0800 
 45 H       -4.5050    -5.5110     1.0360 H     1 <1>   0.0800 
 46 H       -5.0830     1.6680     1.6680 H     1 <1>   0.0800 
 47 H       -3.3360     1.5690     1.6560 H     1 <1>   0.0800 
 48 H       -6.5340     0.0440     1.7990 H     1 <1>   0.0800 
 49 H       -6.7570    -1.5180     1.0570 H     1 <1>   0.0800 
 50 H       -6.8010    -6.8170     1.9550 H     1 <1>   0.2700 
 51 H       -2.3640     4.0380     0.6620 H     1 <1>   0.1500 
 52 H       -9.3600    -3.7220     0.7900 H     1 <1>   0.1500 
 53 H       -9.1720    -5.9320     2.3200 H     1 <1>   0.1500 
 54 H       -2.2860     6.1770    -0.7650 H     1 <1>   0.0800 
 55 H       -4.9080     6.8850    -2.1000 H     1 <1>   0.0800 
 56 H       -3.6180     8.0030    -1.7180 H     1 <1>   0.0800 
 57 H       -4.5000     7.2110    -0.4350 H     1 <1>   0.0800 
 58 H       -3.2810     5.4890    -3.5400 H     1 <1>   0.0800 
 59 H       -1.7670     4.9650    -2.8400 H     1 <1>   0.0800 
 60 H       -2.0340     6.6570    -3.1710 H     1 <1>   0.0800 
@<TRIPOS>BOND
  1   1   2  1   
  2   1   3  1   
  3   2   4  2   
  4   2  32  1   
  5   3   5  2   
  6   3  33  1   
  7   4   5  1   
  8   5   6  1   
  9   6   7  1   
 10   6  34  1   
 11   6  35  1   
 12   7   8  1   
 13   7   9  1   
 14   7  10  1   
 15   8  11  2   
 16   8  12  am  
 17   9  13  1   
 18   9  14  1   
 19   9  36  1   
 20  10  15  1   
 21  10  37  1   
 22  10  38  1   
 23  12  16  1   
 24  12  39  1   
 25  13  15  1   
 26  13  17  1   
 27  13  40  1   
 28  14  18  1   
 29  14  41  1   
 30  14  42  1   
 31  15  18  1   
 32  15  43  1   
 33  16  19  1   
 34  16  44  1   
 35  16  45  1   
 36  17  20  1   
 37  17  46  1   
 38  17  47  1   
 39  18  48  1   
 40  18  49  1   
 41  19  21  2   
 42  19  22  1   
 43  20  23  1   
 44  20  24  2   
 45  21  25  1   
 46  22  26  1   
 47  22  50  1   
 48  23  27  1   
 49  24  28  1   
 50  24  51  1   
 51  25  26  2   
 52  25  52  1   
 53  26  53  1   
 54  27  28  2   
 55  28  29  1   
 56  29  30  1   
 57  29  31  1   
 58  29  54  1   
 59  30  55  1   
 60  30  56  1   
 61  30  57  1   
 62  31  58  1   
 63  31  59  1   
 64  31  60  1   
@<TRIPOS>SUBSTRUCTURE
  1 ****  13 GROUP 4 **** **** 0

# MOE 2024.06 (io_trps.svl 2023.06)
