@<TRIPOS>MOLECULE
NONAME
43 44 1 0 0 
SMALL
USER_CHARGES


@<TRIPOS>ATOM
  1 CL       0.4820    -1.0930     1.2510 Cl    1 <1>  -0.1770 
  2 C       -0.0800    -2.6360     0.6550 C.ar  1 <1>   0.1770 
  3 C       -1.4410    -2.8810     0.5920 C.ar  1 <1>  -0.1500 
  4 C        0.8440    -3.5830     0.2540 C.ar  1 <1>  -0.1500 
  5 C       -1.9000    -4.1020     0.1200 C.ar  1 <1>  -0.1440 
  6 C        0.3930    -4.8040    -0.2160 C.ar  1 <1>  -0.1500 
  7 C       -0.9690    -5.0620    -0.2750 C.ar  1 <1>   0.0820 
  8 C       -3.3960    -4.3690     0.0380 C.3   1 <1>  -0.0960 
  9 O       -1.3730    -6.2630    -0.7350 O.3   1 <1>  -0.3630 
 10 C       -1.4710    -7.2900     0.2400 C.3   1 <1>   0.1810 
 11 C       -1.6720    -8.6660    -0.3950 C.2   1 <1>   0.5690 
 12 O       -0.7740    -9.4660    -0.2570 O.2   1 <1>  -0.5700 
 13 N       -2.8310    -9.0040    -1.0520 N.am  1 <1>  -0.6600 
 14 C       -3.0390   -10.3920    -1.5690 C.3   1 <1>   0.3210 
 15 C       -3.9540    -8.0430    -1.3170 C.3   1 <1>   0.1400 
 16 C       -4.1740   -11.0800    -0.8200 C.2   1 <1>   0.0460 
 17 C       -5.0450    -8.0390    -0.2280 C.3   1 <1>   0.1200 
 18 N       -5.4020   -11.1880    -1.3710 N.2   1 <1>  -0.5650 
 19 C       -4.1520   -11.6330     0.4170 C.2   1 <1>  -0.3320 
 20 O       -4.5170    -8.3700     1.0120 O.3   1 <1>  -0.6800 
 21 C       -6.0950   -11.8000    -0.4680 C.2   1 <1>   0.0360 
 22 N       -5.3940   -12.0980     0.6440 N.pl3 1 <1>   0.0330 
 23 C       -3.0250   -11.7600     1.4280 C.3   1 <1>  -0.0600 
 24 H       -2.1240    -2.1150     0.9100 H     1 <1>   0.1500 
 25 H        1.8950    -3.3640     0.3100 H     1 <1>   0.1500 
 26 H        1.0890    -5.5570    -0.5390 H     1 <1>   0.1500 
 27 H       -3.9590    -3.4870     0.2820 H     1 <1>   0.0800 
 28 H       -3.6710    -5.1490     0.7250 H     1 <1>   0.0800 
 29 H       -3.6570    -4.6720    -0.9590 H     1 <1>   0.0800 
 30 H       -2.2900    -7.0610     0.8940 H     1 <1>   0.0800 
 31 H       -0.5610    -7.2980     0.8120 H     1 <1>   0.0800 
 32 H       -2.1460   -10.9800    -1.4580 H     1 <1>   0.0800 
 33 H       -3.2740   -10.3550    -2.6180 H     1 <1>   0.0800 
 34 H       -4.4120    -8.2810    -2.2620 H     1 <1>   0.0800 
 35 H       -3.5660    -7.0480    -1.4160 H     1 <1>   0.0800 
 36 H       -5.8090    -8.7590    -0.4640 H     1 <1>   0.0800 
 37 H       -5.5050    -7.0690    -0.1560 H     1 <1>   0.0800 
 38 H       -4.1280    -9.2700     0.9270 H     1 <1>   0.4000 
 39 H       -7.1340   -12.0580    -0.5750 H     1 <1>   0.1500 
 40 H       -5.7390   -12.5790     1.4800 H     1 <1>   0.2700 
 41 H       -2.1090   -11.3640     1.0270 H     1 <1>   0.0800 
 42 H       -2.8630   -12.7940     1.6760 H     1 <1>   0.0800 
 43 H       -3.2650   -11.2180     2.3260 H     1 <1>   0.0800 
@<TRIPOS>BOND
  1   1   2  1   
  2   2   3  ar  
  3   2   4  ar  
  4   3   5  ar  
  5   3  24  1   
  6   4   6  ar  
  7   4  25  1   
  8   5   7  ar  
  9   5   8  1   
 10   6   7  ar  
 11   6  26  1   
 12   7   9  1   
 13   8  27  1   
 14   8  28  1   
 15   8  29  1   
 16   9  10  1   
 17  10  11  1   
 18  10  30  1   
 19  10  31  1   
 20  11  12  2   
 21  11  13  am  
 22  13  14  1   
 23  13  15  1   
 24  14  16  1   
 25  14  32  1   
 26  14  33  1   
 27  15  17  1   
 28  15  34  1   
 29  15  35  1   
 30  16  18  1   
 31  16  19  2   
 32  17  20  1   
 33  17  36  1   
 34  17  37  1   
 35  18  21  2   
 36  19  22  1   
 37  19  23  1   
 38  20  38  1   
 39  21  22  1   
 40  21  39  1   
 41  22  40  1   
 42  23  41  1   
 43  23  42  1   
 44  23  43  1   
@<TRIPOS>SUBSTRUCTURE
  1 ****  10 GROUP 4 **** **** 0

# MOE 2024.06 (io_trps.svl 2023.06)
