@<TRIPOS>MOLECULE
NONAME
55 59 1 0 0 
SMALL
USER_CHARGES


@<TRIPOS>ATOM
  1 O       -0.8960     0.7210    -1.7390 O.2   1 <1>  -0.5700 
  2 C       -1.8530     1.0630    -1.0840 C.2   1 <1>   0.5690 
  3 N       -3.0640     0.4260    -1.1920 N.am  1 <1>  -0.6600 
  4 C       -1.6840     2.2250    -0.1190 C.3   1 <1>  -0.0990 
  5 C       -3.2730    -0.6850    -2.1640 C.3   1 <1>   0.1400 
  6 C       -4.2770     0.7220    -0.3780 C.3   1 <1>   0.1400 
  7 C       -0.2900     2.8490    -0.1880 C.3   1 <1>   0.1200 
  8 C       -3.6500    -1.9560    -1.4020 C.3   1 <1>  -0.1600 
  9 C       -4.6560    -0.5290     0.4160 C.3   1 <1>  -0.1600 
 10 O       -0.2340     3.9080     0.7430 O.3   1 <1>  -0.3630 
 11 C       -4.8740    -1.7360    -0.5070 C.3   1 <1>   0.4600 
 12 C        0.8930     4.6490     0.8940 C.ar  1 <1>   0.0820 
 13 O       -5.9540    -1.4630    -1.3730 O.3   1 <1>  -0.5600 
 14 C       -5.1760    -2.9960     0.2950 C.2   1 <1>  -0.3320 
 15 C        2.0620     4.4400     0.1660 C.ar  1 <1>  -0.1500 
 16 C        0.8490     5.6670     1.8340 C.ar  1 <1>  -0.1500 
 17 C       -7.2620    -1.6630    -0.8910 C.3   1 <1>   0.1200 
 18 N       -4.3150    -3.6540     1.1310 N.pl3 1 <1>   0.0330 
 19 C       -6.3590    -3.6400     0.2800 C.2   1 <1>  -0.1810 
 20 C        3.1670     5.2450     0.3850 C.ar  1 <1>  -0.1500 
 21 C        1.9550     6.4710     2.0500 C.ar  1 <1>  -0.1500 
 22 C       -7.5130    -3.1420    -0.5540 C.3   1 <1>   0.0210 
 23 C       -4.9760    -4.7410     1.6490 C.ar  1 <1>  -0.1520 
 24 C       -6.2680    -4.7620     1.1290 C.ar  1 <1>   0.0000 
 25 C        3.1150     6.2590     1.3250 C.ar  1 <1>  -0.1500 
 26 C       -4.5480    -5.7270     2.5420 C.ar  1 <1>  -0.1500 
 27 C       -7.1480    -5.7820     1.5030 C.ar  1 <1>  -0.1500 
 28 C       -5.4250    -6.7240     2.9030 C.ar  1 <1>  -0.1500 
 29 C       -6.7250    -6.7520     2.3830 C.ar  1 <1>  -0.1500 
 30 H       -1.8530     1.8670     0.8790 H     1 <1>   0.0800 
 31 H       -2.4090     2.9790    -0.3600 H     1 <1>   0.0800 
 32 H       -2.3830    -0.8620    -2.7440 H     1 <1>   0.0800 
 33 H       -4.0630    -0.4160    -2.8440 H     1 <1>   0.0800 
 34 H       -5.0840     0.9940    -1.0380 H     1 <1>   0.0800 
 35 H       -4.1110     1.5410     0.2980 H     1 <1>   0.0800 
 36 H       -0.1010     3.2460    -1.1710 H     1 <1>   0.0800 
 37 H        0.4640     2.1250     0.0710 H     1 <1>   0.0800 
 38 H       -2.8090    -2.2550    -0.8060 H     1 <1>   0.0800 
 39 H       -3.8590    -2.7510    -2.0940 H     1 <1>   0.0800 
 40 H       -5.5400    -0.3460     0.9980 H     1 <1>   0.0800 
 41 H       -3.8630    -0.7490     1.1060 H     1 <1>   0.0800 
 42 H        2.1320     3.6610    -0.5690 H     1 <1>   0.1500 
 43 H       -0.0550     5.8250     2.3920 H     1 <1>   0.1500 
 44 H       -7.9470    -1.3350    -1.6530 H     1 <1>   0.0800 
 45 H       -7.4020    -1.0530    -0.0160 H     1 <1>   0.0800 
 46 H       -3.3420    -3.4060     1.3310 H     1 <1>   0.2700 
 47 H        4.0690     5.0810    -0.1790 H     1 <1>   0.1500 
 48 H        1.9120     7.2590     2.7820 H     1 <1>   0.1500 
 49 H       -7.5830    -3.7180    -1.4590 H     1 <1>   0.0800 
 50 H       -8.4340    -3.2400    -0.0100 H     1 <1>   0.0800 
 51 H        3.9760     6.8840     1.4930 H     1 <1>   0.1500 
 52 H       -3.5480    -5.6990     2.9360 H     1 <1>   0.1500 
 53 H       -8.1420    -5.7910     1.0960 H     1 <1>   0.1500 
 54 H       -5.1200    -7.4940     3.5890 H     1 <1>   0.1500 
 55 H       -7.3910    -7.5420     2.6800 H     1 <1>   0.1500 
@<TRIPOS>BOND
  1   1   2  2   
  2   2   3  am  
  3   2   4  1   
  4   3   5  1   
  5   3   6  1   
  6   4   7  1   
  7   4  30  1   
  8   4  31  1   
  9   5   8  1   
 10   5  32  1   
 11   5  33  1   
 12   6   9  1   
 13   6  34  1   
 14   6  35  1   
 15   7  10  1   
 16   7  36  1   
 17   7  37  1   
 18   8  11  1   
 19   8  38  1   
 20   8  39  1   
 21   9  11  1   
 22   9  40  1   
 23   9  41  1   
 24  10  12  1   
 25  11  13  1   
 26  11  14  1   
 27  12  15  ar  
 28  12  16  ar  
 29  13  17  1   
 30  14  18  1   
 31  14  19  2   
 32  15  20  ar  
 33  15  42  1   
 34  16  21  ar  
 35  16  43  1   
 36  17  22  1   
 37  17  44  1   
 38  17  45  1   
 39  18  23  1   
 40  18  46  1   
 41  19  22  1   
 42  19  24  1   
 43  20  25  ar  
 44  20  47  1   
 45  21  25  ar  
 46  21  48  1   
 47  22  49  1   
 48  22  50  1   
 49  23  24  ar  
 50  23  26  ar  
 51  24  27  ar  
 52  25  51  1   
 53  26  28  ar  
 54  26  52  1   
 55  27  29  ar  
 56  27  53  1   
 57  28  29  ar  
 58  28  54  1   
 59  29  55  1   
@<TRIPOS>SUBSTRUCTURE
  1 ****   9 GROUP 4 **** **** 0

# MOE 2024.06 (io_trps.svl 2023.06)
