@<TRIPOS>MOLECULE
NONAME
50 53 1 0 0 
SMALL
USER_CHARGES


@<TRIPOS>ATOM
  1 O       -2.0820     0.4580    -1.7660 O.2   1 <1>  -0.5700 
  2 C       -2.1170     0.6100    -0.5610 C.2   1 <1>   0.7160 
  3 N       -2.0420    -0.4930     0.2300 N.am  1 <1>  -0.7300 
  4 C       -2.2520     1.9120     0.0370 C.2   1 <1>  -0.0860 
  5 C       -1.9400    -1.8980    -0.2310 C.3   1 <1>   0.2200 
  6 C       -1.7090     3.1070    -0.4180 C.2   1 <1>   0.1080 
  7 C       -2.9010     2.3280     1.1480 C.2   1 <1>  -0.0400 
  8 C       -3.2920    -2.6020    -0.1770 C.3   1 <1>  -0.0800 
  9 C       -1.1800    -2.6890     0.8240 C.3   1 <1>   0.1200 
 10 N       -2.0200     4.0680     0.3680 N.2   1 <1>  -0.4100 
 11 C       -0.8520     3.3020    -1.6590 C.3   1 <1>   0.0210 
 12 O       -2.7580     3.6150     1.3530 O.3   1 <1>  -0.0190 
 13 C       -3.7530     1.5660     2.1480 C.3   1 <1>  -0.0600 
 14 C       -3.3960    -3.0140     1.2990 C.3   1 <1>   0.1200 
 15 C       -4.4880    -1.7760    -0.6980 C.3   1 <1>  -0.0160 
 16 O       -2.1110    -2.9060     1.8400 O.3   1 <1>  -0.5600 
 17 C        0.5620     2.7440    -1.4610 C.3   1 <1>  -0.2400 
 18 C       -5.8520    -2.4740    -0.7140 C.ar  1 <1>  -0.1440 
 19 C       -7.0250    -1.7110    -0.9400 C.ar  1 <1>   0.0000 
 20 C       -6.0160    -3.8190    -0.5260 C.ar  1 <1>  -0.1500 
 21 C       -8.2720    -2.3830    -0.9090 C.ar  1 <1>   0.3100 
 22 C       -7.0350    -0.3200    -1.2030 C.ar  1 <1>  -0.1500 
 23 C       -7.2960    -4.3860    -0.5280 C.ar  1 <1>   0.1600 
 24 N       -8.3900    -3.7170    -0.7010 N.ar  1 <1>  -0.6200 
 25 C       -9.4500    -1.6450    -1.1080 C.ar  1 <1>  -0.1500 
 26 C       -8.2010     0.3700    -1.3960 C.ar  1 <1>  -0.1500 
 27 C       -9.4270    -0.2980    -1.3450 C.ar  1 <1>  -0.1500 
 28 H       -2.0360    -0.3840     1.2460 H     1 <1>   0.3700 
 29 H       -1.4760    -1.9510    -1.2020 H     1 <1>   0.0800 
 30 H       -3.2080    -3.4940    -0.7700 H     1 <1>   0.0800 
 31 H       -0.3280    -2.1600     1.2150 H     1 <1>   0.0800 
 32 H       -0.8740    -3.6470     0.4410 H     1 <1>   0.0800 
 33 H       -1.3210     2.8270    -2.5020 H     1 <1>   0.0800 
 34 H       -0.7890     4.3540    -1.8740 H     1 <1>   0.0800 
 35 H       -3.9100     0.5500     1.8420 H     1 <1>   0.0800 
 36 H       -4.7120     2.0440     2.2380 H     1 <1>   0.0800 
 37 H       -3.2750     1.5730     3.1110 H     1 <1>   0.0800 
 38 H       -3.7330    -4.0300     1.4120 H     1 <1>   0.0800 
 39 H       -4.0410    -2.3540     1.8530 H     1 <1>   0.0800 
 40 H       -4.2660    -1.4460    -1.6990 H     1 <1>   0.0800 
 41 H       -4.5820    -0.9020    -0.0810 H     1 <1>   0.0800 
 42 H        0.5280     1.6830    -1.2920 H     1 <1>   0.0800 
 43 H        1.0300     3.2180    -0.6160 H     1 <1>   0.0800 
 44 H        1.1570     2.9330    -2.3370 H     1 <1>   0.0800 
 45 H       -5.1940    -4.4900    -0.3720 H     1 <1>   0.1500 
 46 H       -6.1080     0.2190    -1.2610 H     1 <1>   0.1500 
 47 H       -7.3750    -5.4480    -0.3720 H     1 <1>   0.1500 
 48 H      -10.3800    -2.1820    -1.0690 H     1 <1>   0.1500 
 49 H       -8.1910     1.4280    -1.5930 H     1 <1>   0.1500 
 50 H      -10.3380     0.2550    -1.4970 H     1 <1>   0.1500 
@<TRIPOS>BOND
  1   1   2  2   
  2   2   3  am  
  3   2   4  1   
  4   3   5  1   
  5   3  28  1   
  6   4   6  1   
  7   4   7  2   
  8   5   8  1   
  9   5   9  1   
 10   5  29  1   
 11   6  10  2   
 12   6  11  1   
 13   7  12  1   
 14   7  13  1   
 15   8  14  1   
 16   8  15  1   
 17   8  30  1   
 18   9  16  1   
 19   9  31  1   
 20   9  32  1   
 21  10  12  1   
 22  11  17  1   
 23  11  33  1   
 24  11  34  1   
 25  13  35  1   
 26  13  36  1   
 27  13  37  1   
 28  14  16  1   
 29  14  38  1   
 30  14  39  1   
 31  15  18  1   
 32  15  40  1   
 33  15  41  1   
 34  17  42  1   
 35  17  43  1   
 36  17  44  1   
 37  18  19  ar  
 38  18  20  ar  
 39  19  21  ar  
 40  19  22  ar  
 41  20  23  ar  
 42  20  45  1   
 43  21  24  ar  
 44  21  25  ar  
 45  22  26  ar  
 46  22  46  1   
 47  23  24  ar  
 48  23  47  1   
 49  25  27  ar  
 50  25  48  1   
 51  26  27  ar  
 52  26  49  1   
 53  27  50  1   
@<TRIPOS>SUBSTRUCTURE
  1 ****  15 GROUP 4 **** **** 0

# MOE 2024.06 (io_trps.svl 2023.06)
