@<TRIPOS>MOLECULE
NONAME
38 39 1 0 0 
SMALL
USER_CHARGES


@<TRIPOS>ATOM
  1 O        1.4830     0.0160     2.6870 O.co2 1 <1>  -0.9000 
  2 C        1.4210    -0.1970     1.4710 C.2   1 <1>   0.9060 
  3 O        0.7650    -1.1440     1.0110 O.co2 1 <1>  -0.9000 
  4 C        2.2350     0.6540     0.4800 C.3   1 <1>  -0.1060 
  5 C        3.2330    -0.3830    -0.1050 C.3   1 <1>   0.2000 
  6 C        3.0170     1.8000     1.2020 C.3   1 <1>  -0.1600 
  7 C        1.2500     1.2970    -0.5520 C.3   1 <1>  -0.1600 
  8 O        2.6170    -1.1530    -1.0780 O.3   1 <1>  -0.6800 
  9 C        4.5520     0.2100    -0.6210 C.3   1 <1>   0.2090 
 10 C        4.4160     1.3650     1.6360 C.3   1 <1>   0.2090 
 11 C        1.8740     1.9390    -1.8070 C.3   1 <1>  -0.1600 
 12 N        5.2280     1.0880     0.4040 N.pl3 1 <1>  -0.8380 
 13 C        0.8050     2.6460    -2.6440 C.3   1 <1>  -0.2400 
 14 C        6.2140     1.9470     0.0030 C.2   1 <1>   0.2000 
 15 N        7.1960     1.4170    -0.7620 N.pl3 1 <1>  -0.5500 
 16 C        6.3150     3.2750     0.2830 C.2   1 <1>  -0.1360 
 17 C        8.2300     2.1730    -1.2310 C.2   1 <1>   0.4400 
 18 C        7.3940     4.0160    -0.2220 C.2   1 <1>   0.7670 
 19 N        8.3600     3.4240    -0.9970 N.2   1 <1>  -0.6610 
 20 O        7.5010     5.2150     0.0160 O.2   1 <1>  -0.5700 
 21 H        3.5050    -1.0730     0.6780 H     1 <1>   0.0800 
 22 H        2.4680     2.1390     2.0630 H     1 <1>   0.0800 
 23 H        3.1330     2.6560     0.5690 H     1 <1>   0.0800 
 24 H        0.5570     0.5440    -0.8850 H     1 <1>   0.0800 
 25 H        0.6650     2.0350    -0.0310 H     1 <1>   0.0800 
 26 H        1.7630    -1.4500    -0.6620 H     1 <1>   0.4000 
 27 H        4.3620     0.7920    -1.5040 H     1 <1>   0.0800 
 28 H        5.2080    -0.6020    -0.8770 H     1 <1>   0.0800 
 29 H        4.3540     0.4770     2.2440 H     1 <1>   0.0800 
 30 H        4.8770     2.1340     2.2290 H     1 <1>   0.0800 
 31 H        2.6340     2.6500    -1.5420 H     1 <1>   0.0800 
 32 H        2.3270     1.1720    -2.4100 H     1 <1>   0.0800 
 33 H        0.3450     3.4350    -2.0760 H     1 <1>   0.0800 
 34 H        0.0450     1.9460    -2.9450 H     1 <1>   0.0800 
 35 H        1.2500     3.0710    -3.5260 H     1 <1>   0.0800 
 36 H        7.1550     0.4140    -0.9270 H     1 <1>   0.4000 
 37 H        5.5900     3.7950     0.8710 H     1 <1>   0.1500 
 38 H        8.9660     1.6630    -1.8280 H     1 <1>   0.0600 
@<TRIPOS>BOND
  1   1   2  ar  
  2   2   3  ar  
  3   2   4  1   
  4   4   5  1   
  5   4   6  1   
  6   4   7  1   
  7   5   8  1   
  8   5   9  1   
  9   5  21  1   
 10   6  10  1   
 11   6  22  1   
 12   6  23  1   
 13   7  11  1   
 14   7  24  1   
 15   7  25  1   
 16   8  26  1   
 17   9  12  1   
 18   9  27  1   
 19   9  28  1   
 20  10  12  1   
 21  10  29  1   
 22  10  30  1   
 23  11  13  1   
 24  11  31  1   
 25  11  32  1   
 26  12  14  1   
 27  13  33  1   
 28  13  34  1   
 29  13  35  1   
 30  14  15  1   
 31  14  16  2   
 32  15  17  1   
 33  15  36  1   
 34  16  18  1   
 35  16  37  1   
 36  17  19  2   
 37  17  38  1   
 38  18  19  1   
 39  18  20  2   
@<TRIPOS>SUBSTRUCTURE
  1 ****  12 GROUP 4 **** **** 0

# MOE 2024.06 (io_trps.svl 2023.06)
