@<TRIPOS>MOLECULE
NONAME
53 56 1 0 0 
SMALL
USER_CHARGES


@<TRIPOS>ATOM
  1 S       -0.1900     1.1780    -1.0020 S.3   1 <1>  -0.3320 
  2 C       -1.7290     2.0810    -1.0020 C.ar  1 <1>   0.7220 
  3 C        1.1100     2.4270    -1.4120 C.3   1 <1>  -0.0100 
  4 N       -1.6480     3.3820    -1.2420 N.ar  1 <1>  -0.6200 
  5 N       -2.8040     1.3530    -0.7530 N.ar  1 <1>  -0.6200 
  6 C       -2.7970     4.0150    -1.2330 C.ar  1 <1>   0.1600 
  7 C       -3.9340     2.0140    -0.7510 C.ar  1 <1>   0.1600 
  8 C       -3.9880     3.3720    -0.9740 C.ar  1 <1>  -0.1430 
  9 C       -5.2920     4.1360    -0.9380 C.3   1 <1>   0.4870 
 10 N       -5.7810     4.2790     0.4670 N.4   1 <1>  -0.9590 
 11 C       -7.0780     5.0470     0.5780 C.3   1 <1>   0.4230 
 12 C       -4.7060     4.8740     1.3430 C.3   1 <1>   0.3430 
 13 C       -6.8870     6.5900     0.6940 C.3   1 <1>   0.1380 
 14 C       -8.1790     4.5840    -0.3870 C.3   1 <1>  -0.1600 
 15 C       -5.2770     5.6700     2.5260 C.3   1 <1>  -0.1600 
 16 C       -5.9670     7.2210    -0.4020 C.2   1 <1>  -0.2760 
 17 C       -8.2890     7.2610     0.6820 C.3   1 <1>   0.1200 
 18 C       -6.2870     6.7730     2.1170 C.3   1 <1>  -0.1600 
 19 C       -9.4570     5.4160    -0.1780 C.3   1 <1>   0.1200 
 20 C       -4.7260     7.6980    -0.2040 C.2   1 <1>  -0.2880 
 21 C       -6.5380     7.3630    -1.8220 C.3   1 <1>  -0.0220 
 22 O       -9.2840     6.2990     0.8880 O.3   1 <1>  -0.5600 
 23 C       -3.8660     8.3710    -1.2710 C.3   1 <1>   0.2580 
 24 C       -5.4360     7.6250    -2.8590 C.3   1 <1>   0.1200 
 25 O       -4.6230     8.6550    -2.4050 O.3   1 <1>  -0.5600 
 26 H        2.0580     1.9190    -1.4320 H     1 <1>   0.0800 
 27 H        1.0950     3.1840    -0.6480 H     1 <1>   0.0800 
 28 H        0.8760     2.8450    -2.3740 H     1 <1>   0.0800 
 29 H       -2.7730     5.0740    -1.4330 H     1 <1>   0.1500 
 30 H       -4.8300     1.4440    -0.5630 H     1 <1>   0.1500 
 31 H       -6.0230     3.6130    -1.5330 H     1 <1>   0.0800 
 32 H       -5.1440     5.1110    -1.3710 H     1 <1>   0.0800 
 33 H       -5.9720     3.3390     0.8330 H     1 <1>   0.4500 
 34 H       -7.4850     4.7850     1.5420 H     1 <1>   0.0800 
 35 H       -4.0580     4.0920     1.7090 H     1 <1>   0.0800 
 36 H       -4.1010     5.5410     0.7540 H     1 <1>   0.0800 
 37 H       -8.4170     3.5560    -0.1830 H     1 <1>   0.0800 
 38 H       -7.8960     4.6510    -1.4180 H     1 <1>   0.0800 
 39 H       -5.7520     4.9790     3.2010 H     1 <1>   0.0800 
 40 H       -4.4630     6.1200     3.0690 H     1 <1>   0.0800 
 41 H       -8.5120     7.7640    -0.2390 H     1 <1>   0.0800 
 42 H       -8.3730     7.9940     1.4660 H     1 <1>   0.0800 
 43 H       -5.8480     7.7510     2.2130 H     1 <1>   0.0800 
 44 H       -7.0830     6.7420     2.8430 H     1 <1>   0.0800 
 45 H      -10.2920     4.7780     0.0630 H     1 <1>   0.0800 
 46 H       -9.7080     5.9860    -1.0570 H     1 <1>   0.0800 
 47 H       -4.2020     7.6850     0.7340 H     1 <1>   0.1500 
 48 H       -7.2140     8.1990    -1.8610 H     1 <1>   0.0800 
 49 H       -7.0770     6.4940    -2.1330 H     1 <1>   0.0800 
 50 H       -3.0390     7.7460    -1.5600 H     1 <1>   0.0800 
 51 H       -3.4820     9.3090    -0.9070 H     1 <1>   0.0800 
 52 H       -5.8660     7.9360    -3.7960 H     1 <1>   0.0800 
 53 H       -4.8260     6.7550    -3.0230 H     1 <1>   0.0800 
@<TRIPOS>BOND
  1   1   2  1   
  2   1   3  1   
  3   2   4  ar  
  4   2   5  ar  
  5   3  26  1   
  6   3  27  1   
  7   3  28  1   
  8   4   6  ar  
  9   5   7  ar  
 10   6   8  ar  
 11   6  29  1   
 12   7   8  ar  
 13   7  30  1   
 14   8   9  1   
 15   9  10  1   
 16   9  31  1   
 17   9  32  1   
 18  10  11  1   
 19  10  12  1   
 20  10  33  1   
 21  11  13  1   
 22  11  14  1   
 23  11  34  1   
 24  12  15  1   
 25  12  35  1   
 26  12  36  1   
 27  13  16  1   
 28  13  17  1   
 29  13  18  1   
 30  14  19  1   
 31  14  37  1   
 32  14  38  1   
 33  15  18  1   
 34  15  39  1   
 35  15  40  1   
 36  16  20  2   
 37  16  21  1   
 38  17  22  1   
 39  17  41  1   
 40  17  42  1   
 41  18  43  1   
 42  18  44  1   
 43  19  22  1   
 44  19  45  1   
 45  19  46  1   
 46  20  23  1   
 47  20  47  1   
 48  21  24  1   
 49  21  48  1   
 50  21  49  1   
 51  23  25  1   
 52  23  50  1   
 53  23  51  1   
 54  24  25  1   
 55  24  52  1   
 56  24  53  1   
@<TRIPOS>SUBSTRUCTURE
  1 ****   9 GROUP 4 **** **** 0

# MOE 2024.06 (io_trps.svl 2023.06)
