@<TRIPOS>MOLECULE
NONAME
40 41 1 0 0 
SMALL
USER_CHARGES


@<TRIPOS>ATOM
  1 S       -0.0150    -0.7680    -1.3090 S.3   1 <1>  -0.0800 
  2 C       -1.4060     0.1750    -0.7900 C.2   1 <1>  -0.1400 
  3 C        1.0790     0.5460    -0.9280 C.2   1 <1>  -0.1100 
  4 C       -1.0150     1.3940    -0.3630 C.2   1 <1>  -0.1810 
  5 C       -2.7700    -0.4950    -0.8980 C.3   1 <1>   0.3890 
  6 C        0.4010     1.6020    -0.4450 C.2   1 <1>  -0.1500 
  7 C       -1.9040     2.5030     0.1700 C.3   1 <1>  -0.0590 
  8 N       -2.9380    -1.5800     0.1060 N.pl3 1 <1>  -0.8380 
  9 C       -4.0820    -2.3290    -0.0170 C.ar  1 <1>   0.4100 
 10 C       -2.5450    -1.2020     1.4900 C.3   1 <1>   0.1290 
 11 N       -5.2050    -1.6720     0.2020 N.ar  1 <1>  -0.6200 
 12 C       -4.0880    -3.6850    -0.3420 C.ar  1 <1>  -0.1430 
 13 C       -6.3160    -2.3680     0.1070 C.ar  1 <1>   0.4770 
 14 C       -5.3200    -4.2850    -0.4100 C.ar  1 <1>   0.1600 
 15 C       -2.8450    -4.5370    -0.6340 C.3   1 <1>   0.0640 
 16 N       -6.4500    -3.6450    -0.1880 N.ar  1 <1>  -0.6200 
 17 C       -7.6010    -1.6180     0.3610 C.3   1 <1>  -0.0970 
 18 C       -1.8570    -4.5780     0.5360 C.3   1 <1>  -0.2400 
 19 C       -2.1520    -4.0990    -1.9280 C.3   1 <1>  -0.2400 
 20 H        2.1270     0.3860    -1.1080 H     1 <1>   0.1500 
 21 H       -2.8870    -0.9060    -1.8860 H     1 <1>   0.0800 
 22 H       -3.5460     0.2360    -0.7540 H     1 <1>   0.0800 
 23 H        0.8430     2.5330    -0.1370 H     1 <1>   0.1500 
 24 H       -2.9310     2.1910     0.2100 H     1 <1>   0.0800 
 25 H       -1.8310     3.3670    -0.4650 H     1 <1>   0.0800 
 26 H       -1.5920     2.7740     1.1630 H     1 <1>   0.0800 
 27 H       -1.4730    -1.1570     1.5670 H     1 <1>   0.0800 
 28 H       -2.9110    -1.9350     2.1890 H     1 <1>   0.0800 
 29 H       -2.9620    -0.2430     1.7440 H     1 <1>   0.0800 
 30 H       -5.4000    -5.3300    -0.6560 H     1 <1>   0.1500 
 31 H       -3.1710    -5.5510    -0.7890 H     1 <1>   0.0800 
 32 H       -7.3960    -0.6500     0.7810 H     1 <1>   0.0800 
 33 H       -8.2130    -2.1730     1.0470 H     1 <1>   0.0800 
 34 H       -8.1290    -1.4960    -0.5650 H     1 <1>   0.0800 
 35 H       -1.3600    -3.6320     0.6500 H     1 <1>   0.0800 
 36 H       -1.1080    -5.3290     0.3620 H     1 <1>   0.0800 
 37 H       -2.3740    -4.8100     1.4500 H     1 <1>   0.0800 
 38 H       -1.7380    -3.1150    -1.8180 H     1 <1>   0.0800 
 39 H       -2.8570    -4.0860    -2.7390 H     1 <1>   0.0800 
 40 H       -1.3560    -4.7780    -2.1730 H     1 <1>   0.0800 
@<TRIPOS>BOND
  1   1   2  1   
  2   1   3  1   
  3   2   4  2   
  4   2   5  1   
  5   3   6  2   
  6   3  20  1   
  7   4   6  1   
  8   4   7  1   
  9   5   8  1   
 10   5  21  1   
 11   5  22  1   
 12   6  23  1   
 13   7  24  1   
 14   7  25  1   
 15   7  26  1   
 16   8   9  1   
 17   8  10  1   
 18   9  11  ar  
 19   9  12  ar  
 20  10  27  1   
 21  10  28  1   
 22  10  29  1   
 23  11  13  ar  
 24  12  14  ar  
 25  12  15  1   
 26  13  16  ar  
 27  13  17  1   
 28  14  16  ar  
 29  14  30  1   
 30  15  18  1   
 31  15  19  1   
 32  15  31  1   
 33  17  32  1   
 34  17  33  1   
 35  17  34  1   
 36  18  35  1   
 37  18  36  1   
 38  18  37  1   
 39  19  38  1   
 40  19  39  1   
 41  19  40  1   
@<TRIPOS>SUBSTRUCTURE
  1 ****   8 GROUP 4 **** **** 0

# MOE 2024.06 (io_trps.svl 2023.06)
