@<TRIPOS>MOLECULE
NONAME
36 37 1 0 0 
SMALL
USER_CHARGES


@<TRIPOS>ATOM
  1 S       -0.8110     0.4330    -1.1880 S.o2  1 <1>   1.4470 
  2 O       -1.2190     1.6930    -1.7760 O.2   1 <1>  -0.6500 
  3 O       -0.7610    -0.7250    -2.0540 O.2   1 <1>  -0.6500 
  4 N       -1.9170     0.1080     0.0590 N.am  1 <1>  -0.8490 
  5 C        0.7920     0.6500    -0.3420 C.ar  1 <1>  -0.0090 
  6 C       -1.5690    -1.0090     0.9570 C.3   1 <1>   0.1960 
  7 C       -3.3240     0.1150    -0.3800 C.3   1 <1>   0.1960 
  8 C        1.0680     1.7050     0.5400 C.ar  1 <1>  -0.1440 
  9 C        1.7970    -0.2860    -0.5670 C.ar  1 <1>  -0.1500 
 10 C       -1.8580    -2.3900     0.3590 C.3   1 <1>  -0.1860 
 11 C       -4.0420    -1.2280    -0.1880 C.3   1 <1>  -0.1600 
 12 C        2.3080     1.8120     1.1610 C.ar  1 <1>  -0.1500 
 13 C        0.0240     2.7720     0.8540 C.3   1 <1>  -0.0970 
 14 C        3.0200    -0.1570     0.0580 C.ar  1 <1>   0.1900 
 15 C       -1.8840    -3.3280     1.5450 C.2   1 <1>   0.9060 
 16 C       -3.1090    -2.3800    -0.5440 C.3   1 <1>   0.2000 
 17 C        3.2980     0.8780     0.9230 C.ar  1 <1>  -0.1500 
 18 F        3.9480    -1.0440    -0.1800 F     1 <1>  -0.1900 
 19 O       -0.8080    -3.5940     2.0840 O.co2 1 <1>  -0.9000 
 20 O       -2.9640    -3.7450     1.9850 O.co2 1 <1>  -0.9000 
 21 O       -3.8230    -3.5510    -0.4310 O.3   1 <1>  -0.6800 
 22 H       -0.5370    -0.9570     1.2600 H     1 <1>   0.0800 
 23 H       -2.1550    -0.8990     1.8550 H     1 <1>   0.0800 
 24 H       -3.8520     0.8760     0.1700 H     1 <1>   0.0800 
 25 H       -3.3780     0.3810    -1.4230 H     1 <1>   0.0800 
 26 H        1.6320    -1.1210    -1.2260 H     1 <1>   0.1500 
 27 H       -1.0200    -2.6850    -0.2420 H     1 <1>   0.0800 
 28 H       -4.9140    -1.2560    -0.8150 H     1 <1>   0.0800 
 29 H       -4.3580    -1.3240     0.8360 H     1 <1>   0.0800 
 30 H        2.5110     2.6260     1.8360 H     1 <1>   0.1500 
 31 H        0.3760     3.4500     1.6100 H     1 <1>   0.0800 
 32 H       -0.8820     2.3190     1.2150 H     1 <1>   0.0800 
 33 H       -0.1990     3.3440    -0.0290 H     1 <1>   0.0800 
 34 H       -2.8120    -2.2870    -1.5750 H     1 <1>   0.0800 
 35 H        4.2610     0.9470     1.3950 H     1 <1>   0.1500 
 36 H       -3.7320    -3.8340     0.5300 H     1 <1>   0.4000 
@<TRIPOS>BOND
  1   1   2  2   
  2   1   3  2   
  3   1   4  am  
  4   1   5  1   
  5   4   6  1   
  6   4   7  1   
  7   5   8  ar  
  8   5   9  ar  
  9   6  10  1   
 10   6  22  1   
 11   6  23  1   
 12   7  11  1   
 13   7  24  1   
 14   7  25  1   
 15   8  12  ar  
 16   8  13  1   
 17   9  14  ar  
 18   9  26  1   
 19  10  15  1   
 20  10  16  1   
 21  10  27  1   
 22  11  16  1   
 23  11  28  1   
 24  11  29  1   
 25  12  17  ar  
 26  12  30  1   
 27  13  31  1   
 28  13  32  1   
 29  13  33  1   
 30  14  17  ar  
 31  14  18  1   
 32  15  19  ar  
 33  15  20  ar  
 34  16  21  1   
 35  16  34  1   
 36  17  35  1   
 37  21  36  1   
@<TRIPOS>SUBSTRUCTURE
  1 ****   6 GROUP 4 **** **** 0

# MOE 2024.06 (io_trps.svl 2023.06)
