@<TRIPOS>MOLECULE
NONAME
35 36 1 0 0 
SMALL
USER_CHARGES


@<TRIPOS>ATOM
  1 S       -0.4490     0.2070     0.7850 S.3   1 <1>  -0.0800 
  2 C       -0.9680    -0.9270    -0.4160 C.2   1 <1>   0.4420 
  3 C       -0.0790     1.3040    -0.5050 C.2   1 <1>   0.1980 
  4 N       -0.8360    -0.4670    -1.6060 N.2   1 <1>  -0.3380 
  5 N       -1.4430    -2.1360     0.0490 N.am  1 <1>  -0.4940 
  6 N       -0.3290     0.8030    -1.6500 N.2   1 <1>  -0.3380 
  7 C        0.5010     2.6710    -0.1400 C.3   1 <1>   0.3800 
  8 C       -1.8630    -3.2310    -0.6520 C.2   1 <1>   0.5690 
  9 O       -0.2320     3.2130     0.9250 O.3   1 <1>  -0.5600 
 10 C        0.4460     3.6610    -1.3100 C.3   1 <1>  -0.2400 
 11 O       -1.8330    -3.3000    -1.8530 O.2   1 <1>  -0.5700 
 12 C       -2.3860    -4.4240     0.1500 C.3   1 <1>  -0.0190 
 13 C        0.4610     4.0970     1.7530 C.3   1 <1>   0.0400 
 14 C       -1.4840    -5.6590    -0.0110 C.3   1 <1>  -0.1600 
 15 C       -3.8250    -4.7980    -0.2450 C.3   1 <1>  -0.1600 
 16 C       -2.0810    -6.8680     0.7170 C.3   1 <1>   0.1200 
 17 C       -4.2840    -6.0570     0.4970 C.3   1 <1>   0.1200 
 18 O       -3.3800    -7.0920     0.2630 O.3   1 <1>  -0.5600 
 19 H       -1.4880    -2.2060     1.0600 H     1 <1>   0.3700 
 20 H        1.5190     2.5270     0.1790 H     1 <1>   0.0800 
 21 H       -0.5760     3.8250    -1.6010 H     1 <1>   0.0800 
 22 H        0.9760     3.2530    -2.1520 H     1 <1>   0.0800 
 23 H        0.9020     4.5960    -1.0480 H     1 <1>   0.0800 
 24 H       -2.3950    -4.1590     1.1920 H     1 <1>   0.0800 
 25 H       -0.2100     4.4170     2.5310 H     1 <1>   0.0800 
 26 H        0.7820     4.9510     1.1840 H     1 <1>   0.0800 
 27 H        1.3030     3.5900     2.1910 H     1 <1>   0.0800 
 28 H       -0.5020    -5.4540     0.3740 H     1 <1>   0.0800 
 29 H       -1.3820    -5.9030    -1.0550 H     1 <1>   0.0800 
 30 H       -3.8780    -4.9860    -1.3050 H     1 <1>   0.0800 
 31 H       -4.4930    -3.9840    -0.0250 H     1 <1>   0.0800 
 32 H       -2.1130    -6.7130     1.7820 H     1 <1>   0.0800 
 33 H       -1.5060    -7.7540     0.5100 H     1 <1>   0.0800 
 34 H       -5.2470    -6.3770     0.1360 H     1 <1>   0.0800 
 35 H       -4.3460    -5.8900     1.5590 H     1 <1>   0.0800 
@<TRIPOS>BOND
  1   1   2  1   
  2   1   3  1   
  3   2   4  2   
  4   2   5  1   
  5   3   6  2   
  6   3   7  1   
  7   4   6  1   
  8   5   8  am  
  9   5  19  1   
 10   7   9  1   
 11   7  10  1   
 12   7  20  1   
 13   8  11  2   
 14   8  12  1   
 15   9  13  1   
 16  10  21  1   
 17  10  22  1   
 18  10  23  1   
 19  12  14  1   
 20  12  15  1   
 21  12  24  1   
 22  13  25  1   
 23  13  26  1   
 24  13  27  1   
 25  14  16  1   
 26  14  28  1   
 27  14  29  1   
 28  15  17  1   
 29  15  30  1   
 30  15  31  1   
 31  16  18  1   
 32  16  32  1   
 33  16  33  1   
 34  17  18  1   
 35  17  34  1   
 36  17  35  1   
@<TRIPOS>SUBSTRUCTURE
  1 ****   5 GROUP 4 **** **** 0

# MOE 2024.06 (io_trps.svl 2023.06)
