@<TRIPOS>MOLECULE
NONAME
42 43 1 0 0 
SMALL
USER_CHARGES


@<TRIPOS>ATOM
  1 F        1.0460     1.1300     2.3450 F     1 <1>  -0.1900 
  2 C        1.9330     1.0990     1.3860 C.ar  1 <1>   0.1900 
  3 C        2.3940    -0.1270     0.9380 C.ar  1 <1>  -0.1440 
  4 C        2.3700     2.3010     0.8660 C.ar  1 <1>  -0.1500 
  5 C        3.3620    -0.1350    -0.0600 C.ar  1 <1>   0.0830 
  6 C        1.8810    -1.4180     1.5550 C.3   1 <1>   0.4860 
  7 C        3.3180     2.2800    -0.1410 C.ar  1 <1>  -0.1500 
  8 O        3.8350    -1.3430    -0.4590 O.3   1 <1>  -0.3630 
  9 C        3.8130     1.0700    -0.6000 C.ar  1 <1>  -0.1500 
 10 N        0.6930    -1.9560     0.8270 N.4   1 <1>  -0.9590 
 11 C        4.9890    -1.4490    -1.2700 C.3   1 <1>   0.0400 
 12 C        1.0600    -2.4580    -0.5260 C.3   1 <1>   0.5240 
 13 C       -0.4720    -1.0130     0.8310 C.3   1 <1>   0.3430 
 14 C        0.2380    -3.7130    -0.7820 C.2   1 <1>   0.0460 
 15 C       -1.8040    -1.6720     0.4390 C.3   1 <1>   0.1200 
 16 N       -0.1010    -4.5190     0.2500 N.2   1 <1>  -0.5650 
 17 C       -0.2600    -4.1890    -1.9440 C.2   1 <1>  -0.3020 
 18 O       -2.8070    -0.7300     0.5920 O.3   1 <1>  -0.6800 
 19 C       -0.7820    -5.4670    -0.3050 C.2   1 <1>   0.0060 
 20 N       -0.9150    -5.3250    -1.6420 N.pl3 1 <1>   0.0330 
 21 C       -1.3760    -6.6370     0.4520 C.3   1 <1>  -0.0600 
 22 H        1.9790     3.2310     1.2420 H     1 <1>   0.1500 
 23 H        1.6170    -1.2340     2.5840 H     1 <1>   0.0800 
 24 H        2.6720    -2.1500     1.5460 H     1 <1>   0.0800 
 25 H        3.6740     3.2050    -0.5640 H     1 <1>   0.1500 
 26 H        4.5530     1.0910    -1.3790 H     1 <1>   0.1500 
 27 H        0.3920    -2.8340     1.2900 H     1 <1>   0.4500 
 28 H        5.2370    -2.4900    -1.3720 H     1 <1>   0.0800 
 29 H        5.8020    -0.9280    -0.7940 H     1 <1>   0.0800 
 30 H        4.7810    -1.0290    -2.2380 H     1 <1>   0.0800 
 31 H        2.0970    -2.7450    -0.5410 H     1 <1>   0.0800 
 32 H        0.8910    -1.7110    -1.2830 H     1 <1>   0.0800 
 33 H       -0.2770    -0.1920     0.1610 H     1 <1>   0.0800 
 34 H       -0.5920    -0.6110     1.8230 H     1 <1>   0.0800 
 35 H       -2.0250    -2.5050     1.0840 H     1 <1>   0.0800 
 36 H       -1.8020    -1.9860    -0.5900 H     1 <1>   0.0800 
 37 H       -0.1890    -3.8050    -2.9480 H     1 <1>   0.1500 
 38 H       -3.6880    -1.1090     0.3880 H     1 <1>   0.4000 
 39 H       -1.4050    -5.9600    -2.2820 H     1 <1>   0.2700 
 40 H       -1.1440    -6.5530     1.4990 H     1 <1>   0.0800 
 41 H       -0.9670    -7.5610     0.0850 H     1 <1>   0.0800 
 42 H       -2.4440    -6.6510     0.3370 H     1 <1>   0.0800 
@<TRIPOS>BOND
  1   1   2  1   
  2   2   3  ar  
  3   2   4  ar  
  4   3   5  ar  
  5   3   6  1   
  6   4   7  ar  
  7   4  22  1   
  8   5   8  1   
  9   5   9  ar  
 10   6  10  1   
 11   6  23  1   
 12   6  24  1   
 13   7   9  ar  
 14   7  25  1   
 15   8  11  1   
 16   9  26  1   
 17  10  12  1   
 18  10  13  1   
 19  10  27  1   
 20  11  28  1   
 21  11  29  1   
 22  11  30  1   
 23  12  14  1   
 24  12  31  1   
 25  12  32  1   
 26  13  15  1   
 27  13  33  1   
 28  13  34  1   
 29  14  16  1   
 30  14  17  2   
 31  15  18  1   
 32  15  35  1   
 33  15  36  1   
 34  16  19  2   
 35  17  20  1   
 36  17  37  1   
 37  18  38  1   
 38  19  20  1   
 39  19  21  1   
 40  20  39  1   
 41  21  40  1   
 42  21  41  1   
 43  21  42  1   
@<TRIPOS>SUBSTRUCTURE
  1 ****  10 GROUP 4 **** **** 0

# MOE 2024.06 (io_trps.svl 2023.06)
