@<TRIPOS>MOLECULE
NONAME
56 58 1 0 0 
SMALL
USER_CHARGES


@<TRIPOS>ATOM
  1 O        0.4100     0.7350     0.4280 O.2   1 <1>  -0.5700 
  2 C        0.5860     1.9310     0.2550 C.2   1 <1>   0.5440 
  3 N        1.3730     2.3150    -0.8270 N.am  1 <1>  -0.6600 
  4 C       -0.0650     2.8710     1.1710 C.ar  1 <1>   0.3960 
  5 C        2.1960     1.3350    -1.5890 C.3   1 <1>   0.0600 
  6 C        1.4660     3.7140    -1.3390 C.3   1 <1>   0.0600 
  7 N        0.5160     4.0380     1.4880 N.ar  1 <1>  -0.6200 
  8 C       -1.3070     2.5130     1.7060 C.ar  1 <1>   0.1600 
  9 C       -0.2040     4.8050     2.2860 C.ar  1 <1>   0.4100 
 10 N       -2.0410     3.2540     2.5270 N.ar  1 <1>  -0.6200 
 11 N        0.3140     6.0580     2.5760 N.pl3 1 <1>  -0.8380 
 12 C       -1.4480     4.4010     2.7930 C.ar  1 <1>   0.1600 
 13 C        1.7740     6.2070     2.8370 C.3   1 <1>   0.2090 
 14 C       -0.3230     7.2280     1.9220 C.3   1 <1>   0.2090 
 15 C        2.5270     6.5650     1.5500 C.3   1 <1>  -0.1600 
 16 C        0.3870     7.5260     0.6010 C.3   1 <1>  -0.1600 
 17 C        1.8970     7.7540     0.8020 C.3   1 <1>  -0.0190 
 18 C        2.6030     7.9920    -0.5320 C.2   1 <1>   0.5690 
 19 O        2.5260     7.1670    -1.4110 O.2   1 <1>  -0.5700 
 20 N        3.3080     9.1370    -0.7000 N.am  1 <1>  -0.7300 
 21 C        4.0770     9.4700    -1.9090 C.3   1 <1>   0.2840 
 22 C        5.1270    10.4930    -1.5210 C.ar  1 <1>  -0.1430 
 23 C        6.3640    10.0800    -1.0490 C.ar  1 <1>  -0.1500 
 24 C        4.8580    11.8490    -1.6250 C.ar  1 <1>  -0.1500 
 25 C        7.3250    11.0080    -0.6860 C.ar  1 <1>  -0.1500 
 26 C        5.8150    12.7790    -1.2620 C.ar  1 <1>  -0.1500 
 27 C        7.0520    12.3690    -0.7920 C.ar  1 <1>   0.0830 
 28 O        7.9330    13.3450    -0.4580 O.3   1 <1>  -0.3620 
 29 C        9.2260    13.0370     0.0130 C.3   1 <1>   0.0400 
 30 H        2.2680     0.4000    -1.0610 H     1 <1>   0.0800 
 31 H        3.1890     1.7240    -1.7280 H     1 <1>   0.0800 
 32 H        1.7460     1.1560    -2.5500 H     1 <1>   0.0800 
 33 H        0.5820     4.2740    -1.0900 H     1 <1>   0.0800 
 34 H        1.5690     3.7120    -2.4100 H     1 <1>   0.0800 
 35 H        2.3220     4.2040    -0.9080 H     1 <1>   0.0800 
 36 H       -1.7130     1.5550     1.4300 H     1 <1>   0.1500 
 37 H       -1.9530     5.0840     3.4500 H     1 <1>   0.1500 
 38 H        2.1650     5.2880     3.2410 H     1 <1>   0.0800 
 39 H        1.9180     6.9810     3.5710 H     1 <1>   0.0800 
 40 H       -0.2600     8.0790     2.5790 H     1 <1>   0.0800 
 41 H       -1.3640     7.0240     1.7340 H     1 <1>   0.0800 
 42 H        2.5320     5.7020     0.9090 H     1 <1>   0.0800 
 43 H        3.5510     6.7870     1.7900 H     1 <1>   0.0800 
 44 H       -0.0530     8.3960     0.1480 H     1 <1>   0.0800 
 45 H        0.2320     6.6960    -0.0670 H     1 <1>   0.0800 
 46 H        2.0200     8.6310     1.4120 H     1 <1>   0.0800 
 47 H        3.4090     9.8170     0.0540 H     1 <1>   0.3700 
 48 H        3.4150     9.8720    -2.6560 H     1 <1>   0.0800 
 49 H        4.5400     8.5820    -2.3060 H     1 <1>   0.0800 
 50 H        6.5810     9.0290    -0.9610 H     1 <1>   0.1500 
 51 H        3.9030    12.1880    -1.9880 H     1 <1>   0.1500 
 52 H        8.2720    10.6570    -0.3260 H     1 <1>   0.1500 
 53 H        5.6110    13.8310    -1.3420 H     1 <1>   0.1500 
 54 H        9.7400    13.9610     0.2070 H     1 <1>   0.0800 
 55 H        9.7490    12.4790    -0.7430 H     1 <1>   0.0800 
 56 H        9.1390    12.4700     0.9230 H     1 <1>   0.0800 
@<TRIPOS>BOND
  1   1   2  2   
  2   2   3  am  
  3   2   4  1   
  4   3   5  1   
  5   3   6  1   
  6   4   7  ar  
  7   4   8  ar  
  8   5  30  1   
  9   5  31  1   
 10   5  32  1   
 11   6  33  1   
 12   6  34  1   
 13   6  35  1   
 14   7   9  ar  
 15   8  10  ar  
 16   8  36  1   
 17   9  11  1   
 18   9  12  ar  
 19  10  12  ar  
 20  11  13  1   
 21  11  14  1   
 22  12  37  1   
 23  13  15  1   
 24  13  38  1   
 25  13  39  1   
 26  14  16  1   
 27  14  40  1   
 28  14  41  1   
 29  15  17  1   
 30  15  42  1   
 31  15  43  1   
 32  16  17  1   
 33  16  44  1   
 34  16  45  1   
 35  17  18  1   
 36  17  46  1   
 37  18  19  2   
 38  18  20  am  
 39  20  21  1   
 40  20  47  1   
 41  21  22  1   
 42  21  48  1   
 43  21  49  1   
 44  22  23  ar  
 45  22  24  ar  
 46  23  25  ar  
 47  23  50  1   
 48  24  26  ar  
 49  24  51  1   
 50  25  27  ar  
 51  25  52  1   
 52  26  27  ar  
 53  26  53  1   
 54  27  28  1   
 55  28  29  1   
 56  29  54  1   
 57  29  55  1   
 58  29  56  1   
@<TRIPOS>SUBSTRUCTURE
  1 ****  17 GROUP 4 **** **** 0

# MOE 2024.06 (io_trps.svl 2023.06)
