@<TRIPOS>MOLECULE
NONAME
52 54 1 0 0 
SMALL
USER_CHARGES


@<TRIPOS>ATOM
  1 S       -0.2210     0.6100     1.2420 S.3   1 <1>  -0.0800 
  2 C        1.1710     1.5580     0.7420 C.2   1 <1>  -0.1400 
  3 C        0.8040    -0.6020     1.9790 C.2   1 <1>  -0.1100 
  4 C        2.3170     0.9500     1.1230 C.2   1 <1>  -0.1810 
  5 C        0.8210     2.8400    -0.0040 C.3   1 <1>   0.6030 
  6 C        2.0990    -0.2760     1.8310 C.2   1 <1>  -0.1500 
  7 C        3.7480     1.4050     0.8880 C.3   1 <1>  -0.0590 
  8 N        1.2140     2.7790    -1.4560 N.4   1 <1>  -0.9590 
  9 C        1.4380     4.0710     0.7150 C.3   1 <1>   0.2090 
 10 C        0.2360     3.5160    -2.3080 C.3   1 <1>   0.2630 
 11 C        1.4850     1.4140    -1.9990 C.3   1 <1>   0.2630 
 12 N        1.6140     5.2650    -0.1770 N.pl3 1 <1>  -0.8690 
 13 C        2.7760     5.5970    -0.8330 C.ar  1 <1>   0.4100 
 14 N        3.5200     4.5560    -1.2070 N.ar  1 <1>  -0.6200 
 15 C        3.1000     6.9430    -1.0930 C.ar  1 <1>   0.0860 
 16 C        4.6290     4.8430    -1.8650 C.ar  1 <1>   0.1600 
 17 C        2.2440     8.0130    -0.6330 C.2   1 <1>   0.5440 
 18 C        4.2630     7.1940    -1.8070 C.ar  1 <1>  -0.1500 
 19 C        5.0380     6.1240    -2.1910 C.ar  1 <1>  -0.1500 
 20 O        1.0350     7.9280    -0.7740 O.2   1 <1>  -0.5700 
 21 N        2.7480     9.1320    -0.0100 N.am  1 <1>  -0.6600 
 22 C        4.0740     9.2230     0.6440 C.3   1 <1>   0.1400 
 23 C        1.8780    10.2540     0.4170 C.3   1 <1>   0.1400 
 24 C        3.8910    10.2550     1.7490 C.3   1 <1>  -0.1600 
 25 C        2.7810    11.1680     1.2370 C.3   1 <1>  -0.1600 
 26 H        0.3240    -1.4410     2.4540 H     1 <1>   0.1500 
 27 H       -0.2490     2.9480     0.0480 H     1 <1>   0.0800 
 28 H        2.9260    -0.8610     2.1990 H     1 <1>   0.1500 
 29 H        3.7920     2.2520     0.2320 H     1 <1>   0.0800 
 30 H        4.3180     0.6070     0.4450 H     1 <1>   0.0800 
 31 H        4.2060     1.6700     1.8250 H     1 <1>   0.0800 
 32 H        2.0900     3.3470    -1.4700 H     1 <1>   0.4500 
 33 H        2.3960     3.8050     1.1230 H     1 <1>   0.0800 
 34 H        0.8120     4.3360     1.5490 H     1 <1>   0.0800 
 35 H       -0.7200     3.0180    -2.3000 H     1 <1>   0.0800 
 36 H        0.5930     3.5660    -3.3230 H     1 <1>   0.0800 
 37 H        0.1080     4.5230    -1.9460 H     1 <1>   0.0800 
 38 H        0.6050     0.7970    -1.9120 H     1 <1>   0.0800 
 39 H        2.2870     0.9460    -1.4520 H     1 <1>   0.0800 
 40 H        1.7690     1.4750    -3.0360 H     1 <1>   0.0800 
 41 H        1.0040     6.0810     0.0270 H     1 <1>   0.4000 
 42 H        5.2540     4.0190    -2.1690 H     1 <1>   0.1500 
 43 H        4.5460     8.2030    -2.0560 H     1 <1>   0.1500 
 44 H        5.9520     6.2770    -2.7390 H     1 <1>   0.1500 
 45 H        4.7970     9.5760    -0.0720 H     1 <1>   0.0800 
 46 H        4.3850     8.2720     1.0420 H     1 <1>   0.0800 
 47 H        1.0770     9.8690     1.0270 H     1 <1>   0.0800 
 48 H        1.4650    10.7620    -0.4380 H     1 <1>   0.0800 
 49 H        4.8020    10.7910     1.9540 H     1 <1>   0.0800 
 50 H        3.5690     9.7550     2.6460 H     1 <1>   0.0800 
 51 H        2.2430    11.6490     2.0350 H     1 <1>   0.0800 
 52 H        3.1950    11.9220     0.5900 H     1 <1>   0.0800 
@<TRIPOS>BOND
  1   1   2  1   
  2   1   3  1   
  3   2   4  2   
  4   2   5  1   
  5   3   6  2   
  6   3  26  1   
  7   4   6  1   
  8   4   7  1   
  9   5   8  1   
 10   5   9  1   
 11   5  27  1   
 12   6  28  1   
 13   7  29  1   
 14   7  30  1   
 15   7  31  1   
 16   8  10  1   
 17   8  11  1   
 18   8  32  1   
 19   9  12  1   
 20   9  33  1   
 21   9  34  1   
 22  10  35  1   
 23  10  36  1   
 24  10  37  1   
 25  11  38  1   
 26  11  39  1   
 27  11  40  1   
 28  12  13  1   
 29  12  41  1   
 30  13  14  ar  
 31  13  15  ar  
 32  14  16  ar  
 33  15  17  1   
 34  15  18  ar  
 35  16  19  ar  
 36  16  42  1   
 37  17  20  2   
 38  17  21  am  
 39  18  19  ar  
 40  18  43  1   
 41  19  44  1   
 42  21  22  1   
 43  21  23  1   
 44  22  24  1   
 45  22  45  1   
 46  22  46  1   
 47  23  25  1   
 48  23  47  1   
 49  23  48  1   
 50  24  25  1   
 51  24  49  1   
 52  24  50  1   
 53  25  51  1   
 54  25  52  1   
@<TRIPOS>SUBSTRUCTURE
  1 ****  12 GROUP 4 **** **** 0

# MOE 2024.06 (io_trps.svl 2023.06)
