@<TRIPOS>MOLECULE
NONAME
56 59 1 0 0 
SMALL
USER_CHARGES


@<TRIPOS>ATOM
  1 S        1.0860    -0.7560     0.1810 S.o2  1 <1>   1.3330 
  2 O        1.5180    -0.9430     1.5480 O.2   1 <1>  -0.6500 
  3 O        0.5640     0.5180    -0.2600 O.2   1 <1>  -0.6500 
  4 N       -0.0180    -1.9660    -0.2440 N.am  1 <1>  -0.8490 
  5 C        2.4620    -1.1630    -0.8650 C.3   1 <1>  -0.1350 
  6 C       -0.4190    -2.9230     0.7700 C.3   1 <1>   0.2760 
  7 C       -1.3340    -1.5630    -0.6560 C.3   1 <1>   0.2760 
  8 C       -1.2410    -3.9180    -0.0920 C.3   1 <1>   0.0610 
  9 C       -1.3450    -2.0710     1.6700 C.3   1 <1>  -0.1600 
 10 C       -1.9060    -2.9200    -1.0910 C.3   1 <1>  -0.1600 
 11 C       -2.0080    -1.1370     0.6550 C.3   1 <1>  -0.1600 
 12 C       -2.2300    -4.7260     0.7610 C.2   1 <1>   0.5690 
 13 C       -0.3520    -4.9800    -0.8000 C.3   1 <1>  -0.0220 
 14 O       -1.8690    -5.1630     1.8280 O.2   1 <1>  -0.5700 
 15 N       -3.4730    -5.0120     0.2940 N.am  1 <1>  -0.7300 
 16 C        0.7910    -4.4940    -1.6920 C.2   1 <1>  -0.2880 
 17 C       -4.4650    -5.8560     0.9960 C.3   1 <1>   0.3200 
 18 C        2.1070    -4.7090    -1.5620 C.2   1 <1>  -0.2760 
 19 C       -4.6510    -7.1440     0.2250 C.2   1 <1>   0.0060 
 20 C        3.0980    -4.2000    -2.5980 C.3   1 <1>  -0.1020 
 21 C        2.8020    -5.4660    -0.4360 C.3   1 <1>  -0.1020 
 22 N       -5.6530    -7.3900    -0.5540 N.2   1 <1>  -0.3380 
 23 N       -3.7790    -8.1570     0.2670 N.pl3 1 <1>   0.3340 
 24 N       -5.4710    -8.6020    -1.0620 N.2   1 <1>  -0.3380 
 25 C       -4.3470    -9.0580    -0.5710 C.2   1 <1>   0.1410 
 26 C       -2.5690    -8.4230     0.9050 C.2   1 <1>  -0.1810 
 27 C       -3.6950   -10.2980    -0.7970 C.2   1 <1>  -0.1050 
 28 C       -1.9360    -9.6070     0.6940 C.2   1 <1>  -0.1500 
 29 C       -2.5120   -10.5700    -0.1770 C.2   1 <1>  -0.1500 
 30 H        2.8440    -2.1260    -0.5950 H     1 <1>   0.0800 
 31 H        3.2400    -0.4360    -0.7490 H     1 <1>   0.0800 
 32 H        2.1510    -1.1850    -1.8910 H     1 <1>   0.0800 
 33 H        0.4080    -3.3800     1.2900 H     1 <1>   0.0800 
 34 H       -1.3420    -0.8120    -1.4300 H     1 <1>   0.0800 
 35 H       -2.0620    -2.6420     2.2280 H     1 <1>   0.0800 
 36 H       -0.7660    -1.5100     2.3820 H     1 <1>   0.0800 
 37 H       -2.9780    -2.8950    -1.0470 H     1 <1>   0.0800 
 38 H       -1.6190    -3.1190    -2.1070 H     1 <1>   0.0800 
 39 H       -1.7850    -0.1080     0.8770 H     1 <1>   0.0800 
 40 H       -3.0750    -1.2600     0.6190 H     1 <1>   0.0800 
 41 H        0.0390    -5.6350    -0.0460 H     1 <1>   0.0800 
 42 H       -0.9910    -5.5910    -1.4150 H     1 <1>   0.0800 
 43 H       -3.7420    -4.7530    -0.6570 H     1 <1>   0.3700 
 44 H        0.4170    -3.9280    -2.5270 H     1 <1>   0.1500 
 45 H       -4.1450    -6.0680     2.0010 H     1 <1>   0.0800 
 46 H       -5.4030    -5.3300     1.0460 H     1 <1>   0.0800 
 47 H        3.8430    -3.5770    -2.1370 H     1 <1>   0.0800 
 48 H        2.5980    -3.6280    -3.3590 H     1 <1>   0.0800 
 49 H        3.5910    -5.0310    -3.0700 H     1 <1>   0.0800 
 50 H        3.5420    -4.8370     0.0240 H     1 <1>   0.0800 
 51 H        3.2910    -6.3390    -0.8300 H     1 <1>   0.0800 
 52 H        2.1230    -5.7810     0.3310 H     1 <1>   0.0800 
 53 H       -2.1830    -7.6570     1.5540 H     1 <1>   0.1500 
 54 H       -4.1710   -10.9940    -1.4640 H     1 <1>   0.1500 
 55 H       -0.9990    -9.8430     1.1720 H     1 <1>   0.1500 
 56 H       -1.9960   -11.5020    -0.3300 H     1 <1>   0.1500 
@<TRIPOS>BOND
  1   1   2  2   
  2   1   3  2   
  3   1   4  am  
  4   1   5  1   
  5   4   6  1   
  6   4   7  1   
  7   5  30  1   
  8   5  31  1   
  9   5  32  1   
 10   6   8  1   
 11   6   9  1   
 12   6  33  1   
 13   7  10  1   
 14   7  11  1   
 15   7  34  1   
 16   8  10  1   
 17   8  12  1   
 18   8  13  1   
 19   9  11  1   
 20   9  35  1   
 21   9  36  1   
 22  10  37  1   
 23  10  38  1   
 24  11  39  1   
 25  11  40  1   
 26  12  14  2   
 27  12  15  am  
 28  13  16  1   
 29  13  41  1   
 30  13  42  1   
 31  15  17  1   
 32  15  43  1   
 33  16  18  2   
 34  16  44  1   
 35  17  19  1   
 36  17  45  1   
 37  17  46  1   
 38  18  20  1   
 39  18  21  1   
 40  19  22  2   
 41  19  23  1   
 42  20  47  1   
 43  20  48  1   
 44  20  49  1   
 45  21  50  1   
 46  21  51  1   
 47  21  52  1   
 48  22  24  1   
 49  23  25  1   
 50  23  26  1   
 51  24  25  2   
 52  25  27  1   
 53  26  28  2   
 54  26  53  1   
 55  27  29  2   
 56  27  54  1   
 57  28  29  1   
 58  28  55  1   
 59  29  56  1   
@<TRIPOS>SUBSTRUCTURE
  1 ****   8 GROUP 4 **** **** 0

# MOE 2024.06 (io_trps.svl 2023.06)
