@<TRIPOS>MOLECULE
NONAME
48 50 1 0 0 
SMALL
USER_CHARGES


@<TRIPOS>ATOM
  1 O       -4.7380     3.0700    -0.2170 O.2   1 <1>  -0.5700 
  2 C       -3.5760     2.8330    -0.4430 C.2   1 <1>   0.5690 
  3 N       -3.1960     1.9570    -1.4030 N.am  1 <1>  -0.7300 
  4 C       -2.4940     3.5010     0.3870 C.3   1 <1>   0.0440 
  5 C       -4.0760     1.0150    -2.1250 C.3   1 <1>   0.2200 
  6 C       -1.4460     2.4820     0.8250 C.ar  1 <1>  -0.1440 
  7 C       -3.8360    -0.4110    -1.6430 C.3   1 <1>  -0.0800 
  8 C       -3.5920     0.9040    -3.5640 C.3   1 <1>   0.1200 
  9 C       -0.3330     2.2300     0.0390 C.ar  1 <1>  -0.1500 
 10 C       -1.6190     1.7690     1.9990 C.ar  1 <1>  -0.1500 
 11 C       -2.5890    -0.8260    -2.4310 C.3   1 <1>   0.1200 
 12 C       -3.7080    -0.5990    -0.1180 C.3   1 <1>  -0.0160 
 13 O       -2.4900     0.0460    -3.5210 O.3   1 <1>  -0.5600 
 14 C        0.5930     1.2640     0.4030 C.ar  1 <1>  -0.1440 
 15 C       -0.6970     0.8080     2.3710 C.ar  1 <1>  -0.1500 
 16 C       -3.3750    -2.0380     0.2380 C.ar  1 <1>  -0.1440 
 17 C        0.4090     0.5450     1.5790 C.ar  1 <1>  -0.1440 
 18 C        1.7930     1.0160    -0.5000 C.3   1 <1>  -0.0970 
 19 C       -4.3190    -3.0440     0.2020 C.ar  1 <1>  -0.1500 
 20 C       -2.1010    -2.4090     0.6180 C.ar  1 <1>  -0.1500 
 21 C        1.3970    -0.5240     2.0220 C.3   1 <1>  -0.0970 
 22 C       -3.9510    -4.3380     0.5330 C.ar  1 <1>   0.1600 
 23 C       -1.8380    -3.7330     0.9290 C.ar  1 <1>   0.1600 
 24 N       -2.7330    -4.7070     0.8930 N.ar  1 <1>  -0.6200 
 25 H       -2.2010     1.7340    -1.4990 H     1 <1>   0.3700 
 26 H       -2.0390     4.2780    -0.1970 H     1 <1>   0.0800 
 27 H       -2.9440     3.9570     1.2500 H     1 <1>   0.0800 
 28 H       -5.1070     1.3210    -2.0540 H     1 <1>   0.0800 
 29 H       -4.6510    -1.0220    -1.9890 H     1 <1>   0.0800 
 30 H       -3.2990     1.8520    -3.9790 H     1 <1>   0.0800 
 31 H       -4.3420     0.4460    -4.1850 H     1 <1>   0.0800 
 32 H       -0.1870     2.7890    -0.8690 H     1 <1>   0.1500 
 33 H       -2.4760     1.9510     2.6250 H     1 <1>   0.1500 
 34 H       -2.6600    -1.8380    -2.7920 H     1 <1>   0.0800 
 35 H       -1.6950    -0.7120    -1.8420 H     1 <1>   0.0800 
 36 H       -4.6280    -0.3110     0.3590 H     1 <1>   0.0800 
 37 H       -2.9320     0.0310     0.2740 H     1 <1>   0.0800 
 38 H       -0.8520     0.2640     3.2860 H     1 <1>   0.1500 
 39 H        1.7870     1.6800    -1.3460 H     1 <1>   0.0800 
 40 H        1.7770     0.0050    -0.8660 H     1 <1>   0.0800 
 41 H        2.7050     1.1770     0.0460 H     1 <1>   0.0800 
 42 H       -5.3340    -2.8330    -0.0790 H     1 <1>   0.1500 
 43 H       -1.3120    -1.6810     0.6750 H     1 <1>   0.1500 
 44 H        1.0700    -1.0010     2.9290 H     1 <1>   0.0800 
 45 H        2.3600    -0.0800     2.2030 H     1 <1>   0.0800 
 46 H        1.4960    -1.2770     1.2620 H     1 <1>   0.0800 
 47 H       -4.7000    -5.1100     0.4990 H     1 <1>   0.1500 
 48 H       -0.8390    -4.0030     1.2220 H     1 <1>   0.1500 
@<TRIPOS>BOND
  1   1   2  2   
  2   2   3  am  
  3   2   4  1   
  4   3   5  1   
  5   3  25  1   
  6   4   6  1   
  7   4  26  1   
  8   4  27  1   
  9   5   7  1   
 10   5   8  1   
 11   5  28  1   
 12   6   9  ar  
 13   6  10  ar  
 14   7  11  1   
 15   7  12  1   
 16   7  29  1   
 17   8  13  1   
 18   8  30  1   
 19   8  31  1   
 20   9  14  ar  
 21   9  32  1   
 22  10  15  ar  
 23  10  33  1   
 24  11  13  1   
 25  11  34  1   
 26  11  35  1   
 27  12  16  1   
 28  12  36  1   
 29  12  37  1   
 30  14  17  ar  
 31  14  18  1   
 32  15  17  ar  
 33  15  38  1   
 34  16  19  ar  
 35  16  20  ar  
 36  17  21  1   
 37  18  39  1   
 38  18  40  1   
 39  18  41  1   
 40  19  22  ar  
 41  19  42  1   
 42  20  23  ar  
 43  20  43  1   
 44  21  44  1   
 45  21  45  1   
 46  21  46  1   
 47  22  24  ar  
 48  22  47  1   
 49  23  24  ar  
 50  23  48  1   
@<TRIPOS>SUBSTRUCTURE
  1 ****  12 GROUP 4 **** **** 0

# MOE 2024.06 (io_trps.svl 2023.06)
