@<TRIPOS>MOLECULE
NONAME
45 46 1 0 0 
SMALL
USER_CHARGES


@<TRIPOS>ATOM
  1 S        0.2150     1.2130    -1.3700 S.3   1 <1>  -0.0800 
  2 C        0.7130     0.1090    -0.1110 C.2   1 <1>   0.1980 
  3 C        1.7870     1.9560    -1.3080 C.2   1 <1>  -0.1400 
  4 N        1.9030     0.2830     0.2990 N.2   1 <1>  -0.5650 
  5 C       -0.2950    -0.9150     0.3520 C.3   1 <1>  -0.0600 
  6 C        2.5270     1.3310    -0.3720 C.2   1 <1>   0.0460 
  7 C        2.0330     3.1080    -2.2630 C.3   1 <1>  -0.0600 
  8 C        3.9770     1.6360     0.0300 C.3   1 <1>   0.3710 
  9 N        4.2010     3.0820     0.3280 N.3   1 <1>  -0.8100 
 10 C        4.8950     1.1610    -1.1020 C.3   1 <1>  -0.2400 
 11 C        5.5690     3.3480     0.8870 C.3   1 <1>   0.1710 
 12 C        3.1930     3.5650     1.2990 C.3   1 <1>   0.0300 
 13 C        5.9800     4.8210     0.8210 C.2   1 <1>   0.5690 
 14 O        6.8110     5.2400     1.5890 O.2   1 <1>  -0.5700 
 15 N        5.3560     5.5830    -0.1220 N.am  1 <1>  -0.5470 
 16 C        5.4420     6.9570    -0.3800 C.ar  1 <1>   0.1170 
 17 C        6.6370     7.5890    -0.7480 C.ar  1 <1>  -0.1440 
 18 C        4.2710     7.7050    -0.2790 C.ar  1 <1>  -0.1500 
 19 C        6.6420     8.9550    -0.9910 C.ar  1 <1>  -0.1500 
 20 C        7.9450     6.8230    -0.9000 C.3   1 <1>  -0.0970 
 21 C        4.2720     9.0660    -0.5250 C.ar  1 <1>  -0.1500 
 22 C        5.4640     9.6660    -0.8760 C.ar  1 <1>   0.1900 
 23 F        5.4770    10.9530    -1.1100 F     1 <1>  -0.1900 
 24 H       -1.1650    -0.4200     0.7410 H     1 <1>   0.0800 
 25 H        0.1360    -1.5260     1.1240 H     1 <1>   0.0800 
 26 H       -0.5810    -1.5420    -0.4720 H     1 <1>   0.0800 
 27 H        1.3250     3.8950    -2.0740 H     1 <1>   0.0800 
 28 H        1.9200     2.7720    -3.2770 H     1 <1>   0.0800 
 29 H        3.0250     3.4990    -2.1360 H     1 <1>   0.0800 
 30 H        4.1950     1.0630     0.9170 H     1 <1>   0.0800 
 31 H        4.8330     1.8290    -1.9410 H     1 <1>   0.0800 
 32 H        4.5800     0.1850    -1.4220 H     1 <1>   0.0800 
 33 H        5.9130     1.0740    -0.7760 H     1 <1>   0.0800 
 34 H        6.3160     2.8140     0.3340 H     1 <1>   0.0800 
 35 H        5.6220     3.0170     1.9090 H     1 <1>   0.0800 
 36 H        2.2080     3.5450     0.8660 H     1 <1>   0.0800 
 37 H        3.3980     4.5810     1.5920 H     1 <1>   0.0800 
 38 H        3.1920     2.9460     2.1810 H     1 <1>   0.0800 
 39 H        4.5850     5.0720    -0.5640 H     1 <1>   0.3700 
 40 H        3.3560     7.2180     0.0020 H     1 <1>   0.1500 
 41 H        7.5440     9.4700    -1.2680 H     1 <1>   0.1500 
 42 H        7.7720     5.8630    -1.3480 H     1 <1>   0.0800 
 43 H        8.3960     6.6800     0.0660 H     1 <1>   0.0800 
 44 H        8.6350     7.3640    -1.5210 H     1 <1>   0.0800 
 45 H        3.3750     9.6530    -0.4450 H     1 <1>   0.1500 
@<TRIPOS>BOND
  1   1   2  1   
  2   1   3  1   
  3   2   4  2   
  4   2   5  1   
  5   3   6  2   
  6   3   7  1   
  7   4   6  1   
  8   5  24  1   
  9   5  25  1   
 10   5  26  1   
 11   6   8  1   
 12   7  27  1   
 13   7  28  1   
 14   7  29  1   
 15   8   9  1   
 16   8  10  1   
 17   8  30  1   
 18   9  11  1   
 19   9  12  1   
 20  10  31  1   
 21  10  32  1   
 22  10  33  1   
 23  11  13  1   
 24  11  34  1   
 25  11  35  1   
 26  12  36  1   
 27  12  37  1   
 28  12  38  1   
 29  13  14  2   
 30  13  15  am  
 31  15  16  1   
 32  15  39  1   
 33  16  17  ar  
 34  16  18  ar  
 35  17  19  ar  
 36  17  20  1   
 37  18  21  ar  
 38  18  40  1   
 39  19  22  ar  
 40  19  41  1   
 41  20  42  1   
 42  20  43  1   
 43  20  44  1   
 44  21  22  ar  
 45  21  45  1   
 46  22  23  1   
@<TRIPOS>SUBSTRUCTURE
  1 ****   9 GROUP 4 **** **** 0

# MOE 2024.06 (io_trps.svl 2023.06)
