@<TRIPOS>MOLECULE
NONAME
50 52 1 0 0 
SMALL
USER_CHARGES


@<TRIPOS>ATOM
  1 S       -0.0500     0.0870     0.0150 S.o2  1 <1>   1.3330 
  2 O       -0.7620     1.2920    -0.3470 O.2   1 <1>  -0.6500 
  3 O       -0.1530    -0.4230     1.3640 O.2   1 <1>  -0.6500 
  4 N       -0.5230    -1.1520    -1.0450 N.am  1 <1>  -0.8490 
  5 C        1.6760     0.3270    -0.4120 C.3   1 <1>  -0.0550 
  6 C       -0.2230    -2.4960    -0.5410 C.3   1 <1>   0.1160 
  7 C       -1.9390    -1.0610    -1.4110 C.3   1 <1>   0.1160 
  8 C        2.3480     1.4830     0.3570 C.3   1 <1>  -0.0800 
  9 C        3.7270     1.7840    -0.2050 C.3   1 <1>   0.2200 
 10 C        2.6610     1.1060     1.8110 C.3   1 <1>   0.1200 
 11 N        4.0890     3.1810     0.1190 N.am  1 <1>  -0.7300 
 12 C        4.6030     0.8320     0.5990 C.3   1 <1>   0.1200 
 13 O        4.0100     0.7410     1.8580 O.3   1 <1>  -0.5600 
 14 C        4.3030     4.1570    -0.7960 C.2   1 <1>   0.5690 
 15 O        4.2190     3.9500    -1.9810 O.2   1 <1>  -0.5700 
 16 C        4.6660     5.5430    -0.3140 C.3   1 <1>  -0.0990 
 17 C        6.1660     5.8110    -0.4770 C.3   1 <1>  -0.0170 
 18 C        6.5220     7.1910     0.0520 C.ar  1 <1>  -0.1440 
 19 C        6.4070     8.3010    -0.7790 C.ar  1 <1>  -0.1500 
 20 C        6.9590     7.3480     1.3670 C.ar  1 <1>  -0.1500 
 21 C        6.7360     9.5400    -0.2650 C.ar  1 <1>   0.0820 
 22 C        7.2860     8.6030     1.8670 C.ar  1 <1>  -0.1500 
 23 O        6.7020    10.7290    -0.8770 O.3   1 <1>  -0.3630 
 24 C        7.1640     9.6870     1.0220 C.ar  1 <1>   0.0820 
 25 C        7.1390    11.6920     0.0790 C.3   1 <1>   0.4000 
 26 O        7.4190    10.9740     1.2790 O.3   1 <1>  -0.3620 
 27 H        2.2170    -0.5830    -0.2410 H     1 <1>   0.0800 
 28 H        1.7250     0.5430    -1.4620 H     1 <1>   0.0800 
 29 H       -0.4560    -3.2330    -1.2910 H     1 <1>   0.0800 
 30 H       -0.8000    -2.7040     0.3460 H     1 <1>   0.0800 
 31 H        0.8230    -2.5780    -0.2980 H     1 <1>   0.0800 
 32 H       -2.2000    -1.8500    -2.0950 H     1 <1>   0.0800 
 33 H       -2.1350    -0.1190    -1.8970 H     1 <1>   0.0800 
 34 H       -2.5590    -1.1310    -0.5320 H     1 <1>   0.0800 
 35 H        1.7110     2.3500     0.3030 H     1 <1>   0.0800 
 36 H        3.8050     1.6100    -1.2660 H     1 <1>   0.0800 
 37 H        2.0710     0.2850     2.1800 H     1 <1>   0.0800 
 38 H        2.5320     1.9540     2.4620 H     1 <1>   0.0800 
 39 H        4.1970     3.3680     1.1180 H     1 <1>   0.3700 
 40 H        5.6160     1.1830     0.6980 H     1 <1>   0.0800 
 41 H        4.5990    -0.1510     0.1630 H     1 <1>   0.0800 
 42 H        4.1090     6.2610    -0.8880 H     1 <1>   0.0800 
 43 H        4.3860     5.6550     0.7170 H     1 <1>   0.0800 
 44 H        6.4320     5.7430    -1.5180 H     1 <1>   0.0800 
 45 H        6.7300     5.0620     0.0520 H     1 <1>   0.0800 
 46 H        6.0730     8.2160    -1.7980 H     1 <1>   0.1500 
 47 H        7.0480     6.4900     2.0110 H     1 <1>   0.1500 
 48 H        7.6250     8.7390     2.8780 H     1 <1>   0.1500 
 49 H        8.0360    12.1690    -0.2730 H     1 <1>   0.0800 
 50 H        6.3530    12.4040     0.2590 H     1 <1>   0.0800 
@<TRIPOS>BOND
  1   1   2  2   
  2   1   3  2   
  3   1   4  am  
  4   1   5  1   
  5   4   6  1   
  6   4   7  1   
  7   5   8  1   
  8   5  27  1   
  9   5  28  1   
 10   6  29  1   
 11   6  30  1   
 12   6  31  1   
 13   7  32  1   
 14   7  33  1   
 15   7  34  1   
 16   8   9  1   
 17   8  10  1   
 18   8  35  1   
 19   9  11  1   
 20   9  12  1   
 21   9  36  1   
 22  10  13  1   
 23  10  37  1   
 24  10  38  1   
 25  11  14  am  
 26  11  39  1   
 27  12  13  1   
 28  12  40  1   
 29  12  41  1   
 30  14  15  2   
 31  14  16  1   
 32  16  17  1   
 33  16  42  1   
 34  16  43  1   
 35  17  18  1   
 36  17  44  1   
 37  17  45  1   
 38  18  19  ar  
 39  18  20  ar  
 40  19  21  ar  
 41  19  46  1   
 42  20  22  ar  
 43  20  47  1   
 44  21  23  1   
 45  21  24  ar  
 46  22  24  ar  
 47  22  48  1   
 48  23  25  1   
 49  24  26  1   
 50  25  26  1   
 51  25  49  1   
 52  25  50  1   
@<TRIPOS>SUBSTRUCTURE
  1 ****  14 GROUP 4 **** **** 0

# MOE 2024.06 (io_trps.svl 2023.06)
