@<TRIPOS>MOLECULE
NONAME
45 47 1 0 0 
SMALL
USER_CHARGES


@<TRIPOS>ATOM
  1 S       -0.0270     1.0540     0.2570 S.o2  1 <1>   1.3330 
  2 O       -0.1240    -0.1040    -0.5990 O.2   1 <1>  -0.6500 
  3 O       -1.1550     1.9320     0.4480 O.2   1 <1>  -0.6500 
  4 N        1.2670     1.9800    -0.3490 N.am  1 <1>  -0.8490 
  5 C        0.5340     0.5540     1.8730 C.3   1 <1>  -0.1350 
  6 C        2.3640     1.0970    -0.8370 C.3   1 <1>   0.1960 
  7 C        0.7880     2.8520    -1.4480 C.3   1 <1>   0.1960 
  8 C        3.7630     1.7440    -0.7380 C.3   1 <1>   0.3430 
  9 C        1.6490     4.1070    -1.6320 C.3   1 <1>  -0.1600 
 10 N        3.6780     3.2260    -0.6190 N.4   1 <1>  -0.9590 
 11 C        3.1370     3.8590    -1.8480 C.3   1 <1>   0.3430 
 12 C        4.9450     3.8770    -0.1490 C.3   1 <1>   0.5230 
 13 C        4.7160     5.3470     0.1580 C.2   1 <1>   0.1980 
 14 S        4.0940     5.7410     1.7500 S.3   1 <1>  -0.0800 
 15 N        4.8930     6.3460    -0.6130 N.2   1 <1>  -0.5650 
 16 C        4.1120     7.4150     1.2900 C.2   1 <1>  -0.1400 
 17 C        4.5510     7.5220     0.0320 C.2   1 <1>   0.0460 
 18 C        3.6870     8.5230     2.2290 C.3   1 <1>   0.0200 
 19 C        4.6800     8.8620    -0.6660 C.3   1 <1>   0.0210 
 20 C        4.1470     9.8720     1.6400 C.3   1 <1>  -0.1600 
 21 C        3.9200     9.9590     0.1130 C.3   1 <1>  -0.1600 
 22 H       -0.2310    -0.0210     2.3570 H     1 <1>   0.0800 
 23 H        0.7400     1.4170     2.4750 H     1 <1>   0.0800 
 24 H        1.4170    -0.0480     1.8040 H     1 <1>   0.0800 
 25 H        2.1740     0.7890    -1.8520 H     1 <1>   0.0800 
 26 H        2.3990     0.1900    -0.2560 H     1 <1>   0.0800 
 27 H       -0.2090     3.2060    -1.2420 H     1 <1>   0.0800 
 28 H        0.7240     2.2940    -2.3690 H     1 <1>   0.0800 
 29 H        4.3560     1.4630    -1.5930 H     1 <1>   0.0800 
 30 H        4.2480     1.3470     0.1390 H     1 <1>   0.0800 
 31 H        1.5110     4.7610    -0.7890 H     1 <1>   0.0800 
 32 H        1.2750     4.6370    -2.4900 H     1 <1>   0.0800 
 33 H        2.9440     3.3910     0.0920 H     1 <1>   0.4500 
 34 H        3.6220     4.8050    -2.0330 H     1 <1>   0.0800 
 35 H        3.2950     3.2270    -2.7070 H     1 <1>   0.0800 
 36 H        5.7000     3.8010    -0.9130 H     1 <1>   0.0800 
 37 H        5.3090     3.3900     0.7400 H     1 <1>   0.0800 
 38 H        4.1260     8.3790     3.2010 H     1 <1>   0.0800 
 39 H        2.6160     8.5080     2.3290 H     1 <1>   0.0800 
 40 H        4.2880     8.7910    -1.6650 H     1 <1>   0.0800 
 41 H        5.7240     9.1130    -0.7310 H     1 <1>   0.0800 
 42 H        5.1980     9.9950     1.8370 H     1 <1>   0.0800 
 43 H        3.6260    10.6730     2.1340 H     1 <1>   0.0800 
 44 H        2.8660     9.8550    -0.0840 H     1 <1>   0.0800 
 45 H        4.2250    10.9260    -0.2460 H     1 <1>   0.0800 
@<TRIPOS>BOND
  1   1   2  2   
  2   1   3  2   
  3   1   4  am  
  4   1   5  1   
  5   4   6  1   
  6   4   7  1   
  7   5  22  1   
  8   5  23  1   
  9   5  24  1   
 10   6   8  1   
 11   6  25  1   
 12   6  26  1   
 13   7   9  1   
 14   7  27  1   
 15   7  28  1   
 16   8  10  1   
 17   8  29  1   
 18   8  30  1   
 19   9  11  1   
 20   9  31  1   
 21   9  32  1   
 22  10  11  1   
 23  10  12  1   
 24  10  33  1   
 25  11  34  1   
 26  11  35  1   
 27  12  13  1   
 28  12  36  1   
 29  12  37  1   
 30  13  14  1   
 31  13  15  2   
 32  14  16  1   
 33  15  17  1   
 34  16  17  2   
 35  16  18  1   
 36  17  19  1   
 37  18  20  1   
 38  18  38  1   
 39  18  39  1   
 40  19  21  1   
 41  19  40  1   
 42  19  41  1   
 43  20  21  1   
 44  20  42  1   
 45  20  43  1   
 46  21  44  1   
 47  21  45  1   
@<TRIPOS>SUBSTRUCTURE
  1 ****  10 GROUP 4 **** **** 0

# MOE 2024.06 (io_trps.svl 2023.06)
