@<TRIPOS>MOLECULE
NONAME
48 52 1 0 0 
SMALL
USER_CHARGES


@<TRIPOS>ATOM
  1 S       -0.2270    -0.5550     0.4650 S.3   1 <1>  -0.0800 
  2 C       -1.4110    -1.3730    -0.5100 C.2   1 <1>   0.4420 
  3 C       -0.7890     0.9270    -0.2260 C.2   1 <1>   0.1980 
  4 N       -2.0950    -0.5530    -1.2220 N.2   1 <1>  -0.3380 
  5 N       -1.5780    -2.7420    -0.4740 N.am  1 <1>  -0.4940 
  6 N       -1.7370     0.7570    -1.0560 N.2   1 <1>  -0.3380 
  7 C       -0.1340     2.2190     0.2210 C.3   1 <1>   0.1640 
  8 C       -0.9090    -3.7250     0.1990 C.2   1 <1>   0.5690 
  9 C        1.3210     2.2890    -0.2210 C.ar  1 <1>  -0.1440 
 10 O        0.1190    -3.5010     0.7880 O.2   1 <1>  -0.5700 
 11 C       -1.3820    -5.1780     0.2370 C.3   1 <1>  -0.0190 
 12 C        2.3470     2.0450     0.6790 C.ar  1 <1>  -0.1500 
 13 C        1.6300     2.5960    -1.5370 C.ar  1 <1>  -0.1500 
 14 C       -1.5870    -5.5500     1.7130 C.3   1 <1>   0.3380 
 15 C       -2.7500    -5.6500    -0.3560 C.3   1 <1>  -0.0190 
 16 C        3.6710     2.1110     0.2770 C.ar  1 <1>  -0.1430 
 17 C        2.9500     2.6640    -1.9450 C.ar  1 <1>  -0.1500 
 18 O       -2.9230    -5.2210     1.8350 O.3   1 <1>  -0.5600 
 19 C       -1.7090    -7.0550     1.8790 C.2   1 <1>  -0.2880 
 20 C       -3.7760    -4.7380    -0.9820 C.2   1 <1>   0.5690 
 21 C       -3.4890    -6.0870     0.9100 C.3   1 <1>   0.4180 
 22 C        3.9680     2.4220    -1.0400 C.ar  1 <1>  -0.1500 
 23 C        4.7870     1.8360     1.2690 C.3   1 <1>  -0.0970 
 24 C       -2.9020    -7.3860     1.4010 C.2   1 <1>  -0.2880 
 25 O       -3.5200    -4.0430    -1.9330 O.2   1 <1>  -0.5700 
 26 N       -4.9940    -4.8420    -0.3910 N.am  1 <1>  -0.6600 
 27 C       -4.9840    -5.8030     0.7360 C.3   1 <1>   0.1400 
 28 C       -6.2140    -4.0760    -0.7420 C.3   1 <1>   0.0600 
 29 H       -2.3390    -3.0440    -1.0920 H     1 <1>   0.3700 
 30 H       -0.6740     3.0470    -0.2010 H     1 <1>   0.0800 
 31 H       -0.2030     2.2950     1.2900 H     1 <1>   0.0800 
 32 H       -0.5850    -5.7800    -0.1600 H     1 <1>   0.0800 
 33 H        2.1190     1.7950     1.7010 H     1 <1>   0.1500 
 34 H        0.8450     2.7790    -2.2510 H     1 <1>   0.1500 
 35 H       -0.9970    -5.0380     2.4560 H     1 <1>   0.0800 
 36 H       -2.6160    -6.4920    -1.0090 H     1 <1>   0.0800 
 37 H        3.1860     2.9010    -2.9670 H     1 <1>   0.1500 
 38 H       -0.9100    -7.6330     2.3110 H     1 <1>   0.1500 
 39 H        4.9920     2.4730    -1.3660 H     1 <1>   0.1500 
 40 H        5.6760     2.3750     0.9950 H     1 <1>   0.0800 
 41 H        5.0080     0.7840     1.2830 H     1 <1>   0.0800 
 42 H        4.4950     2.1430     2.2570 H     1 <1>   0.0800 
 43 H       -3.4220    -8.3230     1.3070 H     1 <1>   0.1500 
 44 H       -5.4050    -5.3760     1.6290 H     1 <1>   0.0800 
 45 H       -5.5130    -6.6950     0.4530 H     1 <1>   0.0800 
 46 H       -7.0070    -4.7520    -1.0080 H     1 <1>   0.0800 
 47 H       -6.0130    -3.4270    -1.5780 H     1 <1>   0.0800 
 48 H       -6.5210    -3.4750     0.0970 H     1 <1>   0.0800 
@<TRIPOS>BOND
  1   1   2  1   
  2   1   3  1   
  3   2   4  2   
  4   2   5  1   
  5   3   6  2   
  6   3   7  1   
  7   4   6  1   
  8   5   8  am  
  9   5  29  1   
 10   7   9  1   
 11   7  30  1   
 12   7  31  1   
 13   8  10  2   
 14   8  11  1   
 15   9  12  ar  
 16   9  13  ar  
 17  11  14  1   
 18  11  15  1   
 19  11  32  1   
 20  12  16  ar  
 21  12  33  1   
 22  13  17  ar  
 23  13  34  1   
 24  14  18  1   
 25  14  19  1   
 26  14  35  1   
 27  15  20  1   
 28  15  21  1   
 29  15  36  1   
 30  16  22  ar  
 31  16  23  1   
 32  17  22  ar  
 33  17  37  1   
 34  18  21  1   
 35  19  24  2   
 36  19  38  1   
 37  20  25  2   
 38  20  26  am  
 39  21  24  1   
 40  21  27  1   
 41  22  39  1   
 42  23  40  1   
 43  23  41  1   
 44  23  42  1   
 45  24  43  1   
 46  26  27  1   
 47  26  28  1   
 48  27  44  1   
 49  27  45  1   
 50  28  46  1   
 51  28  47  1   
 52  28  48  1   
@<TRIPOS>SUBSTRUCTURE
  1 ****   2 GROUP 4 **** **** 0

# MOE 2024.06 (io_trps.svl 2023.06)
