@<TRIPOS>MOLECULE
NONAME
52 54 1 0 0 
SMALL
USER_CHARGES


@<TRIPOS>ATOM
  1 O       -0.5540    -0.1890    -0.7620 O.2   1 <1>  -0.5700 
  2 C       -1.5910     0.3460    -0.4170 C.2   1 <1>   0.5440 
  3 N       -1.5220     1.5680     0.2190 N.am  1 <1>  -0.6600 
  4 C       -2.8420    -0.3230    -0.6730 C.ar  1 <1>   0.0860 
  5 C       -2.5940     2.1440     1.0850 C.3   1 <1>   0.1400 
  6 C       -0.2540     2.3560     0.2670 C.3   1 <1>   0.1400 
  7 C       -3.0130    -1.6570    -0.3140 C.ar  1 <1>   0.1600 
  8 C       -3.9210     0.3020    -1.2920 C.ar  1 <1>  -0.1500 
  9 C       -2.7530     3.6500     0.8150 C.3   1 <1>   0.1200 
 10 C       -0.5380     3.8530     0.0560 C.3   1 <1>   0.1200 
 11 N       -4.1120    -2.3720    -0.4770 N.ar  1 <1>  -0.6200 
 12 C       -5.0700    -0.4280    -1.4770 C.ar  1 <1>  -0.1500 
 13 O       -1.5230     4.3060     0.9430 O.3   1 <1>  -0.5600 
 14 C       -5.1340    -1.7550    -1.0580 C.ar  1 <1>   0.4100 
 15 N       -6.2900    -2.4660    -1.2390 N.pl3 1 <1>  -0.8690 
 16 C       -6.4540    -3.9140    -0.9480 C.3   1 <1>   0.2090 
 17 C       -6.9610    -4.1020     0.4800 C.3   1 <1>  -0.0170 
 18 C       -7.1640    -5.5820     0.7830 C.ar  1 <1>  -0.1430 
 19 C       -8.2990    -6.2610     0.3420 C.ar  1 <1>   0.0830 
 20 C       -6.1960    -6.2620     1.5050 C.ar  1 <1>  -0.1500 
 21 O       -9.2150    -5.5550    -0.3740 O.3   1 <1>  -0.3620 
 22 C       -8.4540    -7.6140     0.6370 C.ar  1 <1>  -0.1500 
 23 C       -6.3550    -7.6050     1.7950 C.ar  1 <1>  -0.1500 
 24 C      -10.4210    -6.1330    -0.8210 C.3   1 <1>   0.0400 
 25 C       -7.4800    -8.2880     1.3670 C.ar  1 <1>   0.0830 
 26 O       -7.5550    -9.6020     1.6970 O.3   1 <1>  -0.3620 
 27 C       -8.6580   -10.3960     1.3220 C.3   1 <1>   0.0400 
 28 H       -2.3200     2.0040     2.1170 H     1 <1>   0.0800 
 29 H       -3.5330     1.6470     0.9270 H     1 <1>   0.0800 
 30 H        0.4280     2.0160    -0.4930 H     1 <1>   0.0800 
 31 H        0.2160     2.2130     1.2240 H     1 <1>   0.0800 
 32 H       -2.1740    -2.1570     0.1420 H     1 <1>   0.1500 
 33 H       -3.8440     1.3250    -1.6150 H     1 <1>   0.1500 
 34 H       -3.4310     4.0850     1.5270 H     1 <1>   0.0800 
 35 H       -3.1340     3.8210    -0.1760 H     1 <1>   0.0800 
 36 H       -0.8720     4.0330    -0.9510 H     1 <1>   0.0800 
 37 H        0.3530     4.4270     0.2330 H     1 <1>   0.0800 
 38 H       -5.9290     0.0100    -1.9490 H     1 <1>   0.1500 
 39 H       -7.1070    -2.0010    -1.6360 H     1 <1>   0.4000 
 40 H       -5.5130    -4.4250    -1.0670 H     1 <1>   0.0800 
 41 H       -7.1550    -4.3400    -1.6440 H     1 <1>   0.0800 
 42 H       -7.8890    -3.5750     0.6070 H     1 <1>   0.0800 
 43 H       -6.2430    -3.6830     1.1620 H     1 <1>   0.0800 
 44 H       -5.3130    -5.7490     1.8440 H     1 <1>   0.1500 
 45 H       -9.3230    -8.1390     0.3030 H     1 <1>   0.1500 
 46 H       -5.6040    -8.1320     2.3560 H     1 <1>   0.1500 
 47 H      -10.9830    -5.3760    -1.3370 H     1 <1>   0.0800 
 48 H      -10.9770    -6.4830     0.0310 H     1 <1>   0.0800 
 49 H      -10.1930    -6.9410    -1.4930 H     1 <1>   0.0800 
 50 H       -8.4960   -11.3910     1.6960 H     1 <1>   0.0800 
 51 H       -8.7250   -10.4160     0.2490 H     1 <1>   0.0800 
 52 H       -9.5500    -9.9820     1.7590 H     1 <1>   0.0800 
@<TRIPOS>BOND
  1   1   2  2   
  2   2   3  am  
  3   2   4  1   
  4   3   5  1   
  5   3   6  1   
  6   4   7  ar  
  7   4   8  ar  
  8   5   9  1   
  9   5  28  1   
 10   5  29  1   
 11   6  10  1   
 12   6  30  1   
 13   6  31  1   
 14   7  11  ar  
 15   7  32  1   
 16   8  12  ar  
 17   8  33  1   
 18   9  13  1   
 19   9  34  1   
 20   9  35  1   
 21  10  13  1   
 22  10  36  1   
 23  10  37  1   
 24  11  14  ar  
 25  12  14  ar  
 26  12  38  1   
 27  14  15  1   
 28  15  16  1   
 29  15  39  1   
 30  16  17  1   
 31  16  40  1   
 32  16  41  1   
 33  17  18  1   
 34  17  42  1   
 35  17  43  1   
 36  18  19  ar  
 37  18  20  ar  
 38  19  21  1   
 39  19  22  ar  
 40  20  23  ar  
 41  20  44  1   
 42  21  24  1   
 43  22  25  ar  
 44  22  45  1   
 45  23  25  ar  
 46  23  46  1   
 47  24  47  1   
 48  24  48  1   
 49  24  49  1   
 50  25  26  1   
 51  26  27  1   
 52  27  50  1   
 53  27  51  1   
 54  27  52  1   
@<TRIPOS>SUBSTRUCTURE
  1 ****  11 GROUP 4 **** **** 0

# MOE 2024.06 (io_trps.svl 2023.06)
