@<TRIPOS>MOLECULE
NONAME
55 58 1 0 0 
SMALL
USER_CHARGES


@<TRIPOS>ATOM
  1 O       -2.0790    -0.4920     0.5020 O.2   1 <1>  -0.5700 
  2 C       -2.5610     0.4730    -0.0740 C.2   1 <1>   0.6160 
  3 N       -2.1950     1.7540     0.3240 N.am  1 <1>  -0.4770 
  4 C       -3.5220     0.3090    -1.1300 C.2   1 <1>   0.0290 
  5 C       -2.8040     2.8950    -0.2330 C.ar  1 <1>   0.1170 
  6 C       -1.0940     1.9240     1.3240 C.3   1 <1>   0.0600 
  7 C       -3.8710    -1.0180    -1.5780 C.2   1 <1>   0.6160 
  8 C       -4.0680     1.4180    -1.7040 C.2   1 <1>  -0.1780 
  9 C       -3.7430     2.7310    -1.2680 C.ar  1 <1>   0.0280 
 10 C       -2.5200     4.1960     0.2000 C.ar  1 <1>  -0.1500 
 11 O       -3.9480    -1.2340    -2.7720 O.2   1 <1>  -0.5700 
 12 N       -4.2140    -2.0580    -0.7360 N.am  1 <1>  -0.6600 
 13 C       -4.3430     3.8550    -1.8410 C.ar  1 <1>  -0.1500 
 14 C       -3.1250     5.2930    -0.3730 C.ar  1 <1>  -0.1500 
 15 C       -4.7010    -1.8840     0.6640 C.3   1 <1>   0.1400 
 16 C       -4.1190    -3.4800    -1.1800 C.3   1 <1>   0.1400 
 17 C       -4.0400     5.1230    -1.4020 C.ar  1 <1>  -0.1500 
 18 C       -6.0400    -2.6210     0.8890 C.3   1 <1>   0.4230 
 19 C       -5.4630    -4.1970    -0.9760 C.3   1 <1>   0.3430 
 20 N       -5.9780    -4.0730     0.4430 N.4   1 <1>  -0.9590 
 21 C       -7.1950    -1.8780     0.1790 C.3   1 <1>   0.1200 
 22 C       -7.3300    -4.7030     0.6430 C.3   1 <1>   0.4230 
 23 O       -8.4060    -2.5430     0.3980 O.3   1 <1>  -0.5600 
 24 C       -8.4450    -3.8730    -0.0410 C.3   1 <1>   0.1200 
 25 C       -7.3150    -6.1720     0.1900 C.3   1 <1>  -0.1600 
 26 C       -8.5300    -6.9580     0.7090 C.3   1 <1>  -0.1600 
 27 C       -8.4370    -8.4320     0.3080 C.3   1 <1>  -0.2400 
 28 H       -0.3580     2.6070     0.9390 H     1 <1>   0.0800 
 29 H       -0.5980     0.9930     1.5340 H     1 <1>   0.0800 
 30 H       -1.4980     2.3110     2.2430 H     1 <1>   0.0800 
 31 H       -4.7660     1.3250    -2.5180 H     1 <1>   0.1500 
 32 H       -1.8200     4.3670     0.9960 H     1 <1>   0.1500 
 33 H       -5.0530     3.7250    -2.6390 H     1 <1>   0.1500 
 34 H       -2.8920     6.2860    -0.0280 H     1 <1>   0.1500 
 35 H       -3.9580    -2.2670     1.3430 H     1 <1>   0.0800 
 36 H       -4.8310    -0.8390     0.8890 H     1 <1>   0.0800 
 37 H       -3.8410    -3.5390    -2.2190 H     1 <1>   0.0800 
 38 H       -3.3490    -3.9760    -0.6140 H     1 <1>   0.0800 
 39 H       -4.5070     5.9840    -1.8490 H     1 <1>   0.1500 
 40 H       -6.2520    -2.5880     1.9450 H     1 <1>   0.0800 
 41 H       -5.3410    -5.2360    -1.2350 H     1 <1>   0.0800 
 42 H       -6.1760    -3.7700    -1.6620 H     1 <1>   0.0800 
 43 H       -5.3130    -4.5540     1.0580 H     1 <1>   0.4500 
 44 H       -7.0250    -1.8020    -0.8810 H     1 <1>   0.0800 
 45 H       -7.2970    -0.8840     0.5780 H     1 <1>   0.0800 
 46 H       -7.5470    -4.6990     1.6990 H     1 <1>   0.0800 
 47 H       -9.4140    -4.2630     0.2170 H     1 <1>   0.0800 
 48 H       -8.3490    -3.8870    -1.1130 H     1 <1>   0.0800 
 49 H       -7.3050    -6.2330    -0.8850 H     1 <1>   0.0800 
 50 H       -6.4280    -6.6480     0.5700 H     1 <1>   0.0800 
 51 H       -8.5810    -6.8940     1.7840 H     1 <1>   0.0800 
 52 H       -9.4440    -6.5530     0.3070 H     1 <1>   0.0800 
 53 H       -7.5540    -8.8880     0.7220 H     1 <1>   0.0800 
 54 H       -8.4110    -8.5370    -0.7630 H     1 <1>   0.0800 
 55 H       -9.2950    -8.9680     0.6770 H     1 <1>   0.0800 
@<TRIPOS>BOND
  1   1   2  2   
  2   2   3  am  
  3   2   4  1   
  4   3   5  1   
  5   3   6  1   
  6   4   7  1   
  7   4   8  2   
  8   5   9  ar  
  9   5  10  ar  
 10   6  28  1   
 11   6  29  1   
 12   6  30  1   
 13   7  11  2   
 14   7  12  am  
 15   8   9  1   
 16   8  31  1   
 17   9  13  ar  
 18  10  14  ar  
 19  10  32  1   
 20  12  15  1   
 21  12  16  1   
 22  13  17  ar  
 23  13  33  1   
 24  14  17  ar  
 25  14  34  1   
 26  15  18  1   
 27  15  35  1   
 28  15  36  1   
 29  16  19  1   
 30  16  37  1   
 31  16  38  1   
 32  17  39  1   
 33  18  20  1   
 34  18  21  1   
 35  18  40  1   
 36  19  20  1   
 37  19  41  1   
 38  19  42  1   
 39  20  22  1   
 40  20  43  1   
 41  21  23  1   
 42  21  44  1   
 43  21  45  1   
 44  22  24  1   
 45  22  25  1   
 46  22  46  1   
 47  23  24  1   
 48  24  47  1   
 49  24  48  1   
 50  25  26  1   
 51  25  49  1   
 52  25  50  1   
 53  26  27  1   
 54  26  51  1   
 55  26  52  1   
 56  27  53  1   
 57  27  54  1   
 58  27  55  1   
@<TRIPOS>SUBSTRUCTURE
  1 ****  12 GROUP 4 **** **** 0

# MOE 2024.06 (io_trps.svl 2023.06)
