@<TRIPOS>MOLECULE
NONAME
46 49 1 0 0 
SMALL
USER_CHARGES


@<TRIPOS>ATOM
  1 O       -0.4710     0.4980     0.6030 O.2   1 <1>  -0.5700 
  2 C       -1.4320     1.0380     0.0760 C.2   1 <1>   0.7160 
  3 N       -2.5780     0.2640    -0.0260 N.am  1 <1>  -0.6600 
  4 C       -1.3390     2.4230    -0.4040 C.2   1 <1>   0.2030 
  5 C       -3.8860     0.6960    -0.5820 C.3   1 <1>   0.1400 
  6 C       -2.6090    -1.1820     0.2980 C.3   1 <1>   0.1400 
  7 N       -2.2350     3.0580    -1.1510 N.2   1 <1>  -0.7070 
  8 C       -0.2660     3.2960    -0.1340 C.2   1 <1>  -0.1810 
  9 C       -4.8440    -0.4450    -0.2440 C.3   1 <1>   0.2000 
 10 C       -3.9460    -1.6870    -0.2560 C.3   1 <1>  -0.0800 
 11 N       -1.7510     4.2940    -1.3400 N.pl3 1 <1>   0.3000 
 12 C       -0.5680     4.4620    -0.7290 C.2   1 <1>  -0.3320 
 13 C        1.0140     3.0820     0.6610 C.3   1 <1>   0.0210 
 14 O       -5.3300    -0.2380     1.0390 O.3   1 <1>  -0.6800 
 15 C       -4.5120    -2.9060     0.4950 C.3   1 <1>   0.0200 
 16 C        0.2780     5.7210    -0.7090 C.3   1 <1>   0.0200 
 17 C        2.0200     4.2190     0.3950 C.3   1 <1>  -0.1600 
 18 C       -3.6580    -4.1530     0.3360 C.2   1 <1>  -0.0400 
 19 C        1.3450     5.6050     0.3930 C.3   1 <1>  -0.1600 
 20 O       -3.9550    -5.2100     1.0440 O.3   1 <1>  -0.0190 
 21 C       -2.5880    -4.4560    -0.4180 C.2   1 <1>  -0.1500 
 22 N       -3.1430    -6.1990     0.8090 N.2   1 <1>  -0.4100 
 23 C       -2.3080    -5.7740    -0.0690 C.2   1 <1>   0.1080 
 24 C       -1.1780    -6.6020    -0.6380 C.3   1 <1>  -0.0590 
 25 H       -4.2140     1.6300    -0.1580 H     1 <1>   0.0800 
 26 H       -3.7930     0.8000    -1.6500 H     1 <1>   0.0800 
 27 H       -1.7710    -1.6890    -0.1500 H     1 <1>   0.0800 
 28 H       -2.5630    -1.3020     1.3680 H     1 <1>   0.0800 
 29 H       -5.6790    -0.5110    -0.9210 H     1 <1>   0.0800 
 30 H       -3.7920    -1.9610    -1.2850 H     1 <1>   0.0800 
 31 H       -2.2470     5.0050    -1.8900 H     1 <1>   0.2700 
 32 H        0.7670     3.0500     1.7070 H     1 <1>   0.0800 
 33 H        1.4660     2.1440     0.3920 H     1 <1>   0.0800 
 34 H       -4.5890     0.0450     1.6120 H     1 <1>   0.4000 
 35 H       -5.5010    -3.1230     0.1310 H     1 <1>   0.0800 
 36 H       -4.5960    -2.6840     1.5450 H     1 <1>   0.0800 
 37 H        0.7560     5.8370    -1.6660 H     1 <1>   0.0800 
 38 H       -0.3370     6.5850    -0.5250 H     1 <1>   0.0800 
 39 H        2.7960     4.1890     1.1400 H     1 <1>   0.0800 
 40 H        2.4790     4.0560    -0.5650 H     1 <1>   0.0800 
 41 H        2.0850     6.3730     0.2580 H     1 <1>   0.0800 
 42 H        0.8760     5.7610     1.3490 H     1 <1>   0.0800 
 43 H       -2.0460    -3.8650    -1.1310 H     1 <1>   0.1500 
 44 H       -1.2760    -6.6710    -1.7050 H     1 <1>   0.0800 
 45 H       -1.2040    -7.5930    -0.2210 H     1 <1>   0.0800 
 46 H       -0.2350    -6.1480    -0.3950 H     1 <1>   0.0800 
@<TRIPOS>BOND
  1   1   2  2   
  2   2   3  am  
  3   2   4  1   
  4   3   5  1   
  5   3   6  1   
  6   4   7  2   
  7   4   8  1   
  8   5   9  1   
  9   5  25  1   
 10   5  26  1   
 11   6  10  1   
 12   6  27  1   
 13   6  28  1   
 14   7  11  1   
 15   8  12  2   
 16   8  13  1   
 17   9  10  1   
 18   9  14  1   
 19   9  29  1   
 20  10  15  1   
 21  10  30  1   
 22  11  12  1   
 23  11  31  1   
 24  12  16  1   
 25  13  17  1   
 26  13  32  1   
 27  13  33  1   
 28  14  34  1   
 29  15  18  1   
 30  15  35  1   
 31  15  36  1   
 32  16  19  1   
 33  16  37  1   
 34  16  38  1   
 35  17  19  1   
 36  17  39  1   
 37  17  40  1   
 38  18  20  1   
 39  18  21  2   
 40  19  41  1   
 41  19  42  1   
 42  20  22  1   
 43  21  23  1   
 44  21  43  1   
 45  22  23  2   
 46  23  24  1   
 47  24  44  1   
 48  24  45  1   
 49  24  46  1   
@<TRIPOS>SUBSTRUCTURE
  1 ****   3 GROUP 4 **** **** 0

# MOE 2024.06 (io_trps.svl 2023.06)
