@<TRIPOS>MOLECULE
NONAME
49 52 1 0 0 
SMALL
USER_CHARGES


@<TRIPOS>ATOM
  1 F        0.3650    -2.8090    -1.3400 F     1 <1>  -0.1900 
  2 C       -0.8000    -2.7960    -0.7500 C.ar  1 <1>   0.1900 
  3 C       -1.3590    -3.9960    -0.3630 C.ar  1 <1>  -0.1500 
  4 C       -1.4230    -1.5820    -0.5400 C.ar  1 <1>  -0.1500 
  5 C       -2.6030    -3.9770     0.2620 C.ar  1 <1>   0.0830 
  6 C       -2.6590    -1.5690     0.0830 C.ar  1 <1>  -0.1500 
  7 O       -3.2400    -5.1040     0.6750 O.3   1 <1>  -0.3630 
  8 C       -3.2510    -2.7620     0.4810 C.ar  1 <1>  -0.1440 
  9 C       -2.5830    -6.3570     0.6680 C.3   1 <1>   0.0400 
 10 C       -4.6020    -2.7500     1.1690 C.3   1 <1>   0.4870 
 11 N       -5.6710    -2.6490     0.1380 N.4   1 <1>  -0.9590 
 12 C       -6.9880    -2.2990     0.7680 C.3   1 <1>   0.3430 
 13 C       -5.7640    -3.9170    -0.6470 C.3   1 <1>   0.3430 
 14 C       -8.1050    -2.1260    -0.2770 C.3   1 <1>   0.1430 
 15 C       -6.8260    -3.7810    -1.7420 C.3   1 <1>  -0.1600 
 16 C       -9.4090    -1.9060     0.4540 C.ar  1 <1>   0.1670 
 17 C       -8.1990    -3.3790    -1.1720 C.3   1 <1>  -0.1600 
 18 C       -7.9680    -0.8230    -1.1110 C.3   1 <1>  -0.1600 
 19 N       -9.8170    -2.6220     1.4710 N.ar  1 <1>  -0.6200 
 20 C      -10.1070    -0.8550    -0.0580 C.ar  1 <1>  -0.1430 
 21 C       -9.3800    -0.2130    -1.2140 C.3   1 <1>  -0.0170 
 22 C      -10.9850    -2.2280     1.9630 C.ar  1 <1>   0.7200 
 23 C      -11.3110    -0.5460     0.5290 C.ar  1 <1>   0.1600 
 24 N      -11.7620    -1.2370     1.5510 N.ar  1 <1>  -0.6200 
 25 N      -11.4470    -2.9290     2.9990 N.pl3 1 <1>  -0.9000 
 26 H       -0.8180    -4.9020    -0.5580 H     1 <1>   0.1500 
 27 H       -0.9420    -0.6720    -0.8570 H     1 <1>   0.1500 
 28 H       -3.1430    -0.6220     0.2570 H     1 <1>   0.1500 
 29 H       -3.2420    -7.0860     1.1060 H     1 <1>   0.0800 
 30 H       -1.6830    -6.2860     1.2540 H     1 <1>   0.0800 
 31 H       -2.3590    -6.6340    -0.3470 H     1 <1>   0.0800 
 32 H       -4.6480    -1.9040     1.8350 H     1 <1>   0.0800 
 33 H       -4.7300    -3.6470     1.7540 H     1 <1>   0.0800 
 34 H       -5.3930    -1.9050    -0.5110 H     1 <1>   0.4500 
 35 H       -6.9010    -1.3890     1.3390 H     1 <1>   0.0800 
 36 H       -7.2820    -3.0850     1.4460 H     1 <1>   0.0800 
 37 H       -6.0250    -4.7320     0.0090 H     1 <1>   0.0800 
 38 H       -4.8110    -4.1450    -1.0990 H     1 <1>   0.0800 
 39 H       -6.9200    -4.7260    -2.2490 H     1 <1>   0.0800 
 40 H       -6.4950    -3.0650    -2.4720 H     1 <1>   0.0800 
 41 H       -8.8990    -3.2130    -1.9730 H     1 <1>   0.0800 
 42 H       -8.5800    -4.1980    -0.5840 H     1 <1>   0.0800 
 43 H       -7.5480    -0.9880    -2.0880 H     1 <1>   0.0800 
 44 H       -7.3440    -0.1200    -0.5860 H     1 <1>   0.0800 
 45 H       -9.8540    -0.4960    -2.1390 H     1 <1>   0.0800 
 46 H       -9.3610     0.8600    -1.1280 H     1 <1>   0.0800 
 47 H      -11.9070     0.2730     0.1620 H     1 <1>   0.1500 
 48 H      -12.4340    -2.7850     3.2020 H     1 <1>   0.4000 
 49 H      -11.1030    -3.8790     3.0880 H     1 <1>   0.4000 
@<TRIPOS>BOND
  1   1   2  1   
  2   2   3  ar  
  3   2   4  ar  
  4   3   5  ar  
  5   3  26  1   
  6   4   6  ar  
  7   4  27  1   
  8   5   7  1   
  9   5   8  ar  
 10   6   8  ar  
 11   6  28  1   
 12   7   9  1   
 13   8  10  1   
 14   9  29  1   
 15   9  30  1   
 16   9  31  1   
 17  10  11  1   
 18  10  32  1   
 19  10  33  1   
 20  11  12  1   
 21  11  13  1   
 22  11  34  1   
 23  12  14  1   
 24  12  35  1   
 25  12  36  1   
 26  13  15  1   
 27  13  37  1   
 28  13  38  1   
 29  14  16  1   
 30  14  17  1   
 31  14  18  1   
 32  15  17  1   
 33  15  39  1   
 34  15  40  1   
 35  16  19  ar  
 36  16  20  ar  
 37  17  41  1   
 38  17  42  1   
 39  18  21  1   
 40  18  43  1   
 41  18  44  1   
 42  19  22  ar  
 43  20  21  1   
 44  20  23  ar  
 45  21  45  1   
 46  21  46  1   
 47  22  24  ar  
 48  22  25  1   
 49  23  24  ar  
 50  23  47  1   
 51  25  48  1   
 52  25  49  1   
@<TRIPOS>SUBSTRUCTURE
  1 ****  11 GROUP 4 **** **** 0

# MOE 2024.06 (io_trps.svl 2023.06)
