@<TRIPOS>MOLECULE
NONAME
48 50 1 0 0 
SMALL
USER_CHARGES


@<TRIPOS>ATOM
  1 F       -0.6760    -2.5330    -2.1630 F     1 <1>  -0.1900 
  2 C        0.2610    -3.1680    -1.5090 C.ar  1 <1>   0.1900 
  3 C        0.4430    -2.9270    -0.1520 C.ar  1 <1>  -0.0320 
  4 C        1.0230    -4.0780    -2.2170 C.ar  1 <1>  -0.1500 
  5 C        1.4430    -3.6450     0.4940 C.ar  1 <1>  -0.1500 
  6 C       -0.4320    -1.9230     0.6040 C.3   1 <1>   0.0320 
  7 C        2.0070    -4.7850    -1.5510 C.ar  1 <1>  -0.1500 
  8 C        2.2140    -4.5660    -0.1980 C.ar  1 <1>  -0.1500 
  9 C       -1.9250    -2.2890     0.5630 C.2   1 <1>   0.6300 
 10 C       -0.0260    -0.4790     0.4820 C.3   1 <1>  -0.2000 
 11 C        0.0980    -1.1710     1.7990 C.3   1 <1>  -0.2000 
 12 O       -2.6810    -1.5710    -0.0520 O.2   1 <1>  -0.5700 
 13 N       -2.4100    -3.4260     1.1640 N.am  1 <1>  -0.6600 
 14 C       -1.6230    -4.2880     2.0840 C.3   1 <1>   0.3200 
 15 C       -3.8140    -3.8650     0.8880 C.3   1 <1>   0.1400 
 16 C       -1.5450    -5.6830     1.4930 C.2   1 <1>  -0.3320 
 17 C       -4.0190    -4.0570    -0.6300 C.3   1 <1>   0.3430 
 18 N       -1.6780    -6.8200     2.2040 N.pl3 1 <1>   0.0330 
 19 C       -1.3490    -6.0600     0.2100 C.2   1 <1>   0.0770 
 20 N       -4.9810    -5.1560    -0.9830 N.4   1 <1>  -0.9590 
 21 C       -1.5980    -7.8140     1.2930 C.2   1 <1>   0.0360 
 22 N       -1.4230    -7.3960     0.0820 N.2   1 <1>  -0.5650 
 23 C       -4.3790    -6.5070    -0.7320 C.3   1 <1>   0.2630 
 24 C       -5.3660    -5.0340    -2.4210 C.3   1 <1>   0.2630 
 25 H        0.8490    -4.2290    -3.2670 H     1 <1>   0.1500 
 26 H        1.6330    -3.4990     1.5410 H     1 <1>   0.1500 
 27 H        2.6120    -5.5020    -2.0800 H     1 <1>   0.1500 
 28 H        2.9830    -5.1170     0.3170 H     1 <1>   0.1500 
 29 H       -0.7950     0.2640     0.3510 H     1 <1>   0.1000 
 30 H        0.8680    -0.2430    -0.0690 H     1 <1>   0.1000 
 31 H        1.0930    -1.3420     2.1680 H     1 <1>   0.1000 
 32 H       -0.5840    -0.8830     2.5800 H     1 <1>   0.1000 
 33 H       -2.1240    -4.3180     3.0370 H     1 <1>   0.0800 
 34 H       -0.6350    -3.9000     2.2480 H     1 <1>   0.0800 
 35 H       -4.4910    -3.1090     1.2460 H     1 <1>   0.0800 
 36 H       -4.0170    -4.7800     1.4140 H     1 <1>   0.0800 
 37 H       -3.0640    -4.2720    -1.0790 H     1 <1>   0.0800 
 38 H       -4.3650    -3.1200    -1.0380 H     1 <1>   0.0800 
 39 H       -1.7990    -6.9330     3.2170 H     1 <1>   0.2700 
 40 H       -1.1640    -5.4290    -0.6440 H     1 <1>   0.1500 
 41 H       -5.8310    -5.0480    -0.4100 H     1 <1>   0.4500 
 42 H       -1.6730    -8.8520     1.5710 H     1 <1>   0.1500 
 43 H       -3.5000    -6.6470    -1.3410 H     1 <1>   0.0800 
 44 H       -5.0860    -7.2850    -0.9680 H     1 <1>   0.0800 
 45 H       -4.0880    -6.6100     0.3010 H     1 <1>   0.0800 
 46 H       -4.4960    -5.1360    -3.0510 H     1 <1>   0.0800 
 47 H       -5.8150    -4.0720    -2.6090 H     1 <1>   0.0800 
 48 H       -6.0740    -5.8030    -2.6860 H     1 <1>   0.0800 
@<TRIPOS>BOND
  1   1   2  1   
  2   2   3  ar  
  3   2   4  ar  
  4   3   5  ar  
  5   3   6  1   
  6   4   7  ar  
  7   4  25  1   
  8   5   8  ar  
  9   5  26  1   
 10   6   9  1   
 11   6  10  1   
 12   6  11  1   
 13   7   8  ar  
 14   7  27  1   
 15   8  28  1   
 16   9  12  2   
 17   9  13  am  
 18  10  11  1   
 19  10  29  1   
 20  10  30  1   
 21  11  31  1   
 22  11  32  1   
 23  13  14  1   
 24  13  15  1   
 25  14  16  1   
 26  14  33  1   
 27  14  34  1   
 28  15  17  1   
 29  15  35  1   
 30  15  36  1   
 31  16  18  1   
 32  16  19  2   
 33  17  20  1   
 34  17  37  1   
 35  17  38  1   
 36  18  21  1   
 37  18  39  1   
 38  19  22  1   
 39  19  40  1   
 40  20  23  1   
 41  20  24  1   
 42  20  41  1   
 43  21  22  2   
 44  21  42  1   
 45  23  43  1   
 46  23  44  1   
 47  23  45  1   
 48  24  46  1   
 49  24  47  1   
 50  24  48  1   
@<TRIPOS>SUBSTRUCTURE
  1 ****  13 GROUP 4 **** **** 0

# MOE 2024.06 (io_trps.svl 2023.06)
