@<TRIPOS>MOLECULE
NONAME
44 47 1 0 0 
SMALL
USER_CHARGES


@<TRIPOS>ATOM
  1 O        2.0740     0.9070    -1.2330 O.3   1 <1>  -0.0190 
  2 N        1.0810     1.7300    -1.3560 N.2   1 <1>  -0.4100 
  3 C        1.9260     0.4150    -0.0310 C.2   1 <1>   0.2980 
  4 C        0.4080     1.6910    -0.2750 C.2   1 <1>   0.3350 
  5 N        0.9040     0.8320     0.6150 N.2   1 <1>  -0.5650 
  6 C        2.9200    -0.6250     0.5000 C.3   1 <1>   0.4690 
  7 C       -0.8400     2.5240     0.0340 C.3   1 <1>   0.1010 
  8 N        2.5600    -2.0520     0.1520 N.pl3 1 <1>  -0.8380 
  9 C        4.3620    -0.4320     0.0350 C.3   1 <1>  -0.1600 
 10 C       -1.6060     2.9280    -1.2360 C.3   1 <1>  -0.2400 
 11 C       -0.4650     3.7750     0.8400 C.3   1 <1>  -0.2400 
 12 C        1.3700    -2.6700     0.4020 C.ar  1 <1>   0.4610 
 13 C        3.8150    -2.7340    -0.2910 C.3   1 <1>   0.2090 
 14 C        4.9600    -1.8260     0.1290 C.3   1 <1>  -0.1600 
 15 N        0.4320    -1.9730     1.0660 N.ar  1 <1>  -0.1790 
 16 C        1.0410    -4.0440     0.0740 C.ar  1 <1>   0.0000 
 17 C       -0.6720    -2.5300     1.6620 C.ar  1 <1>   0.2110 
 18 C       -0.0480    -4.6570     0.7390 C.ar  1 <1>   0.0000 
 19 C        1.6890    -4.8300    -0.9010 C.ar  1 <1>  -0.1500 
 20 C       -0.9010    -3.8540     1.5390 C.ar  1 <1>  -0.1500 
 21 C       -0.3170    -6.0190     0.5570 C.ar  1 <1>  -0.1500 
 22 C        1.3950    -6.1580    -1.0920 C.ar  1 <1>  -0.1500 
 23 C        0.4000    -6.7670    -0.3400 C.ar  1 <1>  -0.1500 
 24 H        2.9230    -0.5490     1.5750 H     1 <1>   0.0800 
 25 H       -1.4970     1.9200     0.6350 H     1 <1>   0.0800 
 26 H        4.3890    -0.1000    -0.9890 H     1 <1>   0.0800 
 27 H        4.8870     0.2830     0.6450 H     1 <1>   0.0800 
 28 H       -0.9980     3.5620    -1.8580 H     1 <1>   0.0800 
 29 H       -2.5050     3.4610    -0.9800 H     1 <1>   0.0800 
 30 H       -1.8760     2.0540    -1.8010 H     1 <1>   0.0800 
 31 H        0.1960     4.4020     0.2680 H     1 <1>   0.0800 
 32 H        0.0330     3.4950     1.7510 H     1 <1>   0.0800 
 33 H       -1.3450     4.3390     1.0910 H     1 <1>   0.0800 
 34 H        3.9190    -3.7110     0.1530 H     1 <1>   0.0800 
 35 H        3.8180    -2.8140    -1.3660 H     1 <1>   0.0800 
 36 H        5.2410    -2.0490     1.1440 H     1 <1>   0.0800 
 37 H        5.8200    -1.9470    -0.5070 H     1 <1>   0.0800 
 38 H        0.5710    -0.9600     1.1530 H     1 <1>   0.4570 
 39 H       -1.3200    -1.8790     2.2280 H     1 <1>   0.1500 
 40 H        2.4290    -4.4010    -1.5430 H     1 <1>   0.1500 
 41 H       -1.7410    -4.3270     2.0190 H     1 <1>   0.1500 
 42 H       -1.1090    -6.4850     1.1180 H     1 <1>   0.1500 
 43 H        1.9250    -6.7380    -1.8300 H     1 <1>   0.1500 
 44 H        0.1890    -7.8140    -0.4820 H     1 <1>   0.1500 
@<TRIPOS>BOND
  1   1   2  1   
  2   1   3  1   
  3   2   4  2   
  4   3   5  2   
  5   3   6  1   
  6   4   5  1   
  7   4   7  1   
  8   6   8  1   
  9   6   9  1   
 10   6  24  1   
 11   7  10  1   
 12   7  11  1   
 13   7  25  1   
 14   8  12  1   
 15   8  13  1   
 16   9  14  1   
 17   9  26  1   
 18   9  27  1   
 19  10  28  1   
 20  10  29  1   
 21  10  30  1   
 22  11  31  1   
 23  11  32  1   
 24  11  33  1   
 25  12  15  ar  
 26  12  16  ar  
 27  13  14  1   
 28  13  34  1   
 29  13  35  1   
 30  14  36  1   
 31  14  37  1   
 32  15  17  ar  
 33  15  38  1   
 34  16  18  ar  
 35  16  19  ar  
 36  17  20  ar  
 37  17  39  1   
 38  18  20  ar  
 39  18  21  ar  
 40  19  22  ar  
 41  19  40  1   
 42  20  41  1   
 43  21  23  ar  
 44  21  42  1   
 45  22  23  ar  
 46  22  43  1   
 47  23  44  1   
@<TRIPOS>SUBSTRUCTURE
  1 ****  12 GROUP 4 **** **** 0

# MOE 2024.06 (io_trps.svl 2023.06)
