@<TRIPOS>MOLECULE
NONAME
59 61 1 0 0 
SMALL
USER_CHARGES


@<TRIPOS>ATOM
  1 O       -0.0260    -0.5240    -0.5890 O.2   1 <1>  -0.5700 
  2 C       -0.3210    -1.7070    -0.5530 C.2   1 <1>   0.6900 
  3 N       -1.6440    -2.0700    -0.5420 N.am  1 <1>  -0.6600 
  4 N        0.6730    -2.6580    -0.5240 N.am  1 <1>  -0.6600 
  5 C       -2.1570    -3.1650    -1.4030 C.3   1 <1>   0.1400 
  6 C       -2.6730    -1.1280    -0.0380 C.3   1 <1>   0.1400 
  7 C        0.5410    -3.9110     0.2660 C.3   1 <1>   0.0600 
  8 C        2.0630    -2.3120    -0.9210 C.3   1 <1>   0.0600 
  9 C       -3.2190    -3.9620    -0.6420 C.3   1 <1>  -0.1600 
 10 C       -3.7430    -1.9060     0.7330 C.3   1 <1>  -0.1600 
 11 C       -4.3410    -3.0460    -0.1130 C.3   1 <1>  -0.0190 
 12 C       -5.3760    -3.8400     0.6800 C.2   1 <1>   0.5690 
 13 O       -5.0360    -4.4770     1.6480 O.2   1 <1>  -0.5700 
 14 N       -6.6680    -3.8370     0.2670 N.am  1 <1>  -0.7300 
 15 C       -7.7870    -4.5270     0.9580 C.3   1 <1>   0.2200 
 16 C       -7.7780    -6.0480     0.6770 C.3   1 <1>   0.2000 
 17 C       -9.0990    -3.8760     0.5070 C.3   1 <1>  -0.1600 
 18 O       -6.6670    -6.6340     1.2720 O.3   1 <1>  -0.6800 
 19 C       -9.0320    -6.7420     1.2240 C.3   1 <1>   0.1400 
 20 C      -10.3050    -4.5850     1.1250 C.3   1 <1>   0.1400 
 21 N      -10.2620    -6.0270     0.7610 N.am  1 <1>  -0.6600 
 22 C      -11.1670    -6.5740    -0.1270 C.2   1 <1>   0.5440 
 23 O      -11.8360    -5.8230    -0.8120 O.2   1 <1>  -0.5700 
 24 C      -11.3280    -8.0090    -0.2810 C.ar  1 <1>   0.0860 
 25 C      -11.3570    -8.5940    -1.5460 C.ar  1 <1>  -0.1500 
 26 C      -11.4690    -8.8530     0.8220 C.ar  1 <1>  -0.1500 
 27 C      -11.5010    -9.9600    -1.7070 C.ar  1 <1>  -0.1500 
 28 C      -11.6130   -10.2200     0.6690 C.ar  1 <1>  -0.1500 
 29 C      -11.6270   -10.7770    -0.5980 C.ar  1 <1>  -0.1500 
 30 H       -2.5870    -2.7330    -2.2900 H     1 <1>   0.0800 
 31 H       -1.3540    -3.8130    -1.7080 H     1 <1>   0.0800 
 32 H       -2.2160    -0.4010     0.6120 H     1 <1>   0.0800 
 33 H       -3.1110    -0.6070    -0.8720 H     1 <1>   0.0800 
 34 H        0.5880    -4.7610    -0.3910 H     1 <1>   0.0800 
 35 H       -0.3960    -3.9260     0.7970 H     1 <1>   0.0800 
 36 H        1.3370    -3.9750     0.9860 H     1 <1>   0.0800 
 37 H        2.5240    -3.1500    -1.4120 H     1 <1>   0.0800 
 38 H        2.6330    -2.0480    -0.0480 H     1 <1>   0.0800 
 39 H        2.0580    -1.4750    -1.5980 H     1 <1>   0.0800 
 40 H       -3.6370    -4.7100    -1.2920 H     1 <1>   0.0800 
 41 H       -2.7480    -4.4710     0.1800 H     1 <1>   0.0800 
 42 H       -3.2970    -2.3120     1.6250 H     1 <1>   0.0800 
 43 H       -4.5220    -1.2300     1.0380 H     1 <1>   0.0800 
 44 H       -4.8330    -2.6040    -0.9610 H     1 <1>   0.0800 
 45 H       -6.9250    -3.3440    -0.5880 H     1 <1>   0.3700 
 46 H       -7.6870    -4.3810     2.0210 H     1 <1>   0.0800 
 47 H       -7.7150    -6.2220    -0.3820 H     1 <1>   0.0800 
 48 H       -9.1130    -2.8440     0.8080 H     1 <1>   0.0800 
 49 H       -9.1940    -3.9240    -0.5640 H     1 <1>   0.0800 
 50 H       -5.9660    -5.9430     1.4080 H     1 <1>   0.4000 
 51 H       -9.0090    -6.7330     2.3000 H     1 <1>   0.0800 
 52 H       -9.0310    -7.7620     0.8870 H     1 <1>   0.0800 
 53 H      -11.2170    -4.1320     0.7730 H     1 <1>   0.0800 
 54 H      -10.2840    -4.4910     2.1980 H     1 <1>   0.0800 
 55 H      -11.2670    -7.9590    -2.4110 H     1 <1>   0.1500 
 56 H      -11.4680    -8.4260     1.8090 H     1 <1>   0.1500 
 57 H      -11.5180   -10.3870    -2.6950 H     1 <1>   0.1500 
 58 H      -11.7160   -10.8530     1.5340 H     1 <1>   0.1500 
 59 H      -11.7400   -11.8400    -0.7200 H     1 <1>   0.1500 
@<TRIPOS>BOND
  1   1   2  2   
  2   2   3  am  
  3   2   4  am  
  4   3   5  1   
  5   3   6  1   
  6   4   7  1   
  7   4   8  1   
  8   5   9  1   
  9   5  30  1   
 10   5  31  1   
 11   6  10  1   
 12   6  32  1   
 13   6  33  1   
 14   7  34  1   
 15   7  35  1   
 16   7  36  1   
 17   8  37  1   
 18   8  38  1   
 19   8  39  1   
 20   9  11  1   
 21   9  40  1   
 22   9  41  1   
 23  10  11  1   
 24  10  42  1   
 25  10  43  1   
 26  11  12  1   
 27  11  44  1   
 28  12  13  2   
 29  12  14  am  
 30  14  15  1   
 31  14  45  1   
 32  15  16  1   
 33  15  17  1   
 34  15  46  1   
 35  16  18  1   
 36  16  19  1   
 37  16  47  1   
 38  17  20  1   
 39  17  48  1   
 40  17  49  1   
 41  18  50  1   
 42  19  21  1   
 43  19  51  1   
 44  19  52  1   
 45  20  21  1   
 46  20  53  1   
 47  20  54  1   
 48  21  22  am  
 49  22  23  2   
 50  22  24  1   
 51  24  25  ar  
 52  24  26  ar  
 53  25  27  ar  
 54  25  55  1   
 55  26  28  ar  
 56  26  56  1   
 57  27  29  ar  
 58  27  57  1   
 59  28  29  ar  
 60  28  58  1   
 61  29  59  1   
@<TRIPOS>SUBSTRUCTURE
  1 ****  14 GROUP 4 **** **** 0

# MOE 2024.06 (io_trps.svl 2023.06)
