@<TRIPOS>MOLECULE
NONAME
55 57 1 0 0 
SMALL
USER_CHARGES


@<TRIPOS>ATOM
  1 S       -1.8590     1.5370     1.2870 S.3   1 <1>  -0.4600 
  2 C       -0.3870     0.4790     1.0550 C.3   1 <1>   0.2140 
  3 C       -2.9690     0.5650     2.3770 C.3   1 <1>   0.1310 
  4 C        0.6040     1.2110     0.1640 C.ar  1 <1>  -0.1440 
  5 C       -2.7820    -0.9440     2.2490 C.2   1 <1>   0.5690 
  6 C        0.9640     0.6510    -1.0510 C.ar  1 <1>  -0.1500 
  7 C        1.1600     2.4210     0.5460 C.ar  1 <1>  -0.1500 
  8 O       -2.4100    -1.5270     3.2430 O.2   1 <1>  -0.5700 
  9 N       -3.0110    -1.6110     1.0710 N.am  1 <1>  -0.6600 
 10 C        1.8700     1.2890    -1.8810 C.ar  1 <1>  -0.1430 
 11 C        2.0680     3.0700    -0.2750 C.ar  1 <1>  -0.1430 
 12 C       -2.4200    -2.9830     0.9100 C.3   1 <1>   0.1400 
 13 C       -3.4640    -0.9470    -0.1860 C.3   1 <1>   0.1400 
 14 C        2.4210     2.4970    -1.4870 C.ar  1 <1>  -0.1500 
 15 C        2.2480     0.6530    -3.2050 C.3   1 <1>  -0.0970 
 16 C        2.6700     4.3940     0.1550 C.3   1 <1>  -0.0970 
 17 C       -2.6780    -3.6490    -0.4610 C.3   1 <1>  -0.1060 
 18 C       -4.4480    -1.8340    -0.9540 C.3   1 <1>  -0.1600 
 19 C       -1.7200    -3.1110    -1.5330 C.2   1 <1>   0.9060 
 20 C       -4.1420    -3.3350    -0.8400 C.3   1 <1>   0.2000 
 21 C       -2.4840    -5.1850    -0.3350 C.3   1 <1>  -0.0650 
 22 O       -2.0060    -3.2910    -2.7270 O.co2 1 <1>  -0.9000 
 23 O       -0.6930    -2.5000    -1.2100 O.co2 1 <1>  -0.9000 
 24 O       -4.4520    -3.9240    -2.0500 O.3   1 <1>  -0.6800 
 25 C       -1.1170    -5.6000     0.2290 C.3   1 <1>  -0.1950 
 26 C       -0.9080    -6.9800     0.7630 C.3   1 <1>  -0.2000 
 27 C       -0.9020    -5.8030     1.6960 C.3   1 <1>  -0.2000 
 28 H        0.0310     0.2800     2.0250 H     1 <1>   0.0800 
 29 H       -0.6990    -0.4410     0.5940 H     1 <1>   0.0800 
 30 H       -2.7490     0.8710     3.3830 H     1 <1>   0.0800 
 31 H       -3.9770     0.8420     2.1350 H     1 <1>   0.0800 
 32 H        0.5350    -0.2930    -1.3530 H     1 <1>   0.1500 
 33 H        0.8780     2.8580     1.4870 H     1 <1>   0.1500 
 34 H       -1.3610    -2.9320     1.0970 H     1 <1>   0.0800 
 35 H       -2.8460    -3.6040     1.6780 H     1 <1>   0.0800 
 36 H       -3.9340    -0.0020     0.0180 H     1 <1>   0.0800 
 37 H       -2.6010    -0.7510    -0.8010 H     1 <1>   0.0800 
 38 H        3.1270     2.9920    -2.1290 H     1 <1>   0.1500 
 39 H        2.4450     1.4090    -3.9430 H     1 <1>   0.0800 
 40 H        1.4470     0.0290    -3.5600 H     1 <1>   0.0800 
 41 H        3.1250     0.0450    -3.0770 H     1 <1>   0.0800 
 42 H        2.9950     4.9570    -0.7010 H     1 <1>   0.0800 
 43 H        3.5130     4.2170     0.7980 H     1 <1>   0.0800 
 44 H        1.9400     4.9770     0.6880 H     1 <1>   0.0800 
 45 H       -4.4220    -1.5270    -1.9860 H     1 <1>   0.0800 
 46 H       -5.4410    -1.6580    -0.5840 H     1 <1>   0.0800 
 47 H       -4.7970    -3.7640    -0.1010 H     1 <1>   0.0800 
 48 H       -3.2630    -5.5970     0.2830 H     1 <1>   0.0800 
 49 H       -2.5860    -5.6270    -1.3120 H     1 <1>   0.0800 
 50 H       -3.6480    -3.7670    -2.6300 H     1 <1>   0.4000 
 51 H       -0.2990    -5.1740    -0.3320 H     1 <1>   0.1000 
 52 H       -1.7430    -7.6590     0.7890 H     1 <1>   0.1000 
 53 H        0.0210    -7.4760     0.5430 H     1 <1>   0.1000 
 54 H        0.0290    -5.4670     2.1180 H     1 <1>   0.1000 
 55 H       -1.7300    -5.6770     2.3720 H     1 <1>   0.1000 
@<TRIPOS>BOND
  1   1   2  1   
  2   1   3  1   
  3   2   4  1   
  4   2  28  1   
  5   2  29  1   
  6   3   5  1   
  7   3  30  1   
  8   3  31  1   
  9   4   6  ar  
 10   4   7  ar  
 11   5   8  2   
 12   5   9  am  
 13   6  10  ar  
 14   6  32  1   
 15   7  11  ar  
 16   7  33  1   
 17   9  12  1   
 18   9  13  1   
 19  10  14  ar  
 20  10  15  1   
 21  11  14  ar  
 22  11  16  1   
 23  12  17  1   
 24  12  34  1   
 25  12  35  1   
 26  13  18  1   
 27  13  36  1   
 28  13  37  1   
 29  14  38  1   
 30  15  39  1   
 31  15  40  1   
 32  15  41  1   
 33  16  42  1   
 34  16  43  1   
 35  16  44  1   
 36  17  19  1   
 37  17  20  1   
 38  17  21  1   
 39  18  20  1   
 40  18  45  1   
 41  18  46  1   
 42  19  22  ar  
 43  19  23  ar  
 44  20  24  1   
 45  20  47  1   
 46  21  25  1   
 47  21  48  1   
 48  21  49  1   
 49  24  50  1   
 50  25  26  1   
 51  25  27  1   
 52  25  51  1   
 53  26  27  1   
 54  26  52  1   
 55  26  53  1   
 56  27  54  1   
 57  27  55  1   
@<TRIPOS>SUBSTRUCTURE
  1 ****  23 GROUP 4 **** **** 0

# MOE 2024.06 (io_trps.svl 2023.06)
