@<TRIPOS>MOLECULE
NONAME
48 50 1 0 0 
SMALL
USER_CHARGES


@<TRIPOS>ATOM
  1 O       -0.0210     0.0770    -1.1100 O.2   1 <1>  -0.5700 
  2 C       -1.0040     0.7500    -0.9200 C.2   1 <1>   0.5690 
  3 N       -2.2190     0.1820    -0.6560 N.am  1 <1>  -0.6600 
  4 C       -0.8500     2.2580    -0.9670 C.3   1 <1>  -0.0990 
  5 C       -3.5070     0.8850    -0.4320 C.3   1 <1>   0.1400 
  6 C       -2.3920    -1.2840    -0.5310 C.3   1 <1>   0.1400 
  7 C       -0.5510     2.8220     0.4260 C.3   1 <1>  -0.0160 
  8 C       -4.5440    -0.2280    -0.2860 C.3   1 <1>   0.2000 
  9 C       -3.7580    -1.4690     0.1310 C.3   1 <1>  -0.0800 
 10 C       -0.4850     4.3400     0.3800 C.ar  1 <1>  -0.1440 
 11 O       -5.4930     0.0810     0.6750 O.3   1 <1>  -0.6800 
 12 C       -4.4560    -2.7820    -0.2550 C.3   1 <1>   0.0200 
 13 C       -1.6020     5.1030     0.6820 C.ar  1 <1>  -0.1500 
 14 C        0.6950     4.9760     0.0310 C.ar  1 <1>  -0.1500 
 15 C       -3.6020    -3.9790     0.1180 C.2   1 <1>  -0.0400 
 16 C       -1.5390     6.4850     0.6350 C.ar  1 <1>  -0.1500 
 17 C        0.7580     6.3580    -0.0160 C.ar  1 <1>  -0.1500 
 18 O       -3.3120    -4.2080     1.3710 O.3   1 <1>  -0.0190 
 19 C       -3.0230    -4.9350    -0.6220 C.2   1 <1>  -0.1500 
 20 C       -0.3590     7.1200     0.2850 C.ar  1 <1>  -0.1430 
 21 N       -2.5640    -5.2640     1.5090 N.2   1 <1>  -0.4100 
 22 C       -2.3740    -5.7240     0.3240 C.2   1 <1>   0.1080 
 23 C       -0.2890     8.6360     0.2360 C.3   1 <1>  -0.0970 
 24 C       -1.5530    -6.9550     0.0110 C.3   1 <1>  -0.0590 
 25 H       -0.0370     2.4980    -1.6270 H     1 <1>   0.0800 
 26 H       -1.7350     2.7120    -1.3690 H     1 <1>   0.0800 
 27 H       -3.4430     1.4710     0.4680 H     1 <1>   0.0800 
 28 H       -3.7460     1.5130    -1.2730 H     1 <1>   0.0800 
 29 H       -2.3740    -1.7210    -1.5160 H     1 <1>   0.0800 
 30 H       -1.6030    -1.7170     0.0630 H     1 <1>   0.0800 
 31 H        0.3870     2.4280     0.7780 H     1 <1>   0.0800 
 32 H       -1.3120     2.5140     1.1200 H     1 <1>   0.0800 
 33 H       -5.0490    -0.3780    -1.2250 H     1 <1>   0.0800 
 34 H       -3.5960    -1.4520     1.1950 H     1 <1>   0.0800 
 35 H       -5.0820     0.1220     1.5610 H     1 <1>   0.4000 
 36 H       -4.6480    -2.8010    -1.3130 H     1 <1>   0.0800 
 37 H       -5.4000    -2.8530     0.2570 H     1 <1>   0.0800 
 38 H       -2.5270     4.6280     0.9550 H     1 <1>   0.1500 
 39 H        1.5710     4.3980    -0.2060 H     1 <1>   0.1500 
 40 H       -2.4130     7.0640     0.8740 H     1 <1>   0.1500 
 41 H        1.6820     6.8360    -0.2870 H     1 <1>   0.1500 
 42 H       -3.0300    -5.0880    -1.6850 H     1 <1>   0.1500 
 43 H       -1.2460     9.0490    -0.0250 H     1 <1>   0.0800 
 44 H        0.4290     8.9560    -0.4990 H     1 <1>   0.0800 
 45 H        0.0040     9.0170     1.1970 H     1 <1>   0.0800 
 46 H       -2.1590    -7.6770    -0.5020 H     1 <1>   0.0800 
 47 H       -1.1860    -7.3920     0.9230 H     1 <1>   0.0800 
 48 H       -0.7170    -6.6870    -0.6070 H     1 <1>   0.0800 
@<TRIPOS>BOND
  1   1   2  2   
  2   2   3  am  
  3   2   4  1   
  4   3   5  1   
  5   3   6  1   
  6   4   7  1   
  7   4  25  1   
  8   4  26  1   
  9   5   8  1   
 10   5  27  1   
 11   5  28  1   
 12   6   9  1   
 13   6  29  1   
 14   6  30  1   
 15   7  10  1   
 16   7  31  1   
 17   7  32  1   
 18   8   9  1   
 19   8  11  1   
 20   8  33  1   
 21   9  12  1   
 22   9  34  1   
 23  10  13  ar  
 24  10  14  ar  
 25  11  35  1   
 26  12  15  1   
 27  12  36  1   
 28  12  37  1   
 29  13  16  ar  
 30  13  38  1   
 31  14  17  ar  
 32  14  39  1   
 33  15  18  1   
 34  15  19  2   
 35  16  20  ar  
 36  16  40  1   
 37  17  20  ar  
 38  17  41  1   
 39  18  21  1   
 40  19  22  1   
 41  19  42  1   
 42  20  23  1   
 43  21  22  2   
 44  22  24  1   
 45  23  43  1   
 46  23  44  1   
 47  23  45  1   
 48  24  46  1   
 49  24  47  1   
 50  24  48  1   
@<TRIPOS>SUBSTRUCTURE
  1 ****   3 GROUP 4 **** **** 0

# MOE 2024.06 (io_trps.svl 2023.06)
