@<TRIPOS>MOLECULE
NONAME
40 41 1 0 0 
SMALL
USER_CHARGES


@<TRIPOS>ATOM
  1 O        0.0970     0.0190    -0.3730 O.2   1 <1>  -0.5700 
  2 C        1.1040    -0.5380     0.0340 C.2   1 <1>   0.5440 
  3 N        2.1160     0.2280     0.5570 N.am  1 <1>  -0.4930 
  4 C        1.3010    -1.9940    -0.0320 C.ar  1 <1>   0.3960 
  5 C        2.2560     1.6320     0.6940 C.2   1 <1>   0.0630 
  6 N        2.5680    -2.4210     0.1540 N.ar  1 <1>  -0.6200 
  7 C        0.2560    -2.9140    -0.2620 C.ar  1 <1>  -0.1430 
  8 C        1.3370     2.5900     1.1340 C.2   1 <1>   0.1080 
  9 C        3.3830     2.3320     0.4370 C.2   1 <1>  -0.3320 
 10 C        2.7970    -3.7180     0.0970 C.ar  1 <1>   0.1600 
 11 C        0.5280    -4.2670    -0.3180 C.ar  1 <1>  -0.1500 
 12 C       -1.2020    -2.5000    -0.4540 C.3   1 <1>  -0.0970 
 13 N        1.8420     3.7850     1.1500 N.2   1 <1>  -0.7070 
 14 C       -0.0870     2.3310     1.5720 C.3   1 <1>  -0.0590 
 15 N        3.1040     3.6320     0.7130 N.pl3 1 <1>   0.3140 
 16 C        4.7270     1.8310    -0.0730 C.3   1 <1>  -0.0600 
 17 C        1.8280    -4.6710    -0.1350 C.ar  1 <1>  -0.1500 
 18 C        4.0030     4.7960     0.5780 C.3   1 <1>   0.0960 
 19 C        3.9100     5.4000    -0.8310 C.3   1 <1>  -0.1600 
 20 C        4.8480     6.6020    -0.9880 C.3   1 <1>  -0.2400 
 21 H        2.9640    -0.3110     0.7390 H     1 <1>   0.3700 
 22 H        3.8140    -4.0440     0.2420 H     1 <1>   0.1500 
 23 H       -0.2450    -4.9940    -0.4970 H     1 <1>   0.1500 
 24 H       -1.5280    -1.8880     0.3690 H     1 <1>   0.0800 
 25 H       -1.8520    -3.3540    -0.5100 H     1 <1>   0.0800 
 26 H       -1.3090    -1.9380    -1.3660 H     1 <1>   0.0800 
 27 H       -0.1620     1.3670     2.0380 H     1 <1>   0.0800 
 28 H       -0.7330     2.3610     0.7140 H     1 <1>   0.0800 
 29 H       -0.3970     3.0850     2.2710 H     1 <1>   0.0800 
 30 H        4.6900     0.7730    -0.2630 H     1 <1>   0.0800 
 31 H        5.4950     2.0200     0.6560 H     1 <1>   0.0800 
 32 H        4.9830     2.3270    -0.9910 H     1 <1>   0.0800 
 33 H        2.0890    -5.7140    -0.1700 H     1 <1>   0.1500 
 34 H        5.0080     4.4840     0.7900 H     1 <1>   0.0800 
 35 H        3.7100     5.5270     1.3090 H     1 <1>   0.0800 
 36 H        2.8960     5.7150    -1.0100 H     1 <1>   0.0800 
 37 H        4.1650     4.6530    -1.5620 H     1 <1>   0.0800 
 38 H        4.5940     7.3720    -0.2800 H     1 <1>   0.0800 
 39 H        4.7590     7.0100    -1.9800 H     1 <1>   0.0800 
 40 H        5.8710     6.3080    -0.8310 H     1 <1>   0.0800 
@<TRIPOS>BOND
  1   1   2  2   
  2   2   3  am  
  3   2   4  1   
  4   3   5  1   
  5   3  21  1   
  6   4   6  ar  
  7   4   7  ar  
  8   5   8  1   
  9   5   9  2   
 10   6  10  ar  
 11   7  11  ar  
 12   7  12  1   
 13   8  13  2   
 14   8  14  1   
 15   9  15  1   
 16   9  16  1   
 17  10  17  ar  
 18  10  22  1   
 19  11  17  ar  
 20  11  23  1   
 21  12  24  1   
 22  12  25  1   
 23  12  26  1   
 24  13  15  1   
 25  14  27  1   
 26  14  28  1   
 27  14  29  1   
 28  15  18  1   
 29  16  30  1   
 30  16  31  1   
 31  16  32  1   
 32  17  33  1   
 33  18  19  1   
 34  18  34  1   
 35  18  35  1   
 36  19  20  1   
 37  19  36  1   
 38  19  37  1   
 39  20  38  1   
 40  20  39  1   
 41  20  40  1   
@<TRIPOS>SUBSTRUCTURE
  1 ****   3 GROUP 4 **** **** 0

# MOE 2024.06 (io_trps.svl 2023.06)
