@<TRIPOS>MOLECULE
NONAME
53 56 1 0 0 
SMALL
USER_CHARGES


@<TRIPOS>ATOM
  1 O       -0.8420    -0.1840     0.7400 O.2   1 <1>  -0.5700 
  2 C       -1.6630     0.4320     0.0970 C.2   1 <1>   0.5690 
  3 N       -2.7070    -0.2400    -0.5140 N.am  1 <1>  -0.5090 
  4 C       -1.3770     1.9480     0.0190 C.3   1 <1>  -0.0190 
  5 C       -3.8270     0.3940    -1.2670 C.3   1 <1>   0.0490 
  6 C       -2.5400    -1.7150    -0.7630 C.3   1 <1>   0.2840 
  7 C       -2.1260     2.7990     1.0620 C.3   1 <1>  -0.1600 
  8 C       -1.3970     2.6030    -1.3860 C.3   1 <1>  -0.1600 
  9 C       -4.7470     1.3360    -0.5510 C.3   1 <1>  -0.2000 
 10 C       -5.2630     0.0260    -1.0280 C.3   1 <1>  -0.2000 
 11 C       -3.7450    -2.5700    -0.3740 C.ar  1 <1>  -0.1440 
 12 C       -1.4860     4.1940     1.2270 C.3   1 <1>   0.2000 
 13 C       -1.4470     4.1450    -1.3340 C.3   1 <1>  -0.1600 
 14 C       -4.0990    -2.7750     0.9860 C.ar  1 <1>   0.0000 
 15 C       -4.4820    -3.1490    -1.3760 C.ar  1 <1>  -0.1500 
 16 O       -2.5010     5.1010     1.5850 O.3   1 <1>  -0.5600 
 17 C       -0.7850     4.6940    -0.0660 C.3   1 <1>   0.2000 
 18 C       -5.2350    -3.5680     1.2760 C.ar  1 <1>   0.0000 
 19 C       -3.3860    -2.2360     2.0830 C.ar  1 <1>  -0.1500 
 20 C       -5.5980    -3.9370    -1.0840 C.ar  1 <1>  -0.1500 
 21 C       -2.8680     5.0790     2.9300 C.3   1 <1>   0.0400 
 22 O       -0.8500     6.0710    -0.1150 O.3   1 <1>  -0.6800 
 23 C       -5.9650    -4.1370     0.2150 C.ar  1 <1>  -0.1500 
 24 C       -5.6120    -3.7740     2.6180 C.ar  1 <1>  -0.1500 
 25 C       -3.7710    -2.4540     3.3760 C.ar  1 <1>  -0.1500 
 26 C       -4.8990    -3.2310     3.6500 C.ar  1 <1>  -0.1500 
 27 H       -0.3450     2.0170     0.3210 H     1 <1>   0.0800 
 28 H       -3.5660     0.5780    -2.2950 H     1 <1>   0.1000 
 29 H       -2.3400    -1.8460    -1.8110 H     1 <1>   0.0800 
 30 H       -1.6820    -2.1020    -0.2430 H     1 <1>   0.0800 
 31 H       -2.1250     2.2900     2.0100 H     1 <1>   0.0800 
 32 H       -3.1390     2.9350     0.7450 H     1 <1>   0.0800 
 33 H       -0.5100     2.2940    -1.9130 H     1 <1>   0.0800 
 34 H       -2.2350     2.2770    -1.9650 H     1 <1>   0.0800 
 35 H       -4.7150     1.4430     0.5180 H     1 <1>   0.1000 
 36 H       -5.0780     2.2280    -1.0530 H     1 <1>   0.1000 
 37 H       -5.9460     0.0230    -1.8590 H     1 <1>   0.1000 
 38 H       -5.5480    -0.6760    -0.2640 H     1 <1>   0.1000 
 39 H       -0.7480     4.1720     2.0110 H     1 <1>   0.0800 
 40 H       -2.4760     4.4600    -1.3420 H     1 <1>   0.0800 
 41 H       -0.9630     4.5510    -2.2050 H     1 <1>   0.0800 
 42 H       -4.2240    -3.0070    -2.4110 H     1 <1>   0.1500 
 43 H        0.2540     4.4140    -0.0590 H     1 <1>   0.0800 
 44 H       -2.5150    -1.6380     1.9000 H     1 <1>   0.1500 
 45 H       -6.1570    -4.3760    -1.8920 H     1 <1>   0.1500 
 46 H       -3.6320     5.8220     3.0800 H     1 <1>   0.0800 
 47 H       -2.0110     5.3150     3.5370 H     1 <1>   0.0800 
 48 H       -3.2570     4.1080     3.1830 H     1 <1>   0.0800 
 49 H       -1.6620     6.3160     0.3850 H     1 <1>   0.4000 
 50 H       -6.8230    -4.7400     0.4490 H     1 <1>   0.1500 
 51 H       -6.4800    -4.3750     2.8190 H     1 <1>   0.1500 
 52 H       -3.2130    -2.0330     4.1940 H     1 <1>   0.1500 
 53 H       -5.1910    -3.3930     4.6730 H     1 <1>   0.1500 
@<TRIPOS>BOND
  1   1   2  2   
  2   2   3  am  
  3   2   4  1   
  4   3   5  1   
  5   3   6  1   
  6   4   7  1   
  7   4   8  1   
  8   4  27  1   
  9   5   9  1   
 10   5  10  1   
 11   5  28  1   
 12   6  11  1   
 13   6  29  1   
 14   6  30  1   
 15   7  12  1   
 16   7  31  1   
 17   7  32  1   
 18   8  13  1   
 19   8  33  1   
 20   8  34  1   
 21   9  10  1   
 22   9  35  1   
 23   9  36  1   
 24  10  37  1   
 25  10  38  1   
 26  11  14  ar  
 27  11  15  ar  
 28  12  16  1   
 29  12  17  1   
 30  12  39  1   
 31  13  17  1   
 32  13  40  1   
 33  13  41  1   
 34  14  18  ar  
 35  14  19  ar  
 36  15  20  ar  
 37  15  42  1   
 38  16  21  1   
 39  17  22  1   
 40  17  43  1   
 41  18  23  ar  
 42  18  24  ar  
 43  19  25  ar  
 44  19  44  1   
 45  20  23  ar  
 46  20  45  1   
 47  21  46  1   
 48  21  47  1   
 49  21  48  1   
 50  22  49  1   
 51  23  50  1   
 52  24  26  ar  
 53  24  51  1   
 54  25  26  ar  
 55  25  52  1   
 56  26  53  1   
@<TRIPOS>SUBSTRUCTURE
  1 ****   3 GROUP 4 **** **** 0

# MOE 2024.06 (io_trps.svl 2023.06)
