@<TRIPOS>MOLECULE
NONAME
45 47 1 0 0 
SMALL
USER_CHARGES


@<TRIPOS>ATOM
  1 F       -1.2140    -0.2040     0.9910 F     1 <1>  -0.1900 
  2 C       -2.5020    -0.0260     0.8720 C.ar  1 <1>   0.1900 
  3 C       -3.0620    -0.0410    -0.3890 C.ar  1 <1>  -0.1500 
  4 C       -3.2560     0.1690     2.0100 C.ar  1 <1>  -0.1500 
  5 C       -4.4310     0.1460    -0.5260 C.ar  1 <1>  -0.1440 
  6 C       -4.6190     0.3560     1.8710 C.ar  1 <1>  -0.1500 
  7 C       -5.2120     0.3460     0.6140 C.ar  1 <1>  -0.1430 
  8 C       -5.0370     0.1040    -1.9320 C.3   1 <1>   0.0440 
  9 C       -6.7190     0.5580     0.5230 C.3   1 <1>  -0.0960 
 10 C       -5.7410    -1.2100    -2.2300 C.2   1 <1>   0.5690 
 11 O       -6.5460    -1.2540    -3.1280 O.2   1 <1>  -0.5700 
 12 N       -5.4620    -2.2980    -1.4710 N.am  1 <1>  -0.7300 
 13 C       -6.1180    -3.6170    -1.5860 C.3   1 <1>   0.2200 
 14 C       -7.1860    -3.7290    -0.5120 C.3   1 <1>  -0.0800 
 15 C       -5.1410    -4.7170    -1.1780 C.3   1 <1>   0.1200 
 16 C       -6.3560    -4.1540     0.7010 C.3   1 <1>   0.1200 
 17 C       -8.2560    -4.7730    -0.8830 C.3   1 <1>  -0.0170 
 18 O       -5.2620    -4.8690     0.2070 O.3   1 <1>  -0.5600 
 19 C       -9.3460    -4.8480     0.1750 C.ar  1 <1>  -0.1430 
 20 C      -10.3360    -3.8900     0.2650 C.ar  1 <1>  -0.1500 
 21 C       -9.4050    -5.8730     1.0980 C.ar  1 <1>  -0.1500 
 22 C      -11.3050    -3.9980     1.2480 C.ar  1 <1>   0.1600 
 23 C      -10.4180    -5.8870     2.0420 C.ar  1 <1>   0.1600 
 24 N      -11.3690    -4.9720     2.1410 N.ar  1 <1>  -0.6200 
 25 H       -2.4260    -0.1990    -1.2420 H     1 <1>   0.1500 
 26 H       -2.7850     0.1740     2.9760 H     1 <1>   0.1500 
 27 H       -5.2170     0.5110     2.7530 H     1 <1>   0.1500 
 28 H       -4.2710     0.2420    -2.6710 H     1 <1>   0.0800 
 29 H       -5.7390     0.9070    -2.0540 H     1 <1>   0.0800 
 30 H       -7.1580     0.6380     1.5010 H     1 <1>   0.0800 
 31 H       -7.1860    -0.2670     0.0160 H     1 <1>   0.0800 
 32 H       -6.9320     1.4650    -0.0140 H     1 <1>   0.0800 
 33 H       -4.8360    -2.1900    -0.6660 H     1 <1>   0.3700 
 34 H       -6.4990    -3.7560    -2.5840 H     1 <1>   0.0800 
 35 H       -7.6690    -2.7840    -0.3410 H     1 <1>   0.0800 
 36 H       -4.1220    -4.4780    -1.4280 H     1 <1>   0.0800 
 37 H       -5.4150    -5.6530    -1.6310 H     1 <1>   0.0800 
 38 H       -6.8980    -4.7710     1.3960 H     1 <1>   0.0800 
 39 H       -5.9720    -3.2900     1.2170 H     1 <1>   0.0800 
 40 H       -7.8070    -5.7430    -1.0080 H     1 <1>   0.0800 
 41 H       -8.7080    -4.5020    -1.8220 H     1 <1>   0.0800 
 42 H      -10.3630    -3.0630    -0.4200 H     1 <1>   0.1500 
 43 H       -8.6720    -6.6600     1.0930 H     1 <1>   0.1500 
 44 H      -12.0700    -3.2410     1.3030 H     1 <1>   0.1500 
 45 H      -10.4470    -6.6940     2.7540 H     1 <1>   0.1500 
@<TRIPOS>BOND
  1   1   2  1   
  2   2   3  ar  
  3   2   4  ar  
  4   3   5  ar  
  5   3  25  1   
  6   4   6  ar  
  7   4  26  1   
  8   5   7  ar  
  9   5   8  1   
 10   6   7  ar  
 11   6  27  1   
 12   7   9  1   
 13   8  10  1   
 14   8  28  1   
 15   8  29  1   
 16   9  30  1   
 17   9  31  1   
 18   9  32  1   
 19  10  11  2   
 20  10  12  am  
 21  12  13  1   
 22  12  33  1   
 23  13  14  1   
 24  13  15  1   
 25  13  34  1   
 26  14  16  1   
 27  14  17  1   
 28  14  35  1   
 29  15  18  1   
 30  15  36  1   
 31  15  37  1   
 32  16  18  1   
 33  16  38  1   
 34  16  39  1   
 35  17  19  1   
 36  17  40  1   
 37  17  41  1   
 38  19  20  ar  
 39  19  21  ar  
 40  20  22  ar  
 41  20  42  1   
 42  21  23  ar  
 43  21  43  1   
 44  22  24  ar  
 45  22  44  1   
 46  23  24  ar  
 47  23  45  1   
@<TRIPOS>SUBSTRUCTURE
  1 ****  14 GROUP 4 **** **** 0

# MOE 2024.06 (io_trps.svl 2023.06)
