@<TRIPOS>MOLECULE
NONAME
55 57 1 0 0 
SMALL
USER_CHARGES


@<TRIPOS>ATOM
  1 F        1.0570    -0.8660     0.5130 F     1 <1>  -0.1900 
  2 C        0.8340    -2.1470     0.6210 C.ar  1 <1>   0.1900 
  3 C        1.0540    -2.9530    -0.4760 C.ar  1 <1>  -0.1500 
  4 C        0.3840    -2.6430     1.8300 C.ar  1 <1>  -0.1500 
  5 C        0.8120    -4.3190    -0.3580 C.ar  1 <1>   0.0830 
  6 C        0.1450    -4.0020     1.9420 C.ar  1 <1>  -0.1500 
  7 O        0.9940    -5.1840    -1.3910 O.3   1 <1>  -0.3630 
  8 C        0.3560    -4.8400     0.8540 C.ar  1 <1>  -0.1440 
  9 C        1.7990    -4.8240    -2.4980 C.3   1 <1>   0.0400 
 10 C        0.0960    -6.3300     0.9900 C.3   1 <1>   0.4870 
 11 N       -0.9450    -6.7200     0.0080 N.4   1 <1>  -0.9590 
 12 C       -1.0920    -8.2060    -0.0890 C.3   1 <1>   0.5660 
 13 C       -2.2570    -6.0400     0.2490 C.3   1 <1>   0.3430 
 14 C        0.2230    -8.7840    -0.5950 C.ar  1 <1>  -0.1430 
 15 C       -2.2840    -8.6440    -0.9840 C.3   1 <1>   0.2000 
 16 C       -3.3270    -6.5260    -0.7440 C.3   1 <1>   0.1200 
 17 C        0.9120    -9.6840     0.2050 C.ar  1 <1>  -0.1500 
 18 C        0.7530    -8.4310    -1.8310 C.ar  1 <1>  -0.1500 
 19 O       -3.4490    -7.9160    -0.6750 O.3   1 <1>  -0.5600 
 20 C       -2.5780   -10.1410    -0.7910 C.3   1 <1>   0.1200 
 21 C        2.1190   -10.2200    -0.2080 C.ar  1 <1>   0.0830 
 22 C        1.9660    -8.9540    -2.2450 C.ar  1 <1>  -0.1500 
 23 O       -2.6150   -10.4530     0.5670 O.3   1 <1>  -0.6800 
 24 O        2.7120   -11.1100     0.6230 O.3   1 <1>  -0.3630 
 25 C        2.6650    -9.8320    -1.4360 C.ar  1 <1>   0.0830 
 26 C        2.8570   -12.4300     0.1410 C.3   1 <1>   0.0400 
 27 O        3.8640   -10.2720    -1.8890 O.3   1 <1>  -0.3630 
 28 C        5.0030    -9.9010    -1.1430 C.3   1 <1>   0.0400 
 29 H        1.4010    -2.5000    -1.3850 H     1 <1>   0.1500 
 30 H        0.2300    -1.9740     2.6590 H     1 <1>   0.1500 
 31 H       -0.1990    -4.3910     2.8860 H     1 <1>   0.1500 
 32 H        1.9420    -5.6960    -3.1120 H     1 <1>   0.0800 
 33 H        2.7520    -4.4740    -2.1420 H     1 <1>   0.0800 
 34 H        1.2990    -4.0590    -3.0660 H     1 <1>   0.0800 
 35 H       -0.2250    -6.5650     1.9920 H     1 <1>   0.0800 
 36 H        1.0130    -6.8610     0.7900 H     1 <1>   0.0800 
 37 H       -0.5600    -6.3900    -0.8890 H     1 <1>   0.4500 
 38 H       -1.2780    -8.5970     0.8980 H     1 <1>   0.0800 
 39 H       -2.6000    -6.2480     1.2490 H     1 <1>   0.0800 
 40 H       -2.1400    -4.9720     0.1530 H     1 <1>   0.0800 
 41 H       -2.0600    -8.4670    -2.0200 H     1 <1>   0.0800 
 42 H       -3.0810    -6.2440    -1.7530 H     1 <1>   0.0800 
 43 H       -4.2830    -6.1020    -0.4920 H     1 <1>   0.0800 
 44 H        0.5210    -9.9950     1.1600 H     1 <1>   0.1500 
 45 H        0.2420    -7.7480    -2.4870 H     1 <1>   0.1500 
 46 H       -1.8070   -10.7410    -1.2450 H     1 <1>   0.0800 
 47 H       -3.5280   -10.3920    -1.2320 H     1 <1>   0.0800 
 48 H        2.3840    -8.6840    -3.1990 H     1 <1>   0.1500 
 49 H       -3.0270   -11.3320     0.7080 H     1 <1>   0.4000 
 50 H        3.2370   -13.0390     0.9410 H     1 <1>   0.0800 
 51 H        3.5480   -12.4380    -0.6820 H     1 <1>   0.0800 
 52 H        1.8960   -12.7930    -0.1740 H     1 <1>   0.0800 
 53 H        5.8760   -10.2320    -1.6770 H     1 <1>   0.0800 
 54 H        4.9690   -10.3710    -0.1770 H     1 <1>   0.0800 
 55 H        5.0190    -8.8310    -1.0390 H     1 <1>   0.0800 
@<TRIPOS>BOND
  1   1   2  1   
  2   2   3  ar  
  3   2   4  ar  
  4   3   5  ar  
  5   3  29  1   
  6   4   6  ar  
  7   4  30  1   
  8   5   7  1   
  9   5   8  ar  
 10   6   8  ar  
 11   6  31  1   
 12   7   9  1   
 13   8  10  1   
 14   9  32  1   
 15   9  33  1   
 16   9  34  1   
 17  10  11  1   
 18  10  35  1   
 19  10  36  1   
 20  11  12  1   
 21  11  13  1   
 22  11  37  1   
 23  12  14  1   
 24  12  15  1   
 25  12  38  1   
 26  13  16  1   
 27  13  39  1   
 28  13  40  1   
 29  14  17  ar  
 30  14  18  ar  
 31  15  19  1   
 32  15  20  1   
 33  15  41  1   
 34  16  19  1   
 35  16  42  1   
 36  16  43  1   
 37  17  21  ar  
 38  17  44  1   
 39  18  22  ar  
 40  18  45  1   
 41  20  23  1   
 42  20  46  1   
 43  20  47  1   
 44  21  24  1   
 45  21  25  ar  
 46  22  25  ar  
 47  22  48  1   
 48  23  49  1   
 49  24  26  1   
 50  25  27  1   
 51  26  50  1   
 52  26  51  1   
 53  26  52  1   
 54  27  28  1   
 55  28  53  1   
 56  28  54  1   
 57  28  55  1   
@<TRIPOS>SUBSTRUCTURE
  1 ****  11 GROUP 4 **** **** 0

# MOE 2024.06 (io_trps.svl 2023.06)
