@<TRIPOS>MOLECULE
NONAME
46 49 1 0 0 
SMALL
USER_CHARGES


@<TRIPOS>ATOM
  1 O       -0.5650     0.4660     0.9320 O.2   1 <1>  -0.5700 
  2 C       -1.4910     1.0080     0.3480 C.2   1 <1>   0.7160 
  3 N       -2.6270     0.2480     0.1370 N.am  1 <1>  -0.6600 
  4 C       -1.3500     2.3980    -0.0930 C.2   1 <1>   0.2030 
  5 C       -3.8780     0.7040    -0.5150 C.3   1 <1>   0.1400 
  6 C       -2.7660    -1.1590     0.5700 C.3   1 <1>   0.1400 
  7 N       -2.1750     3.1060    -0.8530 N.2   1 <1>  -0.7070 
  8 C       -0.2460     3.1880     0.2610 C.2   1 <1>  -0.1500 
  9 C       -4.8620    -0.4700    -0.4010 C.3   1 <1>   0.2000 
 10 C       -3.9530    -1.6930    -0.2340 C.3   1 <1>  -0.0800 
 11 N       -1.6040     4.3150    -0.9720 N.pl3 1 <1>   0.3000 
 12 C       -0.4380     4.3930    -0.3090 C.2   1 <1>  -0.2370 
 13 O       -5.6460    -0.3340     0.7510 O.3   1 <1>  -0.5600 
 14 C       -4.6320    -2.9140     0.4120 C.3   1 <1>   0.0200 
 15 C        0.4200     5.6400    -0.2720 C.3   1 <1>  -0.0150 
 16 C       -6.7620     0.4890     0.6170 C.3   1 <1>   0.0400 
 17 C       -3.7590    -4.1590     0.4010 C.2   1 <1>  -0.0400 
 18 C        1.2420     5.9490     0.9370 C.3   1 <1>  -0.2000 
 19 C        0.0290     6.7740     0.6200 C.3   1 <1>  -0.2000 
 20 O       -4.1920    -5.2330     1.0060 O.3   1 <1>  -0.0190 
 21 C       -2.5570    -4.4450    -0.1250 C.2   1 <1>  -0.1500 
 22 N       -3.3460    -6.2190     0.9150 N.2   1 <1>  -0.4100 
 23 C       -2.3500    -5.7720     0.2400 C.2   1 <1>   0.1080 
 24 C       -1.1240    -6.5850    -0.1060 C.3   1 <1>  -0.0590 
 25 H       -4.2550     1.5920    -0.0410 H     1 <1>   0.0800 
 26 H       -3.6710     0.9100    -1.5510 H     1 <1>   0.0800 
 27 H       -1.8620    -1.7120     0.3790 H     1 <1>   0.0800 
 28 H       -2.9820    -1.1760     1.6250 H     1 <1>   0.0800 
 29 H        0.5750     2.8570     0.8720 H     1 <1>   0.1500 
 30 H       -5.5050    -0.5590    -1.2600 H     1 <1>   0.0800 
 31 H       -3.5940    -1.9690    -1.2100 H     1 <1>   0.0800 
 32 H       -2.0280     5.0800    -1.5100 H     1 <1>   0.2700 
 33 H       -5.5430    -3.1360    -0.1160 H     1 <1>   0.0800 
 34 H       -4.8940    -2.6890     1.4310 H     1 <1>   0.0800 
 35 H        0.8520     5.8790    -1.2290 H     1 <1>   0.1000 
 36 H       -7.2750     0.5100     1.5630 H     1 <1>   0.0800 
 37 H       -7.4140     0.0850    -0.1380 H     1 <1>   0.0800 
 38 H       -6.4500     1.4850     0.3570 H     1 <1>   0.0800 
 39 H        1.2020     5.2780     1.7780 H     1 <1>   0.1000 
 40 H        2.2180     6.3800     0.7980 H     1 <1>   0.1000 
 41 H        0.1680     7.7820     0.2700 H     1 <1>   0.1000 
 42 H       -0.8370     6.6670     1.2490 H     1 <1>   0.1000 
 43 H       -1.8820    -3.8350    -0.6960 H     1 <1>   0.1500 
 44 H       -1.0040    -6.6300    -1.1730 H     1 <1>   0.0800 
 45 H       -1.2280    -7.5850     0.2750 H     1 <1>   0.0800 
 46 H       -0.2520    -6.1350     0.3320 H     1 <1>   0.0800 
@<TRIPOS>BOND
  1   1   2  2   
  2   2   3  am  
  3   2   4  1   
  4   3   5  1   
  5   3   6  1   
  6   4   7  2   
  7   4   8  1   
  8   5   9  1   
  9   5  25  1   
 10   5  26  1   
 11   6  10  1   
 12   6  27  1   
 13   6  28  1   
 14   7  11  1   
 15   8  12  2   
 16   8  29  1   
 17   9  10  1   
 18   9  13  1   
 19   9  30  1   
 20  10  14  1   
 21  10  31  1   
 22  11  12  1   
 23  11  32  1   
 24  12  15  1   
 25  13  16  1   
 26  14  17  1   
 27  14  33  1   
 28  14  34  1   
 29  15  18  1   
 30  15  19  1   
 31  15  35  1   
 32  16  36  1   
 33  16  37  1   
 34  16  38  1   
 35  17  20  1   
 36  17  21  2   
 37  18  19  1   
 38  18  39  1   
 39  18  40  1   
 40  19  41  1   
 41  19  42  1   
 42  20  22  1   
 43  21  23  1   
 44  21  43  1   
 45  22  23  2   
 46  23  24  1   
 47  24  44  1   
 48  24  45  1   
 49  24  46  1   
@<TRIPOS>SUBSTRUCTURE
  1 ****   3 GROUP 4 **** **** 0

# MOE 2024.06 (io_trps.svl 2023.06)
