@<TRIPOS>MOLECULE
NONAME
48 51 1 0 0 
SMALL
USER_CHARGES


@<TRIPOS>ATOM
  1 O        1.4920    -0.1750    -1.1360 O.2   1 <1>  -0.5700 
  2 C        2.0220    -1.1260    -0.6120 C.2   1 <1>   0.5690 
  3 N        1.5230    -1.7440     0.5010 N.am  1 <1>  -0.6600 
  4 C        3.3120    -1.6640    -1.1960 C.3   1 <1>  -0.0990 
  5 C        2.2530    -2.8860     1.1070 C.3   1 <1>   0.1400 
  6 C        0.2780    -1.3020     1.1810 C.3   1 <1>   0.0600 
  7 C        3.2970    -3.2040    -1.2530 C.3   1 <1>  -0.0800 
  8 C        2.7070    -3.8690     0.0120 C.3   1 <1>  -0.0800 
  9 C        4.6950    -3.7930    -1.4800 C.3   1 <1>  -0.1600 
 10 C        3.7520    -4.8640     0.5350 C.3   1 <1>  -0.1600 
 11 C        4.8010    -5.0130    -0.5620 C.3   1 <1>   0.2200 
 12 N        6.1590    -5.2760     0.0020 N.am  1 <1>  -0.6600 
 13 C        7.0940    -4.3280     0.4170 C.2   1 <1>   0.7160 
 14 C        6.5210    -6.7240     0.0000 C.3   1 <1>   0.0600 
 15 O        8.2690    -4.6690     0.3970 O.2   1 <1>  -0.5700 
 16 C        6.7870    -2.9580     0.8360 C.2   1 <1>   0.2030 
 17 N        5.7710    -2.5300     1.5750 N.2   1 <1>  -0.7070 
 18 C        7.5860    -1.8630     0.4780 C.2   1 <1>  -0.1810 
 19 N        5.9240    -1.1990     1.6780 N.pl3 1 <1>   0.3000 
 20 C        7.0170    -0.7800     1.0220 C.2   1 <1>  -0.3320 
 21 C        8.8580    -1.7940    -0.3530 C.3   1 <1>   0.3010 
 22 C        7.5890     0.6110     0.8480 C.3   1 <1>   0.0200 
 23 O        9.0940    -0.4580    -0.7360 O.3   1 <1>  -0.5600 
 24 C        9.0280     0.4860     0.3040 C.3   1 <1>   0.1200 
 25 H        3.4590    -1.2590    -2.1800 H     1 <1>   0.0800 
 26 H        4.1140    -1.3210    -0.5700 H     1 <1>   0.0800 
 27 H        3.1080    -2.4990     1.6330 H     1 <1>   0.0800 
 28 H        1.6250    -3.3970     1.8150 H     1 <1>   0.0800 
 29 H       -0.4400    -2.1030     1.1780 H     1 <1>   0.0800 
 30 H       -0.1490    -0.4540     0.6740 H     1 <1>   0.0800 
 31 H        0.4970    -1.0230     2.1960 H     1 <1>   0.0800 
 32 H        2.6710    -3.4910    -2.0820 H     1 <1>   0.0800 
 33 H        1.8400    -4.4300    -0.2920 H     1 <1>   0.0800 
 34 H        5.4420    -3.0570    -1.2700 H     1 <1>   0.0800 
 35 H        4.8120    -4.0930    -2.5060 H     1 <1>   0.0800 
 36 H        3.2970    -5.8140     0.7490 H     1 <1>   0.0800 
 37 H        4.2060    -4.5040     1.4380 H     1 <1>   0.0800 
 38 H        4.5090    -5.8610    -1.1600 H     1 <1>   0.0800 
 39 H        5.7000    -7.3090     0.3750 H     1 <1>   0.0800 
 40 H        7.3770    -6.9050     0.6290 H     1 <1>   0.0800 
 41 H        6.7560    -7.0370    -1.0020 H     1 <1>   0.0800 
 42 H        5.2690    -0.6030     2.2000 H     1 <1>   0.2700 
 43 H        8.7630    -2.3830    -1.2480 H     1 <1>   0.0800 
 44 H        9.7020    -2.1460     0.2150 H     1 <1>   0.0800 
 45 H        7.6040     1.1370     1.7850 H     1 <1>   0.0800 
 46 H        6.9890     1.1680     0.1500 H     1 <1>   0.0800 
 47 H        9.7000     0.1700     1.0840 H     1 <1>   0.0800 
 48 H        9.3650     1.4300    -0.0850 H     1 <1>   0.0800 
@<TRIPOS>BOND
  1   1   2  2   
  2   2   3  am  
  3   2   4  1   
  4   3   5  1   
  5   3   6  1   
  6   4   7  1   
  7   4  25  1   
  8   4  26  1   
  9   5   8  1   
 10   5  27  1   
 11   5  28  1   
 12   6  29  1   
 13   6  30  1   
 14   6  31  1   
 15   7   8  1   
 16   7   9  1   
 17   7  32  1   
 18   8  10  1   
 19   8  33  1   
 20   9  11  1   
 21   9  34  1   
 22   9  35  1   
 23  10  11  1   
 24  10  36  1   
 25  10  37  1   
 26  11  12  1   
 27  11  38  1   
 28  12  13  am  
 29  12  14  1   
 30  13  15  2   
 31  13  16  1   
 32  14  39  1   
 33  14  40  1   
 34  14  41  1   
 35  16  17  2   
 36  16  18  1   
 37  17  19  1   
 38  18  20  2   
 39  18  21  1   
 40  19  20  1   
 41  19  42  1   
 42  20  22  1   
 43  21  23  1   
 44  21  43  1   
 45  21  44  1   
 46  22  24  1   
 47  22  45  1   
 48  22  46  1   
 49  23  24  1   
 50  24  47  1   
 51  24  48  1   
@<TRIPOS>SUBSTRUCTURE
  1 ****  17 GROUP 4 **** **** 0

# MOE 2024.06 (io_trps.svl 2023.06)
