@<TRIPOS>MOLECULE
NONAME
35 37 1 0 0 
SMALL
USER_CHARGES


@<TRIPOS>ATOM
  1 O       -2.5500     0.6690    -1.8010 O.2   1 <1>  -0.5700 
  2 C       -2.3020     0.7370    -0.6110 C.2   1 <1>   0.7160 
  3 N       -2.0900    -0.4400     0.0550 N.am  1 <1>  -0.7300 
  4 C       -2.2450     2.0040     0.1030 C.2   1 <1>   0.2030 
  5 C       -2.1230    -1.7920    -0.5500 C.3   1 <1>   0.2200 
  6 N       -2.8120     3.1230    -0.2400 N.2   1 <1>  -0.4100 
  7 C       -1.5680     2.2170     1.2980 C.2   1 <1>  -0.1500 
  8 C       -3.4470    -2.4940    -0.2670 C.3   1 <1>  -0.0800 
  9 C       -1.1690    -2.6870     0.2270 C.3   1 <1>   0.1200 
 10 O       -2.5600     4.0580     0.6430 O.3   1 <1>  -0.0190 
 11 C       -1.8080     3.5030     1.5660 C.2   1 <1>  -0.0100 
 12 C       -3.2300    -3.0940     1.1280 C.3   1 <1>   0.1200 
 13 C       -4.7160    -1.6300    -0.3970 C.3   1 <1>  -0.0160 
 14 O       -1.8590    -3.0050     1.3960 O.3   1 <1>  -0.5600 
 15 C       -5.9650    -2.4660    -0.1680 C.ar  1 <1>  -0.1440 
 16 C       -6.4900    -3.2710    -1.1580 C.ar  1 <1>  -0.1500 
 17 C       -6.6380    -2.4660     1.0380 C.ar  1 <1>  -0.1500 
 18 C       -7.6260    -4.0200    -0.9010 C.ar  1 <1>   0.1600 
 19 C       -7.7670    -3.2530     1.1910 C.ar  1 <1>   0.1600 
 20 N       -8.2760    -4.0330     0.2510 N.ar  1 <1>  -0.6200 
 21 H       -2.0030    -0.4510     1.0730 H     1 <1>   0.3700 
 22 H       -1.8860    -1.7510    -1.6000 H     1 <1>   0.0800 
 23 H       -0.9880     1.5010     1.8500 H     1 <1>   0.1500 
 24 H       -3.5330    -3.3150    -0.9560 H     1 <1>   0.0800 
 25 H       -0.2400    -2.2020     0.4700 H     1 <1>   0.0800 
 26 H       -0.9780    -3.6030    -0.3070 H     1 <1>   0.0800 
 27 H       -1.4830     4.1100     2.3910 H     1 <1>   0.1500 
 28 H       -3.5270    -4.1280     1.1660 H     1 <1>   0.0800 
 29 H       -3.7480    -2.5390     1.8910 H     1 <1>   0.0800 
 30 H       -4.7540    -1.1960    -1.3810 H     1 <1>   0.0800 
 31 H       -4.6980    -0.8210     0.3110 H     1 <1>   0.0800 
 32 H       -6.0280    -3.3210    -2.1270 H     1 <1>   0.1500 
 33 H       -6.2990    -1.8620     1.8590 H     1 <1>   0.1500 
 34 H       -8.0220    -4.6420    -1.6860 H     1 <1>   0.1500 
 35 H       -8.2790    -3.2410     2.1380 H     1 <1>   0.1500 
@<TRIPOS>BOND
  1   1   2  2   
  2   2   3  am  
  3   2   4  1   
  4   3   5  1   
  5   3  21  1   
  6   4   6  2   
  7   4   7  1   
  8   5   8  1   
  9   5   9  1   
 10   5  22  1   
 11   6  10  1   
 12   7  11  2   
 13   7  23  1   
 14   8  12  1   
 15   8  13  1   
 16   8  24  1   
 17   9  14  1   
 18   9  25  1   
 19   9  26  1   
 20  10  11  1   
 21  11  27  1   
 22  12  14  1   
 23  12  28  1   
 24  12  29  1   
 25  13  15  1   
 26  13  30  1   
 27  13  31  1   
 28  15  16  ar  
 29  15  17  ar  
 30  16  18  ar  
 31  16  32  1   
 32  17  19  ar  
 33  17  33  1   
 34  18  20  ar  
 35  18  34  1   
 36  19  20  ar  
 37  19  35  1   
@<TRIPOS>SUBSTRUCTURE
  1 ****  13 GROUP 4 **** **** 0

# MOE 2024.06 (io_trps.svl 2023.06)
