@<TRIPOS>MOLECULE
NONAME
44 46 1 0 0 
SMALL
USER_CHARGES


@<TRIPOS>ATOM
  1 O        3.6070    -2.6860     0.5130 O.co2 1 <1>  -0.9000 
  2 C        3.7620    -1.5510     0.0750 C.2   1 <1>   0.9060 
  3 O        3.9970    -1.2970    -1.1150 O.co2 1 <1>  -0.9000 
  4 C        3.6730    -0.3750     1.0220 C.3   1 <1>  -0.1860 
  5 C        5.0200     0.3890     1.0990 C.3   1 <1>   0.2000 
  6 C        2.4870     0.5430     0.6310 C.3   1 <1>  -0.1600 
  7 O        5.7140     0.3190    -0.1050 O.3   1 <1>  -0.6800 
  8 C        4.7540     1.8810     1.3880 C.3   1 <1>   0.3430 
  9 C        2.9540     1.6030    -0.3630 C.3   1 <1>   0.3430 
 10 N        3.9240     2.5360     0.2990 N.4   1 <1>  -0.9590 
 11 C        4.8040     3.1390    -0.7320 C.3   1 <1>   0.4860 
 12 C        5.5060     4.3360    -0.1150 C.ar  1 <1>  -0.1440 
 13 C        4.7540     5.4530     0.1640 C.ar  1 <1>   0.0820 
 14 C        6.8940     4.2930     0.1710 C.ar  1 <1>   0.0000 
 15 O        3.4250     5.4240    -0.1190 O.3   1 <1>  -0.3630 
 16 C        5.3630     6.5820     0.7410 C.ar  1 <1>  -0.1500 
 17 C        7.4910     5.4330     0.7580 C.ar  1 <1>   0.0000 
 18 C        7.7320     3.1790    -0.0840 C.ar  1 <1>  -0.1500 
 19 C        2.6570     6.6100    -0.1780 C.3   1 <1>   0.0400 
 20 C        6.6970     6.5640     1.0270 C.ar  1 <1>  -0.1500 
 21 C        8.8660     5.4160     1.0660 C.ar  1 <1>  -0.1500 
 22 C        9.0630     3.1900     0.2260 C.ar  1 <1>  -0.1500 
 23 C        9.6390     4.3210     0.8080 C.ar  1 <1>  -0.1500 
 24 H        3.4590    -0.7820     1.9930 H     1 <1>   0.0800 
 25 H        5.6490    -0.0480     1.8560 H     1 <1>   0.0800 
 26 H        2.0640     1.0170     1.4980 H     1 <1>   0.0800 
 27 H        1.7120    -0.0520     0.1770 H     1 <1>   0.0800 
 28 H        5.2590    -0.3790    -0.6790 H     1 <1>   0.4000 
 29 H        5.6930     2.3930     1.5140 H     1 <1>   0.0800 
 30 H        4.2210     1.9440     2.3210 H     1 <1>   0.0800 
 31 H        2.1130     2.1530    -0.7510 H     1 <1>   0.0800 
 32 H        3.4370     1.0940    -1.1850 H     1 <1>   0.0800 
 33 H        3.4170     3.3360     0.7010 H     1 <1>   0.4500 
 34 H        5.5010     2.4120    -1.1080 H     1 <1>   0.0800 
 35 H        4.2060     3.4840    -1.5590 H     1 <1>   0.0800 
 36 H        4.7920     7.4620     0.9670 H     1 <1>   0.1500 
 37 H        7.3340     2.2890    -0.5340 H     1 <1>   0.1500 
 38 H        1.6820     6.3640    -0.5570 H     1 <1>   0.0800 
 39 H        3.1390     7.3080    -0.8410 H     1 <1>   0.0800 
 40 H        2.5680     7.0230     0.8120 H     1 <1>   0.0800 
 41 H        7.1670     7.4240     1.4690 H     1 <1>   0.1500 
 42 H        9.3040     6.2910     1.5120 H     1 <1>   0.1500 
 43 H        9.6830     2.3320     0.0250 H     1 <1>   0.1500 
 44 H       10.6890     4.3130     1.0450 H     1 <1>   0.1500 
@<TRIPOS>BOND
  1   1   2  ar  
  2   2   3  ar  
  3   2   4  1   
  4   4   5  1   
  5   4   6  1   
  6   4  24  1   
  7   5   7  1   
  8   5   8  1   
  9   5  25  1   
 10   6   9  1   
 11   6  26  1   
 12   6  27  1   
 13   7  28  1   
 14   8  10  1   
 15   8  29  1   
 16   8  30  1   
 17   9  10  1   
 18   9  31  1   
 19   9  32  1   
 20  10  11  1   
 21  10  33  1   
 22  11  12  1   
 23  11  34  1   
 24  11  35  1   
 25  12  13  ar  
 26  12  14  ar  
 27  13  15  1   
 28  13  16  ar  
 29  14  17  ar  
 30  14  18  ar  
 31  15  19  1   
 32  16  20  ar  
 33  16  36  1   
 34  17  20  ar  
 35  17  21  ar  
 36  18  22  ar  
 37  18  37  1   
 38  19  38  1   
 39  19  39  1   
 40  19  40  1   
 41  20  41  1   
 42  21  23  ar  
 43  21  42  1   
 44  22  23  ar  
 45  22  43  1   
 46  23  44  1   
@<TRIPOS>SUBSTRUCTURE
  1 ****  11 GROUP 4 **** **** 0

# MOE 2024.06 (io_trps.svl 2023.06)
