@<TRIPOS>MOLECULE
NONAME
49 51 1 0 0 
SMALL
USER_CHARGES


@<TRIPOS>ATOM
  1 O       -1.4380    -0.1230     0.8130 O.co2 1 <1>  -0.9000 
  2 C       -1.4670    -0.8100    -0.2110 C.2   1 <1>   0.9060 
  3 O       -0.4800    -1.3840    -0.6790 O.co2 1 <1>  -0.9000 
  4 C       -2.8380    -1.1370    -0.8050 C.3   1 <1>   0.2370 
  5 N       -3.4680    -2.4180    -0.2770 N.4   1 <1>  -0.9590 
  6 C       -3.6760    -2.3470     1.2150 C.3   1 <1>   0.4230 
  7 C       -2.7030    -3.6110    -0.7590 C.3   1 <1>   0.3430 
  8 C       -2.4860    -2.8160     2.0940 C.3   1 <1>   0.1200 
  9 C       -4.9640    -3.1410     1.5510 C.3   1 <1>   0.1400 
 10 C       -2.9230    -4.9170     0.0330 C.3   1 <1>  -0.0800 
 11 O       -2.4960    -4.2010     2.3020 O.3   1 <1>  -0.5600 
 12 N       -5.3150    -4.1570     0.4910 N.am  1 <1>  -0.6600 
 13 C       -1.9980    -4.9650     1.2590 C.3   1 <1>   0.1200 
 14 C       -4.3850    -5.3190     0.3610 C.3   1 <1>   0.1400 
 15 C       -6.2440    -3.8540    -0.4690 C.2   1 <1>   0.5690 
 16 O       -6.4160    -2.6960    -0.7740 O.2   1 <1>  -0.5700 
 17 C       -7.0210    -4.9230    -1.2270 C.3   1 <1>   0.0440 
 18 C       -7.5000    -6.0690    -0.3330 C.ar  1 <1>  -0.1430 
 19 C       -7.0840    -7.3860    -0.5260 C.ar  1 <1>   0.0830 
 20 C       -8.3780    -5.7760     0.7000 C.ar  1 <1>  -0.1500 
 21 O       -6.2260    -7.6450    -1.5490 O.3   1 <1>  -0.3620 
 22 C       -7.5510    -8.3860     0.3240 C.ar  1 <1>  -0.1500 
 23 C       -8.8380    -6.7740     1.5400 C.ar  1 <1>  -0.1500 
 24 C       -6.0000    -8.9640    -1.9990 C.3   1 <1>   0.0400 
 25 C       -8.4240    -8.0790     1.3520 C.ar  1 <1>  -0.1500 
 26 H       -2.7190    -1.2010    -1.8700 H     1 <1>   0.0800 
 27 H       -3.4800    -0.3030    -0.5870 H     1 <1>   0.0800 
 28 H       -4.4340    -2.5000    -0.6450 H     1 <1>   0.4500 
 29 H       -3.8500    -1.3150     1.4750 H     1 <1>   0.0800 
 30 H       -2.9630    -3.7840    -1.7890 H     1 <1>   0.0800 
 31 H       -1.6480    -3.3820    -0.7360 H     1 <1>   0.0800 
 32 H       -2.5860    -2.3640     3.0640 H     1 <1>   0.0800 
 33 H       -1.5310    -2.5150     1.6990 H     1 <1>   0.0800 
 34 H       -5.7740    -2.4380     1.6420 H     1 <1>   0.0800 
 35 H       -4.8770    -3.6290     2.5060 H     1 <1>   0.0800 
 36 H       -2.5430    -5.6950    -0.6040 H     1 <1>   0.0800 
 37 H       -1.0030    -4.6230     1.0220 H     1 <1>   0.0800 
 38 H       -1.9270    -5.9760     1.6230 H     1 <1>   0.0800 
 39 H       -4.4170    -5.8970     1.2700 H     1 <1>   0.0800 
 40 H       -4.7300    -5.9600    -0.4280 H     1 <1>   0.0800 
 41 H       -7.8850    -4.4610    -1.6690 H     1 <1>   0.0800 
 42 H       -6.4100    -5.2740    -2.0350 H     1 <1>   0.0800 
 43 H       -8.7110    -4.7640     0.8580 H     1 <1>   0.1500 
 44 H       -7.2460    -9.4080     0.2070 H     1 <1>   0.1500 
 45 H       -9.5190    -6.5350     2.3380 H     1 <1>   0.1500 
 46 H       -5.3960    -8.9170    -2.8870 H     1 <1>   0.0800 
 47 H       -6.9470    -9.4230    -2.2260 H     1 <1>   0.0800 
 48 H       -5.4810    -9.5130    -1.2330 H     1 <1>   0.0800 
 49 H       -8.7810    -8.8550     2.0060 H     1 <1>   0.1500 
@<TRIPOS>BOND
  1   1   2  ar  
  2   2   3  ar  
  3   2   4  1   
  4   4   5  1   
  5   4  26  1   
  6   4  27  1   
  7   5   6  1   
  8   5   7  1   
  9   5  28  1   
 10   6   8  1   
 11   6   9  1   
 12   6  29  1   
 13   7  10  1   
 14   7  30  1   
 15   7  31  1   
 16   8  11  1   
 17   8  32  1   
 18   8  33  1   
 19   9  12  1   
 20   9  34  1   
 21   9  35  1   
 22  10  13  1   
 23  10  14  1   
 24  10  36  1   
 25  11  13  1   
 26  12  14  1   
 27  12  15  am  
 28  13  37  1   
 29  13  38  1   
 30  14  39  1   
 31  14  40  1   
 32  15  16  2   
 33  15  17  1   
 34  17  18  1   
 35  17  41  1   
 36  17  42  1   
 37  18  19  ar  
 38  18  20  ar  
 39  19  21  1   
 40  19  22  ar  
 41  20  23  ar  
 42  20  43  1   
 43  21  24  1   
 44  22  25  ar  
 45  22  44  1   
 46  23  25  ar  
 47  23  45  1   
 48  24  46  1   
 49  24  47  1   
 50  24  48  1   
 51  25  49  1   
@<TRIPOS>SUBSTRUCTURE
  1 ****  12 GROUP 4 **** **** 0

# MOE 2024.06 (io_trps.svl 2023.06)
