@<TRIPOS>MOLECULE
NONAME
47 49 1 0 0 
SMALL
USER_CHARGES


@<TRIPOS>ATOM
  1 S        0.6950     0.8840    -1.2900 S.o2  1 <1>   1.3330 
  2 O        0.7000    -0.4460    -1.8580 O.2   1 <1>  -0.6500 
  3 O        0.0380     1.9620    -1.9940 O.2   1 <1>  -0.6500 
  4 N       -0.0110     0.7880     0.2520 N.am  1 <1>  -0.8490 
  5 C        2.3950     1.3520    -0.9570 C.3   1 <1>  -0.0550 
  6 C       -1.1720    -0.1060     0.2710 C.3   1 <1>   0.1160 
  7 C       -0.3860     2.0960     0.8020 C.3   1 <1>   0.1160 
  8 C        3.2340     0.2580    -0.2600 C.3   1 <1>  -0.0800 
  9 C        4.7130     0.5830    -0.1190 C.3   1 <1>   0.2200 
 10 C        2.8190    -0.0600     1.1810 C.3   1 <1>   0.1200 
 11 N        4.9030     1.9900     0.2950 N.am  1 <1>  -0.7300 
 12 C        5.0940    -0.3310     1.0380 C.3   1 <1>   0.1200 
 13 O        3.9940    -0.3180     1.8950 O.3   1 <1>  -0.5600 
 14 C        5.3060     3.0300    -0.4890 C.2   1 <1>   0.7160 
 15 O        5.5400     2.8120    -1.6650 O.2   1 <1>  -0.5700 
 16 C        5.4170     4.3600     0.0900 C.2   1 <1>   0.2030 
 17 N        5.0930     4.6790     1.3320 N.2   1 <1>  -0.7070 
 18 C        5.8780     5.4880    -0.5930 C.2   1 <1>  -0.1500 
 19 N        5.3530     5.9920     1.4260 N.pl3 1 <1>   0.3000 
 20 C        5.8300     6.5260     0.2810 C.2   1 <1>  -0.2050 
 21 C        6.1670     7.9200     0.1800 C.ar  1 <1>   0.3630 
 22 N        5.9760     8.6660     1.2710 N.ar  1 <1>  -0.6200 
 23 C        6.6650     8.4510    -1.0090 C.ar  1 <1>  -0.1500 
 24 C        6.2870     9.9470     1.1710 C.ar  1 <1>   0.1600 
 25 C        6.9850     9.7870    -1.0990 C.ar  1 <1>  -0.1500 
 26 C        6.7860    10.5500     0.0300 C.ar  1 <1>  -0.1500 
 27 H        2.8680     1.5830    -1.8930 H     1 <1>   0.0800 
 28 H        2.4040     2.2480    -0.3690 H     1 <1>   0.0800 
 29 H       -1.5890    -0.1580     1.2620 H     1 <1>   0.0800 
 30 H       -0.8770    -1.1000    -0.0210 H     1 <1>   0.0800 
 31 H       -1.9260     0.2450    -0.4140 H     1 <1>   0.0800 
 32 H       -0.7480     1.9830     1.8100 H     1 <1>   0.0800 
 33 H       -1.1570     2.5510     0.2020 H     1 <1>   0.0800 
 34 H        0.4680     2.7510     0.8220 H     1 <1>   0.0800 
 35 H        3.1490    -0.6520    -0.8300 H     1 <1>   0.0800 
 36 H        5.2760     0.3680    -1.0120 H     1 <1>   0.0800 
 37 H        2.1770    -0.9230     1.2340 H     1 <1>   0.0800 
 38 H        2.3370     0.7800     1.6510 H     1 <1>   0.0800 
 39 H        4.7090     2.2040     1.2790 H     1 <1>   0.3700 
 40 H        5.9700     0.0030     1.5640 H     1 <1>   0.0800 
 41 H        5.2330    -1.3420     0.6960 H     1 <1>   0.0800 
 42 H        6.2000     5.4850    -1.6190 H     1 <1>   0.1500 
 43 H        5.2090     6.5530     2.2770 H     1 <1>   0.2700 
 44 H        6.8000     7.8110    -1.8590 H     1 <1>   0.1500 
 45 H        6.1360    10.5550     2.0470 H     1 <1>   0.1500 
 46 H        7.3720    10.2160    -2.0080 H     1 <1>   0.1500 
 47 H        7.0150    11.6010     0.0290 H     1 <1>   0.1500 
@<TRIPOS>BOND
  1   1   2  2   
  2   1   3  2   
  3   1   4  am  
  4   1   5  1   
  5   4   6  1   
  6   4   7  1   
  7   5   8  1   
  8   5  27  1   
  9   5  28  1   
 10   6  29  1   
 11   6  30  1   
 12   6  31  1   
 13   7  32  1   
 14   7  33  1   
 15   7  34  1   
 16   8   9  1   
 17   8  10  1   
 18   8  35  1   
 19   9  11  1   
 20   9  12  1   
 21   9  36  1   
 22  10  13  1   
 23  10  37  1   
 24  10  38  1   
 25  11  14  am  
 26  11  39  1   
 27  12  13  1   
 28  12  40  1   
 29  12  41  1   
 30  14  15  2   
 31  14  16  1   
 32  16  17  2   
 33  16  18  1   
 34  17  19  1   
 35  18  20  2   
 36  18  42  1   
 37  19  20  1   
 38  19  43  1   
 39  20  21  1   
 40  21  22  ar  
 41  21  23  ar  
 42  22  24  ar  
 43  23  25  ar  
 44  23  44  1   
 45  24  26  ar  
 46  24  45  1   
 47  25  26  ar  
 48  25  46  1   
 49  26  47  1   
@<TRIPOS>SUBSTRUCTURE
  1 ****  16 GROUP 4 **** **** 0

# MOE 2024.06 (io_trps.svl 2023.06)
