@<TRIPOS>MOLECULE
NONAME
53 54 1 0 0 
SMALL
USER_CHARGES


@<TRIPOS>ATOM
  1 S        2.3290     1.7920    -1.0800 S.o2  1 <1>   1.3330 
  2 O        2.9780     0.5260    -1.3360 O.2   1 <1>  -0.6500 
  3 O        2.2210     2.7520    -2.1560 O.2   1 <1>  -0.6500 
  4 N        3.1390     2.5190     0.2210 N.am  1 <1>  -0.8490 
  5 C        0.6760     1.4480    -0.4510 C.3   1 <1>  -0.0550 
  6 C        3.6970     1.5650     1.1830 C.3   1 <1>   0.1160 
  7 C        4.1770     3.4600    -0.2070 C.3   1 <1>   0.1160 
  8 C       -0.2260     2.6160     0.0240 C.3   1 <1>  -0.0800 
  9 C       -0.3950     3.7510    -0.9960 C.3   1 <1>   0.2000 
 10 C        0.2450     3.3020     1.3160 C.3   1 <1>   0.1400 
 11 O       -1.6980     4.2120    -0.8890 O.3   1 <1>  -0.6800 
 12 C        0.5360     4.8680    -0.5240 C.3   1 <1>   0.1400 
 13 N        0.6330     4.6810     0.9420 N.am  1 <1>  -0.6600 
 14 C        1.2000     5.5450     1.8400 C.2   1 <1>   0.5690 
 15 O        1.3050     5.2500     3.0080 O.2   1 <1>  -0.5700 
 16 C        1.6860     6.9210     1.4040 C.3   1 <1>   0.0440 
 17 C        3.0410     6.8710     0.7070 C.ar  1 <1>  -0.1440 
 18 C        4.1790     6.5800     1.4410 C.ar  1 <1>  -0.1500 
 19 C        3.1590     7.1180    -0.6510 C.ar  1 <1>  -0.1500 
 20 C        5.4180     6.5340     0.8250 C.ar  1 <1>  -0.1500 
 21 C        4.3980     7.0650    -1.2670 C.ar  1 <1>  -0.1500 
 22 C        5.5400     6.7720    -0.5360 C.ar  1 <1>  -0.1440 
 23 C        6.8970     6.7160    -1.2340 C.3   1 <1>   0.0630 
 24 C        7.4780     5.3000    -1.1750 C.3   1 <1>  -0.2400 
 25 C        7.8710     7.7320    -0.6290 C.3   1 <1>  -0.2400 
 26 H        0.1440     0.9380    -1.2300 H     1 <1>   0.0800 
 27 H        0.7650     0.7500     0.3590 H     1 <1>   0.0800 
 28 H        4.0960     2.0920     2.0330 H     1 <1>   0.0800 
 29 H        4.4840     0.9870     0.7260 H     1 <1>   0.0800 
 30 H        2.9310     0.8930     1.5290 H     1 <1>   0.0800 
 31 H        4.6530     3.9020     0.6500 H     1 <1>   0.0800 
 32 H        3.7450     4.2520    -0.7930 H     1 <1>   0.0800 
 33 H        4.9190     2.9550    -0.8030 H     1 <1>   0.0800 
 34 H       -1.1870     2.1710     0.2200 H     1 <1>   0.0800 
 35 H       -0.2270     3.4590    -2.0190 H     1 <1>   0.0800 
 36 H        1.0770     2.7940     1.7720 H     1 <1>   0.0800 
 37 H       -0.5580     3.3510     2.0310 H     1 <1>   0.0800 
 38 H       -1.8230     4.5990     0.0010 H     1 <1>   0.4000 
 39 H        0.1460     5.8360    -0.7850 H     1 <1>   0.0800 
 40 H        1.5130     4.7540    -0.9560 H     1 <1>   0.0800 
 41 H        0.9500     7.3730     0.7680 H     1 <1>   0.0800 
 42 H        1.7710     7.5410     2.2770 H     1 <1>   0.0800 
 43 H        4.1020     6.3860     2.4970 H     1 <1>   0.1500 
 44 H        2.2910     7.3530    -1.2410 H     1 <1>   0.1500 
 45 H        6.2870     6.3090     1.4160 H     1 <1>   0.1500 
 46 H        4.4650     7.2550    -2.3240 H     1 <1>   0.1500 
 47 H        6.7620     6.9720    -2.2720 H     1 <1>   0.0800 
 48 H        7.6570     5.0020    -0.1580 H     1 <1>   0.0800 
 49 H        8.4070     5.2560    -1.7150 H     1 <1>   0.0800 
 50 H        6.7910     4.6040    -1.6220 H     1 <1>   0.0800 
 51 H        8.0910     7.4920     0.3950 H     1 <1>   0.0800 
 52 H        7.4400     8.7160    -0.6650 H     1 <1>   0.0800 
 53 H        8.7920     7.7420    -1.1850 H     1 <1>   0.0800 
@<TRIPOS>BOND
  1   1   2  2   
  2   1   3  2   
  3   1   4  am  
  4   1   5  1   
  5   4   6  1   
  6   4   7  1   
  7   5   8  1   
  8   5  26  1   
  9   5  27  1   
 10   6  28  1   
 11   6  29  1   
 12   6  30  1   
 13   7  31  1   
 14   7  32  1   
 15   7  33  1   
 16   8   9  1   
 17   8  10  1   
 18   8  34  1   
 19   9  11  1   
 20   9  12  1   
 21   9  35  1   
 22  10  13  1   
 23  10  36  1   
 24  10  37  1   
 25  11  38  1   
 26  12  13  1   
 27  12  39  1   
 28  12  40  1   
 29  13  14  am  
 30  14  15  2   
 31  14  16  1   
 32  16  17  1   
 33  16  41  1   
 34  16  42  1   
 35  17  18  ar  
 36  17  19  ar  
 37  18  20  ar  
 38  18  43  1   
 39  19  21  ar  
 40  19  44  1   
 41  20  22  ar  
 42  20  45  1   
 43  21  22  ar  
 44  21  46  1   
 45  22  23  1   
 46  23  24  1   
 47  23  25  1   
 48  23  47  1   
 49  24  48  1   
 50  24  49  1   
 51  24  50  1   
 52  25  51  1   
 53  25  52  1   
 54  25  53  1   
@<TRIPOS>SUBSTRUCTURE
  1 ****   7 GROUP 4 **** **** 0

# MOE 2024.06 (io_trps.svl 2023.06)
