@<TRIPOS>MOLECULE
NONAME
42 44 1 0 0 
SMALL
USER_CHARGES


@<TRIPOS>ATOM
  1 S        0.3130     0.1000    -0.5680 S.o2  1 <1>   1.0900 
  2 O       -1.0340     0.6230    -0.5910 O.2   1 <1>  -0.6500 
  3 O        0.5860    -1.2190    -1.0910 O.2   1 <1>  -0.6500 
  4 C        0.8830     0.1650     1.1200 C.3   1 <1>  -0.0550 
  5 C        1.3890     1.2530    -1.3980 C.3   1 <1>  -0.0550 
  6 C        2.3690     0.4980     1.1630 C.3   1 <1>   0.1100 
  7 C        1.7970     2.3690    -0.4470 C.3   1 <1>   0.1100 
  8 N        2.6430     1.8640     0.6620 N.3   1 <1>  -0.8100 
  9 C        2.7790     2.8490     1.7600 C.3   1 <1>   0.2900 
 10 C        3.2790     4.1970     1.2680 C.2   1 <1>  -0.0400 
 11 O        2.4320     5.0910     0.8340 O.3   1 <1>  -0.0190 
 12 C        4.5110     4.7220     1.1830 C.2   1 <1>  -0.1500 
 13 N        3.0290     6.1840     0.4590 N.2   1 <1>  -0.4100 
 14 C        4.2880     5.9930     0.6570 C.2   1 <1>   0.1080 
 15 C        5.3870     7.0080     0.3610 C.3   1 <1>   0.1010 
 16 C        5.1970     8.2860     1.1960 C.3   1 <1>  -0.1600 
 17 C        5.4370     7.3430    -1.1400 C.3   1 <1>  -0.1600 
 18 C        6.2830     9.3290     0.8900 C.3   1 <1>  -0.1600 
 19 C        6.5230     8.3830    -1.4510 C.3   1 <1>  -0.1600 
 20 C        6.3310     9.6530    -0.6100 C.3   1 <1>  -0.1600 
 21 H        0.7100    -0.7830     1.5920 H     1 <1>   0.0800 
 22 H        0.3420     0.9110     1.6690 H     1 <1>   0.0800 
 23 H        0.8850     1.6680    -2.2490 H     1 <1>   0.0800 
 24 H        2.2750     0.7590    -1.7460 H     1 <1>   0.0800 
 25 H        2.9020    -0.2090     0.5470 H     1 <1>   0.0800 
 26 H        2.7410     0.3860     2.1670 H     1 <1>   0.0800 
 27 H        0.9100     2.8410    -0.0520 H     1 <1>   0.0800 
 28 H        2.3490     3.1130    -0.9980 H     1 <1>   0.0800 
 29 H        3.4910     2.4750     2.4750 H     1 <1>   0.0800 
 30 H        1.8360     2.9800     2.2620 H     1 <1>   0.0800 
 31 H        5.4590     4.2920     1.4450 H     1 <1>   0.1500 
 32 H        6.3290     6.5680     0.6360 H     1 <1>   0.0800 
 33 H        5.2190     8.0380     2.2430 H     1 <1>   0.0800 
 34 H        4.2300     8.7080     0.9800 H     1 <1>   0.0800 
 35 H        4.4800     7.7280    -1.4470 H     1 <1>   0.0800 
 36 H        5.6250     6.4450    -1.7010 H     1 <1>   0.0800 
 37 H        7.2410     8.9520     1.2040 H     1 <1>   0.0800 
 38 H        6.0840    10.2290     1.4460 H     1 <1>   0.0800 
 39 H        6.4890     8.6360    -2.4960 H     1 <1>   0.0800 
 40 H        7.4930     7.9620    -1.2450 H     1 <1>   0.0800 
 41 H        7.1350    10.3410    -0.8050 H     1 <1>   0.0800 
 42 H        5.4100    10.1320    -0.8980 H     1 <1>   0.0800 
@<TRIPOS>BOND
  1   1   2  2   
  2   1   3  2   
  3   1   4  1   
  4   1   5  1   
  5   4   6  1   
  6   4  21  1   
  7   4  22  1   
  8   5   7  1   
  9   5  23  1   
 10   5  24  1   
 11   6   8  1   
 12   6  25  1   
 13   6  26  1   
 14   7   8  1   
 15   7  27  1   
 16   7  28  1   
 17   8   9  1   
 18   9  10  1   
 19   9  29  1   
 20   9  30  1   
 21  10  11  1   
 22  10  12  2   
 23  11  13  1   
 24  12  14  1   
 25  12  31  1   
 26  13  14  2   
 27  14  15  1   
 28  15  16  1   
 29  15  17  1   
 30  15  32  1   
 31  16  18  1   
 32  16  33  1   
 33  16  34  1   
 34  17  19  1   
 35  17  35  1   
 36  17  36  1   
 37  18  20  1   
 38  18  37  1   
 39  18  38  1   
 40  19  20  1   
 41  19  39  1   
 42  19  40  1   
 43  20  41  1   
 44  20  42  1   
@<TRIPOS>SUBSTRUCTURE
  1 ****  10 GROUP 4 **** **** 0

# MOE 2024.06 (io_trps.svl 2023.06)
