@<TRIPOS>MOLECULE
NONAME
36 38 1 0 0 
SMALL
USER_CHARGES


@<TRIPOS>ATOM
  1 F        2.7340    -0.4030    -1.8850 F     1 <1>  -0.1900 
  2 C        2.7060    -0.6910    -0.6100 C.ar  1 <1>   0.1900 
  3 C        2.7080     0.3330     0.3280 C.ar  1 <1>  -0.1440 
  4 C        2.6670    -2.0270    -0.2560 C.ar  1 <1>  -0.1500 
  5 C        2.6480    -0.0250     1.6680 C.ar  1 <1>  -0.1500 
  6 C        2.7470     1.8030    -0.0840 C.3   1 <1>   0.2540 
  7 C        2.6180    -2.3610     1.0860 C.ar  1 <1>  -0.1500 
  8 C        2.6060    -1.3600     2.0430 C.ar  1 <1>  -0.1500 
  9 N        4.1130     2.3600    -0.1450 N.3   1 <1>  -0.8100 
 10 C        4.8030     2.3570     1.1690 C.3   1 <1>   0.1100 
 11 C        4.9040     1.7770    -1.2510 C.3   1 <1>   0.1100 
 12 C        6.1040     3.2040     1.2560 C.3   1 <1>   0.2200 
 13 C        6.1970     2.5480    -1.5900 C.3   1 <1>  -0.0190 
 14 N        6.1820     4.2550     0.2080 N.am  1 <1>  -0.7300 
 15 C        7.3710     2.3230     1.2250 C.3   1 <1>   0.1200 
 16 C        6.1790     3.9890    -1.1140 C.2   1 <1>   0.5690 
 17 C        7.4700     1.8350    -1.1010 C.3   1 <1>   0.1200 
 18 O        7.3510     1.3620     0.2080 O.3   1 <1>  -0.5600 
 19 O        6.1950     4.8890    -1.9170 O.2   1 <1>  -0.5700 
 20 H        2.6730    -2.7850    -1.0180 H     1 <1>   0.1500 
 21 H        2.6330     0.7360     2.4280 H     1 <1>   0.1500 
 22 H        2.1720     2.3810     0.6190 H     1 <1>   0.0800 
 23 H        2.2750     1.9260    -1.0430 H     1 <1>   0.0800 
 24 H        2.5880    -3.3950     1.3840 H     1 <1>   0.1500 
 25 H        2.5640    -1.6210     3.0870 H     1 <1>   0.1500 
 26 H        4.1220     2.7510     1.9030 H     1 <1>   0.0800 
 27 H        5.0230     1.3430     1.4570 H     1 <1>   0.0800 
 28 H        5.1370     0.7490    -1.0300 H     1 <1>   0.0800 
 29 H        4.2890     1.7850    -2.1360 H     1 <1>   0.0800 
 30 H        6.1040     3.7010     2.2100 H     1 <1>   0.0800 
 31 H        6.2720     2.5820    -2.6600 H     1 <1>   0.0800 
 32 H        6.0120     5.2220     0.4780 H     1 <1>   0.3700 
 33 H        7.4400     1.7810     2.1500 H     1 <1>   0.0800 
 34 H        8.2560     2.9270     1.1220 H     1 <1>   0.0800 
 35 H        8.3280     2.4830    -1.1660 H     1 <1>   0.0800 
 36 H        7.6500     0.9750    -1.7210 H     1 <1>   0.0800 
@<TRIPOS>BOND
  1   1   2  1   
  2   2   3  ar  
  3   2   4  ar  
  4   3   5  ar  
  5   3   6  1   
  6   4   7  ar  
  7   4  20  1   
  8   5   8  ar  
  9   5  21  1   
 10   6   9  1   
 11   6  22  1   
 12   6  23  1   
 13   7   8  ar  
 14   7  24  1   
 15   8  25  1   
 16   9  10  1   
 17   9  11  1   
 18  10  12  1   
 19  10  26  1   
 20  10  27  1   
 21  11  13  1   
 22  11  28  1   
 23  11  29  1   
 24  12  14  1   
 25  12  15  1   
 26  12  30  1   
 27  13  16  1   
 28  13  17  1   
 29  13  31  1   
 30  14  16  am  
 31  14  32  1   
 32  15  18  1   
 33  15  33  1   
 34  15  34  1   
 35  16  19  2   
 36  17  18  1   
 37  17  35  1   
 38  17  36  1   
@<TRIPOS>SUBSTRUCTURE
  1 ****   9 GROUP 4 **** **** 0

# MOE 2024.06 (io_trps.svl 2023.06)
