@<TRIPOS>MOLECULE
NONAME
50 52 1 0 0 
SMALL
USER_CHARGES


@<TRIPOS>ATOM
  1 O       -0.3940     0.9860    -0.7560 O.2   1 <1>  -0.5700 
  2 C       -0.6220     2.1720    -0.7320 C.2   1 <1>   0.5690 
  3 N       -1.4490     2.7740     0.1830 N.am  1 <1>  -0.6600 
  4 C        0.0470     3.0410    -1.7920 C.3   1 <1>   0.1810 
  5 C       -1.6930     4.2560     0.1300 C.3   1 <1>   0.3640 
  6 C       -2.1060     2.0760     1.3230 C.3   1 <1>   0.2200 
  7 O        0.3550     4.3160    -1.2930 O.3   1 <1>  -0.5600 
  8 C       -3.1600     4.5130    -0.2240 C.ar  1 <1>  -0.1440 
  9 C       -0.7770     5.0510    -0.8460 C.3   1 <1>   0.2610 
 10 C       -1.0510     1.5480     2.2930 C.3   1 <1>  -0.2400 
 11 C       -3.0420     0.9680     0.8370 C.3   1 <1>  -0.2400 
 12 C       -3.7850     3.8290    -1.2600 C.ar  1 <1>  -0.1500 
 13 C       -3.8870     5.4540     0.4910 C.ar  1 <1>  -0.1500 
 14 C       -0.3270     6.3560    -0.1770 C.2   1 <1>   0.5690 
 15 C       -5.1100     4.0780    -1.5700 C.ar  1 <1>  -0.1500 
 16 C       -5.2130     5.7050     0.1820 C.ar  1 <1>  -0.1500 
 17 O       -1.1530     7.1070     0.2860 O.2   1 <1>  -0.5700 
 18 N        1.0010     6.6460    -0.1150 N.am  1 <1>  -0.7300 
 19 C       -5.8260     5.0170    -0.8490 C.ar  1 <1>  -0.1500 
 20 C        1.6000     7.8480     0.5110 C.3   1 <1>   0.1400 
 21 C        1.8890     8.9060    -0.5530 C.3   1 <1>   0.0210 
 22 C        2.5300    10.1280     0.0780 C.2   1 <1>  -0.1810 
 23 C        3.8650    10.2800     0.4440 C.2   1 <1>   0.1390 
 24 C        1.9490    11.2980     0.4140 C.2   1 <1>  -0.3020 
 25 N        4.1020    11.4440     0.9660 N.2   1 <1>  -0.7070 
 26 N        2.9130    12.0750     0.9450 N.pl3 1 <1>   0.3000 
 27 H       -0.5980     3.1450    -2.6450 H     1 <1>   0.0800 
 28 H        0.9670     2.5780    -2.1010 H     1 <1>   0.0800 
 29 H       -1.5170     4.6370     1.1220 H     1 <1>   0.0800 
 30 H       -2.7130     2.7880     1.8590 H     1 <1>   0.0800 
 31 H       -1.3430     5.3180    -1.7200 H     1 <1>   0.0800 
 32 H       -0.4580     0.7790     1.8320 H     1 <1>   0.0800 
 33 H       -1.5290     1.1290     3.1590 H     1 <1>   0.0800 
 34 H       -0.4070     2.3480     2.6130 H     1 <1>   0.0800 
 35 H       -2.4950     0.1740     0.3640 H     1 <1>   0.0800 
 36 H       -3.7620     1.3660     0.1460 H     1 <1>   0.0800 
 37 H       -3.5740     0.5520     1.6730 H     1 <1>   0.0800 
 38 H       -3.2470     3.0910    -1.8280 H     1 <1>   0.1500 
 39 H       -3.4250     6.0080     1.2920 H     1 <1>   0.1500 
 40 H       -5.5860     3.5410    -2.3720 H     1 <1>   0.1500 
 41 H       -5.7650     6.4380     0.7430 H     1 <1>   0.1500 
 42 H        1.6410     5.9620    -0.5340 H     1 <1>   0.3700 
 43 H       -6.8560     5.2120    -1.0890 H     1 <1>   0.1500 
 44 H        0.9190     8.2550     1.2410 H     1 <1>   0.0800 
 45 H        2.5090     7.5720     1.0180 H     1 <1>   0.0800 
 46 H        2.5480     8.5070    -1.3020 H     1 <1>   0.0800 
 47 H        0.9650     9.1950    -1.0220 H     1 <1>   0.0800 
 48 H        4.6250     9.5280     0.3140 H     1 <1>   0.1500 
 49 H        0.9270    11.6150     0.3080 H     1 <1>   0.1500 
 50 H        2.7950    13.0320     1.3010 H     1 <1>   0.2700 
@<TRIPOS>BOND
  1   1   2  2   
  2   2   3  am  
  3   2   4  1   
  4   3   5  1   
  5   3   6  1   
  6   4   7  1   
  7   4  27  1   
  8   4  28  1   
  9   5   8  1   
 10   5   9  1   
 11   5  29  1   
 12   6  10  1   
 13   6  11  1   
 14   6  30  1   
 15   7   9  1   
 16   8  12  ar  
 17   8  13  ar  
 18   9  14  1   
 19   9  31  1   
 20  10  32  1   
 21  10  33  1   
 22  10  34  1   
 23  11  35  1   
 24  11  36  1   
 25  11  37  1   
 26  12  15  ar  
 27  12  38  1   
 28  13  16  ar  
 29  13  39  1   
 30  14  17  2   
 31  14  18  am  
 32  15  19  ar  
 33  15  40  1   
 34  16  19  ar  
 35  16  41  1   
 36  18  20  1   
 37  18  42  1   
 38  19  43  1   
 39  20  21  1   
 40  20  44  1   
 41  20  45  1   
 42  21  22  1   
 43  21  46  1   
 44  21  47  1   
 45  22  23  1   
 46  22  24  2   
 47  23  25  2   
 48  23  48  1   
 49  24  26  1   
 50  24  49  1   
 51  25  26  1   
 52  26  50  1   
@<TRIPOS>SUBSTRUCTURE
  1 ****  14 GROUP 4 **** **** 0

# MOE 2024.06 (io_trps.svl 2023.06)
