@<TRIPOS>MOLECULE
NONAME
40 42 1 0 0 
SMALL
USER_CHARGES


@<TRIPOS>ATOM
  1 F        0.2320    -0.8470     0.7240 F     1 <1>  -0.1900 
  2 C        1.1710    -1.3520    -0.0440 C.ar  1 <1>   0.1900 
  3 C        1.0120    -2.6200    -0.6010 C.ar  1 <1>   0.1000 
  4 C        2.3060    -0.6000    -0.2760 C.ar  1 <1>   0.1600 
  5 N       -0.0860    -3.4640    -0.4390 N.pl3 1 <1>  -0.8380 
  6 C        2.0750    -3.0290    -1.3850 C.ar  1 <1>  -0.1500 
  7 N        3.3250    -1.0010    -1.0300 N.ar  1 <1>  -0.6200 
  8 C       -1.3880    -3.0010    -1.0050 C.3   1 <1>   0.2090 
  9 C       -0.3300    -4.0140     0.9220 C.3   1 <1>   0.2090 
 10 C        3.1760    -2.2080    -1.5640 C.ar  1 <1>   0.1600 
 11 C       -2.3820    -3.0560     0.1560 C.3   1 <1>  -0.0800 
 12 C       -1.8450    -4.1970     1.0270 C.3   1 <1>  -0.0800 
 13 C       -3.8720    -3.1890    -0.2440 C.3   1 <1>   0.2800 
 14 C       -2.2520    -5.5920     0.5040 C.3   1 <1>  -0.1600 
 15 O       -4.1110    -2.3310    -1.2960 O.3   1 <1>  -0.6800 
 16 C       -4.1970    -4.6050    -0.7550 C.3   1 <1>  -0.1600 
 17 C       -4.8320    -2.7930     0.9060 C.3   1 <1>  -0.1600 
 18 C       -3.7550    -5.6980     0.2290 C.3   1 <1>  -0.1600 
 19 C       -4.8220    -1.3100     1.3250 C.3   1 <1>  -0.2400 
 20 H        2.3780     0.3720     0.1770 H     1 <1>   0.1500 
 21 H        2.0300    -3.9940    -1.8530 H     1 <1>   0.1500 
 22 H       -1.3170    -2.0030    -1.4030 H     1 <1>   0.0800 
 23 H       -1.6810    -3.6700    -1.7940 H     1 <1>   0.0800 
 24 H        0.1950    -4.9450     1.0510 H     1 <1>   0.0800 
 25 H        0.0100    -3.3120     1.6640 H     1 <1>   0.0800 
 26 H        3.9830    -2.5640    -2.1820 H     1 <1>   0.1500 
 27 H       -2.2520    -2.1390     0.6970 H     1 <1>   0.0800 
 28 H       -2.1690    -4.0870     2.0470 H     1 <1>   0.0800 
 29 H       -1.7230    -5.8020    -0.4110 H     1 <1>   0.0800 
 30 H       -1.9640    -6.3420     1.2200 H     1 <1>   0.0800 
 31 H       -5.0670    -2.3070    -1.4780 H     1 <1>   0.4000 
 32 H       -5.2530    -4.7010    -0.9340 H     1 <1>   0.0800 
 33 H       -3.6920    -4.7700    -1.6910 H     1 <1>   0.0800 
 34 H       -5.8370    -3.0520     0.6240 H     1 <1>   0.0800 
 35 H       -4.5970    -3.3830     1.7730 H     1 <1>   0.0800 
 36 H       -4.3020    -5.6160     1.1520 H     1 <1>   0.0800 
 37 H       -3.9710    -6.6650    -0.1920 H     1 <1>   0.0800 
 38 H       -5.0480    -0.6710     0.4900 H     1 <1>   0.0800 
 39 H       -3.8670    -1.0240     1.7270 H     1 <1>   0.0800 
 40 H       -5.5640    -1.1430     2.0860 H     1 <1>   0.0800 
@<TRIPOS>BOND
  1   1   2  1   
  2   2   3  ar  
  3   2   4  ar  
  4   3   5  1   
  5   3   6  ar  
  6   4   7  ar  
  7   4  20  1   
  8   5   8  1   
  9   5   9  1   
 10   6  10  ar  
 11   6  21  1   
 12   7  10  ar  
 13   8  11  1   
 14   8  22  1   
 15   8  23  1   
 16   9  12  1   
 17   9  24  1   
 18   9  25  1   
 19  10  26  1   
 20  11  12  1   
 21  11  13  1   
 22  11  27  1   
 23  12  14  1   
 24  12  28  1   
 25  13  15  1   
 26  13  16  1   
 27  13  17  1   
 28  14  18  1   
 29  14  29  1   
 30  14  30  1   
 31  15  31  1   
 32  16  18  1   
 33  16  32  1   
 34  16  33  1   
 35  17  19  1   
 36  17  34  1   
 37  17  35  1   
 38  18  36  1   
 39  18  37  1   
 40  19  38  1   
 41  19  39  1   
 42  19  40  1   
@<TRIPOS>SUBSTRUCTURE
  1 ****   8 GROUP 4 **** **** 0

# MOE 2024.06 (io_trps.svl 2023.06)
