@<TRIPOS>MOLECULE
NONAME
51 54 1 0 0 
SMALL
USER_CHARGES


@<TRIPOS>ATOM
  1 O       -0.4920     0.7870     0.6560 O.2   1 <1>  -0.5700 
  2 C       -1.5460     1.3230     0.3490 C.2   1 <1>   0.5440 
  3 N       -2.6650     0.5100     0.3040 N.am  1 <1>  -0.6600 
  4 C       -1.5650     2.7670     0.0690 C.ar  1 <1>   0.3960 
  5 C       -4.0620     0.9330     0.0280 C.3   1 <1>   0.1400 
  6 C       -2.6310    -0.9360     0.6150 C.3   1 <1>   0.1400 
  7 N       -2.4590     3.3040    -0.7430 N.ar  1 <1>  -0.6200 
  8 C       -0.5880     3.5690     0.6920 C.ar  1 <1>  -0.1500 
  9 C       -4.9340    -0.3030     0.2920 C.3   1 <1>   0.2000 
 10 C       -3.9680    -1.4770     0.1040 C.3   1 <1>  -0.0800 
 11 C       -2.4230     4.6360    -0.9710 C.ar  1 <1>   0.3100 
 12 C       -0.5280     4.9190     0.4830 C.ar  1 <1>   0.0820 
 13 O       -5.3890    -0.3010     1.6170 O.3   1 <1>  -0.5600 
 14 C       -4.4060    -2.7840     0.7900 C.3   1 <1>   0.0200 
 15 C       -1.4780     5.4990    -0.3800 C.ar  1 <1>   0.0000 
 16 C       -3.3800     5.1860    -1.8400 C.ar  1 <1>  -0.1500 
 17 O        0.3890     5.7300     1.0540 O.3   1 <1>  -0.3620 
 18 C       -6.5410     0.4480     1.8490 C.3   1 <1>   0.0400 
 19 C       -3.5240    -3.9700     0.4360 C.2   1 <1>  -0.0400 
 20 C       -1.5330     6.8760    -0.6820 C.ar  1 <1>  -0.1500 
 21 C       -3.4160     6.5260    -2.1200 C.ar  1 <1>  -0.1500 
 22 C        1.4040     5.2400     1.9040 C.3   1 <1>   0.0400 
 23 O       -3.7510    -5.1170     1.0200 O.3   1 <1>  -0.0190 
 24 C       -2.4890    -4.1390    -0.4030 C.2   1 <1>  -0.1500 
 25 C       -2.4800     7.3810    -1.5320 C.ar  1 <1>  -0.1500 
 26 N       -2.9240    -6.0400     0.6210 N.2   1 <1>  -0.4100 
 27 C       -2.1510    -5.4790    -0.2360 C.2   1 <1>   0.1080 
 28 C       -1.0280    -6.1860    -0.9600 C.3   1 <1>  -0.0590 
 29 H       -4.3420     1.7650     0.6490 H     1 <1>   0.0800 
 30 H       -4.1370     1.2130    -1.0070 H     1 <1>   0.0800 
 31 H       -1.7910    -1.4110     0.1390 H     1 <1>   0.0800 
 32 H       -2.5550    -1.0570     1.6820 H     1 <1>   0.0800 
 33 H        0.1090     3.0740     1.3390 H     1 <1>   0.1500 
 34 H       -5.7780    -0.3650    -0.3740 H     1 <1>   0.0800 
 35 H       -3.8700    -1.6530    -0.9520 H     1 <1>   0.0800 
 36 H       -5.4160    -3.0160     0.5010 H     1 <1>   0.0800 
 37 H       -4.3950    -2.6560     1.8590 H     1 <1>   0.0800 
 38 H       -4.0910     4.5150    -2.2860 H     1 <1>   0.1500 
 39 H       -6.7800     0.3730     2.8950 H     1 <1>   0.0800 
 40 H       -7.3500     0.0470     1.2650 H     1 <1>   0.0800 
 41 H       -6.3610     1.4780     1.5950 H     1 <1>   0.0800 
 42 H       -0.8100     7.5310    -0.2280 H     1 <1>   0.1500 
 43 H       -4.1550     6.9330    -2.7880 H     1 <1>   0.1500 
 44 H        2.0120     6.0720     2.2130 H     1 <1>   0.0800 
 45 H        2.0040     4.5320     1.3590 H     1 <1>   0.0800 
 46 H        0.9500     4.7800     2.7630 H     1 <1>   0.0800 
 47 H       -2.0040    -3.4440    -1.0630 H     1 <1>   0.1500 
 48 H       -2.5140     8.4330    -1.7570 H     1 <1>   0.1500 
 49 H       -1.1860    -6.1320    -2.0210 H     1 <1>   0.0800 
 50 H       -0.9940    -7.2190    -0.6650 H     1 <1>   0.0800 
 51 H       -0.0890    -5.7230    -0.7170 H     1 <1>   0.0800 
@<TRIPOS>BOND
  1   1   2  2   
  2   2   3  am  
  3   2   4  1   
  4   3   5  1   
  5   3   6  1   
  6   4   7  ar  
  7   4   8  ar  
  8   5   9  1   
  9   5  29  1   
 10   5  30  1   
 11   6  10  1   
 12   6  31  1   
 13   6  32  1   
 14   7  11  ar  
 15   8  12  ar  
 16   8  33  1   
 17   9  10  1   
 18   9  13  1   
 19   9  34  1   
 20  10  14  1   
 21  10  35  1   
 22  11  15  ar  
 23  11  16  ar  
 24  12  15  ar  
 25  12  17  1   
 26  13  18  1   
 27  14  19  1   
 28  14  36  1   
 29  14  37  1   
 30  15  20  ar  
 31  16  21  ar  
 32  16  38  1   
 33  17  22  1   
 34  18  39  1   
 35  18  40  1   
 36  18  41  1   
 37  19  23  1   
 38  19  24  2   
 39  20  25  ar  
 40  20  42  1   
 41  21  25  ar  
 42  21  43  1   
 43  22  44  1   
 44  22  45  1   
 45  22  46  1   
 46  23  26  1   
 47  24  27  1   
 48  24  47  1   
 49  25  48  1   
 50  26  27  2   
 51  27  28  1   
 52  28  49  1   
 53  28  50  1   
 54  28  51  1   
@<TRIPOS>SUBSTRUCTURE
  1 ****   3 GROUP 4 **** **** 0

# MOE 2024.06 (io_trps.svl 2023.06)
