@<TRIPOS>MOLECULE
NONAME
40 41 1 0 0 
SMALL
USER_CHARGES


@<TRIPOS>ATOM
  1 S        0.4950    -0.0260     0.5550 S.o2  1 <1>   1.3330 
  2 O        0.3310     0.5780     1.8580 O.2   1 <1>  -0.6500 
  3 O        0.6470    -1.4600     0.4480 O.2   1 <1>  -0.6500 
  4 N       -0.8300     0.4230    -0.4070 N.am  1 <1>  -0.8490 
  5 C        1.8790     0.7680    -0.2580 C.3   1 <1>  -0.0550 
  6 C       -2.0870     0.4160     0.3460 C.3   1 <1>   0.1160 
  7 C       -0.9700    -0.3840    -1.6230 C.3   1 <1>   0.1160 
  8 C        3.2020     0.6350     0.5160 C.3   1 <1>  -0.0800 
  9 C        4.3690     1.2510    -0.2280 C.3   1 <1>   0.2200 
 10 C        3.6860    -0.7960     0.7210 C.3   1 <1>   0.1200 
 11 N        4.4620     2.7000     0.0460 N.am  1 <1>  -0.7300 
 12 C        5.5710     0.4580     0.2810 C.3   1 <1>   0.1200 
 13 O        5.0690    -0.7060     0.8710 O.3   1 <1>  -0.5600 
 14 C        3.9600     3.6970    -0.7470 C.2   1 <1>   0.5440 
 15 O        3.3840     3.3670    -1.7710 O.2   1 <1>  -0.5700 
 16 C        4.1020     5.1030    -0.3580 C.ar  1 <1>   0.3960 
 17 N        4.7420     5.3970     0.7900 N.ar  1 <1>  -0.6200 
 18 C        3.5760     6.1090    -1.1720 C.ar  1 <1>  -0.1500 
 19 C        4.8470     6.6740     1.1080 C.ar  1 <1>   0.1600 
 20 C        3.6930     7.4380    -0.8280 C.ar  1 <1>  -0.1500 
 21 C        4.3490     7.7180     0.3490 C.ar  1 <1>  -0.1500 
 22 H        1.9990     0.3580    -1.2410 H     1 <1>   0.0800 
 23 H        1.6570     1.8120    -0.3700 H     1 <1>   0.0800 
 24 H       -2.9030     0.7240    -0.2860 H     1 <1>   0.0800 
 25 H       -2.0250     1.1050     1.1720 H     1 <1>   0.0800 
 26 H       -2.2880    -0.5690     0.7320 H     1 <1>   0.0800 
 27 H       -1.7720     0.0000    -2.2310 H     1 <1>   0.0800 
 28 H       -1.1810    -1.4110    -1.3730 H     1 <1>   0.0800 
 29 H       -0.0620    -0.3480    -2.2000 H     1 <1>   0.0800 
 30 H        3.1030     1.0900     1.4870 H     1 <1>   0.0800 
 31 H        4.2740     1.0820    -1.2880 H     1 <1>   0.0800 
 32 H        3.4870    -1.4090    -0.1420 H     1 <1>   0.0800 
 33 H        3.2640    -1.2540     1.5990 H     1 <1>   0.0800 
 34 H        4.8750     2.9870     0.9400 H     1 <1>   0.3700 
 35 H        6.1130     0.9990     1.0370 H     1 <1>   0.0800 
 36 H        6.2280     0.1800    -0.5230 H     1 <1>   0.0800 
 37 H        3.0710     5.8370    -2.0820 H     1 <1>   0.1500 
 38 H        5.3600     6.9090     2.0260 H     1 <1>   0.1500 
 39 H        3.2890     8.2190    -1.4490 H     1 <1>   0.1500 
 40 H        4.4760     8.7340     0.6770 H     1 <1>   0.1500 
@<TRIPOS>BOND
  1   1   2  2   
  2   1   3  2   
  3   1   4  am  
  4   1   5  1   
  5   4   6  1   
  6   4   7  1   
  7   5   8  1   
  8   5  22  1   
  9   5  23  1   
 10   6  24  1   
 11   6  25  1   
 12   6  26  1   
 13   7  27  1   
 14   7  28  1   
 15   7  29  1   
 16   8   9  1   
 17   8  10  1   
 18   8  30  1   
 19   9  11  1   
 20   9  12  1   
 21   9  31  1   
 22  10  13  1   
 23  10  32  1   
 24  10  33  1   
 25  11  14  am  
 26  11  34  1   
 27  12  13  1   
 28  12  35  1   
 29  12  36  1   
 30  14  15  2   
 31  14  16  1   
 32  16  17  ar  
 33  16  18  ar  
 34  17  19  ar  
 35  18  20  ar  
 36  18  37  1   
 37  19  21  ar  
 38  19  38  1   
 39  20  21  ar  
 40  20  39  1   
 41  21  40  1   
@<TRIPOS>SUBSTRUCTURE
  1 ****  11 GROUP 4 **** **** 0

# MOE 2024.06 (io_trps.svl 2023.06)
