@<TRIPOS>MOLECULE
NONAME
35 37 1 0 0 
SMALL
USER_CHARGES


@<TRIPOS>ATOM
  1 O       -2.9660     1.1920    -1.6730 O.2   1 <1>  -0.5700 
  2 C       -2.4970     1.1870    -0.5490 C.2   1 <1>   0.7160 
  3 N       -2.2090    -0.0270     0.0080 N.am  1 <1>  -0.7300 
  4 C       -2.2550     2.4040     0.2070 C.2   1 <1>   0.1410 
  5 C       -2.4700    -1.3360    -0.6290 C.3   1 <1>   0.2200 
  6 N       -2.6650     3.6320    -0.1880 N.2   1 <1>  -0.2270 
  7 C       -1.6140     2.5580     1.3930 C.2   1 <1>  -0.3020 
  8 C       -3.8400    -1.8340    -0.1970 C.3   1 <1>  -0.0800 
  9 C       -1.5550    -2.3880    -0.0150 C.3   1 <1>   0.1200 
 10 N       -2.3070     4.4980     0.6900 N.2   1 <1>  -0.4180 
 11 N       -1.6620     3.8580     1.6630 N.pl3 1 <1>   0.3000 
 12 C       -3.5390    -2.5510     1.1270 C.3   1 <1>   0.1200 
 13 C       -4.4550    -2.7750    -1.2480 C.3   1 <1>  -0.0160 
 14 O       -2.1530    -2.7310     1.1960 O.3   1 <1>  -0.5600 
 15 C       -5.8450    -3.2320    -0.8330 C.ar  1 <1>  -0.1440 
 16 C       -6.9310    -2.3830    -0.8940 C.ar  1 <1>  -0.1500 
 17 C       -6.0970    -4.5110    -0.3780 C.ar  1 <1>  -0.1500 
 18 C       -8.1790    -2.8370    -0.5010 C.ar  1 <1>   0.1600 
 19 C       -7.3840    -4.8650    -0.0090 C.ar  1 <1>   0.1600 
 20 N       -8.4310    -4.0580    -0.0570 N.ar  1 <1>  -0.6200 
 21 H       -1.9480    -0.0850     0.9930 H     1 <1>   0.3700 
 22 H       -2.3550    -1.2640    -1.6980 H     1 <1>   0.0800 
 23 H       -1.1420     1.8350     2.0300 H     1 <1>   0.1500 
 24 H       -4.5170    -1.0120    -0.0400 H     1 <1>   0.0800 
 25 H       -0.5580    -2.0250     0.1600 H     1 <1>   0.0800 
 26 H       -1.5210    -3.2720    -0.6280 H     1 <1>   0.0800 
 27 H       -1.2760     4.3490     2.4770 H     1 <1>   0.2700 
 28 H       -4.0140    -3.5140     1.1970 H     1 <1>   0.0800 
 29 H       -3.8340    -1.9480     1.9680 H     1 <1>   0.0800 
 30 H       -3.8220    -3.6320    -1.4010 H     1 <1>   0.0800 
 31 H       -4.5330    -2.2560    -2.1880 H     1 <1>   0.0800 
 32 H       -6.8190    -1.3720    -1.2430 H     1 <1>   0.1500 
 33 H       -5.3070    -5.2360    -0.3040 H     1 <1>   0.1500 
 34 H       -9.0140    -2.1590    -0.5540 H     1 <1>   0.1500 
 35 H       -7.5620    -5.8660     0.3450 H     1 <1>   0.1500 
@<TRIPOS>BOND
  1   1   2  2   
  2   2   3  am  
  3   2   4  1   
  4   3   5  1   
  5   3  21  1   
  6   4   6  1   
  7   4   7  2   
  8   5   8  1   
  9   5   9  1   
 10   5  22  1   
 11   6  10  2   
 12   7  11  1   
 13   7  23  1   
 14   8  12  1   
 15   8  13  1   
 16   8  24  1   
 17   9  14  1   
 18   9  25  1   
 19   9  26  1   
 20  10  11  1   
 21  11  27  1   
 22  12  14  1   
 23  12  28  1   
 24  12  29  1   
 25  13  15  1   
 26  13  30  1   
 27  13  31  1   
 28  15  16  ar  
 29  15  17  ar  
 30  16  18  ar  
 31  16  32  1   
 32  17  19  ar  
 33  17  33  1   
 34  18  20  ar  
 35  18  34  1   
 36  19  20  ar  
 37  19  35  1   
@<TRIPOS>SUBSTRUCTURE
  1 ****   8 GROUP 4 **** **** 0

# MOE 2024.06 (io_trps.svl 2023.06)
