@<TRIPOS>MOLECULE
NONAME
48 51 1 0 0 
SMALL
USER_CHARGES


@<TRIPOS>ATOM
  1 S        0.5840    -1.1420    -0.8120 S.o2  1 <1>   1.5010 
  2 O        1.4380    -2.3020    -0.9740 O.2   1 <1>  -0.6500 
  3 O       -0.3190    -0.8260    -1.9010 O.2   1 <1>  -0.6500 
  4 N       -0.3830    -1.4640     0.5520 N.am  1 <1>  -0.8490 
  5 C        1.6250     0.3040    -0.3450 C.2   1 <1>   0.1640 
  6 C       -1.0110    -2.8020     0.5180 C.3   1 <1>   0.1960 
  7 C       -1.4220    -0.4430     0.8230 C.3   1 <1>   0.1960 
  8 N        1.1520     1.5670    -0.1250 N.2   1 <1>  -0.5650 
  9 C        2.9700     0.3080    -0.1480 C.2   1 <1>  -0.3020 
 10 C       -2.2630    -2.8700    -0.3870 C.3   1 <1>   0.3430 
 11 C       -2.7080    -0.5920    -0.0320 C.3   1 <1>   0.2950 
 12 C        2.1920     2.2700     0.1810 C.2   1 <1>   0.0060 
 13 N        3.3340     1.5570     0.1850 N.pl3 1 <1>   0.0330 
 14 O       -3.1900    -1.9030     0.0280 O.3   1 <1>  -0.5600 
 15 C       -2.8990    -4.2550    -0.3090 C.ar  1 <1>  -0.1440 
 16 C       -3.8230     0.3250     0.4810 C.3   1 <1>  -0.1950 
 17 C        2.1460     3.7520     0.5080 C.3   1 <1>   0.0200 
 18 C       -2.5250    -5.2290    -1.2240 C.ar  1 <1>  -0.1500 
 19 C       -3.8340    -4.5720     0.6670 C.ar  1 <1>  -0.1500 
 20 C       -4.9420     0.7570    -0.4140 C.3   1 <1>  -0.2000 
 21 C       -3.9080     1.7520     0.0350 C.3   1 <1>  -0.2000 
 22 C        2.8500     4.5840    -0.5690 C.3   1 <1>  -0.2400 
 23 C       -3.0740    -6.4980    -1.1650 C.ar  1 <1>  -0.1500 
 24 C       -4.3840    -5.8400     0.7280 C.ar  1 <1>  -0.1500 
 25 C       -4.0040    -6.8050    -0.1880 C.ar  1 <1>  -0.1500 
 26 H       -0.2990    -3.5440     0.1980 H     1 <1>   0.0800 
 27 H       -1.3100    -3.0700     1.5160 H     1 <1>   0.0800 
 28 H       -1.7050    -0.5200     1.8580 H     1 <1>   0.0800 
 29 H       -1.0240     0.5460     0.6840 H     1 <1>   0.0800 
 30 H        3.6620    -0.5110    -0.2310 H     1 <1>   0.1500 
 31 H       -2.0010    -2.6630    -1.4100 H     1 <1>   0.0800 
 32 H       -2.5120    -0.3550    -1.0620 H     1 <1>   0.0800 
 33 H        4.2750     1.9040     0.3940 H     1 <1>   0.2700 
 34 H       -4.0720     0.1200     1.5070 H     1 <1>   0.1000 
 35 H        1.1170     4.0610     0.5750 H     1 <1>   0.0800 
 36 H        2.6040     3.9230     1.4650 H     1 <1>   0.0800 
 37 H       -1.8020    -5.0050    -1.9900 H     1 <1>   0.1500 
 38 H       -4.1400    -3.8260     1.3810 H     1 <1>   0.1500 
 39 H       -4.9390     0.4240    -1.4380 H     1 <1>   0.1000 
 40 H       -5.9340     0.8080    -0.0010 H     1 <1>   0.1000 
 41 H       -4.1940     2.5040     0.7500 H     1 <1>   0.1000 
 42 H       -3.2070     2.1220    -0.6930 H     1 <1>   0.1000 
 43 H        2.3910     4.4070    -1.5260 H     1 <1>   0.0800 
 44 H        3.8910     4.3260    -0.6310 H     1 <1>   0.0800 
 45 H        2.7670     5.6310    -0.3370 H     1 <1>   0.0800 
 46 H       -2.7780    -7.2470    -1.8790 H     1 <1>   0.1500 
 47 H       -5.1100    -6.0740     1.4870 H     1 <1>   0.1500 
 48 H       -4.4320    -7.7910    -0.1410 H     1 <1>   0.1500 
@<TRIPOS>BOND
  1   1   2  2   
  2   1   3  2   
  3   1   4  am  
  4   1   5  1   
  5   4   6  1   
  6   4   7  1   
  7   5   8  1   
  8   5   9  2   
  9   6  10  1   
 10   6  26  1   
 11   6  27  1   
 12   7  11  1   
 13   7  28  1   
 14   7  29  1   
 15   8  12  2   
 16   9  13  1   
 17   9  30  1   
 18  10  14  1   
 19  10  15  1   
 20  10  31  1   
 21  11  14  1   
 22  11  16  1   
 23  11  32  1   
 24  12  13  1   
 25  12  17  1   
 26  13  33  1   
 27  15  18  ar  
 28  15  19  ar  
 29  16  20  1   
 30  16  21  1   
 31  16  34  1   
 32  17  22  1   
 33  17  35  1   
 34  17  36  1   
 35  18  23  ar  
 36  18  37  1   
 37  19  24  ar  
 38  19  38  1   
 39  20  21  1   
 40  20  39  1   
 41  20  40  1   
 42  21  41  1   
 43  21  42  1   
 44  22  43  1   
 45  22  44  1   
 46  22  45  1   
 47  23  25  ar  
 48  23  46  1   
 49  24  25  ar  
 50  24  47  1   
 51  25  48  1   
@<TRIPOS>SUBSTRUCTURE
  1 ****   4 GROUP 4 **** **** 0

# MOE 2024.06 (io_trps.svl 2023.06)
