@<TRIPOS>MOLECULE
NONAME
31 32 1 0 0 
SMALL
USER_CHARGES


@<TRIPOS>ATOM
  1 F        8.0520     3.0260     2.3780 F     1 <1>  -0.1900 
  2 C        7.6510     2.5610     1.2270 C.ar  1 <1>   0.1900 
  3 C        6.7950     1.4770     1.2160 C.ar  1 <1>  -0.1500 
  4 C        8.0960     3.1690     0.0730 C.ar  1 <1>  -0.1500 
  5 C        6.3470     0.9620    -0.0010 C.ar  1 <1>  -0.1430 
  6 C        7.6620     2.6640    -1.1380 C.ar  1 <1>  -0.1500 
  7 C        6.8010     1.5770    -1.1720 C.ar  1 <1>  -0.1500 
  8 C        5.3800    -0.2320    -0.0850 C.3   1 <1>   0.6470 
  9 N        4.1730     0.2730    -0.7150 N.4   1 <1>  -0.8530 
 10 C        5.9490    -1.3630    -0.9640 C.3   1 <1>  -0.1600 
 11 C        4.9600    -0.8110     1.2810 C.3   1 <1>  -0.1600 
 12 C        5.0230    -2.5880    -1.0850 C.3   1 <1>  -0.1600 
 13 C        4.0170    -2.0270     1.1840 C.3   1 <1>  -0.1600 
 14 C        4.6200    -3.1210     0.2950 C.3   1 <1>  -0.1600 
 15 H        6.5120     1.0750     2.1720 H     1 <1>   0.1500 
 16 H        8.7640     4.0110     0.1260 H     1 <1>   0.1500 
 17 H        8.0010     3.1200    -2.0550 H     1 <1>   0.1500 
 18 H        6.5060     1.2250    -2.1450 H     1 <1>   0.1500 
 19 H        4.3980     0.6340    -1.6420 H     1 <1>   0.4500 
 20 H        3.7980     1.0320    -0.1430 H     1 <1>   0.4500 
 21 H        3.4980    -0.4900    -0.7820 H     1 <1>   0.4500 
 22 H        6.8770    -1.6860    -0.5230 H     1 <1>   0.0800 
 23 H        6.1880    -1.0060    -1.9490 H     1 <1>   0.0800 
 24 H        4.4990    -0.0520     1.8880 H     1 <1>   0.0800 
 25 H        5.8490    -1.1340     1.7970 H     1 <1>   0.0800 
 26 H        5.5380    -3.3690    -1.6220 H     1 <1>   0.0800 
 27 H        4.1410    -2.3470    -1.6530 H     1 <1>   0.0800 
 28 H        3.0520    -1.7380     0.8040 H     1 <1>   0.0800 
 29 H        3.8570    -2.4300     2.1710 H     1 <1>   0.0800 
 30 H        5.4900    -3.5310     0.7820 H     1 <1>   0.0800 
 31 H        3.9120    -3.9260     0.1810 H     1 <1>   0.0800 
@<TRIPOS>BOND
  1   1   2  1   
  2   2   3  ar  
  3   2   4  ar  
  4   3   5  ar  
  5   3  15  1   
  6   4   6  ar  
  7   4  16  1   
  8   5   7  ar  
  9   5   8  1   
 10   6   7  ar  
 11   6  17  1   
 12   7  18  1   
 13   8   9  1   
 14   8  10  1   
 15   8  11  1   
 16   9  19  1   
 17   9  20  1   
 18   9  21  1   
 19  10  12  1   
 20  10  22  1   
 21  10  23  1   
 22  11  13  1   
 23  11  24  1   
 24  11  25  1   
 25  12  14  1   
 26  12  26  1   
 27  12  27  1   
 28  13  14  1   
 29  13  28  1   
 30  13  29  1   
 31  14  30  1   
 32  14  31  1   
@<TRIPOS>SUBSTRUCTURE
  1 ****   5 GROUP 4 **** **** 0

# MOE 2024.06 (io_trps.svl 2023.06)
