@<TRIPOS>MOLECULE
NONAME
48 49 1 0 0 
SMALL
USER_CHARGES


@<TRIPOS>ATOM
  1 S        0.7580     1.8040    -0.4550 S.o2  1 <1>   1.3330 
  2 O       -0.1630     2.5930    -1.2380 O.2   1 <1>  -0.6500 
  3 O        1.9620     2.4330     0.0410 O.2   1 <1>  -0.6500 
  4 N        1.1600     0.3920    -1.2970 N.am  1 <1>  -0.8490 
  5 C       -0.1240     1.2070     0.9920 C.3   1 <1>  -0.0550 
  6 C        2.4040     0.5300    -2.0640 C.3   1 <1>   0.1160 
  7 C        0.0890    -0.0930    -2.1750 C.3   1 <1>   0.1160 
  8 C       -0.5600     2.2840     2.0210 C.3   1 <1>  -0.0800 
  9 C       -1.4930     3.3490     1.4300 C.3   1 <1>   0.2000 
 10 C        0.6090     3.0970     2.5890 C.3   1 <1>   0.3430 
 11 O       -2.3900     3.7360     2.4190 O.3   1 <1>  -0.6800 
 12 C       -0.6000     4.5430     1.0590 C.3   1 <1>   0.3430 
 13 N        0.7160     4.3010     1.7300 N.4   1 <1>  -0.9590 
 14 C        1.3290     5.5170     2.3450 C.3   1 <1>   0.4860 
 15 C        1.6410     6.5460     1.2610 C.ar  1 <1>   0.1670 
 16 N        2.1500     6.0670     0.1340 N.ar  1 <1>  -0.6200 
 17 C        1.3770     7.8890     1.4840 C.ar  1 <1>  -0.1500 
 18 C        2.4100     6.9640    -0.8050 C.ar  1 <1>   0.1600 
 19 C        1.6510     8.8070     0.4940 C.ar  1 <1>  -0.1500 
 20 C        2.1820     8.3260    -0.6840 C.ar  1 <1>  -0.1440 
 21 C        2.5180     9.2720    -1.8270 C.3   1 <1>  -0.0170 
 22 C        3.9850     9.6990    -1.7560 C.3   1 <1>  -0.2400 
 23 H       -0.9990     0.6790     0.6640 H     1 <1>   0.0800 
 24 H        0.5000     0.4910     1.4930 H     1 <1>   0.0800 
 25 H        2.6410    -0.3950    -2.5610 H     1 <1>   0.0800 
 26 H        3.2210     0.7740    -1.4060 H     1 <1>   0.0800 
 27 H        2.3070     1.3120    -2.8000 H     1 <1>   0.0800 
 28 H        0.3700    -1.0340    -2.6170 H     1 <1>   0.0800 
 29 H       -0.1060     0.6180    -2.9620 H     1 <1>   0.0800 
 30 H       -0.8170    -0.2420    -1.6130 H     1 <1>   0.0800 
 31 H       -1.0530     1.7590     2.8220 H     1 <1>   0.0800 
 32 H       -2.0700     3.0010     0.5880 H     1 <1>   0.0800 
 33 H        1.5290     2.5320     2.5850 H     1 <1>   0.0800 
 34 H        0.3790     3.3920     3.6000 H     1 <1>   0.0800 
 35 H       -1.9560     4.0260     3.2440 H     1 <1>   0.4000 
 36 H       -1.0540     5.4650     1.3820 H     1 <1>   0.0800 
 37 H       -0.4540     4.5820    -0.0090 H     1 <1>   0.0800 
 38 H        1.3830     4.0780     0.9530 H     1 <1>   0.4500 
 39 H        0.6660     5.9430     3.0780 H     1 <1>   0.0800 
 40 H        2.2540     5.2480     2.8270 H     1 <1>   0.0800 
 41 H        0.9630     8.2280     2.4170 H     1 <1>   0.1500 
 42 H        2.8300     6.5930    -1.7260 H     1 <1>   0.1500 
 43 H        1.4610     9.8580     0.6370 H     1 <1>   0.1500 
 44 H        2.3290     8.7850    -2.7690 H     1 <1>   0.0800 
 45 H        1.8870    10.1430    -1.7790 H     1 <1>   0.0800 
 46 H        4.6300     8.8410    -1.8270 H     1 <1>   0.0800 
 47 H        4.1810    10.2020    -0.8250 H     1 <1>   0.0800 
 48 H        4.2140    10.3700    -2.5640 H     1 <1>   0.0800 
@<TRIPOS>BOND
  1   1   2  2   
  2   1   3  2   
  3   1   4  am  
  4   1   5  1   
  5   4   6  1   
  6   4   7  1   
  7   5   8  1   
  8   5  23  1   
  9   5  24  1   
 10   6  25  1   
 11   6  26  1   
 12   6  27  1   
 13   7  28  1   
 14   7  29  1   
 15   7  30  1   
 16   8   9  1   
 17   8  10  1   
 18   8  31  1   
 19   9  11  1   
 20   9  12  1   
 21   9  32  1   
 22  10  13  1   
 23  10  33  1   
 24  10  34  1   
 25  11  35  1   
 26  12  13  1   
 27  12  36  1   
 28  12  37  1   
 29  13  14  1   
 30  13  38  1   
 31  14  15  1   
 32  14  39  1   
 33  14  40  1   
 34  15  16  ar  
 35  15  17  ar  
 36  16  18  ar  
 37  17  19  ar  
 38  17  41  1   
 39  18  20  ar  
 40  18  42  1   
 41  19  20  ar  
 42  19  43  1   
 43  20  21  1   
 44  21  22  1   
 45  21  44  1   
 46  21  45  1   
 47  22  46  1   
 48  22  47  1   
 49  22  48  1   
@<TRIPOS>SUBSTRUCTURE
  1 ****  13 GROUP 4 **** **** 0

# MOE 2024.06 (io_trps.svl 2023.06)
