@<TRIPOS>MOLECULE
NONAME
49 51 1 0 0 
SMALL
USER_CHARGES


@<TRIPOS>ATOM
  1 O       -0.5760     2.2080     1.2490 O.2   1 <1>  -0.5700 
  2 C        0.5450     1.7800     1.1790 C.2   1 <1>   0.5690 
  3 N        0.8890     0.6550     1.8230 N.am  1 <1>  -0.8000 
  4 C        1.5660     2.5220     0.3530 C.3   1 <1>  -0.0990 
  5 C        1.1510     3.9890     0.2630 C.3   1 <1>   0.3430 
  6 N        2.1500     4.8240    -0.4700 N.4   1 <1>  -0.9590 
  7 C        2.0120     6.2600    -0.0760 C.3   1 <1>   0.3430 
  8 C        2.1270     4.6400    -1.9560 C.3   1 <1>   0.3430 
  9 C        3.3650     6.9760     0.1360 C.3   1 <1>   0.0000 
 10 C        3.1700     3.5920    -2.4070 C.3   1 <1>   0.1200 
 11 C        4.2430     6.2360     1.1780 C.3   1 <1>  -0.1600 
 12 C        4.1720     7.1240    -1.1790 C.3   1 <1>  -0.1600 
 13 C        3.0660     8.3950     0.6780 C.3   1 <1>  -0.1600 
 14 O        4.1880     3.4670    -1.4540 O.3   1 <1>  -0.6800 
 15 C        5.5520     7.0070     1.4310 C.3   1 <1>  -0.0800 
 16 C        5.4800     7.8970    -0.9310 C.3   1 <1>  -0.0800 
 17 C        4.3670     9.1760     0.9330 C.3   1 <1>  -0.0800 
 18 C        6.3280     7.1370     0.1070 C.3   1 <1>  -0.1600 
 19 C        5.2200     8.4130     1.9620 C.3   1 <1>  -0.1600 
 20 C        5.1490     9.2980    -0.3860 C.3   1 <1>  -0.1600 
 21 H        0.1800     0.1580     2.3690 H     1 <1>   0.3700 
 22 H        1.8120     0.2190     1.8010 H     1 <1>   0.3700 
 23 H        1.5890     2.0700    -0.6180 H     1 <1>   0.0800 
 24 H        2.5300     2.4380     0.8200 H     1 <1>   0.0800 
 25 H        1.0450     4.3620     1.2690 H     1 <1>   0.0800 
 26 H        0.1850     4.0620    -0.2110 H     1 <1>   0.0800 
 27 H        3.1050     4.5160    -0.2060 H     1 <1>   0.4500 
 28 H        1.4720     6.3180     0.8550 H     1 <1>   0.0800 
 29 H        1.4360     6.7920    -0.8140 H     1 <1>   0.0800 
 30 H        2.3770     5.5730    -2.4330 H     1 <1>   0.0800 
 31 H        1.1430     4.3600    -2.2950 H     1 <1>   0.0800 
 32 H        3.6090     3.8900    -3.3440 H     1 <1>   0.0800 
 33 H        2.7080     2.6290    -2.5370 H     1 <1>   0.0800 
 34 H        4.4960     5.2490     0.8340 H     1 <1>   0.0800 
 35 H        3.7090     6.1340     2.1070 H     1 <1>   0.0800 
 36 H        3.5880     7.6460    -1.9170 H     1 <1>   0.0800 
 37 H        4.4280     6.1610    -1.5770 H     1 <1>   0.0800 
 38 H        2.5120     8.3320     1.5990 H     1 <1>   0.0800 
 39 H        2.4630     8.9420    -0.0270 H     1 <1>   0.0800 
 40 H        4.9190     2.9040    -1.7950 H     1 <1>   0.4000 
 41 H        6.1540     6.4810     2.1530 H     1 <1>   0.0800 
 42 H        6.0330     7.9890    -1.8510 H     1 <1>   0.0800 
 43 H        4.1370    10.1590     1.3100 H     1 <1>   0.0800 
 44 H        6.5790     6.1610    -0.2680 H     1 <1>   0.0800 
 45 H        7.2500     7.6650     0.2780 H     1 <1>   0.0800 
 46 H        6.1310     8.9540     2.1510 H     1 <1>   0.0800 
 47 H        4.6890     8.3370     2.8950 H     1 <1>   0.0800 
 48 H        4.5700     9.8460    -1.1080 H     1 <1>   0.0800 
 49 H        6.0600     9.8470    -0.2180 H     1 <1>   0.0800 
@<TRIPOS>BOND
  1   1   2  2   
  2   2   3  am  
  3   2   4  1   
  4   3  21  1   
  5   3  22  1   
  6   4   5  1   
  7   4  23  1   
  8   4  24  1   
  9   5   6  1   
 10   5  25  1   
 11   5  26  1   
 12   6   7  1   
 13   6   8  1   
 14   6  27  1   
 15   7   9  1   
 16   7  28  1   
 17   7  29  1   
 18   8  10  1   
 19   8  30  1   
 20   8  31  1   
 21   9  11  1   
 22   9  12  1   
 23   9  13  1   
 24  10  14  1   
 25  10  32  1   
 26  10  33  1   
 27  11  15  1   
 28  11  34  1   
 29  11  35  1   
 30  12  16  1   
 31  12  36  1   
 32  12  37  1   
 33  13  17  1   
 34  13  38  1   
 35  13  39  1   
 36  14  40  1   
 37  15  18  1   
 38  15  19  1   
 39  15  41  1   
 40  16  18  1   
 41  16  20  1   
 42  16  42  1   
 43  17  19  1   
 44  17  20  1   
 45  17  43  1   
 46  18  44  1   
 47  18  45  1   
 48  19  46  1   
 49  19  47  1   
 50  20  48  1   
 51  20  49  1   
@<TRIPOS>SUBSTRUCTURE
  1 ****   7 GROUP 4 **** **** 0

# MOE 2024.06 (io_trps.svl 2023.06)
