@<TRIPOS>MOLECULE
NONAME
42 43 1 0 0 
SMALL
USER_CHARGES


@<TRIPOS>ATOM
  1 S        0.0870    -0.1130     1.0860 S.o2  1 <1>   1.3330 
  2 O       -0.8510    -1.1720     1.3820 O.2   1 <1>  -0.6500 
  3 O        1.0650     0.2720     2.0780 O.2   1 <1>  -0.6500 
  4 N        0.9190    -0.5440    -0.3320 N.am  1 <1>  -0.8490 
  5 C       -0.8200     1.3560     0.5990 C.3   1 <1>  -0.0550 
  6 C        0.1040    -1.3280    -1.2660 C.3   1 <1>   0.1160 
  7 C        2.1680    -1.2570    -0.0450 C.3   1 <1>   0.1160 
  8 C        0.0560     2.4840     0.0110 C.3   1 <1>  -0.0800 
  9 C       -0.7400     3.6680    -0.5420 C.3   1 <1>   0.2000 
 10 C        1.0340     3.1200     1.0090 C.3   1 <1>   0.1400 
 11 O       -1.7380     4.0060     0.3600 O.3   1 <1>  -0.6800 
 12 C        0.2740     4.8080    -0.5760 C.3   1 <1>   0.1400 
 13 N        1.1790     4.5340     0.5700 N.am  1 <1>  -0.6600 
 14 C        2.2810     5.2960     0.8800 C.2   1 <1>   0.7150 
 15 O        3.1630     4.7940     1.5540 O.2   1 <1>  -0.5700 
 16 C        2.4150     6.6490     0.4040 C.2   1 <1>  -0.2370 
 17 N        3.5870     7.1690    -0.0900 N.pl3 1 <1>   0.0480 
 18 C        1.4730     7.6480     0.3540 C.2   1 <1>  -0.1500 
 19 C        3.3610     8.4550    -0.4510 C.2   1 <1>  -0.3020 
 20 C        4.8830     6.4730    -0.2050 C.3   1 <1>   0.0160 
 21 C        2.0690     8.7810    -0.1910 C.2   1 <1>  -0.1500 
 22 H       -1.5520     1.0790    -0.1340 H     1 <1>   0.0800 
 23 H       -1.3540     1.7260     1.4530 H     1 <1>   0.0800 
 24 H        0.6470    -1.4960    -2.1810 H     1 <1>   0.0800 
 25 H       -0.8040    -0.8000    -1.5020 H     1 <1>   0.0800 
 26 H       -0.1550    -2.2810    -0.8330 H     1 <1>   0.0800 
 27 H        2.6750    -1.5080    -0.9610 H     1 <1>   0.0800 
 28 H        1.9650    -2.1590     0.5080 H     1 <1>   0.0800 
 29 H        2.8230    -0.6330     0.5400 H     1 <1>   0.0800 
 30 H        0.6400     2.0830    -0.7990 H     1 <1>   0.0800 
 31 H       -1.1930     3.4750    -1.4990 H     1 <1>   0.0800 
 32 H        1.9840     2.6110     1.0020 H     1 <1>   0.0800 
 33 H        0.6360     3.1030     2.0090 H     1 <1>   0.0800 
 34 H       -1.3190     4.3720     1.1670 H     1 <1>   0.4000 
 35 H       -0.2110     5.7630    -0.4950 H     1 <1>   0.0800 
 36 H        0.8450     4.7700    -1.4880 H     1 <1>   0.0800 
 37 H        0.4510     7.5930     0.6830 H     1 <1>   0.1500 
 38 H        4.1280     9.0820    -0.8720 H     1 <1>   0.1500 
 39 H        5.5730     7.0800    -0.7600 H     1 <1>   0.0800 
 40 H        4.7410     5.5350    -0.7090 H     1 <1>   0.0800 
 41 H        5.2730     6.2930     0.7800 H     1 <1>   0.0800 
 42 H        1.5820     9.7270    -0.3590 H     1 <1>   0.1500 
@<TRIPOS>BOND
  1   1   2  2   
  2   1   3  2   
  3   1   4  am  
  4   1   5  1   
  5   4   6  1   
  6   4   7  1   
  7   5   8  1   
  8   5  22  1   
  9   5  23  1   
 10   6  24  1   
 11   6  25  1   
 12   6  26  1   
 13   7  27  1   
 14   7  28  1   
 15   7  29  1   
 16   8   9  1   
 17   8  10  1   
 18   8  30  1   
 19   9  11  1   
 20   9  12  1   
 21   9  31  1   
 22  10  13  1   
 23  10  32  1   
 24  10  33  1   
 25  11  34  1   
 26  12  13  1   
 27  12  35  1   
 28  12  36  1   
 29  13  14  am  
 30  14  15  2   
 31  14  16  1   
 32  16  17  1   
 33  16  18  2   
 34  17  19  1   
 35  17  20  1   
 36  18  21  1   
 37  18  37  1   
 38  19  21  2   
 39  19  38  1   
 40  20  39  1   
 41  20  40  1   
 42  20  41  1   
 43  21  42  1   
@<TRIPOS>SUBSTRUCTURE
  1 ****  10 GROUP 4 **** **** 0

# MOE 2024.06 (io_trps.svl 2023.06)
