@<TRIPOS>MOLECULE
NONAME
37 38 1 0 0 
SMALL
USER_CHARGES


@<TRIPOS>ATOM
  1 S        0.0200    -0.0640     0.1670 S.3   1 <1>  -0.0800 
  2 C       -1.4040    -0.7860    -0.5050 C.2   1 <1>   0.4420 
  3 C       -0.4360     1.4110    -0.6210 C.2   1 <1>   0.1980 
  4 N       -2.0690     0.0390    -1.2280 N.2   1 <1>  -0.3380 
  5 N       -1.6210    -2.1110    -0.1910 N.am  1 <1>  -0.4940 
  6 N       -1.5130     1.2870    -1.2890 N.2   1 <1>  -0.3380 
  7 C        0.4760     2.6280    -0.4520 C.3   1 <1>   0.3800 
  8 C       -2.6540    -2.9430    -0.5430 C.2   1 <1>   0.6160 
  9 O        0.8690     2.7280     0.8890 O.3   1 <1>  -0.5600 
 10 C       -0.2180     3.9370    -0.8460 C.3   1 <1>  -0.2400 
 11 O       -3.6010    -2.5120    -1.1630 O.2   1 <1>  -0.5700 
 12 C       -2.6120    -4.3390    -0.1470 C.2   1 <1>   0.0140 
 13 C        2.0950     3.3510     1.1200 C.3   1 <1>   0.0400 
 14 C       -1.4560    -5.0190     0.1340 C.2   1 <1>  -0.1360 
 15 C       -3.8250    -5.0820    -0.0360 C.2   1 <1>  -0.1500 
 16 C       -1.4460    -6.3770     0.5370 C.2   1 <1>   0.6160 
 17 C       -3.8290    -6.3860     0.3420 C.2   1 <1>  -0.0410 
 18 O       -0.3890    -6.9390     0.7990 O.2   1 <1>  -0.5700 
 19 N       -2.6530    -7.0460     0.6360 N.am  1 <1>  -0.4690 
 20 C       -2.6940    -8.4740     1.0420 C.3   1 <1>   0.1400 
 21 C       -2.6500    -9.3620    -0.2000 C.3   1 <1>  -0.2400 
 22 H       -0.9280    -2.5120     0.4310 H     1 <1>   0.3700 
 23 H        1.3530     2.4740    -1.0580 H     1 <1>   0.0800 
 24 H       -1.0730     4.1000    -0.2150 H     1 <1>   0.0800 
 25 H       -0.5570     3.8730    -1.8640 H     1 <1>   0.0800 
 26 H        0.4530     4.7710    -0.7680 H     1 <1>   0.0800 
 27 H        2.2780     3.3410     2.1800 H     1 <1>   0.0800 
 28 H        2.0570     4.3690     0.7750 H     1 <1>   0.0800 
 29 H        2.8740     2.8070     0.6150 H     1 <1>   0.0800 
 30 H       -0.4870    -4.5670     0.0550 H     1 <1>   0.1500 
 31 H       -4.7490    -4.5750    -0.2670 H     1 <1>   0.1500 
 32 H       -4.7470    -6.9460     0.4210 H     1 <1>   0.1500 
 33 H       -3.5960    -8.6630     1.5970 H     1 <1>   0.0800 
 34 H       -1.8580    -8.6980     1.6830 H     1 <1>   0.0800 
 35 H       -3.4890    -9.1570    -0.8410 H     1 <1>   0.0800 
 36 H       -2.6850   -10.3960     0.0920 H     1 <1>   0.0800 
 37 H       -1.7360    -9.1930    -0.7420 H     1 <1>   0.0800 
@<TRIPOS>BOND
  1   1   2  1   
  2   1   3  1   
  3   2   4  2   
  4   2   5  1   
  5   3   6  2   
  6   3   7  1   
  7   4   6  1   
  8   5   8  am  
  9   5  22  1   
 10   7   9  1   
 11   7  10  1   
 12   7  23  1   
 13   8  11  2   
 14   8  12  1   
 15   9  13  1   
 16  10  24  1   
 17  10  25  1   
 18  10  26  1   
 19  12  14  2   
 20  12  15  1   
 21  13  27  1   
 22  13  28  1   
 23  13  29  1   
 24  14  16  1   
 25  14  30  1   
 26  15  17  2   
 27  15  31  1   
 28  16  18  2   
 29  16  19  am  
 30  17  19  1   
 31  17  32  1   
 32  19  20  1   
 33  20  21  1   
 34  20  33  1   
 35  20  34  1   
 36  21  35  1   
 37  21  36  1   
 38  21  37  1   
@<TRIPOS>SUBSTRUCTURE
  1 ****   5 GROUP 4 **** **** 0

# MOE 2024.06 (io_trps.svl 2023.06)
