@<TRIPOS>MOLECULE
NONAME
44 45 1 0 0 
SMALL
USER_CHARGES


@<TRIPOS>ATOM
  1 S        0.2620    -0.0810    -1.0270 S.o2  1 <1>   1.3330 
  2 O        1.5250    -0.5810    -1.5230 O.2   1 <1>  -0.6500 
  3 O       -0.8330     0.1230    -1.9480 O.2   1 <1>  -0.6500 
  4 N       -0.2950    -1.1590     0.1640 N.am  1 <1>  -0.8490 
  5 C        0.5480     1.4440    -0.1130 C.3   1 <1>  -0.0550 
  6 C        0.0250    -2.5540    -0.1570 C.3   1 <1>   0.1160 
  7 C       -1.7300    -1.0330     0.4410 C.3   1 <1>   0.1160 
  8 C        1.8550     1.5650     0.7040 C.3   1 <1>  -0.0800 
  9 C        3.1130     1.6190    -0.1660 C.3   1 <1>   0.2200 
 10 C        2.1530     0.4500     1.7150 C.3   1 <1>   0.1200 
 11 N        3.8140     2.9010     0.0700 N.am  1 <1>  -0.7300 
 12 C        3.9490     0.4560     0.3620 C.3   1 <1>   0.1200 
 13 O        3.5320     0.2850     1.6780 O.3   1 <1>  -0.5600 
 14 C        3.5300     4.0700    -0.5730 C.2   1 <1>   0.5440 
 15 O        2.6120     4.0840    -1.3680 O.2   1 <1>  -0.5700 
 16 C        4.2710     5.2810    -0.2700 C.ar  1 <1>   0.0860 
 17 C        5.6730     5.3720    -0.3360 C.ar  1 <1>  -0.1440 
 18 C        3.5610     6.4190     0.1100 C.ar  1 <1>  -0.1500 
 19 C        6.3250     6.5520    -0.0020 C.ar  1 <1>  -0.1500 
 20 C        6.5230     4.1900    -0.7910 C.3   1 <1>  -0.0970 
 21 C        4.2330     7.5780     0.4320 C.ar  1 <1>   0.1900 
 22 C        5.6080     7.6690     0.3890 C.ar  1 <1>  -0.1500 
 23 F        3.5450     8.6270     0.7930 F     1 <1>  -0.1900 
 24 H        0.5450     2.2550    -0.8180 H     1 <1>   0.0800 
 25 H       -0.2820     1.6090     0.5450 H     1 <1>   0.0800 
 26 H       -0.3340    -3.2090     0.6190 H     1 <1>   0.0800 
 27 H        1.0920    -2.6800    -0.2340 H     1 <1>   0.0800 
 28 H       -0.4250    -2.8350    -1.0950 H     1 <1>   0.0800 
 29 H       -2.0050    -1.6670     1.2670 H     1 <1>   0.0800 
 30 H       -2.3080    -1.3150    -0.4240 H     1 <1>   0.0800 
 31 H       -1.9730    -0.0160     0.6990 H     1 <1>   0.0800 
 32 H        1.7790     2.4800     1.2650 H     1 <1>   0.0800 
 33 H        2.9150     1.5040    -1.2190 H     1 <1>   0.0800 
 34 H        1.7160    -0.4920     1.4440 H     1 <1>   0.0800 
 35 H        1.8590     0.7130     2.7160 H     1 <1>   0.0800 
 36 H        4.4290     2.9070     0.8860 H     1 <1>   0.3700 
 37 H        5.0060     0.6490     0.3350 H     1 <1>   0.0800 
 38 H        3.7270    -0.4500    -0.1760 H     1 <1>   0.0800 
 39 H        2.4870     6.3930     0.1520 H     1 <1>   0.1500 
 40 H        7.4000     6.6130    -0.0480 H     1 <1>   0.1500 
 41 H        7.5070     4.5130    -1.0800 H     1 <1>   0.0800 
 42 H        6.0720     3.7090    -1.6410 H     1 <1>   0.0800 
 43 H        6.6200     3.4740     0.0050 H     1 <1>   0.0800 
 44 H        6.0990     8.5890     0.6490 H     1 <1>   0.1500 
@<TRIPOS>BOND
  1   1   2  2   
  2   1   3  2   
  3   1   4  am  
  4   1   5  1   
  5   4   6  1   
  6   4   7  1   
  7   5   8  1   
  8   5  24  1   
  9   5  25  1   
 10   6  26  1   
 11   6  27  1   
 12   6  28  1   
 13   7  29  1   
 14   7  30  1   
 15   7  31  1   
 16   8   9  1   
 17   8  10  1   
 18   8  32  1   
 19   9  11  1   
 20   9  12  1   
 21   9  33  1   
 22  10  13  1   
 23  10  34  1   
 24  10  35  1   
 25  11  14  am  
 26  11  36  1   
 27  12  13  1   
 28  12  37  1   
 29  12  38  1   
 30  14  15  2   
 31  14  16  1   
 32  16  17  ar  
 33  16  18  ar  
 34  17  19  ar  
 35  17  20  1   
 36  18  21  ar  
 37  18  39  1   
 38  19  22  ar  
 39  19  40  1   
 40  20  41  1   
 41  20  42  1   
 42  20  43  1   
 43  21  22  ar  
 44  21  23  1   
 45  22  44  1   
@<TRIPOS>SUBSTRUCTURE
  1 ****  11 GROUP 4 **** **** 0

# MOE 2024.06 (io_trps.svl 2023.06)
