@<TRIPOS>MOLECULE
NONAME
59 61 1 0 0 
SMALL
USER_CHARGES


@<TRIPOS>ATOM
  1 S       -0.4660    -0.0500    -1.3050 S.o2  1 <1>   1.5760 
  2 O       -1.3970     0.7610    -2.0560 O.2   1 <1>  -0.6500 
  3 O        0.7180    -0.5860    -1.9410 O.2   1 <1>  -0.6500 
  4 N        0.0500     0.8530     0.0320 N.am  1 <1>  -0.8490 
  5 N       -1.3370    -1.2960    -0.5770 N.am  1 <1>  -0.8490 
  6 C        0.4640     2.1940    -0.3930 C.3   1 <1>   0.1960 
  7 C        1.1150     0.1910     0.7880 C.3   1 <1>   0.1960 
  8 C       -0.9670    -2.6780    -0.9020 C.3   1 <1>   0.2760 
  9 C       -2.2750    -0.9130     0.4830 C.3   1 <1>   0.3390 
 10 C        0.7930     3.0690     0.8220 C.3   1 <1>  -0.1600 
 11 C        1.4670     0.9950     2.0440 C.3   1 <1>  -0.1600 
 12 C       -2.1730    -3.6310    -0.9180 C.3   1 <1>  -0.1600 
 13 C        0.1210    -3.2020     0.0470 C.3   1 <1>  -0.1600 
 14 C       -3.7320    -1.2150     0.1400 C.ar  1 <1>  -0.1430 
 15 C        1.8760     2.4290     1.6950 C.3   1 <1>  -0.1600 
 16 C       -1.7580    -5.0590    -1.2950 C.3   1 <1>  -0.1600 
 17 C        0.5260    -4.6460    -0.2910 C.3   1 <1>  -0.1600 
 18 C       -4.5210    -1.9360     1.0260 C.ar  1 <1>  -0.1500 
 19 C       -4.2910    -0.7680    -1.0460 C.ar  1 <1>  -0.1500 
 20 C       -0.6870    -5.5840    -0.3310 C.3   1 <1>  -0.1600 
 21 C       -5.8520    -2.2280     0.7370 C.ar  1 <1>   0.0830 
 22 C       -5.6150    -1.0380    -1.3410 C.ar  1 <1>  -0.1500 
 23 O       -6.6070    -2.9780     1.5930 O.3   1 <1>  -0.3630 
 24 C       -6.4090    -1.7540    -0.4610 C.ar  1 <1>   0.0830 
 25 C       -6.0080    -3.8700     2.5070 C.3   1 <1>   0.0400 
 26 O       -7.6980    -1.9420    -0.8630 O.3   1 <1>  -0.3630 
 27 C       -8.7510    -1.9400     0.0750 C.3   1 <1>   0.0400 
 28 H       -0.3340     2.6660    -0.9430 H     1 <1>   0.0800 
 29 H        1.3220     2.1230    -1.0410 H     1 <1>   0.0800 
 30 H        1.9900     0.0700     0.1700 H     1 <1>   0.0800 
 31 H        0.7780    -0.7800     1.1000 H     1 <1>   0.0800 
 32 H       -0.5610    -2.6890    -1.9010 H     1 <1>   0.0800 
 33 H       -2.2130     0.1430     0.6760 H     1 <1>   0.0800 
 34 H       -1.9960    -1.4190     1.3890 H     1 <1>   0.0800 
 35 H       -0.1050     3.2110     1.3980 H     1 <1>   0.0800 
 36 H        1.1230     4.0360     0.4850 H     1 <1>   0.0800 
 37 H        2.2700     0.5060     2.5660 H     1 <1>   0.0800 
 38 H        0.6110     1.0100     2.6960 H     1 <1>   0.0800 
 39 H       -2.9000    -3.2760    -1.6260 H     1 <1>   0.0800 
 40 H       -2.6230    -3.6670     0.0560 H     1 <1>   0.0800 
 41 H       -0.2350    -3.1610     1.0610 H     1 <1>   0.0800 
 42 H        0.9980    -2.5910    -0.0450 H     1 <1>   0.0800 
 43 H        2.0140     3.0040     2.5940 H     1 <1>   0.0800 
 44 H        2.8090     2.4150     1.1570 H     1 <1>   0.0800 
 45 H       -1.3740    -5.0680    -2.3010 H     1 <1>   0.0800 
 46 H       -2.6200    -5.7040    -1.2650 H     1 <1>   0.0800 
 47 H        1.2340    -5.0030     0.4380 H     1 <1>   0.0800 
 48 H        1.0120    -4.6590    -1.2520 H     1 <1>   0.0800 
 49 H       -4.0820    -2.2680     1.9460 H     1 <1>   0.1500 
 50 H       -3.6980    -0.2090    -1.7490 H     1 <1>   0.1500 
 51 H       -0.3740    -6.5660    -0.6400 H     1 <1>   0.0800 
 52 H       -1.1070    -5.6680     0.6580 H     1 <1>   0.0800 
 53 H       -6.0410    -0.6880    -2.2630 H     1 <1>   0.1500 
 54 H       -6.7810    -4.4940     2.9190 H     1 <1>   0.0800 
 55 H       -5.5410    -3.3050     3.2930 H     1 <1>   0.0800 
 56 H       -5.2890    -4.4760     1.9850 H     1 <1>   0.0800 
 57 H       -9.6620    -1.7100    -0.4460 H     1 <1>   0.0800 
 58 H       -8.5550    -1.1950     0.8250 H     1 <1>   0.0800 
 59 H       -8.8230    -2.9170     0.5170 H     1 <1>   0.0800 
@<TRIPOS>BOND
  1   1   2  2   
  2   1   3  2   
  3   1   4  am  
  4   1   5  am  
  5   4   6  1   
  6   4   7  1   
  7   5   8  1   
  8   5   9  1   
  9   6  10  1   
 10   6  28  1   
 11   6  29  1   
 12   7  11  1   
 13   7  30  1   
 14   7  31  1   
 15   8  12  1   
 16   8  13  1   
 17   8  32  1   
 18   9  14  1   
 19   9  33  1   
 20   9  34  1   
 21  10  15  1   
 22  10  35  1   
 23  10  36  1   
 24  11  15  1   
 25  11  37  1   
 26  11  38  1   
 27  12  16  1   
 28  12  39  1   
 29  12  40  1   
 30  13  17  1   
 31  13  41  1   
 32  13  42  1   
 33  14  18  ar  
 34  14  19  ar  
 35  15  43  1   
 36  15  44  1   
 37  16  20  1   
 38  16  45  1   
 39  16  46  1   
 40  17  20  1   
 41  17  47  1   
 42  17  48  1   
 43  18  21  ar  
 44  18  49  1   
 45  19  22  ar  
 46  19  50  1   
 47  20  51  1   
 48  20  52  1   
 49  21  23  1   
 50  21  24  ar  
 51  22  24  ar  
 52  22  53  1   
 53  23  25  1   
 54  24  26  1   
 55  25  54  1   
 56  25  55  1   
 57  25  56  1   
 58  26  27  1   
 59  27  57  1   
 60  27  58  1   
 61  27  59  1   
@<TRIPOS>SUBSTRUCTURE
  1 ****   9 GROUP 4 **** **** 0

# MOE 2024.06 (io_trps.svl 2023.06)
