@<TRIPOS>MOLECULE
NONAME
46 47 1 0 0 
SMALL
USER_CHARGES


@<TRIPOS>ATOM
  1 S       -1.0910     0.9320     0.2550 S.o2  1 <1>   1.2040 
  2 O       -0.5830     1.9490     1.1550 O.2   1 <1>  -0.6500 
  3 O       -2.5020     0.6240     0.2540 O.2   1 <1>  -0.6500 
  4 C       -0.1510    -0.5980     0.4930 C.ar  1 <1>  -0.0090 
  5 C       -0.6570     1.3950    -1.4210 C.3   1 <1>  -0.0550 
  6 C        1.1120    -0.5800     1.0820 C.ar  1 <1>  -0.1500 
  7 C       -0.6640    -1.8210     0.0640 C.ar  1 <1>  -0.1500 
  8 C        0.8290     1.6970    -1.6120 C.3   1 <1>   0.1400 
  9 C        1.8510    -1.7420     1.2360 C.ar  1 <1>  -0.1500 
 10 C        0.0600    -2.9940     0.2090 C.ar  1 <1>  -0.1500 
 11 N        1.2190     2.8570    -0.7820 N.am  1 <1>  -0.7300 
 12 C        1.3090    -2.9310     0.7930 C.ar  1 <1>   0.1900 
 13 C        1.8840     3.9540    -1.2240 C.2   1 <1>   0.5690 
 14 F        1.9980    -4.0300     0.9310 F     1 <1>  -0.1900 
 15 O        2.2640     4.0450    -2.3660 O.2   1 <1>  -0.5700 
 16 C        2.1180     5.0980    -0.2390 C.3   1 <1>  -0.0190 
 17 C        1.2900     6.3410    -0.6130 C.3   1 <1>  -0.1600 
 18 C        3.6180     5.4560    -0.1000 C.3   1 <1>  -0.1600 
 19 C        1.3740     7.4370     0.4700 C.3   1 <1>   0.2000 
 20 C        3.8650     6.8670     0.4730 C.3   1 <1>  -0.1600 
 21 O        1.3060     8.6920    -0.1610 O.3   1 <1>  -0.5600 
 22 C        2.6780     7.3560     1.3080 C.3   1 <1>   0.2000 
 23 C        0.0290     9.0940    -0.5490 C.3   1 <1>   0.0400 
 24 O        2.9830     8.6100     1.7930 O.3   1 <1>  -0.6800 
 25 H       -0.9310     0.6020    -2.0880 H     1 <1>   0.0800 
 26 H       -1.2190     2.2620    -1.7110 H     1 <1>   0.0800 
 27 H        1.5250     0.3540     1.4290 H     1 <1>   0.1500 
 28 H       -1.6440    -1.8600    -0.3830 H     1 <1>   0.1500 
 29 H        1.0180     1.9180    -2.6500 H     1 <1>   0.0800 
 30 H        1.4310     0.8470    -1.3410 H     1 <1>   0.0800 
 31 H        2.8260    -1.7310     1.6900 H     1 <1>   0.1500 
 32 H       -0.3340    -3.9400    -0.1190 H     1 <1>   0.1500 
 33 H        0.8530     2.8540     0.1830 H     1 <1>   0.3700 
 34 H        1.7740     4.7640     0.7250 H     1 <1>   0.0800 
 35 H        0.2620     6.0590    -0.7540 H     1 <1>   0.0800 
 36 H        1.6670     6.7250    -1.5470 H     1 <1>   0.0800 
 37 H        4.0880     4.7220     0.5320 H     1 <1>   0.0800 
 38 H        4.0970     5.3990    -1.0630 H     1 <1>   0.0800 
 39 H        0.5440     7.3480     1.1510 H     1 <1>   0.0800 
 40 H        4.0090     7.5520    -0.3450 H     1 <1>   0.0800 
 41 H        4.7590     6.8640     1.0710 H     1 <1>   0.0800 
 42 H        2.5420     6.7020     2.1520 H     1 <1>   0.0800 
 43 H        0.1080    10.0690    -0.9960 H     1 <1>   0.0800 
 44 H       -0.6070     9.1430     0.3170 H     1 <1>   0.0800 
 45 H       -0.3640     8.4000    -1.2710 H     1 <1>   0.0800 
 46 H        2.6490     9.2430     1.1160 H     1 <1>   0.4000 
@<TRIPOS>BOND
  1   1   2  2   
  2   1   3  2   
  3   1   4  1   
  4   1   5  1   
  5   4   6  ar  
  6   4   7  ar  
  7   5   8  1   
  8   5  25  1   
  9   5  26  1   
 10   6   9  ar  
 11   6  27  1   
 12   7  10  ar  
 13   7  28  1   
 14   8  11  1   
 15   8  29  1   
 16   8  30  1   
 17   9  12  ar  
 18   9  31  1   
 19  10  12  ar  
 20  10  32  1   
 21  11  13  am  
 22  11  33  1   
 23  12  14  1   
 24  13  15  2   
 25  13  16  1   
 26  16  17  1   
 27  16  18  1   
 28  16  34  1   
 29  17  19  1   
 30  17  35  1   
 31  17  36  1   
 32  18  20  1   
 33  18  37  1   
 34  18  38  1   
 35  19  21  1   
 36  19  22  1   
 37  19  39  1   
 38  20  22  1   
 39  20  40  1   
 40  20  41  1   
 41  21  23  1   
 42  22  24  1   
 43  22  42  1   
 44  23  43  1   
 45  23  44  1   
 46  23  45  1   
 47  24  46  1   
@<TRIPOS>SUBSTRUCTURE
  1 ****  11 GROUP 4 **** **** 0

# MOE 2024.06 (io_trps.svl 2023.06)
