@<TRIPOS>MOLECULE
NONAME
40 42 1 0 0 
SMALL
USER_CHARGES


@<TRIPOS>ATOM
  1 O        1.1740     0.1570    -1.0510 O.3   1 <1>  -0.6800 
  2 C        1.5250    -0.0120     0.2750 C.3   1 <1>   0.2800 
  3 C        3.0750     0.0400     0.4420 C.3   1 <1>  -0.0800 
  4 C        0.9890    -1.3950     0.6930 C.3   1 <1>  -0.1600 
  5 C        0.8050     1.0960     1.0740 C.3   1 <1>  -0.1600 
  6 C        3.7700    -1.3300     0.4960 C.3   1 <1>  -0.0800 
  7 C        3.8490     0.8080    -0.6370 C.3   1 <1>   0.2090 
  8 C        1.6230    -2.5640    -0.0920 C.3   1 <1>  -0.1600 
  9 C        1.1790     2.5400     0.6920 C.3   1 <1>  -0.2400 
 10 C        3.0980    -2.3220    -0.4660 C.3   1 <1>  -0.1600 
 11 C        5.2280    -1.0370     0.1330 C.3   1 <1>   0.2090 
 12 N        5.2160     0.2310    -0.6410 N.pl3 1 <1>  -0.8380 
 13 C        6.3180     1.0710    -0.6840 C.ar  1 <1>   0.4100 
 14 N        7.2930     0.8620     0.1950 N.ar  1 <1>  -0.6200 
 15 C        6.3680     2.0890    -1.6360 C.ar  1 <1>  -0.1500 
 16 C        8.3240     1.6870     0.1300 C.ar  1 <1>   0.1600 
 17 C        7.4460     2.9410    -1.6930 C.ar  1 <1>  -0.1500 
 18 C        8.4510     2.7260    -0.7740 C.ar  1 <1>  -0.1500 
 19 H        0.2130     0.0340    -1.1470 H     1 <1>   0.4000 
 20 H        3.2950     0.5180     1.3790 H     1 <1>   0.0800 
 21 H        1.2120    -1.5330     1.7360 H     1 <1>   0.0800 
 22 H       -0.0810    -1.4320     0.5960 H     1 <1>   0.0800 
 23 H       -0.2580     0.9760     0.9570 H     1 <1>   0.0800 
 24 H        1.0180     0.9600     2.1200 H     1 <1>   0.0800 
 25 H        3.7320    -1.7380     1.4910 H     1 <1>   0.0800 
 26 H        3.8710     1.8610    -0.4230 H     1 <1>   0.0800 
 27 H        3.4290     0.6540    -1.6150 H     1 <1>   0.0800 
 28 H        1.5450    -3.4590     0.5010 H     1 <1>   0.0800 
 29 H        1.0680    -2.7300    -1.0000 H     1 <1>   0.0800 
 30 H        1.0210     2.7100    -0.3580 H     1 <1>   0.0800 
 31 H        2.2080     2.7440     0.9270 H     1 <1>   0.0800 
 32 H        0.5680     3.2330     1.2430 H     1 <1>   0.0800 
 33 H        3.1440    -1.9170    -1.4640 H     1 <1>   0.0800 
 34 H        3.6290    -3.2580    -0.4720 H     1 <1>   0.0800 
 35 H        5.6640    -1.8270    -0.4530 H     1 <1>   0.0800 
 36 H        5.7990    -0.9130     1.0370 H     1 <1>   0.0800 
 37 H        5.5560     2.1900    -2.3280 H     1 <1>   0.1500 
 38 H        9.1150     1.5240     0.8410 H     1 <1>   0.1500 
 39 H        7.5030     3.7330    -2.4180 H     1 <1>   0.1500 
 40 H        9.3230     3.3530    -0.7600 H     1 <1>   0.1500 
@<TRIPOS>BOND
  1   1   2  1   
  2   1  19  1   
  3   2   3  1   
  4   2   4  1   
  5   2   5  1   
  6   3   6  1   
  7   3   7  1   
  8   3  20  1   
  9   4   8  1   
 10   4  21  1   
 11   4  22  1   
 12   5   9  1   
 13   5  23  1   
 14   5  24  1   
 15   6  10  1   
 16   6  11  1   
 17   6  25  1   
 18   7  12  1   
 19   7  26  1   
 20   7  27  1   
 21   8  10  1   
 22   8  28  1   
 23   8  29  1   
 24   9  30  1   
 25   9  31  1   
 26   9  32  1   
 27  10  33  1   
 28  10  34  1   
 29  11  12  1   
 30  11  35  1   
 31  11  36  1   
 32  12  13  1   
 33  13  14  ar  
 34  13  15  ar  
 35  14  16  ar  
 36  15  17  ar  
 37  15  37  1   
 38  16  18  ar  
 39  16  38  1   
 40  17  18  ar  
 41  17  39  1   
 42  18  40  1   
@<TRIPOS>SUBSTRUCTURE
  1 ****   7 GROUP 4 **** **** 0

# MOE 2024.06 (io_trps.svl 2023.06)
