@<TRIPOS>MOLECULE
NONAME
39 41 1 0 0 
SMALL
USER_CHARGES


@<TRIPOS>ATOM
  1 O       -2.4830     0.8510    -2.2340 O.2   1 <1>  -0.5700 
  2 C       -2.1280     0.9410    -1.0840 C.2   1 <1>   0.5770 
  3 N       -2.0870    -0.1510    -0.2770 N.am  1 <1>  -0.7300 
  4 C       -1.7310     2.3090    -0.5400 C.3   1 <1>   0.0530 
  5 C       -2.4480    -1.5240    -0.6900 C.3   1 <1>   0.2200 
  6 C       -0.3910     2.3660     0.2450 C.3   1 <1>   0.0000 
  7 C       -2.4330     2.7360     0.7780 C.3   1 <1>   0.0000 
  8 C       -3.8130    -1.8710    -0.1220 C.3   1 <1>  -0.0800 
  9 C       -1.5500    -2.5240     0.0280 C.3   1 <1>   0.1200 
 10 C       -1.0840     3.3780     1.1940 C.3   1 <1>   0.0000 
 11 C       -3.4660    -2.3420     1.2960 C.3   1 <1>   0.1200 
 12 C       -4.5070    -2.9690    -0.9500 C.3   1 <1>  -0.0170 
 13 O       -2.1150    -2.7080     1.2910 O.3   1 <1>  -0.5600 
 14 C       -5.8860    -3.2960    -0.3970 C.ar  1 <1>  -0.1430 
 15 C       -6.1390    -4.4540     0.3110 C.ar  1 <1>  -0.1500 
 16 C       -6.9590    -2.4480    -0.5800 C.ar  1 <1>  -0.1500 
 17 C       -7.4140    -4.6960     0.7940 C.ar  1 <1>   0.1600 
 18 C       -8.1960    -2.7840    -0.0560 C.ar  1 <1>   0.1600 
 19 N       -8.4490    -3.8880     0.6290 N.ar  1 <1>  -0.6200 
 20 H       -1.8070    -0.0660     0.7020 H     1 <1>   0.3700 
 21 H       -1.7840     3.0870    -1.2830 H     1 <1>   0.0000 
 22 H       -2.3940    -1.6210    -1.7620 H     1 <1>   0.0800 
 23 H       -0.1380     1.4470     0.7450 H     1 <1>   0.0000 
 24 H        0.4230     2.7870    -0.3170 H     1 <1>   0.0000 
 25 H       -3.2270     3.4480     0.6360 H     1 <1>   0.0000 
 26 H       -2.7060     1.9110     1.4140 H     1 <1>   0.0000 
 27 H       -4.4530    -1.0060    -0.0940 H     1 <1>   0.0800 
 28 H       -0.5380    -2.1760     0.1290 H     1 <1>   0.0800 
 29 H       -1.5590    -3.4750    -0.4760 H     1 <1>   0.0800 
 30 H       -0.9870     4.3970     0.8580 H     1 <1>   0.0000 
 31 H       -0.8380     3.2410     2.2320 H     1 <1>   0.0000 
 32 H       -4.0540    -3.1820     1.6190 H     1 <1>   0.0800 
 33 H       -3.5800    -1.5370     2.0010 H     1 <1>   0.0800 
 34 H       -3.9050    -3.8610    -0.9680 H     1 <1>   0.0800 
 35 H       -4.6170    -2.6320    -1.9660 H     1 <1>   0.0800 
 36 H       -5.3580    -5.1690     0.4940 H     1 <1>   0.1500 
 37 H       -6.8450    -1.5280    -1.1250 H     1 <1>   0.1500 
 38 H       -7.5930    -5.6040     1.3450 H     1 <1>   0.1500 
 39 H       -9.0210    -2.1100    -0.2080 H     1 <1>   0.1500 
@<TRIPOS>BOND
  1   1   2  2   
  2   2   3  am  
  3   2   4  1   
  4   3   5  1   
  5   3  20  1   
  6   4   6  1   
  7   4   7  1   
  8   4  21  1   
  9   5   8  1   
 10   5   9  1   
 11   5  22  1   
 12   6  10  1   
 13   6  23  1   
 14   6  24  1   
 15   7  10  1   
 16   7  25  1   
 17   7  26  1   
 18   8  11  1   
 19   8  12  1   
 20   8  27  1   
 21   9  13  1   
 22   9  28  1   
 23   9  29  1   
 24  10  30  1   
 25  10  31  1   
 26  11  13  1   
 27  11  32  1   
 28  11  33  1   
 29  12  14  1   
 30  12  34  1   
 31  12  35  1   
 32  14  15  ar  
 33  14  16  ar  
 34  15  17  ar  
 35  15  36  1   
 36  16  18  ar  
 37  16  37  1   
 38  17  19  ar  
 39  17  38  1   
 40  18  19  ar  
 41  18  39  1   
@<TRIPOS>SUBSTRUCTURE
  1 ****   8 GROUP 4 **** **** 0

# MOE 2024.06 (io_trps.svl 2023.06)
