@<TRIPOS>MOLECULE
NONAME
50 51 1 0 0 
SMALL
USER_CHARGES


@<TRIPOS>ATOM
  1 O        0.9220     0.1270    -2.6270 O.2   1 <1>  -0.5700 
  2 C        1.2120    -0.7230    -1.8150 C.2   1 <1>   0.5690 
  3 N        1.7780    -0.4030    -0.6000 N.am  1 <1>  -0.6600 
  4 C        0.9160    -2.1680    -2.2010 C.3   1 <1>   0.0440 
  5 C        1.9290     1.0290    -0.1970 C.3   1 <1>   0.2200 
  6 C        2.1720    -1.4450     0.3980 C.3   1 <1>   0.0600 
  7 C       -0.1770    -2.7940    -1.3310 C.ar  1 <1>  -0.1440 
  8 C        3.4020     1.4380    -0.1510 C.3   1 <1>  -0.1600 
  9 C        1.2560     1.3180     1.1450 C.3   1 <1>  -0.1600 
 10 C        0.0380    -3.9510    -0.5820 C.ar  1 <1>   0.0820 
 11 C       -1.4190    -2.1800    -1.2940 C.ar  1 <1>  -0.1500 
 12 C        3.5720     2.8860     0.3420 C.3   1 <1>   0.2800 
 13 C        1.4790     2.7840     1.5200 C.3   1 <1>   0.1200 
 14 O        1.2660    -4.5330    -0.6400 O.3   1 <1>  -0.3630 
 15 C       -0.9940    -4.4670     0.1950 C.ar  1 <1>  -0.1500 
 16 C       -2.4430    -2.6960    -0.5200 C.ar  1 <1>  -0.1500 
 17 O        2.8490     3.0710     1.5230 O.3   1 <1>  -0.5600 
 18 C        3.1350     3.9310    -0.6960 C.3   1 <1>  -0.2400 
 19 C        5.0320     3.1410     0.7150 C.3   1 <1>  -0.2400 
 20 C        1.5210    -5.7810    -0.0310 C.3   1 <1>   0.0400 
 21 C       -2.2310    -3.8470     0.2310 C.ar  1 <1>   0.0820 
 22 O       -3.1760    -4.4180     1.0190 O.3   1 <1>  -0.3620 
 23 C       -4.4780    -3.8820     1.1050 C.3   1 <1>   0.0400 
 24 H        1.8310    -2.7250    -2.1700 H     1 <1>   0.0800 
 25 H        0.5820    -2.1850    -3.2220 H     1 <1>   0.0800 
 26 H        1.4430     1.6490    -0.9310 H     1 <1>   0.0800 
 27 H        2.6070    -2.2960    -0.0950 H     1 <1>   0.0800 
 28 H        1.3020    -1.7650     0.9460 H     1 <1>   0.0800 
 29 H        2.8970    -1.0610     1.0920 H     1 <1>   0.0800 
 30 H        3.8300     1.3380    -1.1310 H     1 <1>   0.0800 
 31 H        3.9380     0.7880     0.5150 H     1 <1>   0.0800 
 32 H        1.6670     0.7100     1.9290 H     1 <1>   0.0800 
 33 H        0.2020     1.1240     1.0700 H     1 <1>   0.0800 
 34 H       -1.5940    -1.2870    -1.8710 H     1 <1>   0.1500 
 35 H        1.1070     2.9750     2.5110 H     1 <1>   0.0800 
 36 H        0.9810     3.4460     0.8350 H     1 <1>   0.0800 
 37 H       -0.8700    -5.3510     0.7880 H     1 <1>   0.1500 
 38 H       -3.3890    -2.1910    -0.5170 H     1 <1>   0.1500 
 39 H        2.1290     3.7700    -1.0320 H     1 <1>   0.0800 
 40 H        3.7760     3.8770    -1.5570 H     1 <1>   0.0800 
 41 H        3.2120     4.9190    -0.2790 H     1 <1>   0.0800 
 42 H        5.3430     2.4610     1.4870 H     1 <1>   0.0800 
 43 H        5.1530     4.1480     1.0720 H     1 <1>   0.0800 
 44 H        5.6670     3.0020    -0.1400 H     1 <1>   0.0800 
 45 H        2.5310    -6.0660    -0.2630 H     1 <1>   0.0800 
 46 H        0.8350    -6.5090    -0.4280 H     1 <1>   0.0800 
 47 H        1.4040    -5.6810     1.0330 H     1 <1>   0.0800 
 48 H       -5.0500    -4.5000     1.7740 H     1 <1>   0.0800 
 49 H       -4.9250    -3.8910     0.1270 H     1 <1>   0.0800 
 50 H       -4.4190    -2.8810     1.4940 H     1 <1>   0.0800 
@<TRIPOS>BOND
  1   1   2  2   
  2   2   3  am  
  3   2   4  1   
  4   3   5  1   
  5   3   6  1   
  6   4   7  1   
  7   4  24  1   
  8   4  25  1   
  9   5   8  1   
 10   5   9  1   
 11   5  26  1   
 12   6  27  1   
 13   6  28  1   
 14   6  29  1   
 15   7  10  ar  
 16   7  11  ar  
 17   8  12  1   
 18   8  30  1   
 19   8  31  1   
 20   9  13  1   
 21   9  32  1   
 22   9  33  1   
 23  10  14  1   
 24  10  15  ar  
 25  11  16  ar  
 26  11  34  1   
 27  12  17  1   
 28  12  18  1   
 29  12  19  1   
 30  13  17  1   
 31  13  35  1   
 32  13  36  1   
 33  14  20  1   
 34  15  21  ar  
 35  15  37  1   
 36  16  21  ar  
 37  16  38  1   
 38  18  39  1   
 39  18  40  1   
 40  18  41  1   
 41  19  42  1   
 42  19  43  1   
 43  19  44  1   
 44  20  45  1   
 45  20  46  1   
 46  20  47  1   
 47  21  22  1   
 48  22  23  1   
 49  23  48  1   
 50  23  49  1   
 51  23  50  1   
@<TRIPOS>SUBSTRUCTURE
  1 ****   3 GROUP 4 **** **** 0

# MOE 2024.06 (io_trps.svl 2023.06)
