@<TRIPOS>MOLECULE
NONAME
50 53 1 0 0 
SMALL
USER_CHARGES


@<TRIPOS>ATOM
  1 O       -2.6960     0.0200    -2.4070 O.2   1 <1>  -0.5700 
  2 C       -2.4750    -0.6530    -1.4400 C.2   1 <1>   0.5690 
  3 N       -2.4110    -0.0870    -0.2150 N.am  1 <1>  -0.7300 
  4 C       -2.3910    -2.1550    -1.5850 C.3   1 <1>  -0.0190 
  5 C       -2.3000    -0.8350     1.0740 C.3   1 <1>   0.2200 
  6 C       -1.0820    -2.7140    -1.0120 C.3   1 <1>   0.1200 
  7 C       -3.6290    -2.8330    -0.9760 C.3   1 <1>   0.3430 
  8 C       -1.0140    -1.6790     1.1130 C.3   1 <1>   0.1200 
  9 C       -3.5380    -1.7470     1.3080 C.3   1 <1>   0.3430 
 10 O       -1.1760    -2.8540     0.3710 O.3   1 <1>  -0.5600 
 11 N       -4.3680    -2.0040     0.0610 N.4   1 <1>  -0.9590 
 12 C       -5.7430    -2.4760     0.3960 C.3   1 <1>   0.4230 
 13 C       -5.7670    -3.9440     0.8390 C.3   1 <1>  -0.1600 
 14 C       -6.6860    -2.2530    -0.7910 C.3   1 <1>  -0.1600 
 15 C       -7.1950    -4.3830     1.1650 C.3   1 <1>   0.3430 
 16 C       -8.1060    -2.7070    -0.4510 C.3   1 <1>   0.3430 
 17 N       -8.0820    -4.1280    -0.0080 N.4   1 <1>  -0.9590 
 18 C       -9.4590    -4.6510     0.2560 C.3   1 <1>   0.5230 
 19 C       -9.4930    -6.1150    -0.1380 C.2   1 <1>  -0.0400 
 20 O       -8.5990    -6.9410     0.3760 O.3   1 <1>  -0.2800 
 21 C      -10.3170    -6.7780    -0.9800 C.2   1 <1>  -0.1500 
 22 C       -8.8340    -8.1410    -0.1170 C.2   1 <1>  -0.0100 
 23 C       -9.8830    -8.1090    -0.9650 C.2   1 <1>  -0.1500 
 24 H       -2.3460     0.9380    -0.1880 H     1 <1>   0.3700 
 25 H       -2.3780    -2.3740    -2.6370 H     1 <1>   0.0800 
 26 H       -2.2370    -0.1190     1.8760 H     1 <1>   0.0800 
 27 H       -0.2370    -2.0920    -1.2610 H     1 <1>   0.0800 
 28 H       -0.9010    -3.6970    -1.4130 H     1 <1>   0.0800 
 29 H       -3.3300    -3.7740    -0.5440 H     1 <1>   0.0800 
 30 H       -4.3010    -3.0490    -1.7890 H     1 <1>   0.0800 
 31 H       -0.8110    -1.9800     2.1260 H     1 <1>   0.0800 
 32 H       -0.1610    -1.1290     0.7510 H     1 <1>   0.0800 
 33 H       -4.1550    -1.2660     2.0480 H     1 <1>   0.0800 
 34 H       -3.2080    -2.6830     1.7290 H     1 <1>   0.0800 
 35 H       -4.4570    -1.0640    -0.3640 H     1 <1>   0.4500 
 36 H       -6.1120    -1.8760     1.2150 H     1 <1>   0.0800 
 37 H       -5.3840    -4.5930     0.0730 H     1 <1>   0.0800 
 38 H       -5.1670    -4.0740     1.7220 H     1 <1>   0.0800 
 39 H       -6.7160    -1.2060    -1.0380 H     1 <1>   0.0800 
 40 H       -6.3560    -2.7930    -1.6600 H     1 <1>   0.0800 
 41 H       -7.5590    -3.8410     2.0240 H     1 <1>   0.0800 
 42 H       -7.1980    -5.4340     1.4120 H     1 <1>   0.0800 
 43 H       -8.7360    -2.6020    -1.3210 H     1 <1>   0.0800 
 44 H       -8.5110    -2.0860     0.3330 H     1 <1>   0.0800 
 45 H       -7.7550    -4.7300    -0.7800 H     1 <1>   0.4500 
 46 H       -9.7170    -4.5430     1.2970 H     1 <1>   0.0800 
 47 H      -10.1860    -4.1190    -0.3360 H     1 <1>   0.0800 
 48 H      -11.1480    -6.4160    -1.5630 H     1 <1>   0.1500 
 49 H       -8.2130    -8.9680     0.1870 H     1 <1>   0.1500 
 50 H      -10.3210    -8.9190    -1.5230 H     1 <1>   0.1500 
@<TRIPOS>BOND
  1   1   2  2   
  2   2   3  am  
  3   2   4  1   
  4   3   5  1   
  5   3  24  1   
  6   4   6  1   
  7   4   7  1   
  8   4  25  1   
  9   5   8  1   
 10   5   9  1   
 11   5  26  1   
 12   6  10  1   
 13   6  27  1   
 14   6  28  1   
 15   7  11  1   
 16   7  29  1   
 17   7  30  1   
 18   8  10  1   
 19   8  31  1   
 20   8  32  1   
 21   9  11  1   
 22   9  33  1   
 23   9  34  1   
 24  11  12  1   
 25  11  35  1   
 26  12  13  1   
 27  12  14  1   
 28  12  36  1   
 29  13  15  1   
 30  13  37  1   
 31  13  38  1   
 32  14  16  1   
 33  14  39  1   
 34  14  40  1   
 35  15  17  1   
 36  15  41  1   
 37  15  42  1   
 38  16  17  1   
 39  16  43  1   
 40  16  44  1   
 41  17  18  1   
 42  17  45  1   
 43  18  19  1   
 44  18  46  1   
 45  18  47  1   
 46  19  20  1   
 47  19  21  2   
 48  20  22  1   
 49  21  23  1   
 50  21  48  1   
 51  22  23  2   
 52  22  49  1   
 53  23  50  1   
@<TRIPOS>SUBSTRUCTURE
  1 ****  12 GROUP 4 **** **** 0

# MOE 2024.06 (io_trps.svl 2023.06)
