@<TRIPOS>MOLECULE
NONAME
46 48 1 0 0 
SMALL
USER_CHARGES


@<TRIPOS>ATOM
  1 O        2.4110    -0.5410    -1.6000 O.2   1 <1>  -0.5700 
  2 C        2.3090    -0.7610    -0.4180 C.2   1 <1>   0.5690 
  3 N        2.4300     0.2260     0.5210 N.am  1 <1>  -0.4940 
  4 C        2.0460    -2.1790     0.0780 C.3   1 <1>  -0.0190 
  5 C        2.3740     1.6160     0.2990 C.2   1 <1>  -0.0880 
  6 C        1.7980    -3.2380    -1.0230 C.3   1 <1>  -0.0220 
  7 C        0.8460    -2.2850     1.0490 C.3   1 <1>  -0.0220 
  8 N        3.4190     2.4790     0.1260 N.pl3 1 <1>   0.3140 
  9 C        1.2260     2.3490     0.2560 C.2   1 <1>  -0.0540 
 10 C        0.7930    -4.1590    -0.3770 C.2   1 <1>  -0.2880 
 11 C        0.2800    -3.6460     0.7340 C.2   1 <1>  -0.2880 
 12 N        2.9530     3.7550    -0.0020 N.2   1 <1>  -0.7070 
 13 C        4.9080     2.1720     0.1110 C.3   1 <1>   0.2560 
 14 C       -0.1380     1.9040     0.3770 C.ar  1 <1>   0.0540 
 15 C        1.6660     3.6570     0.0680 C.2   1 <1>   0.1390 
 16 C        5.7420     3.4620    -0.0430 C.3   1 <1>  -0.2400 
 17 C        5.3290     1.5010     1.4310 C.3   1 <1>  -0.2400 
 18 C        5.2540     1.2530    -1.0730 C.3   1 <1>  -0.2400 
 19 C       -0.9620     2.3770     1.3940 C.ar  1 <1>  -0.1500 
 20 C       -0.6680     0.9780    -0.5170 C.ar  1 <1>  -0.1500 
 21 C       -2.2650     1.9330     1.5220 C.ar  1 <1>  -0.1500 
 22 C       -1.9690     0.5270    -0.3930 C.ar  1 <1>  -0.1500 
 23 C       -2.7710     1.0050     0.6290 C.ar  1 <1>  -0.1500 
 24 H        2.2470    -0.0610     1.4820 H     1 <1>   0.3700 
 25 H        2.9200    -2.4970     0.6170 H     1 <1>   0.0800 
 26 H        2.7080    -3.7520    -1.2770 H     1 <1>   0.0800 
 27 H        1.3640    -2.8080    -1.9100 H     1 <1>   0.0800 
 28 H        0.1020    -1.5340     0.8470 H     1 <1>   0.0800 
 29 H        1.1650    -2.2220     2.0740 H     1 <1>   0.0800 
 30 H        0.5710    -5.1010    -0.8530 H     1 <1>   0.1500 
 31 H       -0.4640    -4.0670     1.3900 H     1 <1>   0.1500 
 32 H        1.0020     4.5010    -0.0120 H     1 <1>   0.1500 
 33 H        5.5440     4.1360     0.7720 H     1 <1>   0.0800 
 34 H        5.4960     3.9570    -0.9660 H     1 <1>   0.0800 
 35 H        6.7930     3.2420    -0.0500 H     1 <1>   0.0800 
 36 H        5.0610     2.1250     2.2640 H     1 <1>   0.0800 
 37 H        6.3930     1.3510     1.4490 H     1 <1>   0.0800 
 38 H        4.8620     0.5410     1.5450 H     1 <1>   0.0800 
 39 H        4.8880     1.6790    -1.9910 H     1 <1>   0.0800 
 40 H        4.8200     0.2800    -0.9470 H     1 <1>   0.0800 
 41 H        6.3180     1.1270    -1.1560 H     1 <1>   0.0800 
 42 H       -0.5710     3.0970     2.0910 H     1 <1>   0.1500 
 43 H       -0.0470     0.6130    -1.3180 H     1 <1>   0.1500 
 44 H       -2.8880     2.3090     2.3150 H     1 <1>   0.1500 
 45 H       -2.3580    -0.1920    -1.0940 H     1 <1>   0.1500 
 46 H       -3.7850     0.6560     0.7260 H     1 <1>   0.1500 
@<TRIPOS>BOND
  1   1   2  2   
  2   2   3  am  
  3   2   4  1   
  4   3   5  1   
  5   3  24  1   
  6   4   6  1   
  7   4   7  1   
  8   4  25  1   
  9   5   8  1   
 10   5   9  2   
 11   6  10  1   
 12   6  26  1   
 13   6  27  1   
 14   7  11  1   
 15   7  28  1   
 16   7  29  1   
 17   8  12  1   
 18   8  13  1   
 19   9  14  1   
 20   9  15  1   
 21  10  11  2   
 22  10  30  1   
 23  11  31  1   
 24  12  15  2   
 25  13  16  1   
 26  13  17  1   
 27  13  18  1   
 28  14  19  ar  
 29  14  20  ar  
 30  15  32  1   
 31  16  33  1   
 32  16  34  1   
 33  16  35  1   
 34  17  36  1   
 35  17  37  1   
 36  17  38  1   
 37  18  39  1   
 38  18  40  1   
 39  18  41  1   
 40  19  21  ar  
 41  19  42  1   
 42  20  22  ar  
 43  20  43  1   
 44  21  23  ar  
 45  21  44  1   
 46  22  23  ar  
 47  22  45  1   
 48  23  46  1   
@<TRIPOS>SUBSTRUCTURE
  1 ****   3 GROUP 4 **** **** 0

# MOE 2024.06 (io_trps.svl 2023.06)
