@<TRIPOS>MOLECULE
NONAME
42 43 1 0 0 
SMALL
USER_CHARGES


@<TRIPOS>ATOM
  1 O       -0.0540    -0.5700     0.8420 O.3   1 <1>  -0.5600 
  2 C       -1.1060    -1.3120     1.3850 C.3   1 <1>   0.1200 
  3 C        0.2390    -0.9120    -0.4810 C.3   1 <1>   0.1200 
  4 C       -0.7670    -2.8140     1.3560 C.3   1 <1>   0.1100 
  5 C        0.6190    -2.4000    -0.5760 C.3   1 <1>   0.1100 
  6 N       -0.4440    -3.2710    -0.0190 N.3   1 <1>  -0.8100 
  7 C       -0.0530    -4.6830    -0.0740 C.3   1 <1>   0.1100 
  8 C       -1.3020    -5.5740     0.0240 C.3   1 <1>   0.3430 
  9 N       -1.0210    -7.0160    -0.3040 N.4   1 <1>  -0.9590 
 10 C       -2.3260    -7.7500    -0.4500 C.3   1 <1>   0.3430 
 11 C       -0.1220    -7.6390     0.7260 C.3   1 <1>   0.2630 
 12 C       -2.1660    -9.1570    -1.0430 C.3   1 <1>   0.0960 
 13 N       -3.5050    -9.7400    -1.2130 N.pl3 1 <1>   0.0480 
 14 C       -4.2460   -10.4440    -0.3500 C.2   1 <1>   0.0060 
 15 C       -4.3110    -9.6280    -2.2710 C.2   1 <1>   0.0370 
 16 N       -5.4020   -10.7170    -0.8430 N.2   1 <1>  -0.3380 
 17 C       -3.8110   -10.8810     1.0370 C.3   1 <1>  -0.0600 
 18 N       -5.4440   -10.1960    -2.0690 N.2   1 <1>  -0.3380 
 19 H       -1.9990    -1.1100     0.8190 H     1 <1>   0.0800 
 20 H       -1.2520    -0.9790     2.3970 H     1 <1>   0.0800 
 21 H        1.0580    -0.2940    -0.8050 H     1 <1>   0.0800 
 22 H       -0.6210    -0.6980    -1.0920 H     1 <1>   0.0800 
 23 H       -1.6100    -3.3610     1.7380 H     1 <1>   0.0800 
 24 H        0.0720    -2.9840     2.0110 H     1 <1>   0.0800 
 25 H        1.5420    -2.5520    -0.0410 H     1 <1>   0.0800 
 26 H        0.7850    -2.6470    -1.6100 H     1 <1>   0.0800 
 27 H        0.6450    -4.8980     0.7160 H     1 <1>   0.0800 
 28 H        0.4230    -4.8680    -1.0220 H     1 <1>   0.0800 
 29 H       -2.0290    -5.1870    -0.6720 H     1 <1>   0.0800 
 30 H       -1.7150    -5.4960     1.0160 H     1 <1>   0.0800 
 31 H       -0.5380    -7.0190    -1.2160 H     1 <1>   0.4500 
 32 H       -2.9750    -7.1840    -1.1000 H     1 <1>   0.0800 
 33 H       -2.8060    -7.8260     0.5120 H     1 <1>   0.0800 
 34 H       -0.5950    -7.6270     1.6950 H     1 <1>   0.0800 
 35 H        0.8070    -7.0960     0.7930 H     1 <1>   0.0800 
 36 H        0.1050    -8.6600     0.4650 H     1 <1>   0.0800 
 37 H       -1.5940    -9.7910    -0.3920 H     1 <1>   0.0800 
 38 H       -1.6900    -9.1100    -2.0070 H     1 <1>   0.0800 
 39 H       -4.0440    -9.1190    -3.1800 H     1 <1>   0.1500 
 40 H       -2.9320   -11.4960     0.9750 H     1 <1>   0.0800 
 41 H       -4.5950   -11.4610     1.4920 H     1 <1>   0.0800 
 42 H       -3.6170   -10.0280     1.6590 H     1 <1>   0.0800 
@<TRIPOS>BOND
  1   1   2  1   
  2   1   3  1   
  3   2   4  1   
  4   2  19  1   
  5   2  20  1   
  6   3   5  1   
  7   3  21  1   
  8   3  22  1   
  9   4   6  1   
 10   4  23  1   
 11   4  24  1   
 12   5   6  1   
 13   5  25  1   
 14   5  26  1   
 15   6   7  1   
 16   7   8  1   
 17   7  27  1   
 18   7  28  1   
 19   8   9  1   
 20   8  29  1   
 21   8  30  1   
 22   9  10  1   
 23   9  11  1   
 24   9  31  1   
 25  10  12  1   
 26  10  32  1   
 27  10  33  1   
 28  11  34  1   
 29  11  35  1   
 30  11  36  1   
 31  12  13  1   
 32  12  37  1   
 33  12  38  1   
 34  13  14  1   
 35  13  15  1   
 36  14  16  2   
 37  14  17  1   
 38  15  18  2   
 39  15  39  1   
 40  16  18  1   
 41  17  40  1   
 42  17  41  1   
 43  17  42  1   
@<TRIPOS>SUBSTRUCTURE
  1 ****   8 GROUP 4 **** **** 0

# MOE 2024.06 (io_trps.svl 2023.06)
