@<TRIPOS>MOLECULE
NONAME
59 62 1 0 0 
SMALL
USER_CHARGES


@<TRIPOS>ATOM
  1 F       -3.2390     0.7680    -3.6830 F     1 <1>  -0.1900 
  2 C       -3.0180     1.1700    -2.4590 C.ar  1 <1>   0.1900 
  3 C       -4.0140     1.0160    -1.5190 C.ar  1 <1>  -0.1500 
  4 C       -1.7920     1.7290    -2.1570 C.ar  1 <1>  -0.1500 
  5 C       -3.8060     1.4400    -0.2070 C.ar  1 <1>   0.0860 
  6 C       -1.5750     2.1640    -0.8630 C.ar  1 <1>  -0.1500 
  7 C       -4.8470     1.2140     0.7690 C.2   1 <1>   0.5440 
  8 C       -2.5740     2.0480     0.0970 C.ar  1 <1>   0.0830 
  9 O       -4.6870     0.3660     1.6260 O.2   1 <1>  -0.5700 
 10 N       -6.0340     1.9180     0.7320 N.am  1 <1>  -0.6600 
 11 O       -2.2900     2.5410     1.3240 O.3   1 <1>  -0.3630 
 12 C       -6.1500     3.2690     0.1200 C.3   1 <1>   0.1400 
 13 C       -7.1780     1.5350     1.6060 C.3   1 <1>   0.1400 
 14 C       -2.9650     3.6970     1.7870 C.3   1 <1>   0.1200 
 15 C       -7.4820     3.4820    -0.6220 C.3   1 <1>  -0.0800 
 16 C       -8.4870     1.6580     0.8250 C.3   1 <1>  -0.1600 
 17 C       -2.4640     4.9260     1.0210 C.3   1 <1>   0.0960 
 18 C       -7.5420     4.9710    -1.0080 C.3   1 <1>  -0.1600 
 19 C       -8.6770     3.0710     0.2600 C.3   1 <1>  -0.1600 
 20 N       -3.4740     5.9960     1.0300 N.pl3 1 <1>   0.3140 
 21 C       -8.8170     5.4550    -1.7090 C.3   1 <1>   0.1400 
 22 N       -3.6830     6.7990     2.0750 N.2   1 <1>  -0.4180 
 23 C       -4.2580     6.3730     0.0180 C.2   1 <1>  -0.3020 
 24 N       -8.7740     6.9320    -1.6750 N.am  1 <1>  -0.7300 
 25 N       -4.5700     7.6750     1.7450 N.2   1 <1>  -0.2270 
 26 C       -4.9380     7.4330     0.4820 C.2   1 <1>   0.0460 
 27 C       -9.1700     7.6290    -0.5790 C.2   1 <1>   0.5690 
 28 C       -5.9610     8.2780    -0.2630 C.3   1 <1>   0.0210 
 29 O      -10.0020     7.2030     0.1830 O.2   1 <1>  -0.5700 
 30 C       -8.4600     8.9240    -0.2310 C.3   1 <1>  -0.0990 
 31 C       -7.1860     8.6450     0.5970 C.3   1 <1>  -0.1600 
 32 H       -4.9470     0.5570    -1.7940 H     1 <1>   0.1500 
 33 H       -1.0340     1.8160    -2.9150 H     1 <1>   0.1500 
 34 H       -0.6290     2.5970    -0.5900 H     1 <1>   0.1500 
 35 H       -5.3370     3.4470    -0.5590 H     1 <1>   0.0800 
 36 H       -6.0800     3.9930     0.9150 H     1 <1>   0.0800 
 37 H       -7.1960     2.1830     2.4650 H     1 <1>   0.0800 
 38 H       -7.0640     0.5210     1.9510 H     1 <1>   0.0800 
 39 H       -2.7510     3.8010     2.8370 H     1 <1>   0.0800 
 40 H       -4.0190     3.5530     1.6660 H     1 <1>   0.0800 
 41 H       -7.4780     2.8810    -1.5150 H     1 <1>   0.0800 
 42 H       -9.3080     1.4200     1.4780 H     1 <1>   0.0800 
 43 H       -8.4850     0.9380     0.0250 H     1 <1>   0.0800 
 44 H       -2.2610     4.6810    -0.0030 H     1 <1>   0.0800 
 45 H       -1.5670     5.3000     1.4780 H     1 <1>   0.0800 
 46 H       -6.7040     5.2000    -1.6410 H     1 <1>   0.0800 
 47 H       -7.4320     5.5370    -0.0970 H     1 <1>   0.0800 
 48 H       -9.5880     3.0930    -0.3110 H     1 <1>   0.0800 
 49 H       -8.7800     3.7660     1.0770 H     1 <1>   0.0800 
 50 H       -9.6980     5.1210    -1.1870 H     1 <1>   0.0800 
 51 H       -8.8630     5.1030    -2.7250 H     1 <1>   0.0800 
 52 H       -4.2750     5.8930    -0.9410 H     1 <1>   0.1500 
 53 H       -8.1280     7.3650    -2.3340 H     1 <1>   0.3700 
 54 H       -6.2620     7.7320    -1.1360 H     1 <1>   0.0800 
 55 H       -5.4830     9.1820    -0.5940 H     1 <1>   0.0800 
 56 H       -9.1360     9.5140     0.3610 H     1 <1>   0.0800 
 57 H       -8.2320     9.4800    -1.1210 H     1 <1>   0.0800 
 58 H       -6.9400     9.5140     1.1830 H     1 <1>   0.0800 
 59 H       -7.3950     7.8480     1.2910 H     1 <1>   0.0800 
@<TRIPOS>BOND
  1   1   2  1   
  2   2   3  ar  
  3   2   4  ar  
  4   3   5  ar  
  5   3  32  1   
  6   4   6  ar  
  7   4  33  1   
  8   5   7  1   
  9   5   8  ar  
 10   6   8  ar  
 11   6  34  1   
 12   7   9  2   
 13   7  10  am  
 14   8  11  1   
 15  10  12  1   
 16  10  13  1   
 17  11  14  1   
 18  12  15  1   
 19  12  35  1   
 20  12  36  1   
 21  13  16  1   
 22  13  37  1   
 23  13  38  1   
 24  14  17  1   
 25  14  39  1   
 26  14  40  1   
 27  15  18  1   
 28  15  19  1   
 29  15  41  1   
 30  16  19  1   
 31  16  42  1   
 32  16  43  1   
 33  17  20  1   
 34  17  44  1   
 35  17  45  1   
 36  18  21  1   
 37  18  46  1   
 38  18  47  1   
 39  19  48  1   
 40  19  49  1   
 41  20  22  1   
 42  20  23  1   
 43  21  24  1   
 44  21  50  1   
 45  21  51  1   
 46  22  25  2   
 47  23  26  2   
 48  23  52  1   
 49  24  27  am  
 50  24  53  1   
 51  25  26  1   
 52  26  28  1   
 53  27  29  2   
 54  27  30  1   
 55  28  31  1   
 56  28  54  1   
 57  28  55  1   
 58  30  31  1   
 59  30  56  1   
 60  30  57  1   
 61  31  58  1   
 62  31  59  1   
@<TRIPOS>SUBSTRUCTURE
  1 ****  12 GROUP 4 **** **** 0

# MOE 2024.06 (io_trps.svl 2023.06)
