@<TRIPOS>MOLECULE
NONAME
47 49 1 0 0 
SMALL
USER_CHARGES


@<TRIPOS>ATOM
  1 O       -2.8690    -1.1010    -3.0700 O.2   1 <1>  -0.5700 
  2 C       -2.9030    -1.3390    -1.8860 C.2   1 <1>   0.5690 
  3 N       -2.5730    -0.4040    -0.9490 N.am  1 <1>  -0.6600 
  4 C       -3.3150    -2.7300    -1.4600 C.3   1 <1>  -0.0190 
  5 C       -2.7080    -0.6750     0.5110 C.3   1 <1>   0.2200 
  6 C       -2.1270     0.9680    -1.3250 C.3   1 <1>   0.0600 
  7 C       -2.1630    -3.4320    -0.7160 C.3   1 <1>   0.1200 
  8 C       -4.7010    -2.7250    -0.7840 C.3   1 <1>   0.1400 
  9 C       -1.7250    -1.7820     0.9770 C.3   1 <1>   0.1200 
 10 C       -4.1920    -0.8820     0.8930 C.3   1 <1>   0.1400 
 11 O       -2.0770    -3.0990     0.6350 O.3   1 <1>  -0.5600 
 12 N       -4.7150    -2.2630     0.6420 N.am  1 <1>  -0.6600 
 13 C       -5.0360    -3.0700     1.7120 C.2   1 <1>   0.5690 
 14 O       -5.1460    -2.6180     2.8300 O.2   1 <1>  -0.5700 
 15 C       -5.2390    -4.5740     1.5610 C.3   1 <1>   0.0440 
 16 C       -6.5230    -4.9630     0.8300 C.ar  1 <1>  -0.1440 
 17 C       -6.5100    -5.9870    -0.1040 C.ar  1 <1>  -0.1500 
 18 C       -7.7110    -4.3020     1.0870 C.ar  1 <1>  -0.1500 
 19 C       -7.6620    -6.3470    -0.7870 C.ar  1 <1>  -0.1440 
 20 C       -8.8640    -4.6540     0.4110 C.ar  1 <1>  -0.1500 
 21 C       -8.8510    -5.6730    -0.5280 C.ar  1 <1>  -0.1440 
 22 C       -7.5970    -7.4760    -1.8050 C.3   1 <1>  -0.0970 
 23 C      -10.1430    -6.0290    -1.2500 C.3   1 <1>  -0.0970 
 24 H       -3.4420    -3.2770    -2.3770 H     1 <1>   0.0800 
 25 H       -2.3990     0.2220     1.0190 H     1 <1>   0.0800 
 26 H       -1.1630     1.1710    -0.8910 H     1 <1>   0.0800 
 27 H       -2.8380     1.6930    -0.9710 H     1 <1>   0.0800 
 28 H       -2.0440     1.0650    -2.3950 H     1 <1>   0.0800 
 29 H       -1.2180    -3.2120    -1.1830 H     1 <1>   0.0800 
 30 H       -2.3170    -4.4960    -0.7570 H     1 <1>   0.0800 
 31 H       -5.1030    -3.7160    -0.8560 H     1 <1>   0.0800 
 32 H       -5.3610    -2.0900    -1.3510 H     1 <1>   0.0800 
 33 H       -1.6770    -1.7590     2.0510 H     1 <1>   0.0800 
 34 H       -0.7390    -1.5850     0.5960 H     1 <1>   0.0800 
 35 H       -4.8000    -0.1730     0.3590 H     1 <1>   0.0800 
 36 H       -4.2900    -0.6450     1.9380 H     1 <1>   0.0800 
 37 H       -4.3810    -4.9760     1.0570 H     1 <1>   0.0800 
 38 H       -5.2640    -5.0130     2.5420 H     1 <1>   0.0800 
 39 H       -5.5930    -6.5120    -0.3010 H     1 <1>   0.1500 
 40 H       -7.7460    -3.5090     1.8160 H     1 <1>   0.1500 
 41 H       -9.7750    -4.1240     0.6250 H     1 <1>   0.1500 
 42 H       -6.6020    -7.8780    -1.8730 H     1 <1>   0.0800 
 43 H       -7.8820    -7.1140    -2.7760 H     1 <1>   0.0800 
 44 H       -8.2620    -8.2700    -1.5160 H     1 <1>   0.0800 
 45 H      -10.9540    -5.4060    -0.9200 H     1 <1>   0.0800 
 46 H      -10.4040    -7.0530    -1.0540 H     1 <1>   0.0800 
 47 H      -10.0230    -5.8920    -2.3090 H     1 <1>   0.0800 
@<TRIPOS>BOND
  1   1   2  2   
  2   2   3  am  
  3   2   4  1   
  4   3   5  1   
  5   3   6  1   
  6   4   7  1   
  7   4   8  1   
  8   4  24  1   
  9   5   9  1   
 10   5  10  1   
 11   5  25  1   
 12   6  26  1   
 13   6  27  1   
 14   6  28  1   
 15   7  11  1   
 16   7  29  1   
 17   7  30  1   
 18   8  12  1   
 19   8  31  1   
 20   8  32  1   
 21   9  11  1   
 22   9  33  1   
 23   9  34  1   
 24  10  12  1   
 25  10  35  1   
 26  10  36  1   
 27  12  13  am  
 28  13  14  2   
 29  13  15  1   
 30  15  16  1   
 31  15  37  1   
 32  15  38  1   
 33  16  17  ar  
 34  16  18  ar  
 35  17  19  ar  
 36  17  39  1   
 37  18  20  ar  
 38  18  40  1   
 39  19  21  ar  
 40  19  22  1   
 41  20  21  ar  
 42  20  41  1   
 43  21  23  1   
 44  22  42  1   
 45  22  43  1   
 46  22  44  1   
 47  23  45  1   
 48  23  46  1   
 49  23  47  1   
@<TRIPOS>SUBSTRUCTURE
  1 ****   8 GROUP 4 **** **** 0

# MOE 2024.06 (io_trps.svl 2023.06)
