@<TRIPOS>MOLECULE
NONAME
55 58 1 0 0 
SMALL
USER_CHARGES


@<TRIPOS>ATOM
  1 O        0.3820     0.9340     1.3460 O.3   1 <1>  -0.0190 
  2 N        1.0890    -0.1540     1.2430 N.2   1 <1>  -0.4100 
  3 C        0.6060     1.7580     0.3580 C.2   1 <1>  -0.0400 
  4 C        1.7780    -0.0310     0.1660 C.2   1 <1>   0.1080 
  5 C        1.5100     1.1860    -0.4540 C.2   1 <1>  -0.1500 
  6 C       -0.1450     3.0790     0.3280 C.3   1 <1>   0.0200 
  7 C        2.7430    -1.0760    -0.3470 C.3   1 <1>  -0.0590 
  8 C        0.4820     4.1020    -0.6360 C.3   1 <1>  -0.0800 
  9 C       -0.2880     5.4160    -0.7800 C.3   1 <1>   0.2000 
 10 C        1.8860     4.5400    -0.2120 C.3   1 <1>   0.2090 
 11 O       -0.6810     5.8770     0.4820 O.3   1 <1>  -0.5600 
 12 C        0.7700     6.3800    -1.3190 C.3   1 <1>   0.2090 
 13 N        2.0810     5.9200    -0.7540 N.pl3 1 <1>  -0.8380 
 14 C       -2.0550     5.8810     0.7190 C.3   1 <1>   0.0400 
 15 C        3.2060     6.6430    -0.5770 C.ar  1 <1>   0.4610 
 16 N        3.2530     7.9100    -0.9890 N.ar  1 <1>  -0.1790 
 17 C        4.3770     6.1290     0.0380 C.ar  1 <1>  -0.1500 
 18 C        4.3530     8.7380    -0.8620 C.ar  1 <1>   0.3610 
 19 C        5.5020     6.8810     0.2010 C.ar  1 <1>  -0.1440 
 20 C        5.5190     8.2340    -0.2580 C.ar  1 <1>   0.0000 
 21 C        4.3150    10.0570    -1.3250 C.ar  1 <1>  -0.1500 
 22 C        6.7340     6.2830     0.8700 C.3   1 <1>  -0.0970 
 23 C        6.6220     9.0970    -0.1460 C.ar  1 <1>  -0.1500 
 24 C        5.4120    10.8730    -1.1990 C.ar  1 <1>  -0.1500 
 25 C        6.5770    10.3920    -0.6060 C.ar  1 <1>  -0.1430 
 26 C        7.7840    11.3090    -0.4740 C.3   1 <1>  -0.0170 
 27 C        7.6420    12.2150     0.7510 C.3   1 <1>  -0.2400 
 28 H        1.9480     1.5320    -1.3710 H     1 <1>   0.1500 
 29 H       -1.1620     2.8810     0.0420 H     1 <1>   0.0800 
 30 H       -0.1590     3.4840     1.3260 H     1 <1>   0.0800 
 31 H        2.4780    -1.3580    -1.3490 H     1 <1>   0.0800 
 32 H        2.7050    -1.9490     0.2800 H     1 <1>   0.0800 
 33 H        3.7430    -0.6850    -0.3390 H     1 <1>   0.0800 
 34 H        0.5530     3.6560    -1.6130 H     1 <1>   0.0800 
 35 H       -1.1400     5.3420    -1.4350 H     1 <1>   0.0800 
 36 H        2.6320     3.8630    -0.5940 H     1 <1>   0.0800 
 37 H        1.9500     4.5740     0.8640 H     1 <1>   0.0800 
 38 H        0.5300     7.3890    -1.0310 H     1 <1>   0.0800 
 39 H        0.8040     6.3020    -2.3930 H     1 <1>   0.0800 
 40 H       -2.2210     6.2230     1.7250 H     1 <1>   0.0800 
 41 H       -2.4440     4.8830     0.6100 H     1 <1>   0.0800 
 42 H       -2.5350     6.5510     0.0270 H     1 <1>   0.0800 
 43 H        2.4150     8.2820    -1.4140 H     1 <1>   0.4570 
 44 H        4.3580     5.1120     0.3820 H     1 <1>   0.1500 
 45 H        3.4250    10.4460    -1.7850 H     1 <1>   0.1500 
 46 H        6.5620     5.2620     1.1610 H     1 <1>   0.0800 
 47 H        6.9860     6.8430     1.7530 H     1 <1>   0.0800 
 48 H        7.5700     6.3010     0.1940 H     1 <1>   0.0800 
 49 H        7.5270     8.7400     0.3130 H     1 <1>   0.1500 
 50 H        5.3820    11.8910    -1.5550 H     1 <1>   0.1500 
 51 H        8.6830    10.7230    -0.3800 H     1 <1>   0.0800 
 52 H        7.8820    11.9110    -1.3600 H     1 <1>   0.0800 
 53 H        7.5600    11.6230     1.6450 H     1 <1>   0.0800 
 54 H        6.7650    12.8310     0.6620 H     1 <1>   0.0800 
 55 H        8.5030    12.8540     0.8390 H     1 <1>   0.0800 
@<TRIPOS>BOND
  1   1   2  1   
  2   1   3  1   
  3   2   4  2   
  4   3   5  2   
  5   3   6  1   
  6   4   5  1   
  7   4   7  1   
  8   5  28  1   
  9   6   8  1   
 10   6  29  1   
 11   6  30  1   
 12   7  31  1   
 13   7  32  1   
 14   7  33  1   
 15   8   9  1   
 16   8  10  1   
 17   8  34  1   
 18   9  11  1   
 19   9  12  1   
 20   9  35  1   
 21  10  13  1   
 22  10  36  1   
 23  10  37  1   
 24  11  14  1   
 25  12  13  1   
 26  12  38  1   
 27  12  39  1   
 28  13  15  1   
 29  14  40  1   
 30  14  41  1   
 31  14  42  1   
 32  15  16  ar  
 33  15  17  ar  
 34  16  18  ar  
 35  16  43  1   
 36  17  19  ar  
 37  17  44  1   
 38  18  20  ar  
 39  18  21  ar  
 40  19  20  ar  
 41  19  22  1   
 42  20  23  ar  
 43  21  24  ar  
 44  21  45  1   
 45  22  46  1   
 46  22  47  1   
 47  22  48  1   
 48  23  25  ar  
 49  23  49  1   
 50  24  25  ar  
 51  24  50  1   
 52  25  26  1   
 53  26  27  1   
 54  26  51  1   
 55  26  52  1   
 56  27  53  1   
 57  27  54  1   
 58  27  55  1   
@<TRIPOS>SUBSTRUCTURE
  1 ****  15 GROUP 4 **** **** 0

# MOE 2024.06 (io_trps.svl 2023.06)
