@<TRIPOS>MOLECULE
NONAME
48 51 1 0 0 
SMALL
USER_CHARGES


@<TRIPOS>ATOM
  1 O       -0.0800     0.8760     0.2280 O.2   1 <1>  -0.5700 
  2 C       -0.1490     2.0520    -0.0440 C.2   1 <1>   0.5690 
  3 N       -1.0360     2.9120     0.5480 N.am  1 <1>  -0.5090 
  4 C        0.7810     2.5900    -1.1270 C.3   1 <1>   0.1810 
  5 C       -1.2280     4.3080     0.0400 C.3   1 <1>   0.3640 
  6 C       -1.9440     2.4970     1.6440 C.3   1 <1>   0.0490 
  7 O        1.0040     3.9700    -0.9850 O.3   1 <1>  -0.5600 
  8 C       -2.6380     4.4480    -0.5350 C.ar  1 <1>  -0.1440 
  9 C       -0.1760     4.7590    -1.0130 C.3   1 <1>   0.2610 
 10 C       -1.8860     3.2380     2.9450 C.3   1 <1>  -0.2000 
 11 C       -1.3780     1.8340     2.8600 C.3   1 <1>  -0.2000 
 12 C       -3.1750     3.4760    -1.3720 C.ar  1 <1>   0.1600 
 13 C       -3.4090     5.5560    -0.2380 C.ar  1 <1>  -0.1500 
 14 C        0.1780     6.2380    -0.8030 C.2   1 <1>   0.5690 
 15 N       -4.3750     3.5260    -1.9250 N.ar  1 <1>  -0.6200 
 16 C       -4.6650     5.6210    -0.8010 C.ar  1 <1>  -0.1500 
 17 O       -0.7000     7.0550    -0.6500 O.2   1 <1>  -0.5700 
 18 N        1.4860     6.6110    -0.7790 N.am  1 <1>  -0.7300 
 19 C       -5.0930     4.5960    -1.6260 C.ar  1 <1>   0.1600 
 20 C        1.9770     8.0040    -0.6660 C.3   1 <1>   0.1400 
 21 C        1.9860     8.4450     0.7980 C.3   1 <1>   0.0200 
 22 C        2.2740     9.9290     0.8860 C.2   1 <1>   0.0060 
 23 N        3.4310    10.4490     1.0910 N.2   1 <1>  -0.3380 
 24 N        1.3370    10.8740     0.7430 N.pl3 1 <1>   0.0330 
 25 N        3.2740    11.7810     1.0800 N.2   1 <1>  -0.3380 
 26 C        2.0200    12.0090     0.8750 C.2   1 <1>   0.2700 
 27 N        1.4690    13.2680     0.8030 N.pl3 1 <1>  -0.8840 
 28 H        0.3620     2.4020    -2.0990 H     1 <1>   0.0800 
 29 H        1.7320     2.0950    -1.0540 H     1 <1>   0.0800 
 30 H       -1.1450     4.9660     0.8870 H     1 <1>   0.0800 
 31 H       -2.9020     2.1560     1.2850 H     1 <1>   0.1000 
 32 H       -0.5970     4.6660    -1.9980 H     1 <1>   0.0800 
 33 H       -1.1620     4.0180     3.0930 H     1 <1>   0.1000 
 34 H       -2.8000     3.4100     3.4840 H     1 <1>   0.1000 
 35 H       -1.9470     1.0500     3.3260 H     1 <1>   0.1000 
 36 H       -0.3180     1.6510     2.8960 H     1 <1>   0.1000 
 37 H       -2.5900     2.6020    -1.6020 H     1 <1>   0.1500 
 38 H       -3.0520     6.3460     0.4010 H     1 <1>   0.1500 
 39 H       -5.3090     6.4590    -0.6070 H     1 <1>   0.1500 
 40 H        2.1890     5.8690    -0.8700 H     1 <1>   0.3700 
 41 H       -6.0750     4.6590    -2.0630 H     1 <1>   0.1500 
 42 H        2.9690     8.0780    -1.0800 H     1 <1>   0.0800 
 43 H        1.3270     8.6490    -1.2330 H     1 <1>   0.0800 
 44 H        2.7470     7.9040     1.3310 H     1 <1>   0.0800 
 45 H        1.0330     8.2420     1.2530 H     1 <1>   0.0800 
 46 H        0.3420    10.7820     0.5420 H     1 <1>   0.2700 
 47 H        2.2130    13.9720     0.7640 H     1 <1>   0.4000 
 48 H        0.8570    13.4930     1.5900 H     1 <1>   0.4000 
@<TRIPOS>BOND
  1   1   2  2   
  2   2   3  am  
  3   2   4  1   
  4   3   5  1   
  5   3   6  1   
  6   4   7  1   
  7   4  28  1   
  8   4  29  1   
  9   5   8  1   
 10   5   9  1   
 11   5  30  1   
 12   6  10  1   
 13   6  11  1   
 14   6  31  1   
 15   7   9  1   
 16   8  12  ar  
 17   8  13  ar  
 18   9  14  1   
 19   9  32  1   
 20  10  11  1   
 21  10  33  1   
 22  10  34  1   
 23  11  35  1   
 24  11  36  1   
 25  12  15  ar  
 26  12  37  1   
 27  13  16  ar  
 28  13  38  1   
 29  14  17  2   
 30  14  18  am  
 31  15  19  ar  
 32  16  19  ar  
 33  16  39  1   
 34  18  20  1   
 35  18  40  1   
 36  19  41  1   
 37  20  21  1   
 38  20  42  1   
 39  20  43  1   
 40  21  22  1   
 41  21  44  1   
 42  21  45  1   
 43  22  23  2   
 44  22  24  1   
 45  23  25  1   
 46  24  26  1   
 47  24  46  1   
 48  25  26  2   
 49  26  27  1   
 50  27  47  1   
 51  27  48  1   
@<TRIPOS>SUBSTRUCTURE
  1 ****  14 GROUP 4 **** **** 0

# MOE 2024.06 (io_trps.svl 2023.06)
