@<TRIPOS>MOLECULE
NONAME
38 40 1 0 0 
SMALL
USER_CHARGES


@<TRIPOS>ATOM
  1 S        0.4590     0.0730     1.0010 S.3   1 <1>  -0.0800 
  2 C        0.8320    -1.0340    -0.2750 C.2   1 <1>   0.1980 
  3 C        0.6990     1.3410    -0.1480 C.2   1 <1>   0.1980 
  4 N        1.0930    -0.4510    -1.3760 N.2   1 <1>  -0.3380 
  5 C        0.8100    -2.5250     0.0310 C.3   1 <1>   0.2900 
  6 N        1.0160     0.9140    -1.3030 N.2   1 <1>  -0.3380 
  7 C        0.5140     2.7660     0.3180 C.3   1 <1>  -0.0600 
  8 N       -0.5400    -3.0060     0.3940 N.3   1 <1>  -0.8100 
  9 C       -1.5210    -2.8050    -0.6810 C.3   1 <1>   0.1100 
 10 C       -0.5650    -4.4460     0.6910 C.3   1 <1>   0.1100 
 11 C       -2.6640    -3.7400    -0.3080 C.3   1 <1>   0.2000 
 12 C       -1.9430    -4.9710     0.2420 C.3   1 <1>  -0.0800 
 13 O       -3.3530    -3.1540     0.7360 O.3   1 <1>  -0.6800 
 14 C       -1.8280    -6.0700    -0.8320 C.3   1 <1>  -0.0170 
 15 C       -1.1490    -7.3200    -0.2960 C.ar  1 <1>   0.1670 
 16 N        0.1490    -7.4400    -0.5330 N.ar  1 <1>  -0.6200 
 17 C       -1.8990    -8.2570     0.4000 C.ar  1 <1>  -0.1500 
 18 C        0.7190    -8.5370    -0.0610 C.ar  1 <1>   0.1600 
 19 C       -1.2910    -9.3940     0.8880 C.ar  1 <1>  -0.1500 
 20 C        0.0580    -9.5280     0.6450 C.ar  1 <1>  -0.1500 
 21 H        1.4840    -2.7170     0.8470 H     1 <1>   0.0800 
 22 H        1.1670    -3.0590    -0.8320 H     1 <1>   0.0800 
 23 H        0.6930     3.4410    -0.4990 H     1 <1>   0.0800 
 24 H        1.2050     2.9830     1.1110 H     1 <1>   0.0800 
 25 H       -0.4910     2.9060     0.6730 H     1 <1>   0.0800 
 26 H       -1.8440    -1.7790    -0.7430 H     1 <1>   0.0800 
 27 H       -1.1020    -3.1050    -1.6270 H     1 <1>   0.0800 
 28 H        0.2240    -4.9500     0.1580 H     1 <1>   0.0800 
 29 H       -0.4210    -4.6040     1.7460 H     1 <1>   0.0800 
 30 H       -3.3510    -3.9380    -1.1130 H     1 <1>   0.0800 
 31 H       -2.4780    -5.3760     1.0830 H     1 <1>   0.0800 
 32 H       -2.6720    -2.7940     1.3440 H     1 <1>   0.4000 
 33 H       -1.2770    -5.7040    -1.6800 H     1 <1>   0.0800 
 34 H       -2.8110    -6.3340    -1.1760 H     1 <1>   0.0800 
 35 H       -2.9510    -8.1000     0.5600 H     1 <1>   0.1500 
 36 H        1.7740    -8.6540    -0.2460 H     1 <1>   0.1500 
 37 H       -1.8440   -10.1400     1.4320 H     1 <1>   0.1500 
 38 H        0.5950   -10.3900     0.9960 H     1 <1>   0.1500 
@<TRIPOS>BOND
  1   1   2  1   
  2   1   3  1   
  3   2   4  2   
  4   2   5  1   
  5   3   6  2   
  6   3   7  1   
  7   4   6  1   
  8   5   8  1   
  9   5  21  1   
 10   5  22  1   
 11   7  23  1   
 12   7  24  1   
 13   7  25  1   
 14   8   9  1   
 15   8  10  1   
 16   9  11  1   
 17   9  26  1   
 18   9  27  1   
 19  10  12  1   
 20  10  28  1   
 21  10  29  1   
 22  11  12  1   
 23  11  13  1   
 24  11  30  1   
 25  12  14  1   
 26  12  31  1   
 27  13  32  1   
 28  14  15  1   
 29  14  33  1   
 30  14  34  1   
 31  15  16  ar  
 32  15  17  ar  
 33  16  18  ar  
 34  17  19  ar  
 35  17  35  1   
 36  18  20  ar  
 37  18  36  1   
 38  19  20  ar  
 39  19  37  1   
 40  20  38  1   
@<TRIPOS>SUBSTRUCTURE
  1 ****  10 GROUP 4 **** **** 0

# MOE 2024.06 (io_trps.svl 2023.06)
