@<TRIPOS>MOLECULE
NONAME
27 28 1 0 0 
SMALL
USER_CHARGES


@<TRIPOS>ATOM
  1 O      -10.3930     1.6120     2.0260 O.2   1 <1>  -0.5700 
  2 C       -9.3820     1.2110     1.5060 C.2   1 <1>   0.5950 
  3 C       -9.3420     0.2160     0.4890 C.2   1 <1>  -0.2370 
  4 N       -8.1900    -0.2220    -0.0840 N.pl3 1 <1>   0.4520 
  5 C      -10.3830    -0.4720    -0.0960 C.2   1 <1>  -0.1500 
  6 N       -6.8670     0.2530     0.2520 N.pl3 1 <1>  -0.6890 
  7 C       -8.4940    -1.1590    -1.0040 C.2   1 <1>  -0.3020 
  8 C       -9.8470    -1.3380    -1.0360 C.2   1 <1>  -0.1500 
  9 C       -6.0500    -0.8870     0.7760 C.3   1 <1>   0.1100 
 10 C       -6.2430     0.8770    -0.9570 C.3   1 <1>   0.1100 
 11 C       -4.6080    -0.4370     1.0840 C.3   1 <1>   0.3430 
 12 C       -4.8020     1.3370    -0.6590 C.3   1 <1>   0.3430 
 13 N       -3.9660     0.2190    -0.1050 N.4   1 <1>  -0.9060 
 14 H       -8.4520     1.6370     1.8360 H     1 <1>   0.0600 
 15 H      -11.4300    -0.3590     0.1360 H     1 <1>   0.1500 
 16 H       -7.7590    -1.6640    -1.6000 H     1 <1>   0.1500 
 17 H      -10.4100    -2.0130    -1.6610 H     1 <1>   0.1500 
 18 H       -6.0310    -1.6950     0.0650 H     1 <1>   0.0800 
 19 H       -6.5030    -1.2570     1.6810 H     1 <1>   0.0800 
 20 H       -6.8290     1.7300    -1.2550 H     1 <1>   0.0800 
 21 H       -6.2360     0.1810    -1.7800 H     1 <1>   0.0800 
 22 H       -4.0270    -1.2900     1.3950 H     1 <1>   0.0800 
 23 H       -4.6400     0.2590     1.9080 H     1 <1>   0.0800 
 24 H       -4.8450     2.1440     0.0540 H     1 <1>   0.0800 
 25 H       -4.3550     1.7200    -1.5630 H     1 <1>   0.0800 
 26 H       -3.8200    -0.4860    -0.8390 H     1 <1>   0.4500 
 27 H       -3.0370     0.5760     0.1550 H     1 <1>   0.4500 
@<TRIPOS>BOND
  1   1   2  2   
  2   2   3  1   
  3   2  14  1   
  4   3   4  1   
  5   3   5  2   
  6   4   6  1   
  7   4   7  1   
  8   5   8  1   
  9   5  15  1   
 10   6   9  1   
 11   6  10  1   
 12   7   8  2   
 13   7  16  1   
 14   8  17  1   
 15   9  11  1   
 16   9  18  1   
 17   9  19  1   
 18  10  12  1   
 19  10  20  1   
 20  10  21  1   
 21  11  13  1   
 22  11  22  1   
 23  11  23  1   
 24  12  13  1   
 25  12  24  1   
 26  12  25  1   
 27  13  26  1   
 28  13  27  1   
@<TRIPOS>SUBSTRUCTURE
  1 ****   4 GROUP 4 **** **** 0

# MOE 2024.06 (io_trps.svl 2023.06)
