@<TRIPOS>MOLECULE
NONAME
47 49 1 0 0 
SMALL
USER_CHARGES


@<TRIPOS>ATOM
  1 S       -0.1700    -0.1440    -0.7010 S.o2  1 <1>   1.0900 
  2 O        1.0430    -0.8860    -0.4530 O.2   1 <1>  -0.6500 
  3 O       -0.1120     1.1630    -1.3110 O.2   1 <1>  -0.6500 
  4 C       -1.0580    -0.0070     0.8380 C.3   1 <1>  -0.0550 
  5 C       -1.2390    -1.1500    -1.7120 C.3   1 <1>  -0.0550 
  6 C       -2.5530    -0.1700     0.6130 C.3   1 <1>   0.1400 
  7 C       -1.9590    -2.1940    -0.8700 C.3   1 <1>   0.1400 
  8 N       -2.8660    -1.5650     0.1480 N.am  1 <1>  -0.6600 
  9 C       -3.8800    -2.2790     0.7620 C.2   1 <1>   0.5690 
 10 O       -4.5060    -1.7850     1.6730 O.2   1 <1>  -0.5700 
 11 C       -4.2290    -3.7140     0.3120 C.3   1 <1>   0.2610 
 12 O       -3.1680    -4.5970     0.6340 O.3   1 <1>  -0.5600 
 13 C       -5.5910    -4.2010     0.8800 C.3   1 <1>   0.3640 
 14 C       -3.3540    -5.9210     0.1970 C.3   1 <1>   0.1810 
 15 N       -5.7330    -5.6920     0.9500 N.am  1 <1>  -0.6600 
 16 C       -6.7440    -3.5690     0.0790 C.ar  1 <1>  -0.1440 
 17 C       -4.6910    -6.5210     0.6350 C.2   1 <1>   0.5690 
 18 C       -7.0240    -6.2010     1.4980 C.3   1 <1>   0.0600 
 19 C       -7.1570    -3.9810    -1.1940 C.ar  1 <1>  -0.1440 
 20 C       -7.4010    -2.5010     0.6790 C.ar  1 <1>  -0.1500 
 21 O       -4.7900    -7.7250     0.6600 O.2   1 <1>  -0.5700 
 22 C       -8.2010    -3.3150    -1.8210 C.ar  1 <1>  -0.1500 
 23 C       -6.5390    -5.1510    -1.9550 C.3   1 <1>  -0.0970 
 24 C       -8.4380    -1.8450     0.0450 C.ar  1 <1>  -0.1500 
 25 C       -8.8390    -2.2530    -1.2100 C.ar  1 <1>  -0.1500 
 26 H       -0.7310    -0.7630     1.5260 H     1 <1>   0.0800 
 27 H       -0.8610     0.9500     1.2820 H     1 <1>   0.0800 
 28 H       -1.9710    -0.5380    -2.2030 H     1 <1>   0.0800 
 29 H       -0.6570    -1.6360    -2.4710 H     1 <1>   0.0800 
 30 H       -2.9000     0.5390    -0.1210 H     1 <1>   0.0800 
 31 H       -3.0610     0.0460     1.5370 H     1 <1>   0.0800 
 32 H       -1.2350    -2.8120    -0.3620 H     1 <1>   0.0800 
 33 H       -2.5270    -2.8240    -1.5310 H     1 <1>   0.0800 
 34 H       -4.3110    -3.6940    -0.7560 H     1 <1>   0.0800 
 35 H       -5.6590    -3.8580     1.8980 H     1 <1>   0.0800 
 36 H       -3.2860    -5.9420    -0.8750 H     1 <1>   0.0800 
 37 H       -2.5550    -6.5130     0.6050 H     1 <1>   0.0800 
 38 H       -7.2120    -5.7570     2.4600 H     1 <1>   0.0800 
 39 H       -6.9930    -7.2700     1.6140 H     1 <1>   0.0800 
 40 H       -7.8310    -5.9500     0.8320 H     1 <1>   0.0800 
 41 H       -7.1040    -2.1590     1.6560 H     1 <1>   0.1500 
 42 H       -8.5340    -3.6220    -2.7970 H     1 <1>   0.1500 
 43 H       -6.8450    -5.1440    -2.9860 H     1 <1>   0.0800 
 44 H       -6.8620    -6.0810    -1.5230 H     1 <1>   0.0800 
 45 H       -5.4690    -5.1120    -1.9360 H     1 <1>   0.0800 
 46 H       -8.9310    -1.0190     0.5280 H     1 <1>   0.1500 
 47 H       -9.6460    -1.7470    -1.7110 H     1 <1>   0.1500 
@<TRIPOS>BOND
  1   1   2  2   
  2   1   3  2   
  3   1   4  1   
  4   1   5  1   
  5   4   6  1   
  6   4  26  1   
  7   4  27  1   
  8   5   7  1   
  9   5  28  1   
 10   5  29  1   
 11   6   8  1   
 12   6  30  1   
 13   6  31  1   
 14   7   8  1   
 15   7  32  1   
 16   7  33  1   
 17   8   9  am  
 18   9  10  2   
 19   9  11  1   
 20  11  12  1   
 21  11  13  1   
 22  11  34  1   
 23  12  14  1   
 24  13  15  1   
 25  13  16  1   
 26  13  35  1   
 27  14  17  1   
 28  14  36  1   
 29  14  37  1   
 30  15  17  am  
 31  15  18  1   
 32  16  19  ar  
 33  16  20  ar  
 34  17  21  2   
 35  18  38  1   
 36  18  39  1   
 37  18  40  1   
 38  19  22  ar  
 39  19  23  1   
 40  20  24  ar  
 41  20  41  1   
 42  22  25  ar  
 43  22  42  1   
 44  23  43  1   
 45  23  44  1   
 46  23  45  1   
 47  24  25  ar  
 48  24  46  1   
 49  25  47  1   
@<TRIPOS>SUBSTRUCTURE
  1 ****  11 GROUP 4 **** **** 0

# MOE 2024.06 (io_trps.svl 2023.06)
