@<TRIPOS>MOLECULE
NONAME
44 45 1 0 0 
SMALL
USER_CHARGES


@<TRIPOS>ATOM
  1 S        0.5450     0.5560     0.5890 S.o2  1 <1>   1.3330 
  2 O        1.5980     0.0290    -0.2500 O.2   1 <1>  -0.6500 
  3 O        0.7860     0.7660     1.9980 O.2   1 <1>  -0.6500 
  4 N       -0.8090    -0.4540     0.4210 N.am  1 <1>  -0.8490 
  5 C       -0.0290     2.1050    -0.1040 C.3   1 <1>  -0.0550 
  6 C       -0.8660    -1.4840     1.4630 C.3   1 <1>   0.1160 
  7 C       -0.9120    -1.0780    -0.9020 C.3   1 <1>   0.1160 
  8 C        0.9820     3.2520     0.0530 C.3   1 <1>  -0.0800 
  9 C        0.4500     4.5720    -0.4950 C.3   1 <1>   0.2000 
 10 C        2.3000     3.0460    -0.6990 C.3   1 <1>   0.1400 
 11 O       -0.3760     5.1750     0.4380 O.3   1 <1>  -0.6800 
 12 C        1.6900     5.4120    -0.7910 C.3   1 <1>   0.1400 
 13 N        2.7690     4.4140    -1.0250 N.am  1 <1>  -0.6600 
 14 C        4.0720     4.6910    -1.3500 C.2   1 <1>   0.5690 
 15 O        4.8940     3.8110    -1.4480 O.2   1 <1>  -0.5700 
 16 C        4.5310     6.1050    -1.6260 C.3   1 <1>   0.1570 
 17 N        4.5200     6.8880    -0.3870 N.pl3 1 <1>   0.3140 
 18 N        3.7150     7.9590    -0.2350 N.2   1 <1>  -0.7070 
 19 C        5.2560     6.6730     0.7220 C.2   1 <1>  -0.3020 
 20 C        3.9640     8.3980     0.9580 C.2   1 <1>   0.1080 
 21 C        4.9210     7.6310     1.6110 C.2   1 <1>  -0.1500 
 22 C        3.2700     9.6080     1.5370 C.3   1 <1>  -0.0590 
 23 H       -0.2580     1.9690    -1.1420 H     1 <1>   0.0800 
 24 H       -0.9370     2.3850     0.3960 H     1 <1>   0.0800 
 25 H       -1.7430    -2.0950     1.3370 H     1 <1>   0.0800 
 26 H       -0.9160    -1.0220     2.4350 H     1 <1>   0.0800 
 27 H        0.0120    -2.1070     1.4220 H     1 <1>   0.0800 
 28 H       -1.8310    -1.6330    -0.9790 H     1 <1>   0.0800 
 29 H       -0.0830    -1.7480    -1.0690 H     1 <1>   0.0800 
 30 H       -0.9050    -0.3250    -1.6710 H     1 <1>   0.0800 
 31 H        1.2270     3.3720     1.0960 H     1 <1>   0.0800 
 32 H       -0.1130     4.4220    -1.4010 H     1 <1>   0.0800 
 33 H        2.1460     2.5010    -1.6150 H     1 <1>   0.0800 
 34 H        3.0250     2.5230    -0.0950 H     1 <1>   0.0800 
 35 H        0.1160     5.3580     1.2620 H     1 <1>   0.4000 
 36 H        1.9430     6.0170     0.0620 H     1 <1>   0.0800 
 37 H        1.5420     6.0310    -1.6580 H     1 <1>   0.0800 
 38 H        3.8800     6.5680    -2.3410 H     1 <1>   0.0800 
 39 H        5.5300     6.0930    -2.0160 H     1 <1>   0.0800 
 40 H        5.9600     5.8650     0.8120 H     1 <1>   0.1500 
 41 H        5.2970     7.7880     2.6060 H     1 <1>   0.1500 
 42 H        3.6130     9.7970     2.5370 H     1 <1>   0.0800 
 43 H        2.2090     9.4410     1.5520 H     1 <1>   0.0800 
 44 H        3.4780    10.4660     0.9240 H     1 <1>   0.0800 
@<TRIPOS>BOND
  1   1   2  2   
  2   1   3  2   
  3   1   4  am  
  4   1   5  1   
  5   4   6  1   
  6   4   7  1   
  7   5   8  1   
  8   5  23  1   
  9   5  24  1   
 10   6  25  1   
 11   6  26  1   
 12   6  27  1   
 13   7  28  1   
 14   7  29  1   
 15   7  30  1   
 16   8   9  1   
 17   8  10  1   
 18   8  31  1   
 19   9  11  1   
 20   9  12  1   
 21   9  32  1   
 22  10  13  1   
 23  10  33  1   
 24  10  34  1   
 25  11  35  1   
 26  12  13  1   
 27  12  36  1   
 28  12  37  1   
 29  13  14  am  
 30  14  15  2   
 31  14  16  1   
 32  16  17  1   
 33  16  38  1   
 34  16  39  1   
 35  17  18  1   
 36  17  19  1   
 37  18  20  2   
 38  19  21  2   
 39  19  40  1   
 40  20  21  1   
 41  20  22  1   
 42  21  41  1   
 43  22  42  1   
 44  22  43  1   
 45  22  44  1   
@<TRIPOS>SUBSTRUCTURE
  1 ****  10 GROUP 4 **** **** 0

# MOE 2024.06 (io_trps.svl 2023.06)
