@<TRIPOS>MOLECULE
NONAME
36 37 1 0 0 
SMALL
USER_CHARGES


@<TRIPOS>ATOM
  1 O        0.1910    -0.9850    -0.9840 O.3   1 <1>  -0.5600 
  2 C       -0.3360    -2.0620    -0.2590 C.3   1 <1>   0.2000 
  3 C        0.0700     0.2560    -0.3590 C.3   1 <1>   0.1200 
  4 C        0.4640    -2.2120     1.0490 C.3   1 <1>  -0.1600 
  5 C       -0.2660    -3.3120    -1.1530 C.3   1 <1>   0.2090 
  6 C        0.8850     0.2560     0.9390 C.3   1 <1>  -0.1600 
  7 C        0.4630    -0.9040     1.8480 C.3   1 <1>  -0.1600 
  8 N       -0.7900    -4.5450    -0.4680 N.pl3 1 <1>  -0.8380 
  9 C       -2.1040    -4.5690    -0.0060 C.ar  1 <1>   0.4100 
 10 C       -0.1500    -5.8190    -0.8930 C.3   1 <1>   0.2090 
 11 N       -2.9960    -4.0540    -0.8480 N.ar  1 <1>  -0.6200 
 12 C       -2.4650    -5.0920     1.2610 C.ar  1 <1>   0.3830 
 13 C       -0.5420    -6.1510    -2.3300 C.3   1 <1>  -0.2400 
 14 C       -4.2320    -4.1020    -0.3930 C.ar  1 <1>   0.1600 
 15 N       -3.7240    -5.1320     1.7030 N.ar  1 <1>  -0.6200 
 16 C       -1.4290    -5.5920     2.1200 C.1   1 <1>   0.4840 
 17 C       -4.5860    -4.6250     0.8400 C.ar  1 <1>   0.1600 
 18 N       -0.5960    -6.0000     2.7900 N.1   1 <1>  -0.5570 
 19 H       -1.3680    -1.8420    -0.0490 H     1 <1>   0.0800 
 20 H       -0.9720     0.4450    -0.1670 H     1 <1>   0.0800 
 21 H        0.4430     1.0030    -1.0380 H     1 <1>   0.0800 
 22 H        1.4740    -2.4930     0.8100 H     1 <1>   0.0800 
 23 H        0.0410    -2.9970     1.6480 H     1 <1>   0.0800 
 24 H        0.7610    -3.4690    -1.4320 H     1 <1>   0.0800 
 25 H       -0.8370    -3.1340    -2.0470 H     1 <1>   0.0800 
 26 H        0.7490     1.1910     1.4510 H     1 <1>   0.0800 
 27 H        1.9280     0.1630     0.6910 H     1 <1>   0.0800 
 28 H        1.1320    -0.9820     2.6880 H     1 <1>   0.0800 
 29 H       -0.5290    -0.7190     2.2240 H     1 <1>   0.0800 
 30 H       -0.4650    -6.6210    -0.2470 H     1 <1>   0.0800 
 31 H        0.9200    -5.7290    -0.8090 H     1 <1>   0.0800 
 32 H       -1.6120    -6.2160    -2.4180 H     1 <1>   0.0800 
 33 H       -0.1180    -7.0980    -2.6100 H     1 <1>   0.0800 
 34 H       -0.1750    -5.4030    -3.0080 H     1 <1>   0.0800 
 35 H       -5.0040    -3.7060    -1.0290 H     1 <1>   0.1500 
 36 H       -5.6240    -4.6220     1.1240 H     1 <1>   0.1500 
@<TRIPOS>BOND
  1   1   2  1   
  2   1   3  1   
  3   2   4  1   
  4   2   5  1   
  5   2  19  1   
  6   3   6  1   
  7   3  20  1   
  8   3  21  1   
  9   4   7  1   
 10   4  22  1   
 11   4  23  1   
 12   5   8  1   
 13   5  24  1   
 14   5  25  1   
 15   6   7  1   
 16   6  26  1   
 17   6  27  1   
 18   7  28  1   
 19   7  29  1   
 20   8   9  1   
 21   8  10  1   
 22   9  11  ar  
 23   9  12  ar  
 24  10  13  1   
 25  10  30  1   
 26  10  31  1   
 27  11  14  ar  
 28  12  15  ar  
 29  12  16  1   
 30  13  32  1   
 31  13  33  1   
 32  13  34  1   
 33  14  17  ar  
 34  14  35  1   
 35  15  17  ar  
 36  16  18  3   
 37  17  36  1   
@<TRIPOS>SUBSTRUCTURE
  1 ****   8 GROUP 4 **** **** 0

# MOE 2024.06 (io_trps.svl 2023.06)
