@<TRIPOS>MOLECULE
NONAME
52 54 1 0 0 
SMALL
USER_CHARGES


@<TRIPOS>ATOM
  1 O        0.0460    -0.0190    -0.7220 O.2   1 <1>  -0.5700 
  2 C       -0.9380     0.6730    -0.6220 C.2   1 <1>   0.5690 
  3 N       -2.1810     0.1330    -0.4430 N.am  1 <1>  -0.6600 
  4 C       -0.7550     2.1760    -0.6830 C.3   1 <1>  -0.0990 
  5 C       -3.4660     0.8680    -0.3190 C.3   1 <1>   0.1400 
  6 C       -2.3940    -1.3250    -0.2810 C.3   1 <1>   0.1400 
  7 C       -0.5550     2.7600     0.7200 C.3   1 <1>  -0.0160 
  8 C       -4.5340    -0.2200    -0.2080 C.3   1 <1>   0.2000 
  9 C       -3.8010    -1.4570     0.3030 C.3   1 <1>  -0.0800 
 10 C       -0.5130     4.2760     0.6570 C.ar  1 <1>  -0.1440 
 11 O       -5.5380     0.1410     0.6750 O.3   1 <1>  -0.6800 
 12 C       -4.4990    -2.7750    -0.0650 C.3   1 <1>   0.0210 
 13 C        0.6760     4.9290     0.3800 C.ar  1 <1>  -0.1500 
 14 C       -1.6650     5.0180     0.8690 C.ar  1 <1>  -0.1500 
 15 C       -3.6730    -3.9670     0.3790 C.2   1 <1>   0.1080 
 16 C        0.7220     6.3120     0.3140 C.ar  1 <1>  -0.1430 
 17 C       -1.6320     6.4010     0.8060 C.ar  1 <1>  -0.1430 
 18 N       -3.3510    -4.1750     1.6180 N.2   1 <1>  -0.7070 
 19 C       -3.1650    -4.9450    -0.4690 C.2   1 <1>  -0.1500 
 20 C       -0.4360     7.0420     0.5260 C.ar  1 <1>  -0.1500 
 21 C        2.0280     7.0200     0.0070 C.3   1 <1>  -0.0970 
 22 C       -2.8960     7.2090     1.0360 C.3   1 <1>  -0.0970 
 23 N       -2.6200    -5.3060     1.5930 N.pl3 1 <1>   0.3000 
 24 C       -2.4920    -5.7900     0.3400 C.2   1 <1>  -0.3320 
 25 C       -1.7230    -7.0500    -0.0130 C.3   1 <1>  -0.0600 
 26 H        0.1100     2.3930    -1.2820 H     1 <1>   0.0800 
 27 H       -1.5990     2.6360    -1.1590 H     1 <1>   0.0800 
 28 H       -3.4460     1.4750     0.5680 H     1 <1>   0.0800 
 29 H       -3.6390     1.4770    -1.1890 H     1 <1>   0.0800 
 30 H       -2.3280    -1.7970    -1.2470 H     1 <1>   0.0800 
 31 H       -1.6550    -1.7550     0.3750 H     1 <1>   0.0800 
 32 H        0.3630     2.3840     1.1380 H     1 <1>   0.0800 
 33 H       -1.3560     2.4470     1.3660 H     1 <1>   0.0800 
 34 H       -4.9770    -0.3930    -1.1740 H     1 <1>   0.0800 
 35 H       -3.7000    -1.4020     1.3730 H     1 <1>   0.0800 
 36 H       -5.2070     0.1090     1.5940 H     1 <1>   0.4000 
 37 H       -4.6580    -2.8270    -1.1260 H     1 <1>   0.0800 
 38 H       -5.4570    -2.8210     0.4210 H     1 <1>   0.0800 
 39 H        1.5720     4.3580     0.2130 H     1 <1>   0.1500 
 40 H       -2.5920     4.5180     1.0830 H     1 <1>   0.1500 
 41 H       -3.2940    -4.9930    -1.5350 H     1 <1>   0.1500 
 42 H       -0.4070     8.1150     0.4710 H     1 <1>   0.1500 
 43 H        2.0460     7.9920     0.4650 H     1 <1>   0.0800 
 44 H        2.1380     7.1320    -1.0560 H     1 <1>   0.0800 
 45 H        2.8600     6.4520     0.3850 H     1 <1>   0.0800 
 46 H       -2.6580     8.1640     1.4660 H     1 <1>   0.0800 
 47 H       -3.5570     6.6910     1.7070 H     1 <1>   0.0800 
 48 H       -3.4020     7.3650     0.1000 H     1 <1>   0.0800 
 49 H       -2.2230    -5.7180     2.4460 H     1 <1>   0.2700 
 50 H       -1.7680    -7.2260    -1.0730 H     1 <1>   0.0800 
 51 H       -2.1450    -7.8990     0.4940 H     1 <1>   0.0800 
 52 H       -0.6910    -6.9470     0.2730 H     1 <1>   0.0800 
@<TRIPOS>BOND
  1   1   2  2   
  2   2   3  am  
  3   2   4  1   
  4   3   5  1   
  5   3   6  1   
  6   4   7  1   
  7   4  26  1   
  8   4  27  1   
  9   5   8  1   
 10   5  28  1   
 11   5  29  1   
 12   6   9  1   
 13   6  30  1   
 14   6  31  1   
 15   7  10  1   
 16   7  32  1   
 17   7  33  1   
 18   8   9  1   
 19   8  11  1   
 20   8  34  1   
 21   9  12  1   
 22   9  35  1   
 23  10  13  ar  
 24  10  14  ar  
 25  11  36  1   
 26  12  15  1   
 27  12  37  1   
 28  12  38  1   
 29  13  16  ar  
 30  13  39  1   
 31  14  17  ar  
 32  14  40  1   
 33  15  18  2   
 34  15  19  1   
 35  16  20  ar  
 36  16  21  1   
 37  17  20  ar  
 38  17  22  1   
 39  18  23  1   
 40  19  24  2   
 41  19  41  1   
 42  20  42  1   
 43  21  43  1   
 44  21  44  1   
 45  21  45  1   
 46  22  46  1   
 47  22  47  1   
 48  22  48  1   
 49  23  24  1   
 50  23  49  1   
 51  24  25  1   
 52  25  50  1   
 53  25  51  1   
 54  25  52  1   
@<TRIPOS>SUBSTRUCTURE
  1 ****   3 GROUP 4 **** **** 0

# MOE 2024.06 (io_trps.svl 2023.06)
