@<TRIPOS>MOLECULE
NONAME
55 57 1 0 0 
SMALL
USER_CHARGES


@<TRIPOS>ATOM
  1 F        1.5060    -0.6300     1.9680 F     1 <1>  -0.1900 
  2 C        2.3390    -0.6360     0.9610 C.ar  1 <1>   0.1900 
  3 C        1.9350    -1.1710    -0.2530 C.ar  1 <1>  -0.1440 
  4 C        3.5990    -0.1020     1.1590 C.ar  1 <1>  -0.1500 
  5 C        2.8470    -1.1610    -1.2970 C.ar  1 <1>  -0.1500 
  6 C        0.5410    -1.7510    -0.4400 C.3   1 <1>  -0.0960 
  7 C        4.5020    -0.0970     0.1060 C.ar  1 <1>  -0.1430 
  8 C        4.1160    -0.6300    -1.1170 C.ar  1 <1>  -0.1500 
  9 C        5.9010     0.4820     0.2790 C.3   1 <1>   0.1270 
 10 C        7.0170    -0.5660     0.1860 C.ar  1 <1>  -0.1430 
 11 C        8.2880    -0.2340    -0.3120 C.ar  1 <1>   0.0860 
 12 C        6.7580    -1.8670     0.5980 C.ar  1 <1>  -0.1500 
 13 C        8.6830     1.1120    -0.6970 C.2   1 <1>   0.5440 
 14 C        9.2340    -1.2550    -0.4220 C.ar  1 <1>  -0.1500 
 15 C        7.7220    -2.8530     0.4980 C.ar  1 <1>  -0.1500 
 16 O        9.3350     1.3200    -1.7050 O.2   1 <1>  -0.5700 
 17 N        8.4680     2.1940     0.1220 N.am  1 <1>  -0.6600 
 18 C        8.9620    -2.5470    -0.0220 C.ar  1 <1>  -0.1500 
 19 C        8.2320     3.5380    -0.5190 C.3   1 <1>   0.1400 
 20 C        9.3420     2.2900     1.3290 C.3   1 <1>   0.1400 
 21 C        9.5310     4.3910    -0.6210 C.3   1 <1>   0.4230 
 22 C       10.7390     2.8440     0.9430 C.3   1 <1>   0.3430 
 23 N       10.7280     3.5050    -0.4120 N.4   1 <1>  -0.9590 
 24 C        9.5410     5.6000     0.3430 C.3   1 <1>  -0.1600 
 25 C       12.0200     4.1530    -0.7850 C.3   1 <1>   0.2630 
 26 C        9.6710     6.9250    -0.4130 C.3   1 <1>   0.1200 
 27 O       10.7840     6.8570    -1.2300 O.3   1 <1>  -0.6800 
 28 H        3.8550     0.2970     2.1230 H     1 <1>   0.1500 
 29 H        2.5780    -1.5670    -2.2560 H     1 <1>   0.1500 
 30 H        0.3890    -2.5640     0.2480 H     1 <1>   0.0800 
 31 H        0.4060    -2.1190    -1.4410 H     1 <1>   0.0800 
 32 H       -0.1980    -0.9940    -0.2490 H     1 <1>   0.0800 
 33 H        4.8090    -0.6380    -1.9410 H     1 <1>   0.1500 
 34 H        5.9750     0.9820     1.2270 H     1 <1>   0.0800 
 35 H        6.0260     1.2230    -0.4890 H     1 <1>   0.0800 
 36 H        5.7950    -2.1370     0.9990 H     1 <1>   0.1500 
 37 H       10.2030    -1.0300    -0.8320 H     1 <1>   0.1500 
 38 H        7.5010    -3.8570     0.8190 H     1 <1>   0.1500 
 39 H        9.7110    -3.3160    -0.1150 H     1 <1>   0.1500 
 40 H        7.4620     4.0610     0.0210 H     1 <1>   0.0800 
 41 H        7.8530     3.3870    -1.5160 H     1 <1>   0.0800 
 42 H        9.4490     1.3230     1.7910 H     1 <1>   0.0800 
 43 H        8.8810     2.9430     2.0500 H     1 <1>   0.0800 
 44 H        9.5710     4.7830    -1.6250 H     1 <1>   0.0800 
 45 H       11.4430     2.0280     0.9310 H     1 <1>   0.0800 
 46 H       11.0640     3.5410     1.6970 H     1 <1>   0.0800 
 47 H       10.5410     2.7240    -1.0790 H     1 <1>   0.4500 
 48 H       10.3450     5.5390     1.0520 H     1 <1>   0.0800 
 49 H        8.6290     5.6420     0.9100 H     1 <1>   0.0800 
 50 H       12.2300     4.9770    -0.1230 H     1 <1>   0.0800 
 51 H       11.9630     4.5380    -1.7910 H     1 <1>   0.0800 
 52 H       12.8280     3.4430    -0.7310 H     1 <1>   0.0800 
 53 H        9.8000     7.7470     0.2730 H     1 <1>   0.0800 
 54 H        8.8080     7.1100    -1.0320 H     1 <1>   0.0800 
 55 H       10.9420     7.7230    -1.6670 H     1 <1>   0.4000 
@<TRIPOS>BOND
  1   1   2  1   
  2   2   3  ar  
  3   2   4  ar  
  4   3   5  ar  
  5   3   6  1   
  6   4   7  ar  
  7   4  28  1   
  8   5   8  ar  
  9   5  29  1   
 10   6  30  1   
 11   6  31  1   
 12   6  32  1   
 13   7   8  ar  
 14   7   9  1   
 15   8  33  1   
 16   9  10  1   
 17   9  34  1   
 18   9  35  1   
 19  10  11  ar  
 20  10  12  ar  
 21  11  13  1   
 22  11  14  ar  
 23  12  15  ar  
 24  12  36  1   
 25  13  16  2   
 26  13  17  am  
 27  14  18  ar  
 28  14  37  1   
 29  15  18  ar  
 30  15  38  1   
 31  17  19  1   
 32  17  20  1   
 33  18  39  1   
 34  19  21  1   
 35  19  40  1   
 36  19  41  1   
 37  20  22  1   
 38  20  42  1   
 39  20  43  1   
 40  21  23  1   
 41  21  24  1   
 42  21  44  1   
 43  22  23  1   
 44  22  45  1   
 45  22  46  1   
 46  23  25  1   
 47  23  47  1   
 48  24  26  1   
 49  24  48  1   
 50  24  49  1   
 51  25  50  1   
 52  25  51  1   
 53  25  52  1   
 54  26  27  1   
 55  26  53  1   
 56  26  54  1   
 57  27  55  1   
@<TRIPOS>SUBSTRUCTURE
  1 ****   9 GROUP 4 **** **** 0

# MOE 2024.06 (io_trps.svl 2023.06)
