@<TRIPOS>MOLECULE
NONAME
51 52 1 0 0 
SMALL
USER_CHARGES


@<TRIPOS>ATOM
  1 O       -0.7620     0.9740    -1.3980 O.3   1 <1>  -0.6800 
  2 C       -0.6260     2.3000    -1.0160 C.3   1 <1>   0.2000 
  3 C       -1.5890     2.6690     0.1570 C.3   1 <1>   0.0000 
  4 C        0.8470     2.5410    -0.6470 C.3   1 <1>   0.3430 
  5 C       -1.0180     3.8870     0.9460 C.3   1 <1>  -0.1600 
  6 C       -1.7200     1.4670     1.1370 C.3   1 <1>   0.1200 
  7 C       -3.0040     2.9900    -0.4090 C.3   1 <1>  -0.1600 
  8 N        1.1200     3.9840    -0.3080 N.4   1 <1>  -0.9590 
  9 C       -0.0880     4.7680     0.1100 C.3   1 <1>   0.3430 
 10 O       -2.4980     1.7920     2.2410 O.3   1 <1>  -0.6800 
 11 C       -3.1310     4.2320    -1.3150 C.3   1 <1>  -0.1600 
 12 C        1.8570     4.6790    -1.4000 C.3   1 <1>   0.4860 
 13 C       -4.5770     4.4000    -1.7900 C.3   1 <1>  -0.2400 
 14 C        2.3370     6.0150    -0.8640 C.ar  1 <1>  -0.1430 
 15 C        3.4010     6.1280     0.0330 C.ar  1 <1>  -0.1430 
 16 C        1.6600     7.1510    -1.2860 C.ar  1 <1>  -0.1500 
 17 C        3.7470     7.3870     0.5200 C.ar  1 <1>  -0.1430 
 18 C        4.2100     4.9130     0.4950 C.3   1 <1>  -0.0970 
 19 C        2.0160     8.3940    -0.8080 C.ar  1 <1>  -0.1500 
 20 C        3.0530     8.5080     0.0960 C.ar  1 <1>  -0.1500 
 21 C        4.8840     7.5910     1.5160 C.3   1 <1>  -0.0970 
 22 H       -1.6730     0.7890    -1.7110 H     1 <1>   0.4000 
 23 H       -0.8380     2.8860    -1.8900 H     1 <1>   0.0800 
 24 H        1.4730     2.2250    -1.4650 H     1 <1>   0.0800 
 25 H        1.0750     1.9280     0.2080 H     1 <1>   0.0800 
 26 H       -0.4580     3.5560     1.8030 H     1 <1>   0.0800 
 27 H       -1.8260     4.4870     1.3280 H     1 <1>   0.0800 
 28 H       -0.7580     1.1390     1.4940 H     1 <1>   0.0800 
 29 H       -2.2010     0.6330     0.6540 H     1 <1>   0.0800 
 30 H       -3.3630     2.1320    -0.9520 H     1 <1>   0.0800 
 31 H       -3.6840     3.1260     0.4160 H     1 <1>   0.0800 
 32 H        1.7680     4.0110     0.4910 H     1 <1>   0.4500 
 33 H        0.2160     5.6330     0.6810 H     1 <1>   0.0800 
 34 H       -0.6200     5.1150    -0.7610 H     1 <1>   0.0800 
 35 H       -2.0260     2.3730     2.8670 H     1 <1>   0.4000 
 36 H       -2.8550     5.1200    -0.7750 H     1 <1>   0.0800 
 37 H       -2.5050     4.1510    -2.1840 H     1 <1>   0.0800 
 38 H        2.7050     4.0950    -1.7170 H     1 <1>   0.0800 
 39 H        1.2130     4.8310    -2.2500 H     1 <1>   0.0800 
 40 H       -5.2410     4.5180    -0.9500 H     1 <1>   0.0800 
 41 H       -4.8920     3.5430    -2.3590 H     1 <1>   0.0800 
 42 H       -4.6640     5.2720    -2.4140 H     1 <1>   0.0800 
 43 H        0.8490     7.0880    -1.9920 H     1 <1>   0.1500 
 44 H        5.2620     5.1230     0.4130 H     1 <1>   0.0800 
 45 H        4.0270     4.0330    -0.0900 H     1 <1>   0.0800 
 46 H        3.9900     4.6950     1.5250 H     1 <1>   0.0800 
 47 H        1.4930     9.2770    -1.1360 H     1 <1>   0.1500 
 48 H        3.3190     9.4850     0.4630 H     1 <1>   0.1500 
 49 H        4.9020     8.6030     1.8800 H     1 <1>   0.0800 
 50 H        5.8290     7.3910     1.0430 H     1 <1>   0.0800 
 51 H        4.7680     6.9400     2.3630 H     1 <1>   0.0800 
@<TRIPOS>BOND
  1   1   2  1   
  2   1  22  1   
  3   2   3  1   
  4   2   4  1   
  5   2  23  1   
  6   3   5  1   
  7   3   6  1   
  8   3   7  1   
  9   4   8  1   
 10   4  24  1   
 11   4  25  1   
 12   5   9  1   
 13   5  26  1   
 14   5  27  1   
 15   6  10  1   
 16   6  28  1   
 17   6  29  1   
 18   7  11  1   
 19   7  30  1   
 20   7  31  1   
 21   8   9  1   
 22   8  12  1   
 23   8  32  1   
 24   9  33  1   
 25   9  34  1   
 26  10  35  1   
 27  11  13  1   
 28  11  36  1   
 29  11  37  1   
 30  12  14  1   
 31  12  38  1   
 32  12  39  1   
 33  13  40  1   
 34  13  41  1   
 35  13  42  1   
 36  14  15  ar  
 37  14  16  ar  
 38  15  17  ar  
 39  15  18  1   
 40  16  19  ar  
 41  16  43  1   
 42  17  20  ar  
 43  17  21  1   
 44  18  44  1   
 45  18  45  1   
 46  18  46  1   
 47  19  20  ar  
 48  19  47  1   
 49  20  48  1   
 50  21  49  1   
 51  21  50  1   
 52  21  51  1   
@<TRIPOS>SUBSTRUCTURE
  1 ****   9 GROUP 4 **** **** 0

# MOE 2024.06 (io_trps.svl 2023.06)
