@<TRIPOS>MOLECULE
NONAME
44 47 1 0 0 
SMALL
USER_CHARGES


@<TRIPOS>ATOM
  1 CL       0.1370     0.5640    -1.0790 Cl    1 <1>  -0.1770 
  2 C        0.2570     2.2700    -0.7430 C.ar  1 <1>   0.1770 
  3 C        1.2870     2.7380     0.0390 C.ar  1 <1>  -0.1500 
  4 C       -0.6920     3.1300    -1.2720 C.ar  1 <1>  -0.1500 
  5 C        1.3840     4.1010     0.3080 C.ar  1 <1>   0.1000 
  6 C       -0.5990     4.4800    -1.0080 C.ar  1 <1>  -0.1500 
  7 N        2.4150     4.5930     1.0970 N.pl3 1 <1>  -0.6000 
  8 C        0.4360     4.9980    -0.2160 C.ar  1 <1>   0.0860 
  9 C        2.5170     5.9170     1.4000 C.2   1 <1>  -0.0500 
 10 C        0.5660     6.4070     0.0710 C.2   1 <1>   0.4690 
 11 C        1.6270     6.8390     0.9210 C.2   1 <1>   0.0290 
 12 O       -0.2060     7.2080    -0.4420 O.2   1 <1>  -0.5700 
 13 C        1.7400     8.2220     1.2750 C.2   1 <1>   0.6160 
 14 O        1.4510     8.5490     2.4140 O.2   1 <1>  -0.5700 
 15 N        2.2470     9.1810     0.4110 N.am  1 <1>  -0.6600 
 16 C        2.7020    10.5050     0.9440 C.3   1 <1>   0.1400 
 17 C        2.6080     8.8810    -1.0110 C.3   1 <1>   0.1400 
 18 C        4.2370    10.6940     0.9680 C.3   1 <1>   0.2200 
 19 C        4.1210     8.8830    -1.3110 C.3   1 <1>  -0.0190 
 20 N        4.7380    11.1110    -0.3730 N.am  1 <1>  -0.6600 
 21 C        5.0610     9.5080     1.5350 C.3   1 <1>   0.1200 
 22 C        4.6500    10.2910    -1.4600 C.2   1 <1>   0.5690 
 23 C        5.0340     8.0560    -0.3850 C.3   1 <1>   0.1200 
 24 C        5.2780    12.4970    -0.4700 C.3   1 <1>   0.0600 
 25 O        4.7920     8.2470     0.9760 O.3   1 <1>  -0.5600 
 26 O        4.9950    10.6480    -2.5620 O.2   1 <1>  -0.5700 
 27 H        2.0080     2.0490     0.4380 H     1 <1>   0.1500 
 28 H       -1.4870     2.7350    -1.8800 H     1 <1>   0.1500 
 29 H       -1.3320     5.1580    -1.4140 H     1 <1>   0.1500 
 30 H        3.0970     3.9260     1.4830 H     1 <1>   0.4000 
 31 H        3.3280     6.2330     2.0410 H     1 <1>   0.1500 
 32 H        2.2570    11.2900     0.3580 H     1 <1>   0.0800 
 33 H        2.3430    10.6340     1.9500 H     1 <1>   0.0800 
 34 H        2.2150     7.9250    -1.2960 H     1 <1>   0.0800 
 35 H        2.1260     9.6080    -1.6420 H     1 <1>   0.0800 
 36 H        4.4180    11.5190     1.6330 H     1 <1>   0.0800 
 37 H        4.2230     8.4420    -2.2850 H     1 <1>   0.0800 
 38 H        4.8430     9.4180     2.5850 H     1 <1>   0.0800 
 39 H        6.1130     9.7060     1.4310 H     1 <1>   0.0800 
 40 H        6.0710     8.2750    -0.5800 H     1 <1>   0.0800 
 41 H        4.8710     7.0100    -0.5780 H     1 <1>   0.0800 
 42 H        6.1040    12.6150     0.2090 H     1 <1>   0.0800 
 43 H        4.5080    13.2060    -0.2240 H     1 <1>   0.0800 
 44 H        5.6260    12.7040    -1.4680 H     1 <1>   0.0800 
@<TRIPOS>BOND
  1   1   2  1   
  2   2   3  ar  
  3   2   4  ar  
  4   3   5  ar  
  5   3  27  1   
  6   4   6  ar  
  7   4  28  1   
  8   5   7  1   
  9   5   8  ar  
 10   6   8  ar  
 11   6  29  1   
 12   7   9  1   
 13   7  30  1   
 14   8  10  1   
 15   9  11  2   
 16   9  31  1   
 17  10  11  1   
 18  10  12  2   
 19  11  13  1   
 20  13  14  2   
 21  13  15  am  
 22  15  16  1   
 23  15  17  1   
 24  16  18  1   
 25  16  32  1   
 26  16  33  1   
 27  17  19  1   
 28  17  34  1   
 29  17  35  1   
 30  18  20  1   
 31  18  21  1   
 32  18  36  1   
 33  19  22  1   
 34  19  23  1   
 35  19  37  1   
 36  20  22  am  
 37  20  24  1   
 38  21  25  1   
 39  21  38  1   
 40  21  39  1   
 41  22  26  2   
 42  23  25  1   
 43  23  40  1   
 44  23  41  1   
 45  24  42  1   
 46  24  43  1   
 47  24  44  1   
@<TRIPOS>SUBSTRUCTURE
  1 ****  11 GROUP 4 **** **** 0

# MOE 2024.06 (io_trps.svl 2023.06)
