@<TRIPOS>MOLECULE
NONAME
49 52 1 0 0 
SMALL
USER_CHARGES


@<TRIPOS>ATOM
  1 CL       1.0570     1.4560     1.4420 Cl    1 <1>  -0.1770 
  2 C        1.5340    -0.0130     0.6210 C.ar  1 <1>   0.1770 
  3 C        2.6320    -0.0270    -0.2410 C.ar  1 <1>   0.0540 
  4 C        0.7890    -1.1490     0.8800 C.ar  1 <1>  -0.1500 
  5 C        3.4110     1.1540    -0.5370 C.2   1 <1>   0.4620 
  6 C        2.9630    -1.2520    -0.8210 C.ar  1 <1>  -0.1500 
  7 C        1.1350    -2.3480     0.2820 C.ar  1 <1>  -0.1500 
  8 N        2.9550     2.2940    -0.9160 N.2   1 <1>  -0.4100 
  9 N        4.7450     1.1490    -0.4670 N.2   1 <1>  -0.5650 
 10 C        2.2260    -2.3970    -0.5680 C.ar  1 <1>  -0.1500 
 11 O        3.9660     3.0870    -1.0880 O.3   1 <1>  -0.0190 
 12 C        5.0040     2.3440    -0.8020 C.2   1 <1>   0.2980 
 13 C        6.3900     2.9530    -0.9010 C.3   1 <1>   0.0200 
 14 C        6.6100     4.0420     0.1590 C.3   1 <1>  -0.1600 
 15 C        8.0350     4.6250     0.0940 C.3   1 <1>  -0.0990 
 16 C        8.2970     5.7620     1.0790 C.2   1 <1>   0.5690 
 17 O        7.4710     5.9810     1.9340 O.2   1 <1>  -0.5700 
 18 N        9.4380     6.5210     0.9730 N.am  1 <1>  -0.6600 
 19 C        9.5390     7.8230     1.7190 C.3   1 <1>   0.1400 
 20 C       10.5440     6.2660    -0.0080 C.3   1 <1>   0.1400 
 21 C        9.3980     9.0810     0.8180 C.3   1 <1>   0.2200 
 22 C       10.5360     7.2520    -1.1970 C.3   1 <1>  -0.0190 
 23 N        8.7260     8.7960    -0.4840 N.am  1 <1>  -0.7300 
 24 C       10.7630     9.7560     0.5700 C.3   1 <1>   0.1200 
 25 C        9.1810     7.9060    -1.3930 C.2   1 <1>   0.5690 
 26 C       11.6430     8.3160    -1.1060 C.3   1 <1>   0.1200 
 27 O       11.7550     8.8480     0.1800 O.3   1 <1>  -0.5600 
 28 O        8.5110     7.6070    -2.3490 O.2   1 <1>  -0.5700 
 29 H       -0.0520    -1.0930     1.5470 H     1 <1>   0.1500 
 30 H        3.8110    -1.3030    -1.4830 H     1 <1>   0.1500 
 31 H        0.5610    -3.2380     0.4780 H     1 <1>   0.1500 
 32 H        2.5030    -3.3280    -1.0320 H     1 <1>   0.1500 
 33 H        7.1170     2.1710    -0.7700 H     1 <1>   0.0800 
 34 H        6.5150     3.3670    -1.8850 H     1 <1>   0.0800 
 35 H        6.4390     3.6270     1.1390 H     1 <1>   0.0800 
 36 H        5.8960     4.8350     0.0100 H     1 <1>   0.0800 
 37 H        8.2020     5.0010    -0.9000 H     1 <1>   0.0800 
 38 H        8.7450     3.8430     0.2900 H     1 <1>   0.0800 
 39 H        8.7720     7.8710     2.4720 H     1 <1>   0.0800 
 40 H       10.4760     7.8530     2.2460 H     1 <1>   0.0800 
 41 H       11.4860     6.3230     0.5090 H     1 <1>   0.0800 
 42 H       10.4670     5.2650    -0.3910 H     1 <1>   0.0800 
 43 H        8.7920     9.7960     1.3460 H     1 <1>   0.0800 
 44 H       10.7390     6.6870    -2.0880 H     1 <1>   0.0800 
 45 H        7.7490     9.0770    -0.5780 H     1 <1>   0.3700 
 46 H       11.1030    10.2020     1.4880 H     1 <1>   0.0800 
 47 H       10.6810    10.5340    -0.1700 H     1 <1>   0.0800 
 48 H       11.4770     9.1160    -1.8090 H     1 <1>   0.0800 
 49 H       12.5910     7.8610    -1.3320 H     1 <1>   0.0800 
@<TRIPOS>BOND
  1   1   2  1   
  2   2   3  ar  
  3   2   4  ar  
  4   3   5  1   
  5   3   6  ar  
  6   4   7  ar  
  7   4  29  1   
  8   5   8  2   
  9   5   9  1   
 10   6  10  ar  
 11   6  30  1   
 12   7  10  ar  
 13   7  31  1   
 14   8  11  1   
 15   9  12  2   
 16  10  32  1   
 17  11  12  1   
 18  12  13  1   
 19  13  14  1   
 20  13  33  1   
 21  13  34  1   
 22  14  15  1   
 23  14  35  1   
 24  14  36  1   
 25  15  16  1   
 26  15  37  1   
 27  15  38  1   
 28  16  17  2   
 29  16  18  am  
 30  18  19  1   
 31  18  20  1   
 32  19  21  1   
 33  19  39  1   
 34  19  40  1   
 35  20  22  1   
 36  20  41  1   
 37  20  42  1   
 38  21  23  1   
 39  21  24  1   
 40  21  43  1   
 41  22  25  1   
 42  22  26  1   
 43  22  44  1   
 44  23  25  am  
 45  23  45  1   
 46  24  27  1   
 47  24  46  1   
 48  24  47  1   
 49  25  28  2   
 50  26  27  1   
 51  26  48  1   
 52  26  49  1   
@<TRIPOS>SUBSTRUCTURE
  1 ****  14 GROUP 4 **** **** 0

# MOE 2024.06 (io_trps.svl 2023.06)
