@<TRIPOS>MOLECULE
NONAME
51 53 1 0 0 
SMALL
USER_CHARGES


@<TRIPOS>ATOM
  1 O        2.1680    -0.1600    -1.7360 O.3   1 <1>  -0.6800 
  2 C        1.6910     0.1050    -0.4670 C.3   1 <1>   0.2800 
  3 C        2.8910     0.4290     0.4610 C.3   1 <1>  -0.0800 
  4 C        0.9730    -1.1610     0.0330 C.3   1 <1>  -0.1600 
  5 C        0.6830     1.2690    -0.5890 C.3   1 <1>  -0.1600 
  6 C        3.5750    -0.7880     1.1210 C.3   1 <1>  -0.0800 
  7 C        4.0280     1.1610    -0.2410 C.3   1 <1>   0.3430 
  8 C        1.8740    -2.4100     0.1250 C.3   1 <1>  -0.1600 
  9 C        1.2360     2.5960    -1.1400 C.3   1 <1>  -0.2400 
 10 C        3.3640    -2.0870     0.3240 C.3   1 <1>  -0.1600 
 11 C        5.0660    -0.4400     1.2060 C.3   1 <1>   0.3430 
 12 N        5.2050     0.9110     0.6170 N.4   1 <1>  -0.9590 
 13 C        6.4850     1.2030    -0.0700 C.3   1 <1>   0.5240 
 14 C        6.5910     2.7190    -0.1530 C.2   1 <1>   0.0460 
 15 N        6.2400     3.4640     0.9180 N.2   1 <1>  -0.5650 
 16 C        6.9760     3.5050    -1.1850 C.2   1 <1>  -0.3320 
 17 C        6.4230     4.6820     0.5250 C.2   1 <1>   0.0060 
 18 N        6.8720     4.7740    -0.7450 N.pl3 1 <1>   0.0330 
 19 C        7.4450     3.1670    -2.5910 C.3   1 <1>  -0.0600 
 20 C        6.1660     5.9020     1.3910 C.3   1 <1>   0.0200 
 21 C        4.9420     6.6840     0.9030 C.3   1 <1>  -0.2400 
 22 H        1.4250    -0.4370    -2.3060 H     1 <1>   0.4000 
 23 H        2.5360     1.0620     1.2560 H     1 <1>   0.0800 
 24 H        0.5930    -0.9530     1.0180 H     1 <1>   0.0800 
 25 H        0.1190    -1.3790    -0.5850 H     1 <1>   0.0800 
 26 H       -0.1300     0.9550    -1.2210 H     1 <1>   0.0800 
 27 H        0.2570     1.4620     0.3810 H     1 <1>   0.0800 
 28 H        3.1840    -0.9320     2.1140 H     1 <1>   0.0800 
 29 H        3.8320     2.2160    -0.3440 H     1 <1>   0.0800 
 30 H        4.1910     0.7310    -1.2150 H     1 <1>   0.0800 
 31 H        1.5260    -3.0250     0.9380 H     1 <1>   0.0800 
 32 H        1.7710    -2.9900    -0.7770 H     1 <1>   0.0800 
 33 H        1.7350     2.4450    -2.0810 H     1 <1>   0.0800 
 34 H        1.9170     3.0520    -0.4450 H     1 <1>   0.0800 
 35 H        0.4250     3.2840    -1.3000 H     1 <1>   0.0800 
 36 H        3.8200    -1.9820    -0.6460 H     1 <1>   0.0800 
 37 H        3.8430    -2.9150     0.8180 H     1 <1>   0.0800 
 38 H        5.6350    -1.1550     0.6340 H     1 <1>   0.0800 
 39 H        5.4090    -0.4490     2.2280 H     1 <1>   0.0800 
 40 H        5.1800     1.6390     1.3540 H     1 <1>   0.4500 
 41 H        7.3100     0.8320     0.5140 H     1 <1>   0.0800 
 42 H        6.5100     0.7610    -1.0510 H     1 <1>   0.0800 
 43 H        7.0850     5.6370    -1.2550 H     1 <1>   0.2700 
 44 H        7.4630     2.1030    -2.7460 H     1 <1>   0.0800 
 45 H        8.4380     3.5500    -2.7510 H     1 <1>   0.0800 
 46 H        6.7850     3.6060    -3.3180 H     1 <1>   0.0800 
 47 H        6.0000     5.5820     2.4050 H     1 <1>   0.0800 
 48 H        7.0350     6.5360     1.3850 H     1 <1>   0.0800 
 49 H        4.0740     6.0490     0.9080 H     1 <1>   0.0800 
 50 H        5.0980     7.0500    -0.0960 H     1 <1>   0.0800 
 51 H        4.7590     7.5220     1.5510 H     1 <1>   0.0800 
@<TRIPOS>BOND
  1   1   2  1   
  2   1  22  1   
  3   2   3  1   
  4   2   4  1   
  5   2   5  1   
  6   3   6  1   
  7   3   7  1   
  8   3  23  1   
  9   4   8  1   
 10   4  24  1   
 11   4  25  1   
 12   5   9  1   
 13   5  26  1   
 14   5  27  1   
 15   6  10  1   
 16   6  11  1   
 17   6  28  1   
 18   7  12  1   
 19   7  29  1   
 20   7  30  1   
 21   8  10  1   
 22   8  31  1   
 23   8  32  1   
 24   9  33  1   
 25   9  34  1   
 26   9  35  1   
 27  10  36  1   
 28  10  37  1   
 29  11  12  1   
 30  11  38  1   
 31  11  39  1   
 32  12  13  1   
 33  12  40  1   
 34  13  14  1   
 35  13  41  1   
 36  13  42  1   
 37  14  15  1   
 38  14  16  2   
 39  15  17  2   
 40  16  18  1   
 41  16  19  1   
 42  17  18  1   
 43  17  20  1   
 44  18  43  1   
 45  19  44  1   
 46  19  45  1   
 47  19  46  1   
 48  20  21  1   
 49  20  47  1   
 50  20  48  1   
 51  21  49  1   
 52  21  50  1   
 53  21  51  1   
@<TRIPOS>SUBSTRUCTURE
  1 ****   7 GROUP 4 **** **** 0

# MOE 2024.06 (io_trps.svl 2023.06)
