@<TRIPOS>MOLECULE
NONAME
42 43 1 0 0 
SMALL
USER_CHARGES


@<TRIPOS>ATOM
  1 O       -1.5560     0.2560    -0.3380 O.2   1 <1>  -0.5700 
  2 C       -2.5090     0.9920    -0.2070 C.2   1 <1>   0.6300 
  3 N       -3.5310     0.6750     0.6460 N.am  1 <1>  -0.6600 
  4 C       -2.5700     2.2580    -1.0600 C.3   1 <1>  -0.1000 
  5 C       -3.4080    -0.5080     1.5470 C.3   1 <1>   0.3200 
  6 C       -4.8800     1.3140     0.6110 C.3   1 <1>   0.1400 
  7 C       -1.4080     3.2000    -1.2100 C.3   1 <1>  -0.1950 
  8 C       -2.6050     3.6300    -0.4300 C.3   1 <1>  -0.2000 
  9 C       -3.7930    -1.7760     0.8060 C.2   1 <1>   0.0060 
 10 C       -5.7680     0.6510    -0.4480 C.3   1 <1>   0.1200 
 11 C       -0.0660     2.9810    -0.5020 C.3   1 <1>  -0.0650 
 12 N       -4.8140    -2.5240     1.0850 N.2   1 <1>  -0.5650 
 13 N       -3.0670    -2.2170    -0.2410 N.pl3 1 <1>   0.0330 
 14 O       -7.0000     1.2900    -0.4720 O.3   1 <1>  -0.6800 
 15 C        0.6960     4.3030    -0.3600 C.3   1 <1>  -0.1600 
 16 C       -4.7460    -3.5090     0.1680 C.2   1 <1>   0.0770 
 17 C       -3.6860    -3.3380    -0.6520 C.2   1 <1>  -0.3020 
 18 C        2.0380     4.0970     0.3540 C.3   1 <1>  -0.1600 
 19 C        2.7930     5.4200     0.4980 C.3   1 <1>  -0.2400 
 20 H       -3.1680     2.1000    -1.9380 H     1 <1>   0.1000 
 21 H       -2.3940    -0.5950     1.8970 H     1 <1>   0.0800 
 22 H       -4.0430    -0.3870     2.4070 H     1 <1>   0.0800 
 23 H       -5.3450     1.2230     1.5770 H     1 <1>   0.0800 
 24 H       -4.7870     2.3610     0.3850 H     1 <1>   0.0800 
 25 H       -1.2770     3.6300    -2.1890 H     1 <1>   0.1000 
 26 H       -3.2520     4.3790    -0.8510 H     1 <1>   0.1000 
 27 H       -2.5210     3.7110     0.6400 H     1 <1>   0.1000 
 28 H       -5.9330    -0.3910    -0.2320 H     1 <1>   0.0800 
 29 H       -5.3280     0.7540    -1.4240 H     1 <1>   0.0800 
 30 H       -0.2290     2.5560     0.4730 H     1 <1>   0.0800 
 31 H        0.5200     2.2810    -1.0730 H     1 <1>   0.0800 
 32 H       -2.2360    -1.7420    -0.6230 H     1 <1>   0.2700 
 33 H       -7.5670     0.9690     0.2570 H     1 <1>   0.4000 
 34 H        0.8700     4.7200    -1.3370 H     1 <1>   0.0800 
 35 H        0.0960     5.0000     0.1990 H     1 <1>   0.0800 
 36 H       -5.4750    -4.3030     0.1450 H     1 <1>   0.1500 
 37 H       -3.3470    -3.9330    -1.4810 H     1 <1>   0.1500 
 38 H        1.8670     3.6780     1.3320 H     1 <1>   0.0800 
 39 H        2.6430     3.4030    -0.2050 H     1 <1>   0.0800 
 40 H        2.2160     6.1230     1.0740 H     1 <1>   0.0800 
 41 H        2.9940     5.8460    -0.4690 H     1 <1>   0.0800 
 42 H        3.7300     5.2560     1.0010 H     1 <1>   0.0800 
@<TRIPOS>BOND
  1   1   2  2   
  2   2   3  am  
  3   2   4  1   
  4   3   5  1   
  5   3   6  1   
  6   4   7  1   
  7   4   8  1   
  8   4  20  1   
  9   5   9  1   
 10   5  21  1   
 11   5  22  1   
 12   6  10  1   
 13   6  23  1   
 14   6  24  1   
 15   7   8  1   
 16   7  11  1   
 17   7  25  1   
 18   8  26  1   
 19   8  27  1   
 20   9  12  2   
 21   9  13  1   
 22  10  14  1   
 23  10  28  1   
 24  10  29  1   
 25  11  15  1   
 26  11  30  1   
 27  11  31  1   
 28  12  16  1   
 29  13  17  1   
 30  13  32  1   
 31  14  33  1   
 32  15  18  1   
 33  15  34  1   
 34  15  35  1   
 35  16  17  2   
 36  16  36  1   
 37  17  37  1   
 38  18  19  1   
 39  18  38  1   
 40  18  39  1   
 41  19  40  1   
 42  19  41  1   
 43  19  42  1   
@<TRIPOS>SUBSTRUCTURE
  1 ****   2 GROUP 4 **** **** 0

# MOE 2024.06 (io_trps.svl 2023.06)
