@<TRIPOS>MOLECULE
NONAME
34 34 1 0 0 
SMALL
USER_CHARGES


@<TRIPOS>ATOM
  1 S        0.6100     1.0010     0.6040 S.o2  1 <1>   1.0900 
  2 O        1.2660     1.8150    -0.3900 O.2   1 <1>  -0.6500 
  3 O       -0.5490     1.5240     1.2880 O.2   1 <1>  -0.6500 
  4 C        1.8060     0.5830     1.8530 C.3   1 <1>   0.0060 
  5 C        0.1290    -0.5390    -0.1600 C.3   1 <1>  -0.1350 
  6 C        2.9940    -0.0900     1.2210 C.2   1 <1>   0.4230 
  7 O        2.8760    -1.2720     1.0200 O.2   1 <1>  -0.5700 
  8 C        4.2020     0.6470     0.9110 C.ar  1 <1>   0.0860 
  9 C        4.2630     2.0420     0.8550 C.ar  1 <1>  -0.1500 
 10 C        5.3900    -0.0400     0.6480 C.ar  1 <1>  -0.1500 
 11 C        5.4360     2.7170     0.5770 C.ar  1 <1>   0.0830 
 12 C        6.5740     0.6170     0.3710 C.ar  1 <1>  -0.1500 
 13 O        5.3440     4.0730     0.5620 O.3   1 <1>  -0.3630 
 14 C        6.6220     2.0080     0.3400 C.ar  1 <1>   0.0830 
 15 C        5.9170     4.7900    -0.5070 C.3   1 <1>   0.1200 
 16 O        7.7780     2.6830     0.1060 O.3   1 <1>  -0.3630 
 17 C        5.1490     6.0990    -0.6610 C.3   1 <1>  -0.2400 
 18 C        9.0200     2.0340    -0.0480 C.3   1 <1>   0.0400 
 19 H        1.3690    -0.0910     2.5630 H     1 <1>   0.0800 
 20 H        2.1120     1.4610     2.3850 H     1 <1>   0.0800 
 21 H       -0.6500    -0.3640    -0.8750 H     1 <1>   0.0800 
 22 H       -0.2350    -1.2300     0.5760 H     1 <1>   0.0800 
 23 H        0.9590    -0.9870    -0.6720 H     1 <1>   0.0800 
 24 H        3.3850     2.6400     1.0140 H     1 <1>   0.1500 
 25 H        5.3830    -1.1170     0.6660 H     1 <1>   0.1500 
 26 H        7.4500     0.0260     0.1830 H     1 <1>   0.1500 
 27 H        5.8460     4.1960    -1.4020 H     1 <1>   0.0800 
 28 H        6.9500     4.9810    -0.2720 H     1 <1>   0.0800 
 29 H        4.1160     5.8950    -0.8800 H     1 <1>   0.0800 
 30 H        5.5650     6.6720    -1.4690 H     1 <1>   0.0800 
 31 H        5.2180     6.6760     0.2430 H     1 <1>   0.0800 
 32 H        9.7750     2.7870    -0.1850 H     1 <1>   0.0800 
 33 H        8.9780     1.3980    -0.9150 H     1 <1>   0.0800 
 34 H        9.2300     1.4650     0.8400 H     1 <1>   0.0800 
@<TRIPOS>BOND
  1   1   2  2   
  2   1   3  2   
  3   1   4  1   
  4   1   5  1   
  5   4   6  1   
  6   4  19  1   
  7   4  20  1   
  8   5  21  1   
  9   5  22  1   
 10   5  23  1   
 11   6   7  2   
 12   6   8  1   
 13   8   9  ar  
 14   8  10  ar  
 15   9  11  ar  
 16   9  24  1   
 17  10  12  ar  
 18  10  25  1   
 19  11  13  1   
 20  11  14  ar  
 21  12  14  ar  
 22  12  26  1   
 23  13  15  1   
 24  14  16  1   
 25  15  17  1   
 26  15  27  1   
 27  15  28  1   
 28  16  18  1   
 29  17  29  1   
 30  17  30  1   
 31  17  31  1   
 32  18  32  1   
 33  18  33  1   
 34  18  34  1   
@<TRIPOS>SUBSTRUCTURE
  1 ****   9 GROUP 4 **** **** 0

# MOE 2024.06 (io_trps.svl 2023.06)
