@<TRIPOS>MOLECULE
NONAME
49 50 1 0 0 
SMALL
USER_CHARGES


@<TRIPOS>ATOM
  1 S        0.3280     0.3520    -1.7750 S.o2  1 <1>   1.3330 
  2 O        0.6730    -0.8890    -2.4310 O.2   1 <1>  -0.6500 
  3 O       -0.6010     1.2630    -2.4030 O.2   1 <1>  -0.6500 
  4 N       -0.2960    -0.0260    -0.2400 N.am  1 <1>  -0.8490 
  5 C        1.8520     1.2260    -1.4120 C.3   1 <1>  -0.0550 
  6 C       -1.1140    -1.2420    -0.2590 C.3   1 <1>   0.1160 
  7 C       -1.0590     1.0730     0.3640 C.3   1 <1>   0.1160 
  8 C        2.9480     0.3510    -0.7650 C.3   1 <1>  -0.0800 
  9 C        4.3110     1.0180    -0.6480 C.3   1 <1>   0.2200 
 10 C        2.6620    -0.0970     0.6750 C.3   1 <1>   0.1200 
 11 N        4.1750     2.4240    -0.1970 N.am  1 <1>  -0.7300 
 12 C        4.9220     0.2020     0.4820 C.3   1 <1>   0.1200 
 13 O        3.8710    -0.0020     1.3740 O.3   1 <1>  -0.5600 
 14 C        4.2750     3.5080    -1.0010 C.2   1 <1>   0.5690 
 15 O        4.4330     3.4030    -2.1910 O.2   1 <1>  -0.5700 
 16 C        4.1790     4.8860    -0.3900 C.3   1 <1>  -0.0990 
 17 C        5.5670     5.5200    -0.2800 C.3   1 <1>   0.0210 
 18 C        5.6100     6.8670     0.4370 C.2   1 <1>  -0.1810 
 19 C        4.6860     7.7280     0.9120 C.2   1 <1>  -0.0400 
 20 C        6.8150     7.5030     0.7530 C.2   1 <1>   0.1080 
 21 O        5.3200     8.7380     1.4460 O.3   1 <1>  -0.0190 
 22 C        3.1700     7.7870     0.9590 C.3   1 <1>  -0.0600 
 23 N        6.6080     8.6150     1.3570 N.2   1 <1>  -0.4100 
 24 C        8.2030     6.9840     0.4420 C.3   1 <1>  -0.0590 
 25 H        2.2410     1.6130    -2.3350 H     1 <1>   0.0800 
 26 H        1.6360     2.0650    -0.7820 H     1 <1>   0.0800 
 27 H       -1.4860    -1.4590     0.7280 H     1 <1>   0.0800 
 28 H       -0.5220    -2.0810    -0.5860 H     1 <1>   0.0800 
 29 H       -1.9460    -1.1230    -0.9340 H     1 <1>   0.0800 
 30 H       -1.3490     0.8140     1.3680 H     1 <1>   0.0800 
 31 H       -1.9450     1.2780    -0.2150 H     1 <1>   0.0800 
 32 H       -0.4590     1.9650     0.4030 H     1 <1>   0.0800 
 33 H        3.0690    -0.5360    -1.3630 H     1 <1>   0.0800 
 34 H        4.8850     0.9600    -1.5580 H     1 <1>   0.0800 
 35 H        2.3140    -1.1160     0.7130 H     1 <1>   0.0800 
 36 H        1.9530     0.5460     1.1660 H     1 <1>   0.0800 
 37 H        4.0180     2.5170     0.8100 H     1 <1>   0.3700 
 38 H        5.7300     0.7090     0.9780 H     1 <1>   0.0800 
 39 H        5.2500    -0.7600     0.1280 H     1 <1>   0.0800 
 40 H        3.5580     5.4890    -1.0250 H     1 <1>   0.0800 
 41 H        3.7300     4.8170     0.5830 H     1 <1>   0.0800 
 42 H        5.9700     5.6430    -1.2710 H     1 <1>   0.0800 
 43 H        6.2100     4.8370     0.2480 H     1 <1>   0.0800 
 44 H        2.7120     6.9540     0.4680 H     1 <1>   0.0800 
 45 H        2.8360     8.6890     0.4790 H     1 <1>   0.0800 
 46 H        2.8460     7.8060     1.9840 H     1 <1>   0.0800 
 47 H        8.2950     6.7880    -0.6100 H     1 <1>   0.0800 
 48 H        8.3880     6.0810     0.9920 H     1 <1>   0.0800 
 49 H        8.9390     7.7170     0.7220 H     1 <1>   0.0800 
@<TRIPOS>BOND
  1   1   2  2   
  2   1   3  2   
  3   1   4  am  
  4   1   5  1   
  5   4   6  1   
  6   4   7  1   
  7   5   8  1   
  8   5  25  1   
  9   5  26  1   
 10   6  27  1   
 11   6  28  1   
 12   6  29  1   
 13   7  30  1   
 14   7  31  1   
 15   7  32  1   
 16   8   9  1   
 17   8  10  1   
 18   8  33  1   
 19   9  11  1   
 20   9  12  1   
 21   9  34  1   
 22  10  13  1   
 23  10  35  1   
 24  10  36  1   
 25  11  14  am  
 26  11  37  1   
 27  12  13  1   
 28  12  38  1   
 29  12  39  1   
 30  14  15  2   
 31  14  16  1   
 32  16  17  1   
 33  16  40  1   
 34  16  41  1   
 35  17  18  1   
 36  17  42  1   
 37  17  43  1   
 38  18  19  2   
 39  18  20  1   
 40  19  21  1   
 41  19  22  1   
 42  20  23  2   
 43  20  24  1   
 44  21  23  1   
 45  22  44  1   
 46  22  45  1   
 47  22  46  1   
 48  24  47  1   
 49  24  48  1   
 50  24  49  1   
@<TRIPOS>SUBSTRUCTURE
  1 ****  11 GROUP 4 **** **** 0

# MOE 2024.06 (io_trps.svl 2023.06)
