@<TRIPOS>MOLECULE
NONAME
51 53 1 0 0 
SMALL
USER_CHARGES


@<TRIPOS>ATOM
  1 S       -0.8690    -1.5860     2.6650 S.3   1 <1>  -0.0800 
  2 C       -0.0990    -3.1590     2.5820 C.2   1 <1>   0.4620 
  3 C       -2.0290    -2.1270     1.4830 C.2   1 <1>  -0.1100 
  4 N       -0.6510    -3.9750     1.7670 N.2   1 <1>  -0.5650 
  5 N        0.9900    -3.3980     3.3520 N.pl3 1 <1>  -0.8840 
  6 C       -1.7420    -3.3960     1.1440 C.2   1 <1>   0.0460 
  7 C       -2.4820    -4.2790     0.1510 C.3   1 <1>   0.0210 
  8 C       -3.7260    -3.6100    -0.4580 C.3   1 <1>  -0.0990 
  9 C       -4.5200    -4.5400    -1.3640 C.2   1 <1>   0.5690 
 10 O       -3.9960    -5.5610    -1.7450 O.2   1 <1>  -0.5700 
 11 N       -5.8060    -4.2280    -1.7210 N.am  1 <1>  -0.6600 
 12 C       -6.6760    -5.2750    -2.3290 C.3   1 <1>   0.1400 
 13 C       -6.5010    -2.9470    -1.4200 C.3   1 <1>   0.1400 
 14 C       -7.2640    -6.2120    -1.2570 C.3   1 <1>   0.1400 
 15 C       -7.3940    -3.0530    -0.1770 C.3   1 <1>  -0.1600 
 16 N       -7.6730    -5.5130     0.0100 N.am  1 <1>  -0.6600 
 17 C       -8.3910    -4.2210    -0.1900 C.3   1 <1>   0.1400 
 18 C       -7.3810    -5.9210     1.2970 C.2   1 <1>   0.5690 
 19 O       -7.7260    -5.2460     2.2410 O.2   1 <1>  -0.5700 
 20 C       -6.6280    -7.2100     1.6590 C.3   1 <1>  -0.0190 
 21 C       -5.1260    -7.1820     1.3170 C.3   1 <1>  -0.1600 
 22 C       -7.2960    -8.5110     1.1720 C.3   1 <1>  -0.1600 
 23 C       -4.4540    -8.5060     1.6920 C.3   1 <1>   0.1200 
 24 C       -6.4610    -9.7260     1.5850 C.3   1 <1>   0.1200 
 25 O       -5.1580    -9.5660     1.1180 O.3   1 <1>  -0.5600 
 26 H       -2.7900    -1.4330     1.1800 H     1 <1>   0.1500 
 27 H        1.4840    -4.2840     3.2440 H     1 <1>   0.4000 
 28 H        1.4420    -2.6650     3.8980 H     1 <1>   0.4000 
 29 H       -2.7750    -5.1810     0.6570 H     1 <1>   0.0800 
 30 H       -1.8000    -4.5560    -0.6350 H     1 <1>   0.0800 
 31 H       -3.4270    -2.7510    -1.0290 H     1 <1>   0.0800 
 32 H       -4.3660    -3.2940     0.3440 H     1 <1>   0.0800 
 33 H       -6.1060    -5.8590    -3.0310 H     1 <1>   0.0800 
 34 H       -7.4740    -4.8120    -2.8810 H     1 <1>   0.0800 
 35 H       -7.1030    -2.6730    -2.2700 H     1 <1>   0.0800 
 36 H       -5.7810    -2.1600    -1.2780 H     1 <1>   0.0800 
 37 H       -6.5260    -6.9600    -1.0550 H     1 <1>   0.0800 
 38 H       -8.1190    -6.7180    -1.6680 H     1 <1>   0.0800 
 39 H       -7.9550    -2.1390    -0.0970 H     1 <1>   0.0800 
 40 H       -6.7850    -3.1190     0.7070 H     1 <1>   0.0800 
 41 H       -8.9480    -4.2380    -1.1100 H     1 <1>   0.0800 
 42 H       -9.1010    -4.0850     0.6100 H     1 <1>   0.0800 
 43 H       -6.6670    -7.2650     2.7330 H     1 <1>   0.0800 
 44 H       -4.6530    -6.3790     1.8540 H     1 <1>   0.0800 
 45 H       -4.9570    -7.0090     0.2730 H     1 <1>   0.0800 
 46 H       -7.4040    -8.5300     0.1060 H     1 <1>   0.0800 
 47 H       -8.2790    -8.5910     1.5990 H     1 <1>   0.0800 
 48 H       -4.4320    -8.6460     2.7590 H     1 <1>   0.0800 
 49 H       -3.4470    -8.5360     1.3130 H     1 <1>   0.0800 
 50 H       -6.8590   -10.6250     1.1470 H     1 <1>   0.0800 
 51 H       -6.4330    -9.8400     2.6550 H     1 <1>   0.0800 
@<TRIPOS>BOND
  1   1   2  1   
  2   1   3  1   
  3   2   4  2   
  4   2   5  1   
  5   3   6  2   
  6   3  26  1   
  7   4   6  1   
  8   5  27  1   
  9   5  28  1   
 10   6   7  1   
 11   7   8  1   
 12   7  29  1   
 13   7  30  1   
 14   8   9  1   
 15   8  31  1   
 16   8  32  1   
 17   9  10  2   
 18   9  11  am  
 19  11  12  1   
 20  11  13  1   
 21  12  14  1   
 22  12  33  1   
 23  12  34  1   
 24  13  15  1   
 25  13  35  1   
 26  13  36  1   
 27  14  16  1   
 28  14  37  1   
 29  14  38  1   
 30  15  17  1   
 31  15  39  1   
 32  15  40  1   
 33  16  17  1   
 34  16  18  am  
 35  17  41  1   
 36  17  42  1   
 37  18  19  2   
 38  18  20  1   
 39  20  21  1   
 40  20  22  1   
 41  20  43  1   
 42  21  23  1   
 43  21  44  1   
 44  21  45  1   
 45  22  24  1   
 46  22  46  1   
 47  22  47  1   
 48  23  25  1   
 49  23  48  1   
 50  23  49  1   
 51  24  25  1   
 52  24  50  1   
 53  24  51  1   
@<TRIPOS>SUBSTRUCTURE
  1 ****   9 GROUP 4 **** **** 0

# MOE 2024.06 (io_trps.svl 2023.06)
