@<TRIPOS>MOLECULE
NONAME
55 57 1 0 0 
SMALL
USER_CHARGES


@<TRIPOS>ATOM
  1 CL       0.3980     1.3140    -2.1790 Cl    1 <1>  -0.1770 
  2 C        0.2460     2.7210    -1.1610 C.ar  1 <1>   0.1770 
  3 C        1.1400     3.7640    -1.3070 C.ar  1 <1>  -0.1500 
  4 C       -0.7660     2.7740    -0.2220 C.ar  1 <1>  -0.1500 
  5 C        1.0160     4.8810    -0.4990 C.ar  1 <1>  -0.1500 
  6 C       -0.8860     3.8920     0.5860 C.ar  1 <1>  -0.1500 
  7 C        0.0020     4.9540     0.4540 C.ar  1 <1>  -0.1430 
  8 C       -0.1590     6.1810     1.3550 C.3   1 <1>   0.5670 
  9 N       -0.5710     7.3900     0.5670 N.4   1 <1>  -0.9590 
 10 C        1.1460     6.4100     2.1850 C.3   1 <1>   0.2090 
 11 C       -1.2920     8.3820     1.4090 C.3   1 <1>   0.3430 
 12 C       -1.2760     7.1330    -0.7240 C.3   1 <1>   0.3430 
 13 N        1.5320     7.8470     2.4270 N.pl3 1 <1>  -0.8690 
 14 C       -1.3980     9.7100     0.6590 C.3   1 <1>  -0.1600 
 15 C       -1.3950     8.4390    -1.5120 C.3   1 <1>  -0.1600 
 16 C        2.3070     8.5410     1.5330 C.ar  1 <1>   0.4100 
 17 C       -2.0870     9.5400    -0.7000 C.3   1 <1>  -0.1600 
 18 N        2.1490     8.2450     0.2490 N.ar  1 <1>  -0.6200 
 19 C        3.1980     9.5110     1.9840 C.ar  1 <1>  -0.1500 
 20 C        2.9110     8.9220    -0.5980 C.ar  1 <1>   0.1600 
 21 C        3.9720    10.2060     1.0860 C.ar  1 <1>  -0.1500 
 22 C        3.8270     9.9180    -0.2680 C.ar  1 <1>   0.0860 
 23 C        4.5810    10.5730    -1.3120 C.2   1 <1>   0.5440 
 24 O        4.9570     9.9080    -2.2590 O.2   1 <1>  -0.5700 
 25 N        4.8740    11.9240    -1.2900 N.am  1 <1>  -0.6600 
 26 C        5.8900    12.5030    -2.2150 C.3   1 <1>   0.0600 
 27 C        4.0800    12.9400    -0.5450 C.3   1 <1>   0.0600 
 28 H        1.9200     3.6970    -2.0450 H     1 <1>   0.1500 
 29 H       -1.4460     1.9450    -0.1300 H     1 <1>   0.1500 
 30 H        1.7190     5.6890    -0.6260 H     1 <1>   0.1500 
 31 H       -1.6800     3.9190     1.3140 H     1 <1>   0.1500 
 32 H       -0.9470     5.9580     2.0530 H     1 <1>   0.0800 
 33 H        0.3440     7.8320     0.3450 H     1 <1>   0.4500 
 34 H        1.9720     5.9250     1.6930 H     1 <1>   0.0800 
 35 H        1.0330     5.9110     3.1310 H     1 <1>   0.0800 
 36 H       -0.7610     8.5420     2.3330 H     1 <1>   0.0800 
 37 H       -2.2790     8.0170     1.6410 H     1 <1>   0.0800 
 38 H       -2.2580     6.7320    -0.5300 H     1 <1>   0.0800 
 39 H       -0.7300     6.4200    -1.3190 H     1 <1>   0.0800 
 40 H        1.7760     8.0280     3.4070 H     1 <1>   0.4000 
 41 H       -0.4100    10.1170     0.5230 H     1 <1>   0.0800 
 42 H       -1.9550    10.4100     1.2580 H     1 <1>   0.0800 
 43 H       -1.9520     8.2550    -2.4150 H     1 <1>   0.0800 
 44 H       -0.4100     8.7630    -1.8020 H     1 <1>   0.0800 
 45 H       -2.0580    10.4690    -1.2440 H     1 <1>   0.0800 
 46 H       -3.1220     9.2790    -0.5500 H     1 <1>   0.0800 
 47 H        3.2820     9.7070     3.0370 H     1 <1>   0.1500 
 48 H        2.8120     8.6810    -1.6440 H     1 <1>   0.1500 
 49 H        4.6800    10.9480     1.4110 H     1 <1>   0.1500 
 50 H        6.5550    11.7350    -2.5730 H     1 <1>   0.0800 
 51 H        6.4730    13.2470    -1.7020 H     1 <1>   0.0800 
 52 H        5.3960    12.9530    -3.0580 H     1 <1>   0.0800 
 53 H        3.1720    12.5120    -0.1590 H     1 <1>   0.0800 
 54 H        3.8160    13.7490    -1.2040 H     1 <1>   0.0800 
 55 H        4.6640    13.3300     0.2700 H     1 <1>   0.0800 
@<TRIPOS>BOND
  1   1   2  1   
  2   2   3  ar  
  3   2   4  ar  
  4   3   5  ar  
  5   3  28  1   
  6   4   6  ar  
  7   4  29  1   
  8   5   7  ar  
  9   5  30  1   
 10   6   7  ar  
 11   6  31  1   
 12   7   8  1   
 13   8   9  1   
 14   8  10  1   
 15   8  32  1   
 16   9  11  1   
 17   9  12  1   
 18   9  33  1   
 19  10  13  1   
 20  10  34  1   
 21  10  35  1   
 22  11  14  1   
 23  11  36  1   
 24  11  37  1   
 25  12  15  1   
 26  12  38  1   
 27  12  39  1   
 28  13  16  1   
 29  13  40  1   
 30  14  17  1   
 31  14  41  1   
 32  14  42  1   
 33  15  17  1   
 34  15  43  1   
 35  15  44  1   
 36  16  18  ar  
 37  16  19  ar  
 38  17  45  1   
 39  17  46  1   
 40  18  20  ar  
 41  19  21  ar  
 42  19  47  1   
 43  20  22  ar  
 44  20  48  1   
 45  21  22  ar  
 46  21  49  1   
 47  22  23  1   
 48  23  24  2   
 49  23  25  am  
 50  25  26  1   
 51  25  27  1   
 52  26  50  1   
 53  26  51  1   
 54  26  52  1   
 55  27  53  1   
 56  27  54  1   
 57  27  55  1   
@<TRIPOS>SUBSTRUCTURE
  1 ****  18 GROUP 4 **** **** 0

# MOE 2024.06 (io_trps.svl 2023.06)
