@<TRIPOS>MOLECULE
NONAME
63 66 1 0 0 
SMALL
USER_CHARGES


@<TRIPOS>ATOM
  1 O       -1.1960    -0.2810     0.2360 O.3   1 <1>  -0.3630 
  2 C       -2.4500    -0.6860     0.5590 C.ar  1 <1>   0.0830 
  3 C       -0.9130     1.0720    -0.0350 C.3   1 <1>   0.1200 
  4 C       -2.5910    -1.9990     0.9810 C.ar  1 <1>  -0.1500 
  5 C       -3.5690     0.1380     0.4940 C.ar  1 <1>  -0.1500 
  6 C        0.6010     1.1950    -0.2410 C.3   1 <1>   0.3430 
  7 C       -3.8340    -2.4970     1.3400 C.ar  1 <1>  -0.1440 
  8 C       -4.8090    -0.3540     0.8580 C.ar  1 <1>  -0.1500 
  9 N        1.0390     2.5940    -0.5640 N.4   1 <1>  -0.9590 
 10 C       -4.9420    -1.6640     1.2820 C.ar  1 <1>  -0.1500 
 11 C       -3.9930    -3.9350     1.8010 C.3   1 <1>   0.4860 
 12 C        2.4600     2.5870    -1.0240 C.3   1 <1>   0.3430 
 13 C        0.8520     3.5310     0.5870 C.3   1 <1>   0.3430 
 14 N       -3.8920    -4.8470     0.6270 N.4   1 <1>  -0.9590 
 15 C        2.8590     3.9880    -1.4910 C.3   1 <1>  -0.1600 
 16 C        1.2150     4.9540     0.1580 C.3   1 <1>  -0.1600 
 17 C       -5.0160    -4.6110    -0.3330 C.3   1 <1>   0.3430 
 18 C       -3.9920    -6.2760     1.0670 C.3   1 <1>   0.3430 
 19 C        2.6450     5.0350    -0.3900 C.3   1 <1>  -0.1600 
 20 C       -6.0520    -5.6970    -0.0290 C.3   1 <1>   0.2000 
 21 C       -5.1900    -6.9030     0.3330 C.3   1 <1>  -0.0800 
 22 O       -6.7670    -5.3190     1.1040 O.3   1 <1>  -0.6800 
 23 C       -4.7660    -7.6940    -0.9250 C.3   1 <1>  -0.0170 
 24 C       -3.9900    -8.9570    -0.5790 C.ar  1 <1>   0.1670 
 25 N       -2.7430    -8.7840    -0.1710 N.ar  1 <1>  -0.6200 
 26 C       -4.5940   -10.2080    -0.7030 C.ar  1 <1>   0.1600 
 27 C       -2.1420    -9.9360     0.0920 C.ar  1 <1>   0.1600 
 28 N       -3.9980   -11.3550    -0.4280 N.ar  1 <1>  -0.6200 
 29 C       -2.7500   -11.1790    -0.0320 C.ar  1 <1>   0.1600 
 30 H       -1.4460     1.3520    -0.9260 H     1 <1>   0.0800 
 31 H       -1.2400     1.6530     0.8100 H     1 <1>   0.0800 
 32 H       -1.7110    -2.6160     1.0280 H     1 <1>   0.1500 
 33 H       -3.5050     1.1590     0.1660 H     1 <1>   0.1500 
 34 H        0.8790     0.5410    -1.0520 H     1 <1>   0.0800 
 35 H        1.1030     0.8590     0.6510 H     1 <1>   0.0800 
 36 H       -5.6760     0.2860     0.8130 H     1 <1>   0.1500 
 37 H        0.4790     2.9510    -1.3500 H     1 <1>   0.4500 
 38 H       -5.9180    -2.0230     1.5680 H     1 <1>   0.1500 
 39 H       -4.9520    -4.0590     2.2810 H     1 <1>   0.0800 
 40 H       -3.2220    -4.1660     2.5180 H     1 <1>   0.0800 
 41 H        3.1050     2.2800    -0.2160 H     1 <1>   0.0800 
 42 H        2.5830     1.8910    -1.8390 H     1 <1>   0.0800 
 43 H       -0.1720     3.5130     0.9240 H     1 <1>   0.0800 
 44 H        1.4850     3.2320     1.4080 H     1 <1>   0.0800 
 45 H       -2.9940    -4.6670     0.1610 H     1 <1>   0.4500 
 46 H        3.8970     3.9810    -1.7760 H     1 <1>   0.0800 
 47 H        2.2890     4.2510    -2.3650 H     1 <1>   0.0800 
 48 H        0.5150     5.2930    -0.5860 H     1 <1>   0.0800 
 49 H        1.1230     5.6110     1.0060 H     1 <1>   0.0800 
 50 H       -5.4440    -3.6270    -0.2400 H     1 <1>   0.0800 
 51 H       -4.6580    -4.7410    -1.3400 H     1 <1>   0.0800 
 52 H       -3.0750    -6.8010     0.8630 H     1 <1>   0.0800 
 53 H       -4.1760    -6.3180     2.1280 H     1 <1>   0.0800 
 54 H        2.8320     6.0220    -0.7820 H     1 <1>   0.0800 
 55 H        3.3470     4.8640     0.4100 H     1 <1>   0.0800 
 56 H       -6.7410    -5.8590    -0.8410 H     1 <1>   0.0800 
 57 H       -5.7180    -7.5740     0.9880 H     1 <1>   0.0800 
 58 H       -7.5560    -5.8890     1.2340 H     1 <1>   0.4000 
 59 H       -4.1540    -7.0870    -1.5700 H     1 <1>   0.0800 
 60 H       -5.6440    -7.9690    -1.4840 H     1 <1>   0.0800 
 61 H       -5.6120   -10.2700    -1.0430 H     1 <1>   0.1500 
 62 H       -1.1180    -9.8980     0.4210 H     1 <1>   0.1500 
 63 H       -2.1810   -12.0610     0.2060 H     1 <1>   0.1500 
@<TRIPOS>BOND
  1   1   2  1   
  2   1   3  1   
  3   2   4  ar  
  4   2   5  ar  
  5   3   6  1   
  6   3  30  1   
  7   3  31  1   
  8   4   7  ar  
  9   4  32  1   
 10   5   8  ar  
 11   5  33  1   
 12   6   9  1   
 13   6  34  1   
 14   6  35  1   
 15   7  10  ar  
 16   7  11  1   
 17   8  10  ar  
 18   8  36  1   
 19   9  12  1   
 20   9  13  1   
 21   9  37  1   
 22  10  38  1   
 23  11  14  1   
 24  11  39  1   
 25  11  40  1   
 26  12  15  1   
 27  12  41  1   
 28  12  42  1   
 29  13  16  1   
 30  13  43  1   
 31  13  44  1   
 32  14  17  1   
 33  14  18  1   
 34  14  45  1   
 35  15  19  1   
 36  15  46  1   
 37  15  47  1   
 38  16  19  1   
 39  16  48  1   
 40  16  49  1   
 41  17  20  1   
 42  17  50  1   
 43  17  51  1   
 44  18  21  1   
 45  18  52  1   
 46  18  53  1   
 47  19  54  1   
 48  19  55  1   
 49  20  21  1   
 50  20  22  1   
 51  20  56  1   
 52  21  23  1   
 53  21  57  1   
 54  22  58  1   
 55  23  24  1   
 56  23  59  1   
 57  23  60  1   
 58  24  25  ar  
 59  24  26  ar  
 60  25  27  ar  
 61  26  28  ar  
 62  26  61  1   
 63  27  29  ar  
 64  27  62  1   
 65  28  29  ar  
 66  29  63  1   
@<TRIPOS>SUBSTRUCTURE
  1 ****   4 GROUP 4 **** **** 0

# MOE 2024.06 (io_trps.svl 2023.06)
