@<TRIPOS>MOLECULE
NONAME
52 54 1 0 0 
SMALL
USER_CHARGES


@<TRIPOS>ATOM
  1 S       -0.2920     0.4780     0.2340 S.3   1 <1>  -0.0800 
  2 C        0.8950    -0.7960     0.0490 C.2   1 <1>  -0.0450 
  3 C        0.8540     1.6400    -0.3880 C.2   1 <1>   0.1980 
  4 C        2.0180    -0.2190    -0.4400 C.2   1 <1>   0.0460 
  5 C        0.5470    -2.1390     0.4380 C.2   1 <1>   0.7150 
  6 N        1.9830     1.1370    -0.6890 N.2   1 <1>  -0.5650 
  7 C        0.4200     3.0970    -0.5130 C.3   1 <1>   0.1000 
  8 C        3.3310    -0.9100    -0.7480 C.3   1 <1>  -0.0590 
  9 O        1.3790    -2.8590     0.9610 O.2   1 <1>  -0.5700 
 10 N       -0.7060    -2.6640     0.2090 N.am  1 <1>  -0.6600 
 11 C        0.0470     3.6930     0.8510 C.3   1 <1>  -0.2400 
 12 C       -0.7390     3.2530    -1.5060 C.3   1 <1>  -0.2400 
 13 C       -1.2430    -3.7600     1.0860 C.3   1 <1>   0.1400 
 14 C       -1.3810    -2.4670    -1.1160 C.3   1 <1>   0.1400 
 15 C       -1.8070    -4.8760     0.1890 C.3   1 <1>   0.4230 
 16 C       -2.8460    -2.9260    -1.0810 C.3   1 <1>  -0.1600 
 17 N       -2.0540    -6.2100     0.8290 N.4   1 <1>  -0.9590 
 18 C       -3.0800    -4.3630    -0.5130 C.3   1 <1>  -0.1060 
 19 C       -2.4030    -7.2400    -0.1880 C.3   1 <1>   0.3430 
 20 C       -1.0010    -6.6700     1.7730 C.3   1 <1>   0.2630 
 21 C       -4.2550    -4.3080     0.4820 C.2   1 <1>   0.9060 
 22 C       -3.4000    -5.3680    -1.6440 C.3   1 <1>  -0.1600 
 23 C       -3.5750    -6.7870    -1.0700 C.3   1 <1>  -0.1600 
 24 O       -5.3250    -3.8370     0.1060 O.co2 1 <1>  -0.9000 
 25 O       -4.1180    -4.7900     1.6180 O.co2 1 <1>  -0.9000 
 26 H        1.2630     3.6460    -0.8970 H     1 <1>   0.0800 
 27 H        3.2680    -1.9670    -0.5690 H     1 <1>   0.0800 
 28 H        4.1050    -0.4990    -0.1270 H     1 <1>   0.0800 
 29 H        3.5910    -0.7470    -1.7780 H     1 <1>   0.0800 
 30 H       -0.8170     3.2000     1.2610 H     1 <1>   0.0800 
 31 H       -0.1690     4.7410     0.7530 H     1 <1>   0.0800 
 32 H        0.8670     3.5750     1.5360 H     1 <1>   0.0800 
 33 H       -1.6180     2.7430    -1.1520 H     1 <1>   0.0800 
 34 H       -0.4610     2.8380    -2.4590 H     1 <1>   0.0800 
 35 H       -0.9750     4.2930    -1.6430 H     1 <1>   0.0800 
 36 H       -0.4610    -4.1370     1.7150 H     1 <1>   0.0800 
 37 H       -2.0180    -3.3570     1.7170 H     1 <1>   0.0800 
 38 H       -1.3470    -1.4310    -1.4040 H     1 <1>   0.0800 
 39 H       -0.8490    -3.0300    -1.8640 H     1 <1>   0.0800 
 40 H       -1.0600    -5.0330    -0.5700 H     1 <1>   0.0800 
 41 H       -3.3760    -2.2120    -0.4700 H     1 <1>   0.0800 
 42 H       -3.2750    -2.8410    -2.0640 H     1 <1>   0.0800 
 43 H       -2.9310    -6.0010     1.3810 H     1 <1>   0.4500 
 44 H       -1.5450    -7.4250    -0.8130 H     1 <1>   0.0800 
 45 H       -2.6680    -8.1610     0.3040 H     1 <1>   0.0800 
 46 H       -0.0560    -6.7640     1.2640 H     1 <1>   0.0800 
 47 H       -1.2730    -7.6250     2.1920 H     1 <1>   0.0800 
 48 H       -0.8960    -5.9650     2.5820 H     1 <1>   0.0800 
 49 H       -4.3130    -5.0730    -2.1380 H     1 <1>   0.0800 
 50 H       -2.6110    -5.3650    -2.3760 H     1 <1>   0.0800 
 51 H       -3.6970    -7.4860    -1.8780 H     1 <1>   0.0800 
 52 H       -4.4790    -6.8280    -0.4850 H     1 <1>   0.0800 
@<TRIPOS>BOND
  1   1   2  1   
  2   1   3  1   
  3   2   4  2   
  4   2   5  1   
  5   3   6  2   
  6   3   7  1   
  7   4   6  1   
  8   4   8  1   
  9   5   9  2   
 10   5  10  am  
 11   7  11  1   
 12   7  12  1   
 13   7  26  1   
 14   8  27  1   
 15   8  28  1   
 16   8  29  1   
 17  10  13  1   
 18  10  14  1   
 19  11  30  1   
 20  11  31  1   
 21  11  32  1   
 22  12  33  1   
 23  12  34  1   
 24  12  35  1   
 25  13  15  1   
 26  13  36  1   
 27  13  37  1   
 28  14  16  1   
 29  14  38  1   
 30  14  39  1   
 31  15  17  1   
 32  15  18  1   
 33  15  40  1   
 34  16  18  1   
 35  16  41  1   
 36  16  42  1   
 37  17  19  1   
 38  17  20  1   
 39  17  43  1   
 40  18  21  1   
 41  18  22  1   
 42  19  23  1   
 43  19  44  1   
 44  19  45  1   
 45  20  46  1   
 46  20  47  1   
 47  20  48  1   
 48  21  24  ar  
 49  21  25  ar  
 50  22  23  1   
 51  22  49  1   
 52  22  50  1   
 53  23  51  1   
 54  23  52  1   
@<TRIPOS>SUBSTRUCTURE
  1 ****  10 GROUP 4 **** **** 0

# MOE 2024.06 (io_trps.svl 2023.06)
