@<TRIPOS>MOLECULE
NONAME
45 46 1 0 0 
SMALL
USER_CHARGES


@<TRIPOS>ATOM
  1 O        0.2730     0.9330     0.9290 O.2   1 <1>  -0.5700 
  2 C        0.0230     2.0650     0.5890 C.2   1 <1>   0.5690 
  3 N       -1.0050     2.7870     1.1330 N.am  1 <1>  -0.6600 
  4 C        0.8820     2.6960    -0.5060 C.3   1 <1>   0.1810 
  5 C       -1.3160     4.1780     0.6640 C.3   1 <1>   0.3640 
  6 C       -1.8400     2.2680     2.2560 C.3   1 <1>   0.0600 
  7 O        0.8880     4.1010    -0.4410 O.3   1 <1>  -0.5600 
  8 C       -2.8040     4.3220     0.3050 C.ar  1 <1>  -0.1440 
  9 C       -0.4060     4.6880    -0.4850 C.3   1 <1>   0.2610 
 10 C       -3.5020     3.4750    -0.5640 C.ar  1 <1>  -0.1440 
 11 C       -3.4850     5.3810     0.8950 C.ar  1 <1>  -0.1500 
 12 C       -0.2830     6.2110    -0.3940 C.2   1 <1>   0.5690 
 13 C       -4.8480     3.7070    -0.8060 C.ar  1 <1>  -0.1500 
 14 C       -2.8710     2.2800    -1.2710 C.3   1 <1>  -0.0960 
 15 C       -4.8250     5.6030     0.6440 C.ar  1 <1>  -0.1500 
 16 O       -1.1880     6.9170    -0.7680 O.2   1 <1>  -0.5700 
 17 N        0.8600     6.7500     0.1060 N.am  1 <1>  -0.7300 
 18 C       -5.5100     4.7620    -0.2090 C.ar  1 <1>  -0.1500 
 19 C        1.1150     8.2020     0.2680 C.3   1 <1>   0.2200 
 20 C        1.6320     8.7660    -1.0710 C.3   1 <1>   0.1200 
 21 C        2.0960     8.4140     1.4370 C.3   1 <1>   0.1200 
 22 O        1.7680    10.1520    -1.0180 O.3   1 <1>  -0.6800 
 23 O        2.2760     9.7670     1.6790 O.3   1 <1>  -0.6800 
 24 H        0.5190     2.3950    -1.4720 H     1 <1>   0.0800 
 25 H        1.8960     2.3580    -0.3960 H     1 <1>   0.0800 
 26 H       -1.1220     4.8180     1.5070 H     1 <1>   0.0800 
 27 H       -1.8230     2.9630     3.0770 H     1 <1>   0.0800 
 28 H       -1.4670     1.3190     2.6020 H     1 <1>   0.0800 
 29 H       -2.8570     2.1360     1.9290 H     1 <1>   0.0800 
 30 H       -0.8440     4.4510    -1.4360 H     1 <1>   0.0800 
 31 H       -2.9740     6.0580     1.5570 H     1 <1>   0.1500 
 32 H       -5.4000     3.0620    -1.4670 H     1 <1>   0.1500 
 33 H       -3.5150     1.9110    -2.0490 H     1 <1>   0.0800 
 34 H       -2.7080     1.4810    -0.5710 H     1 <1>   0.0800 
 35 H       -1.9380     2.5460    -1.7260 H     1 <1>   0.0800 
 36 H       -5.3320     6.4310     1.1080 H     1 <1>   0.1500 
 37 H        1.6400     6.1080     0.2810 H     1 <1>   0.3700 
 38 H       -6.5540     4.9290    -0.4090 H     1 <1>   0.1500 
 39 H        0.1780     8.6760     0.5110 H     1 <1>   0.0800 
 40 H        0.9450     8.5330    -1.8660 H     1 <1>   0.0800 
 41 H        2.5990     8.3530    -1.3000 H     1 <1>   0.0800 
 42 H        3.0580     7.9920     1.2050 H     1 <1>   0.0800 
 43 H        1.7120     7.9720     2.3400 H     1 <1>   0.0800 
 44 H        0.8880    10.5810    -1.0760 H     1 <1>   0.4000 
 45 H        2.3990    10.2310     0.8150 H     1 <1>   0.4000 
@<TRIPOS>BOND
  1   1   2  2   
  2   2   3  am  
  3   2   4  1   
  4   3   5  1   
  5   3   6  1   
  6   4   7  1   
  7   4  24  1   
  8   4  25  1   
  9   5   8  1   
 10   5   9  1   
 11   5  26  1   
 12   6  27  1   
 13   6  28  1   
 14   6  29  1   
 15   7   9  1   
 16   8  10  ar  
 17   8  11  ar  
 18   9  12  1   
 19   9  30  1   
 20  10  13  ar  
 21  10  14  1   
 22  11  15  ar  
 23  11  31  1   
 24  12  16  2   
 25  12  17  am  
 26  13  18  ar  
 27  13  32  1   
 28  14  33  1   
 29  14  34  1   
 30  14  35  1   
 31  15  18  ar  
 32  15  36  1   
 33  17  19  1   
 34  17  37  1   
 35  18  38  1   
 36  19  20  1   
 37  19  21  1   
 38  19  39  1   
 39  20  22  1   
 40  20  40  1   
 41  20  41  1   
 42  21  23  1   
 43  21  42  1   
 44  21  43  1   
 45  22  44  1   
 46  23  45  1   
@<TRIPOS>SUBSTRUCTURE
  1 ****   9 GROUP 4 **** **** 0

# MOE 2024.06 (io_trps.svl 2023.06)
