@<TRIPOS>MOLECULE
NONAME
52 53 1 0 0 
SMALL
USER_CHARGES


@<TRIPOS>ATOM
  1 O       -1.2570     1.1960    -2.2880 O.2   1 <1>  -0.5700 
  2 C       -1.1780     1.6530    -1.1580 C.2   1 <1>   0.5440 
  3 N       -0.4960     0.9030    -0.2070 N.am  1 <1>  -0.6600 
  4 C       -1.8320     2.9360    -0.8690 C.ar  1 <1>   0.3960 
  5 C        0.3200    -0.2880    -0.5750 C.3   1 <1>   0.0600 
  6 C       -0.5270     1.2040     1.2510 C.3   1 <1>   0.0600 
  7 N       -1.2300     3.8480    -0.0840 N.ar  1 <1>  -0.6200 
  8 C       -3.0830     3.1780    -1.4380 C.ar  1 <1>  -0.1500 
  9 C       -1.8760     4.9750     0.1240 C.ar  1 <1>   0.4100 
 10 C       -3.7580     4.3570    -1.2050 C.ar  1 <1>  -0.1500 
 11 N       -1.2030     5.8570     0.9160 N.pl3 1 <1>  -0.8690 
 12 C       -3.1300     5.2700    -0.3980 C.ar  1 <1>  -0.1500 
 13 C       -0.8670     7.1920     0.4040 C.3   1 <1>   0.2890 
 14 C        0.5230     7.1480    -0.2280 C.3   1 <1>  -0.1600 
 15 C       -0.9070     8.1890     1.5580 C.3   1 <1>  -0.1600 
 16 C        0.9510     8.5400    -0.6970 C.3   1 <1>   0.1400 
 17 C       -0.4780     9.5780     1.0830 C.3   1 <1>   0.1400 
 18 N        0.8670     9.5040     0.4390 N.am  1 <1>  -0.6600 
 19 C        1.9110    10.2680     0.9110 C.2   1 <1>   0.5690 
 20 O        1.8010    10.9200     1.9230 O.2   1 <1>  -0.5700 
 21 C        3.2520    10.2890     0.1770 C.3   1 <1>  -0.0990 
 22 C        4.1840    11.4720     0.5170 C.3   1 <1>  -0.0800 
 23 C        3.6030    12.8070     0.0270 C.3   1 <1>  -0.2400 
 24 C        5.5650    11.2560    -0.1140 C.3   1 <1>  -0.2400 
 25 H        0.4760    -0.3330    -1.6390 H     1 <1>   0.0800 
 26 H       -0.1880    -1.1840    -0.2630 H     1 <1>   0.0800 
 27 H        1.2800    -0.2360    -0.0930 H     1 <1>   0.0800 
 28 H       -1.4290     1.7300     1.5100 H     1 <1>   0.0800 
 29 H        0.3210     1.8130     1.5100 H     1 <1>   0.0800 
 30 H       -0.4940     0.2900     1.8180 H     1 <1>   0.0800 
 31 H       -3.5230     2.4250    -2.0690 H     1 <1>   0.1500 
 32 H       -4.7270     4.5470    -1.6350 H     1 <1>   0.1500 
 33 H       -0.3800     5.4000     1.3140 H     1 <1>   0.4000 
 34 H       -3.5930     6.2080    -0.1570 H     1 <1>   0.1500 
 35 H       -1.5850     7.4900    -0.3430 H     1 <1>   0.0800 
 36 H        0.5130     6.4780    -1.0690 H     1 <1>   0.0800 
 37 H        1.2420     6.7870     0.4860 H     1 <1>   0.0800 
 38 H       -0.2460     7.8730     2.3450 H     1 <1>   0.0800 
 39 H       -1.9050     8.2410     1.9530 H     1 <1>   0.0800 
 40 H        0.3020     8.8760    -1.4890 H     1 <1>   0.0800 
 41 H        1.9490     8.4770    -1.0890 H     1 <1>   0.0800 
 42 H       -0.4660    10.2530     1.9230 H     1 <1>   0.0800 
 43 H       -1.1860     9.9590     0.3680 H     1 <1>   0.0800 
 44 H        3.0710    10.3090    -0.8800 H     1 <1>   0.0800 
 45 H        3.7540     9.3700     0.4160 H     1 <1>   0.0800 
 46 H        4.3070    11.5220     1.5870 H     1 <1>   0.0800 
 47 H        3.4610    12.7950    -1.0390 H     1 <1>   0.0800 
 48 H        4.2660    13.6150     0.2770 H     1 <1>   0.0800 
 49 H        2.6540    13.0000     0.4970 H     1 <1>   0.0800 
 50 H        5.4910    11.2020    -1.1860 H     1 <1>   0.0800 
 51 H        6.0040    10.3440     0.2490 H     1 <1>   0.0800 
 52 H        6.2220    12.0690     0.1430 H     1 <1>   0.0800 
@<TRIPOS>BOND
  1   1   2  2   
  2   2   3  am  
  3   2   4  1   
  4   3   5  1   
  5   3   6  1   
  6   4   7  ar  
  7   4   8  ar  
  8   5  25  1   
  9   5  26  1   
 10   5  27  1   
 11   6  28  1   
 12   6  29  1   
 13   6  30  1   
 14   7   9  ar  
 15   8  10  ar  
 16   8  31  1   
 17   9  11  1   
 18   9  12  ar  
 19  10  12  ar  
 20  10  32  1   
 21  11  13  1   
 22  11  33  1   
 23  12  34  1   
 24  13  14  1   
 25  13  15  1   
 26  13  35  1   
 27  14  16  1   
 28  14  36  1   
 29  14  37  1   
 30  15  17  1   
 31  15  38  1   
 32  15  39  1   
 33  16  18  1   
 34  16  40  1   
 35  16  41  1   
 36  17  18  1   
 37  17  42  1   
 38  17  43  1   
 39  18  19  am  
 40  19  20  2   
 41  19  21  1   
 42  21  22  1   
 43  21  44  1   
 44  21  45  1   
 45  22  23  1   
 46  22  24  1   
 47  22  46  1   
 48  23  47  1   
 49  23  48  1   
 50  23  49  1   
 51  24  50  1   
 52  24  51  1   
 53  24  52  1   
@<TRIPOS>SUBSTRUCTURE
  1 ****  14 GROUP 4 **** **** 0

# MOE 2024.06 (io_trps.svl 2023.06)
