@<TRIPOS>MOLECULE
NONAME
56 58 1 0 0 
SMALL
USER_CHARGES


@<TRIPOS>ATOM
  1 S        1.2420     0.1110     0.5190 S.o2  1 <1>   1.3330 
  2 O        2.1170    -0.2560    -0.5690 O.2   1 <1>  -0.6500 
  3 O        1.8150     0.5760     1.7620 O.2   1 <1>  -0.6500 
  4 N        0.1560    -1.1500     0.8330 N.am  1 <1>  -0.8490 
  5 C        0.1980     1.4490    -0.0520 C.3   1 <1>  -0.0550 
  6 C        0.6290    -2.0430     1.8960 C.3   1 <1>   0.1160 
  7 C       -0.1860    -1.9360    -0.3580 C.3   1 <1>   0.1160 
  8 C        1.0200     2.6960    -0.4540 C.3   1 <1>  -0.0800 
  9 C        0.1960     3.9160    -0.8650 C.3   1 <1>   0.2000 
 10 C        1.9330     3.2330     0.6520 C.3   1 <1>   0.3430 
 11 O       -0.8770     4.0750     0.0040 O.3   1 <1>  -0.6800 
 12 C        1.1630     5.0940    -0.7020 C.3   1 <1>   0.3430 
 13 N        2.1950     4.6520     0.2940 N.4   1 <1>  -0.9590 
 14 C        2.3570     5.5380     1.4770 C.3   1 <1>   0.4860 
 15 C        2.4850     7.0010     1.0610 C.ar  1 <1>  -0.1440 
 16 C        3.4900     7.4860     0.2050 C.ar  1 <1>  -0.0230 
 17 C        1.5520     7.8710     1.6020 C.ar  1 <1>  -0.1500 
 18 N        4.4050     6.5980    -0.4500 N.pl3 1 <1>   0.5930 
 19 C        3.5650     8.8680    -0.0170 C.ar  1 <1>  -0.1440 
 20 C        1.6040     9.2240     1.3340 C.ar  1 <1>  -0.1440 
 21 N        4.9670     5.5110     0.1500 N.2   1 <1>  -0.7070 
 22 C        4.6670     6.5470    -1.7800 C.2   1 <1>  -0.3020 
 23 C        2.6180     9.7130     0.5350 C.ar  1 <1>  -0.1500 
 24 C        4.6730     9.5230    -0.8390 C.3   1 <1>  -0.0970 
 25 C        0.5760    10.1720     1.9270 C.3   1 <1>  -0.0970 
 26 C        5.6180     4.8820    -0.7790 C.2   1 <1>   0.1390 
 27 C        5.4550     5.4790    -2.0200 C.2   1 <1>  -0.1500 
 28 H       -0.3710     1.1200    -0.8990 H     1 <1>   0.0800 
 29 H       -0.4960     1.6940     0.7280 H     1 <1>   0.0800 
 30 H       -0.0980    -2.8140     2.0870 H     1 <1>   0.0800 
 31 H        0.7750    -1.4880     2.8080 H     1 <1>   0.0800 
 32 H        1.5640    -2.4990     1.6150 H     1 <1>   0.0800 
 33 H       -0.9380    -2.6680    -0.1160 H     1 <1>   0.0800 
 34 H        0.6860    -2.4450    -0.7380 H     1 <1>   0.0800 
 35 H       -0.5750    -1.2950    -1.1310 H     1 <1>   0.0800 
 36 H        1.6520     2.4230    -1.2830 H     1 <1>   0.0800 
 37 H       -0.1960     3.8440    -1.8670 H     1 <1>   0.0800 
 38 H        2.8490     2.6650     0.7220 H     1 <1>   0.0800 
 39 H        1.4190     3.1780     1.5980 H     1 <1>   0.0800 
 40 H       -0.6040     4.1900     0.9340 H     1 <1>   0.4000 
 41 H        0.6360     5.9780    -0.3820 H     1 <1>   0.0800 
 42 H        1.6440     5.2960    -1.6450 H     1 <1>   0.0800 
 43 H        3.1330     4.6870    -0.1520 H     1 <1>   0.4500 
 44 H        1.5090     5.4290     2.1320 H     1 <1>   0.0800 
 45 H        3.2410     5.2520     2.0250 H     1 <1>   0.0800 
 46 H        0.7740     7.5080     2.2520 H     1 <1>   0.1500 
 47 H        4.2840     7.2730    -2.4720 H     1 <1>   0.1500 
 48 H        2.6700    10.7730     0.3490 H     1 <1>   0.1500 
 49 H        4.8190    10.5430    -0.5290 H     1 <1>   0.0800 
 50 H        4.4140     9.5260    -1.8820 H     1 <1>   0.0800 
 51 H        5.6110     9.0130    -0.7060 H     1 <1>   0.0800 
 52 H        0.3820    10.9860     1.2510 H     1 <1>   0.0800 
 53 H        0.9440    10.5750     2.8540 H     1 <1>   0.0800 
 54 H       -0.3510     9.6620     2.1150 H     1 <1>   0.0800 
 55 H        6.2080     3.9940    -0.6060 H     1 <1>   0.1500 
 56 H        5.8790     5.1390    -2.9500 H     1 <1>   0.1500 
@<TRIPOS>BOND
  1   1   2  2   
  2   1   3  2   
  3   1   4  am  
  4   1   5  1   
  5   4   6  1   
  6   4   7  1   
  7   5   8  1   
  8   5  28  1   
  9   5  29  1   
 10   6  30  1   
 11   6  31  1   
 12   6  32  1   
 13   7  33  1   
 14   7  34  1   
 15   7  35  1   
 16   8   9  1   
 17   8  10  1   
 18   8  36  1   
 19   9  11  1   
 20   9  12  1   
 21   9  37  1   
 22  10  13  1   
 23  10  38  1   
 24  10  39  1   
 25  11  40  1   
 26  12  13  1   
 27  12  41  1   
 28  12  42  1   
 29  13  14  1   
 30  13  43  1   
 31  14  15  1   
 32  14  44  1   
 33  14  45  1   
 34  15  16  ar  
 35  15  17  ar  
 36  16  18  1   
 37  16  19  ar  
 38  17  20  ar  
 39  17  46  1   
 40  18  21  1   
 41  18  22  1   
 42  19  23  ar  
 43  19  24  1   
 44  20  23  ar  
 45  20  25  1   
 46  21  26  2   
 47  22  27  2   
 48  22  47  1   
 49  23  48  1   
 50  24  49  1   
 51  24  50  1   
 52  24  51  1   
 53  25  52  1   
 54  25  53  1   
 55  25  54  1   
 56  26  27  1   
 57  26  55  1   
 58  27  56  1   
@<TRIPOS>SUBSTRUCTURE
  1 ****  13 GROUP 4 **** **** 0

# MOE 2024.06 (io_trps.svl 2023.06)
