@<TRIPOS>MOLECULE
NONAME
53 55 1 0 0 
SMALL
USER_CHARGES


@<TRIPOS>ATOM
  1 O        0.7270    -0.0670     0.2010 O.2   1 <1>  -0.5700 
  2 C        1.7350    -0.7140     0.0360 C.2   1 <1>   0.5690 
  3 N        2.9810    -0.1410     0.0890 N.am  1 <1>  -0.6600 
  4 C        1.5780    -2.2000    -0.2330 C.3   1 <1>  -0.0990 
  5 C        4.2720    -0.8740    -0.1280 C.3   1 <1>   0.1400 
  6 C        3.1250     1.3190     0.3610 C.3   1 <1>   0.1400 
  7 C        0.1060    -2.6210    -0.3590 C.3   1 <1>   0.0960 
  8 C        5.0380    -0.3380    -1.3460 C.3   1 <1>   0.1400 
  9 C        3.3250     2.0740    -0.9590 C.3   1 <1>  -0.1600 
 10 N        0.0040    -4.0810    -0.5380 N.pl3 1 <1>   0.3140 
 11 N        5.6220     1.0050    -1.0550 N.am  1 <1>  -0.6600 
 12 C        4.7830     2.1810    -1.4340 C.3   1 <1>   0.1400 
 13 N        0.3530    -4.6850    -1.6520 N.2   1 <1>  -0.4180 
 14 C       -0.3880    -5.0140     0.3160 C.2   1 <1>   0.0060 
 15 C        6.8430     1.0800    -0.4280 C.2   1 <1>   0.5690 
 16 N        0.1670    -5.9410    -1.4580 N.2   1 <1>   0.0000 
 17 N       -0.2940    -6.1640    -0.2320 N.2   1 <1>  -0.3380 
 18 C       -0.8720    -4.7750     1.7350 C.3   1 <1>  -0.0600 
 19 O        7.3950     0.0830    -0.0230 O.2   1 <1>  -0.5700 
 20 C        7.5290     2.4280    -0.2180 C.3   1 <1>  -0.0990 
 21 C        8.9860     2.3260     0.2730 C.3   1 <1>  -0.1600 
 22 C        9.6370     3.7050     0.4450 C.3   1 <1>   0.0210 
 23 C       11.0740     3.6060     0.9320 C.2   1 <1>  -0.1810 
 24 C       11.9260     4.6840     1.1570 C.2   1 <1>   0.1390 
 25 C       11.8160     2.5200     1.2410 C.2   1 <1>  -0.3020 
 26 N       13.0990     4.3120     1.5710 N.2   1 <1>  -0.7070 
 27 N       13.0270     2.9680     1.6220 N.pl3 1 <1>   0.3000 
 28 H        2.0360    -2.7390     0.5750 H     1 <1>   0.0800 
 29 H        2.0820    -2.4370    -1.1520 H     1 <1>   0.0800 
 30 H        4.0970    -1.9220    -0.2770 H     1 <1>   0.0800 
 31 H        4.8900    -0.7790     0.7480 H     1 <1>   0.0800 
 32 H        3.9490     1.4920     1.0330 H     1 <1>   0.0800 
 33 H        2.2350     1.6840     0.8440 H     1 <1>   0.0800 
 34 H       -0.3430    -2.1400    -1.2090 H     1 <1>   0.0800 
 35 H       -0.4410    -2.3350     0.5210 H     1 <1>   0.0800 
 36 H        4.3900    -0.2920    -2.2030 H     1 <1>   0.0800 
 37 H        5.8360    -1.0230    -1.5790 H     1 <1>   0.0800 
 38 H        2.9520     3.0740    -0.8350 H     1 <1>   0.0800 
 39 H        2.7210     1.6190    -1.7250 H     1 <1>   0.0800 
 40 H        5.1980     3.0770    -1.0100 H     1 <1>   0.0800 
 41 H        4.8020     2.2940    -2.5050 H     1 <1>   0.0800 
 42 H       -0.1130    -4.2730     2.3080 H     1 <1>   0.0800 
 43 H       -1.0930    -5.7150     2.2080 H     1 <1>   0.0800 
 44 H       -1.7660    -4.1790     1.7250 H     1 <1>   0.0800 
 45 H        6.9570     2.9830     0.5020 H     1 <1>   0.0800 
 46 H        7.5180     2.9590    -1.1510 H     1 <1>   0.0800 
 47 H        9.5580     1.7490    -0.4340 H     1 <1>   0.0800 
 48 H        9.0060     1.8060     1.2170 H     1 <1>   0.0800 
 49 H        9.0730     4.2840     1.1550 H     1 <1>   0.0800 
 50 H        9.6290     4.2260    -0.4960 H     1 <1>   0.0800 
 51 H       11.6550     5.7160     1.0090 H     1 <1>   0.1500 
 52 H       11.5590     1.4770     1.2130 H     1 <1>   0.1500 
 53 H       13.8210     2.3890     1.9200 H     1 <1>   0.2700 
@<TRIPOS>BOND
  1   1   2  2   
  2   2   3  am  
  3   2   4  1   
  4   3   5  1   
  5   3   6  1   
  6   4   7  1   
  7   4  28  1   
  8   4  29  1   
  9   5   8  1   
 10   5  30  1   
 11   5  31  1   
 12   6   9  1   
 13   6  32  1   
 14   6  33  1   
 15   7  10  1   
 16   7  34  1   
 17   7  35  1   
 18   8  11  1   
 19   8  36  1   
 20   8  37  1   
 21   9  12  1   
 22   9  38  1   
 23   9  39  1   
 24  10  13  1   
 25  10  14  1   
 26  11  12  1   
 27  11  15  am  
 28  12  40  1   
 29  12  41  1   
 30  13  16  2   
 31  14  17  2   
 32  14  18  1   
 33  15  19  2   
 34  15  20  1   
 35  16  17  1   
 36  18  42  1   
 37  18  43  1   
 38  18  44  1   
 39  20  21  1   
 40  20  45  1   
 41  20  46  1   
 42  21  22  1   
 43  21  47  1   
 44  21  48  1   
 45  22  23  1   
 46  22  49  1   
 47  22  50  1   
 48  23  24  1   
 49  23  25  2   
 50  24  26  2   
 51  24  51  1   
 52  25  27  1   
 53  25  52  1   
 54  26  27  1   
 55  27  53  1   
@<TRIPOS>SUBSTRUCTURE
  1 ****   5 GROUP 4 **** **** 0

# MOE 2024.06 (io_trps.svl 2023.06)
