@<TRIPOS>MOLECULE
NONAME
41 43 1 0 0 
SMALL
USER_CHARGES


@<TRIPOS>ATOM
  1 CL       0.5130     0.2830     2.0370 Cl    1 <1>  -0.1770 
  2 C        1.5010    -0.7780     1.0460 C.ar  1 <1>   0.1770 
  3 C        1.0170    -2.0290     0.6330 C.ar  1 <1>   0.4100 
  4 C        2.7510    -0.3530     0.6770 C.ar  1 <1>  -0.1500 
  5 N        1.7340    -2.8470    -0.1370 N.ar  1 <1>  -0.6200 
  6 N       -0.2570    -2.4640     0.9740 N.pl3 1 <1>  -0.8380 
  7 C        3.5110    -1.2030    -0.1210 C.ar  1 <1>  -0.1790 
  8 C        2.9400    -2.4190    -0.4810 C.ar  1 <1>   0.1600 
  9 C       -1.3720    -1.9510     0.1320 C.3   1 <1>   0.2090 
 10 C       -0.4890    -3.9140     1.1860 C.3   1 <1>   0.2090 
 11 C        4.8400    -0.8640    -0.5740 C.2   1 <1>   0.9790 
 12 C       -2.2010    -3.1720    -0.3050 C.3   1 <1>   0.2000 
 13 C       -1.2670    -4.3540    -0.0500 C.3   1 <1>  -0.0800 
 14 O        5.3410     0.2370    -0.2900 O.co2 1 <1>  -0.9000 
 15 O        5.4950    -1.6700    -1.2560 O.co2 1 <1>  -0.9000 
 16 O       -3.3370    -3.3160     0.5030 O.3   1 <1>  -0.5600 
 17 C       -1.9470    -5.7240     0.1080 C.3   1 <1>   0.0200 
 18 C       -4.4300    -2.5350     0.1340 C.3   1 <1>   0.0400 
 19 C       -0.9380    -6.8600     0.1690 C.2   1 <1>  -0.0400 
 20 O       -1.3530    -8.0700     0.4380 O.3   1 <1>  -0.0190 
 21 C        0.3920    -6.9150    -0.0080 C.2   1 <1>  -0.1500 
 22 N       -0.3730    -8.9280     0.4530 N.2   1 <1>  -0.4100 
 23 C        0.6910    -8.2590     0.1890 C.2   1 <1>   0.1080 
 24 C        2.0750    -8.8600     0.1020 C.3   1 <1>  -0.0590 
 25 H        3.1420     0.6010     0.9840 H     1 <1>   0.1500 
 26 H        3.5300    -3.0770    -1.1000 H     1 <1>   0.1500 
 27 H       -1.9640    -1.2490     0.6920 H     1 <1>   0.0800 
 28 H       -0.9650    -1.4610    -0.7360 H     1 <1>   0.0800 
 29 H        0.4340    -4.4560     1.3050 H     1 <1>   0.0800 
 30 H       -1.0860    -4.0430     2.0720 H     1 <1>   0.0800 
 31 H       -2.5020    -3.1180    -1.3370 H     1 <1>   0.0800 
 32 H       -0.5750    -4.4020    -0.8720 H     1 <1>   0.0800 
 33 H       -2.6050    -5.8970    -0.7240 H     1 <1>   0.0800 
 34 H       -2.5420    -5.7360     1.0050 H     1 <1>   0.0800 
 35 H       -5.2300    -2.7350     0.8250 H     1 <1>   0.0800 
 36 H       -4.7390    -2.8020    -0.8620 H     1 <1>   0.0800 
 37 H       -4.1650    -1.4930     0.1830 H     1 <1>   0.0800 
 38 H        1.0950    -6.1350    -0.2460 H     1 <1>   0.1500 
 39 H        2.8120    -8.1380     0.4020 H     1 <1>   0.0800 
 40 H        2.2710    -9.1690    -0.9080 H     1 <1>   0.0800 
 41 H        2.1410    -9.7160     0.7490 H     1 <1>   0.0800 
@<TRIPOS>BOND
  1   1   2  1   
  2   2   3  ar  
  3   2   4  ar  
  4   3   5  ar  
  5   3   6  1   
  6   4   7  ar  
  7   4  25  1   
  8   5   8  ar  
  9   6   9  1   
 10   6  10  1   
 11   7   8  ar  
 12   7  11  1   
 13   8  26  1   
 14   9  12  1   
 15   9  27  1   
 16   9  28  1   
 17  10  13  1   
 18  10  29  1   
 19  10  30  1   
 20  11  14  ar  
 21  11  15  ar  
 22  12  13  1   
 23  12  16  1   
 24  12  31  1   
 25  13  17  1   
 26  13  32  1   
 27  16  18  1   
 28  17  19  1   
 29  17  33  1   
 30  17  34  1   
 31  18  35  1   
 32  18  36  1   
 33  18  37  1   
 34  19  20  1   
 35  19  21  2   
 36  20  22  1   
 37  21  23  1   
 38  21  38  1   
 39  22  23  2   
 40  23  24  1   
 41  24  39  1   
 42  24  40  1   
 43  24  41  1   
@<TRIPOS>SUBSTRUCTURE
  1 ****   5 GROUP 4 **** **** 0

# MOE 2024.06 (io_trps.svl 2023.06)
