@<TRIPOS>MOLECULE
NONAME
49 52 1 0 0 
SMALL
USER_CHARGES


@<TRIPOS>ATOM
  1 O       -0.7030    -1.6560     0.3220 O.2   1 <1>  -0.5700 
  2 C        0.3090    -2.2410     0.0200 C.2   1 <1>   0.5690 
  3 N        0.6250    -2.5860    -1.2660 N.am  1 <1>  -0.6600 
  4 C        1.2880    -2.6260     1.1100 C.3   1 <1>  -0.0990 
  5 C        1.8840    -3.3170    -1.5580 C.3   1 <1>   0.1400 
  6 C       -0.2730    -2.3040    -2.4170 C.3   1 <1>   0.0600 
  7 C        2.7280    -2.2920     0.6840 C.3   1 <1>  -0.0800 
  8 C        3.0550    -2.6950    -0.7740 C.3   1 <1>  -0.0800 
  9 C        3.7880    -2.9530     1.5750 C.3   1 <1>  -0.1600 
 10 C        4.2760    -3.6230    -0.6950 C.3   1 <1>  -0.1600 
 11 C        4.9420    -3.2620     0.6290 C.3   1 <1>   0.2200 
 12 N        5.8560    -4.3220     1.1520 N.am  1 <1>  -0.6600 
 13 C        7.1740    -4.0620     1.4860 C.2   1 <1>   0.5440 
 14 C        5.3310    -5.7170     1.2850 C.3   1 <1>   0.0600 
 15 O        7.8420    -4.9570     1.9720 O.2   1 <1>  -0.5700 
 16 C        7.7810    -2.7570     1.3300 C.ar  1 <1>   0.0860 
 17 C        8.0640    -2.2080     0.0770 C.ar  1 <1>   0.0820 
 18 C        8.1110    -2.0070     2.4610 C.ar  1 <1>  -0.1500 
 19 O        7.7840    -2.9190    -1.0450 O.3   1 <1>  -0.3630 
 20 C        8.6320    -0.9350    -0.0270 C.ar  1 <1>   0.0820 
 21 C        8.6830    -0.7530     2.3580 C.ar  1 <1>  -0.1500 
 22 C        8.3990    -2.5120    -2.2500 C.3   1 <1>   0.1200 
 23 O        8.8910    -0.3720    -1.2350 O.3   1 <1>  -0.3630 
 24 C        8.9430    -0.2140     1.1100 C.ar  1 <1>  -0.1500 
 25 C        8.3280    -0.9860    -2.3790 C.3   1 <1>   0.1200 
 26 H        1.0400    -2.1050     2.0170 H     1 <1>   0.0800 
 27 H        1.1790    -3.6800     1.2860 H     1 <1>   0.0800 
 28 H        1.7480    -4.3460    -1.2700 H     1 <1>   0.0800 
 29 H        2.0970    -3.2860    -2.6120 H     1 <1>   0.0800 
 30 H        0.2320    -1.6720    -3.1260 H     1 <1>   0.0800 
 31 H       -1.1660    -1.8030    -2.0840 H     1 <1>   0.0800 
 32 H       -0.5540    -3.2260    -2.8950 H     1 <1>   0.0800 
 33 H        2.8480    -1.2230     0.7520 H     1 <1>   0.0800 
 34 H        3.3540    -1.8010    -1.2960 H     1 <1>   0.0800 
 35 H        3.3990    -3.8590     2.0020 H     1 <1>   0.0800 
 36 H        4.1020    -2.2970     2.3670 H     1 <1>   0.0800 
 37 H        4.9480    -3.4670    -1.5200 H     1 <1>   0.0800 
 38 H        3.9510    -4.6460    -0.6890 H     1 <1>   0.0800 
 39 H        5.4790    -2.3430     0.4750 H     1 <1>   0.0800 
 40 H        4.2580    -5.7340     1.3060 H     1 <1>   0.0800 
 41 H        5.6960    -6.1610     2.1960 H     1 <1>   0.0800 
 42 H        5.6770    -6.3060     0.4540 H     1 <1>   0.0800 
 43 H        7.9150    -2.4290     3.4310 H     1 <1>   0.1500 
 44 H        8.9300    -0.1950     3.2460 H     1 <1>   0.1500 
 45 H        9.4230    -2.8410    -2.2320 H     1 <1>   0.0800 
 46 H        7.8870    -2.9920    -3.0640 H     1 <1>   0.0800 
 47 H        9.3860     0.7620     1.0140 H     1 <1>   0.1500 
 48 H        7.3050    -0.6640    -2.4610 H     1 <1>   0.0800 
 49 H        8.8760    -0.6490    -3.2400 H     1 <1>   0.0800 
@<TRIPOS>BOND
  1   1   2  2   
  2   2   3  am  
  3   2   4  1   
  4   3   5  1   
  5   3   6  1   
  6   4   7  1   
  7   4  26  1   
  8   4  27  1   
  9   5   8  1   
 10   5  28  1   
 11   5  29  1   
 12   6  30  1   
 13   6  31  1   
 14   6  32  1   
 15   7   8  1   
 16   7   9  1   
 17   7  33  1   
 18   8  10  1   
 19   8  34  1   
 20   9  11  1   
 21   9  35  1   
 22   9  36  1   
 23  10  11  1   
 24  10  37  1   
 25  10  38  1   
 26  11  12  1   
 27  11  39  1   
 28  12  13  am  
 29  12  14  1   
 30  13  15  2   
 31  13  16  1   
 32  14  40  1   
 33  14  41  1   
 34  14  42  1   
 35  16  17  ar  
 36  16  18  ar  
 37  17  19  1   
 38  17  20  ar  
 39  18  21  ar  
 40  18  43  1   
 41  19  22  1   
 42  20  23  1   
 43  20  24  ar  
 44  21  24  ar  
 45  21  44  1   
 46  22  25  1   
 47  22  45  1   
 48  22  46  1   
 49  23  25  1   
 50  24  47  1   
 51  25  48  1   
 52  25  49  1   
@<TRIPOS>SUBSTRUCTURE
  1 ****  11 GROUP 4 **** **** 0

# MOE 2024.06 (io_trps.svl 2023.06)
