@<TRIPOS>MOLECULE
NONAME
33 34 1 0 0 
SMALL
USER_CHARGES


@<TRIPOS>ATOM
  1 O        2.7420    -1.7600    -0.5250 O.co2 1 <1>  -0.9000 
  2 C        3.3290    -0.7820    -0.0780 C.2   1 <1>   0.9060 
  3 O        4.3510    -0.3180    -0.6040 O.co2 1 <1>  -0.9000 
  4 C        2.6970    -0.0190     1.0770 C.3   1 <1>  -0.1860 
  5 C        3.6940     0.7320     2.0000 C.3   1 <1>   0.2000 
  6 C        1.6810     0.9740     0.4720 C.3   1 <1>  -0.1600 
  7 O        4.9960     0.3090     1.7940 O.3   1 <1>  -0.6800 
  8 C        3.6410     2.2680     1.8080 C.3   1 <1>   0.3430 
  9 C        2.4220     2.0060    -0.3910 C.3   1 <1>   0.3430 
 10 N        3.5190     2.7070     0.3650 N.4   1 <1>  -0.9590 
 11 C        4.8180     2.5220    -0.3490 C.3   1 <1>   0.4860 
 12 C        5.7590     3.6180     0.1020 C.ar  1 <1>  -0.1440 
 13 C        6.7480     3.3310     1.0310 C.ar  1 <1>   0.1600 
 14 C        5.6520     4.9060    -0.3890 C.ar  1 <1>  -0.1500 
 15 N        7.6020     4.2170     1.5150 N.ar  1 <1>  -0.6200 
 16 C        6.5450     5.8350     0.1000 C.ar  1 <1>  -0.1500 
 17 C        7.4860     5.4450     1.0390 C.ar  1 <1>   0.1600 
 18 H        2.1630    -0.7410     1.6680 H     1 <1>   0.0800 
 19 H        3.4660     0.5140     3.0290 H     1 <1>   0.0800 
 20 H        1.1010     1.4590     1.2370 H     1 <1>   0.0800 
 21 H        0.9930     0.4320    -0.1560 H     1 <1>   0.0800 
 22 H        5.0390    -0.0710     0.8620 H     1 <1>   0.4000 
 23 H        4.5080     2.7100     2.2690 H     1 <1>   0.0800 
 24 H        2.7770     2.6260     2.3400 H     1 <1>   0.0800 
 25 H        1.7170     2.7270    -0.7690 H     1 <1>   0.0800 
 26 H        2.8470     1.4880    -1.2380 H     1 <1>   0.0800 
 27 H        3.3420     3.7150     0.3570 H     1 <1>   0.4500 
 28 H        5.2510     1.5630    -0.1290 H     1 <1>   0.0800 
 29 H        4.6740     2.5830    -1.4140 H     1 <1>   0.0800 
 30 H        6.8420     2.3220     1.4050 H     1 <1>   0.1500 
 31 H        4.9160     5.1850    -1.1230 H     1 <1>   0.1500 
 32 H        6.5210     6.8550    -0.2400 H     1 <1>   0.1500 
 33 H        8.1780     6.1800     1.4150 H     1 <1>   0.1500 
@<TRIPOS>BOND
  1   1   2  ar  
  2   2   3  ar  
  3   2   4  1   
  4   4   5  1   
  5   4   6  1   
  6   4  18  1   
  7   5   7  1   
  8   5   8  1   
  9   5  19  1   
 10   6   9  1   
 11   6  20  1   
 12   6  21  1   
 13   7  22  1   
 14   8  10  1   
 15   8  23  1   
 16   8  24  1   
 17   9  10  1   
 18   9  25  1   
 19   9  26  1   
 20  10  11  1   
 21  10  27  1   
 22  11  12  1   
 23  11  28  1   
 24  11  29  1   
 25  12  13  ar  
 26  12  14  ar  
 27  13  15  ar  
 28  13  30  1   
 29  14  16  ar  
 30  14  31  1   
 31  15  17  ar  
 32  16  17  ar  
 33  16  32  1   
 34  17  33  1   
@<TRIPOS>SUBSTRUCTURE
  1 ****  11 GROUP 4 **** **** 0

# MOE 2024.06 (io_trps.svl 2023.06)
