@<TRIPOS>MOLECULE
NONAME
55 59 1 0 0 
SMALL
USER_CHARGES


@<TRIPOS>ATOM
  1 S       -0.7450     0.4410     0.4480 S.3   1 <1>  -0.0800 
  2 C        0.1900     0.8920    -0.9740 C.2   1 <1>   0.3250 
  3 C       -1.8080    -0.5050    -0.5440 C.2   1 <1>  -0.1400 
  4 N       -0.2440     0.3190    -2.0430 N.2   1 <1>  -0.5650 
  5 C        1.3100     1.7850    -0.8200 C.ar  1 <1>   0.0530 
  6 C       -1.3570    -0.4560    -1.8060 C.2   1 <1>   0.0770 
  7 C       -2.9810    -1.1470     0.1570 C.3   1 <1>   0.5230 
  8 C        1.2230     3.0100    -0.1380 C.ar  1 <1>   0.0830 
  9 C        2.5390     1.4310    -1.3770 C.ar  1 <1>  -0.1500 
 10 N       -4.2160    -1.0330    -0.6770 N.4   1 <1>  -0.9590 
 11 O        0.0140     3.3840     0.3570 O.3   1 <1>  -0.3620 
 12 C        2.3540     3.8140    -0.0040 C.ar  1 <1>  -0.1500 
 13 C        3.6530     2.2350    -1.2460 C.ar  1 <1>  -0.1500 
 14 C       -4.5150     0.3840    -1.1180 C.3   1 <1>   0.3430 
 15 C       -5.3920    -1.6700     0.0060 C.3   1 <1>   0.3430 
 16 C       -0.1750     4.6020     1.0450 C.3   1 <1>   0.0400 
 17 C        3.5620     3.4270    -0.5530 C.ar  1 <1>  -0.1500 
 18 C       -4.9110     1.3460     0.0300 C.3   1 <1>   0.1430 
 19 C       -6.2620    -0.6720     0.7910 C.3   1 <1>  -0.1600 
 20 C       -5.9230     2.3270    -0.5270 C.ar  1 <1>   0.1670 
 21 C       -5.5210     0.5980     1.2400 C.3   1 <1>  -0.1600 
 22 C       -3.7540     2.2890     0.4640 C.3   1 <1>  -0.1600 
 23 N       -6.9740     1.9940    -1.2370 N.ar  1 <1>  -0.6200 
 24 C       -5.6120     3.6160    -0.2110 C.ar  1 <1>  -0.1430 
 25 C       -4.3500     3.7010     0.6080 C.3   1 <1>  -0.0170 
 26 C       -7.7080     3.0290    -1.6250 C.ar  1 <1>   0.7200 
 27 C       -6.4520     4.6050    -0.6620 C.ar  1 <1>   0.1600 
 28 N       -7.5160     4.3160    -1.3760 N.ar  1 <1>  -0.6200 
 29 N       -8.7920     2.7400    -2.3450 N.pl3 1 <1>  -0.9000 
 30 H       -1.7880    -0.9540    -2.6590 H     1 <1>   0.1500 
 31 H       -3.1340    -0.6490     1.0990 H     1 <1>   0.0800 
 32 H       -2.7550    -2.1810     0.3580 H     1 <1>   0.0800 
 33 H        2.6150     0.5050    -1.9220 H     1 <1>   0.1500 
 34 H       -4.0300    -1.5730    -1.5320 H     1 <1>   0.4500 
 35 H        2.3190     4.7490     0.5210 H     1 <1>   0.1500 
 36 H        4.5910     1.9360    -1.6820 H     1 <1>   0.1500 
 37 H       -5.3420     0.3470    -1.8090 H     1 <1>   0.0800 
 38 H       -3.6800     0.7990    -1.6570 H     1 <1>   0.0800 
 39 H       -5.0420    -2.4370     0.6790 H     1 <1>   0.0800 
 40 H       -6.0180    -2.1510    -0.7290 H     1 <1>   0.0800 
 41 H       -1.2080     4.6690     1.3330 H     1 <1>   0.0800 
 42 H        0.0750     5.4160     0.3890 H     1 <1>   0.0800 
 43 H        0.4490     4.6080     1.9220 H     1 <1>   0.0800 
 44 H        4.4310     4.0540    -0.4460 H     1 <1>   0.1500 
 45 H       -6.6800    -1.1720     1.6480 H     1 <1>   0.0800 
 46 H       -7.0960    -0.3890     0.1700 H     1 <1>   0.0800 
 47 H       -6.2030     1.2480     1.7640 H     1 <1>   0.0800 
 48 H       -4.7550     0.3200     1.9410 H     1 <1>   0.0800 
 49 H       -3.0090     2.3310    -0.3120 H     1 <1>   0.0800 
 50 H       -3.2720     1.9790     1.3750 H     1 <1>   0.0800 
 51 H       -3.6800     4.4550     0.2300 H     1 <1>   0.0800 
 52 H       -4.5970     3.9120     1.6340 H     1 <1>   0.0800 
 53 H       -6.2520     5.6390    -0.4380 H     1 <1>   0.1500 
 54 H       -9.4630     3.5000    -2.4290 H     1 <1>   0.4000 
 55 H       -9.1800     1.8090    -2.2280 H     1 <1>   0.4000 
@<TRIPOS>BOND
  1   1   2  1   
  2   1   3  1   
  3   2   4  2   
  4   2   5  1   
  5   3   6  2   
  6   3   7  1   
  7   4   6  1   
  8   5   8  ar  
  9   5   9  ar  
 10   6  30  1   
 11   7  10  1   
 12   7  31  1   
 13   7  32  1   
 14   8  11  1   
 15   8  12  ar  
 16   9  13  ar  
 17   9  33  1   
 18  10  14  1   
 19  10  15  1   
 20  10  34  1   
 21  11  16  1   
 22  12  17  ar  
 23  12  35  1   
 24  13  17  ar  
 25  13  36  1   
 26  14  18  1   
 27  14  37  1   
 28  14  38  1   
 29  15  19  1   
 30  15  39  1   
 31  15  40  1   
 32  16  41  1   
 33  16  42  1   
 34  16  43  1   
 35  17  44  1   
 36  18  20  1   
 37  18  21  1   
 38  18  22  1   
 39  19  21  1   
 40  19  45  1   
 41  19  46  1   
 42  20  23  ar  
 43  20  24  ar  
 44  21  47  1   
 45  21  48  1   
 46  22  25  1   
 47  22  49  1   
 48  22  50  1   
 49  23  26  ar  
 50  24  25  1   
 51  24  27  ar  
 52  25  51  1   
 53  25  52  1   
 54  26  28  ar  
 55  26  29  1   
 56  27  28  ar  
 57  27  53  1   
 58  29  54  1   
 59  29  55  1   
@<TRIPOS>SUBSTRUCTURE
  1 ****  22 GROUP 4 **** **** 0

# MOE 2024.06 (io_trps.svl 2023.06)
