@<TRIPOS>MOLECULE
NONAME
48 49 1 0 0 
SMALL
USER_CHARGES


@<TRIPOS>ATOM
  1 O        0.7650    -0.2530    -1.0700 O.2   1 <1>  -0.5700 
  2 C        1.4820    -0.7870    -0.2590 C.2   1 <1>   0.5690 
  3 N        2.2900    -0.0780     0.5670 N.am  1 <1>  -0.7300 
  4 C        1.4780    -2.2970    -0.1550 C.3   1 <1>  -0.0990 
  5 C        2.3780     1.4010     0.5970 C.3   1 <1>   0.1400 
  6 C        0.0740    -2.8370     0.1790 C.3   1 <1>  -0.0990 
  7 C        3.4950     1.8940    -0.3340 C.3   1 <1>  -0.0800 
  8 C        0.0120    -4.3560     0.3180 C.2   1 <1>   0.4230 
  9 C        4.8720     1.4750     0.1610 C.3   1 <1>   0.1200 
 10 C        3.6170     3.4110    -0.2880 C.3   1 <1>  -0.1600 
 11 O        1.0520    -4.9430     0.4920 O.2   1 <1>  -0.5700 
 12 C       -1.2650    -5.0380     0.2460 C.ar  1 <1>   0.0860 
 13 O        5.2020     2.4200     1.1250 O.3   1 <1>  -0.5600 
 14 C        4.6850     3.6660     0.7770 C.3   1 <1>   0.1200 
 15 C       -2.4960    -4.3730     0.2870 C.ar  1 <1>  -0.1500 
 16 C       -1.3110    -6.4300     0.1350 C.ar  1 <1>  -0.1500 
 17 C       -3.7020    -5.0490     0.2130 C.ar  1 <1>  -0.1440 
 18 C       -2.5040    -7.1210     0.0600 C.ar  1 <1>  -0.1500 
 19 C       -3.7140    -6.4350     0.0970 C.ar  1 <1>   0.0820 
 20 C       -5.0120    -4.2730     0.2590 C.3   1 <1>  -0.0970 
 21 O       -4.9150    -7.0550     0.0270 O.3   1 <1>  -0.3620 
 22 C       -5.0370    -8.4540    -0.0840 C.3   1 <1>   0.1200 
 23 C       -6.5240    -8.7940    -0.1340 C.3   1 <1>  -0.2400 
 24 H        2.8950    -0.5680     1.2290 H     1 <1>   0.3700 
 25 H        2.1760    -2.6070     0.6010 H     1 <1>   0.0800 
 26 H        1.8040    -2.7030    -1.0950 H     1 <1>   0.0800 
 27 H        2.5620     1.7270     1.6070 H     1 <1>   0.0800 
 28 H        1.4370     1.8160     0.2760 H     1 <1>   0.0800 
 29 H       -0.5950    -2.5320    -0.6050 H     1 <1>   0.0800 
 30 H       -0.2620    -2.3970     1.1000 H     1 <1>   0.0800 
 31 H        3.3070     1.5460    -1.3350 H     1 <1>   0.0800 
 32 H        5.6010     1.5400    -0.6280 H     1 <1>   0.0800 
 33 H        4.8950     0.4940     0.6000 H     1 <1>   0.0800 
 34 H        2.6910     3.9040    -0.0510 H     1 <1>   0.0800 
 35 H        3.9710     3.7830    -1.2330 H     1 <1>   0.0800 
 36 H        4.2690     4.1140     1.6630 H     1 <1>   0.0800 
 37 H        5.4870     4.2750     0.3970 H     1 <1>   0.0800 
 38 H       -2.5200    -3.3040     0.3840 H     1 <1>   0.1500 
 39 H       -0.3840    -6.9780     0.1060 H     1 <1>   0.1500 
 40 H       -2.4720    -8.1900    -0.0250 H     1 <1>   0.1500 
 41 H       -4.8420    -3.2160     0.3450 H     1 <1>   0.0800 
 42 H       -5.5960    -4.5980     1.1010 H     1 <1>   0.0800 
 43 H       -5.5750    -4.4570    -0.6390 H     1 <1>   0.0800 
 44 H       -4.5720    -8.9050     0.7750 H     1 <1>   0.0800 
 45 H       -4.5440    -8.7680    -0.9870 H     1 <1>   0.0800 
 46 H       -7.0090    -8.4600     0.7650 H     1 <1>   0.0800 
 47 H       -6.6510    -9.8580    -0.2190 H     1 <1>   0.0800 
 48 H       -6.9810    -8.3240    -0.9860 H     1 <1>   0.0800 
@<TRIPOS>BOND
  1   1   2  2   
  2   2   3  am  
  3   2   4  1   
  4   3   5  1   
  5   3  24  1   
  6   4   6  1   
  7   4  25  1   
  8   4  26  1   
  9   5   7  1   
 10   5  27  1   
 11   5  28  1   
 12   6   8  1   
 13   6  29  1   
 14   6  30  1   
 15   7   9  1   
 16   7  10  1   
 17   7  31  1   
 18   8  11  2   
 19   8  12  1   
 20   9  13  1   
 21   9  32  1   
 22   9  33  1   
 23  10  14  1   
 24  10  34  1   
 25  10  35  1   
 26  12  15  ar  
 27  12  16  ar  
 28  13  14  1   
 29  14  36  1   
 30  14  37  1   
 31  15  17  ar  
 32  15  38  1   
 33  16  18  ar  
 34  16  39  1   
 35  17  19  ar  
 36  17  20  1   
 37  18  19  ar  
 38  18  40  1   
 39  19  21  1   
 40  20  41  1   
 41  20  42  1   
 42  20  43  1   
 43  21  22  1   
 44  22  23  1   
 45  22  44  1   
 46  22  45  1   
 47  23  46  1   
 48  23  47  1   
 49  23  48  1   
@<TRIPOS>SUBSTRUCTURE
  1 ****   6 GROUP 4 **** **** 0

# MOE 2024.06 (io_trps.svl 2023.06)
