@<TRIPOS>MOLECULE
NONAME
55 57 1 0 0 
SMALL
USER_CHARGES


@<TRIPOS>ATOM
  1 O        0.4590     2.4390     0.2530 O.co2 1 <1>  -0.9000 
  2 C       -0.6820     2.7570     0.5870 C.2   1 <1>   0.9060 
  3 O       -0.9440     3.1440     1.7310 O.co2 1 <1>  -0.9000 
  4 C       -1.6790     2.9580    -0.5240 C.3   1 <1>  -0.1860 
  5 C       -3.1050     3.4190    -0.1490 C.3   1 <1>   0.2000 
  6 C       -1.0200     3.9920    -1.4280 C.3   1 <1>   0.3430 
  7 O       -3.4280     2.9620     1.1050 O.3   1 <1>  -0.6800 
  8 C       -3.2770     4.9440    -0.1520 C.3   1 <1>  -0.1600 
  9 N       -0.8990     5.3390    -0.7590 N.4   1 <1>  -0.9590 
 10 C       -1.9750     5.6230     0.2520 C.3   1 <1>   0.3430 
 11 C        0.4340     5.4460    -0.0840 C.3   1 <1>   0.4860 
 12 C        0.6520     6.8950     0.3130 C.ar  1 <1>  -0.1430 
 13 C        0.9470     7.8560    -0.6440 C.ar  1 <1>  -0.1500 
 14 C        0.5440     7.2660     1.6450 C.ar  1 <1>  -0.1500 
 15 C        1.1160     9.1810    -0.2790 C.ar  1 <1>   0.0820 
 16 C        0.7290     8.5860     2.0200 C.ar  1 <1>  -0.1500 
 17 O        1.3700    10.0690    -1.2720 O.3   1 <1>  -0.3630 
 18 C        1.0300     9.5460     1.0690 C.ar  1 <1>   0.0820 
 19 C        0.4050    11.0770    -1.4960 C.3   1 <1>   0.0400 
 20 O        1.2300    10.8140     1.5030 O.3   1 <1>  -0.3630 
 21 C        2.5140    11.3750     1.2970 C.3   1 <1>   0.2640 
 22 C        2.3610    12.8140     0.8290 C.ar  1 <1>  -0.1430 
 23 C        2.8810    13.2120    -0.3920 C.ar  1 <1>  -0.1500 
 24 C        1.7000    13.7440     1.6170 C.ar  1 <1>  -0.1500 
 25 C        2.7440    14.5220    -0.8200 C.ar  1 <1>  -0.1500 
 26 C        1.5620    15.0530     1.1890 C.ar  1 <1>  -0.1500 
 27 C        2.0830    15.4490    -0.0320 C.ar  1 <1>  -0.1430 
 28 C        1.9340    16.8860    -0.4980 C.3   1 <1>  -0.0970 
 29 H       -1.7460     2.0270    -1.0530 H     1 <1>   0.0800 
 30 H       -3.8240     2.9880    -0.8260 H     1 <1>   0.0800 
 31 H       -1.6170     4.0910    -2.3190 H     1 <1>   0.0800 
 32 H       -0.0440     3.6360    -1.7200 H     1 <1>   0.0800 
 33 H       -2.5870     2.9790     1.6550 H     1 <1>   0.4000 
 34 H       -3.5580     5.2800    -1.1330 H     1 <1>   0.0800 
 35 H       -4.0660     5.2250     0.5240 H     1 <1>   0.0800 
 36 H       -0.9190     6.0740    -1.4700 H     1 <1>   0.4500 
 37 H       -1.6790     5.2380     1.2170 H     1 <1>   0.0800 
 38 H       -2.1170     6.6870     0.3500 H     1 <1>   0.0800 
 39 H        0.4680     4.8210     0.7940 H     1 <1>   0.0800 
 40 H        1.2180     5.1250    -0.7490 H     1 <1>   0.0800 
 41 H        1.0490     7.5970    -1.6820 H     1 <1>   0.1500 
 42 H        0.3180     6.5280     2.4000 H     1 <1>   0.1500 
 43 H        0.6490     8.8750     3.0530 H     1 <1>   0.1500 
 44 H        0.7340    11.6820    -2.3210 H     1 <1>   0.0800 
 45 H        0.3060    11.6910    -0.6190 H     1 <1>   0.0800 
 46 H       -0.5360    10.6130    -1.7300 H     1 <1>   0.0800 
 47 H        3.0410    11.3390     2.2330 H     1 <1>   0.0800 
 48 H        3.0520    10.7920     0.5710 H     1 <1>   0.0800 
 49 H        3.3930    12.5030    -1.0190 H     1 <1>   0.1500 
 50 H        1.2860    13.4470     2.5650 H     1 <1>   0.1500 
 51 H        3.1550    14.8140    -1.7690 H     1 <1>   0.1500 
 52 H        1.0470    15.7620     1.8130 H     1 <1>   0.1500 
 53 H        1.9100    16.9320    -1.5720 H     1 <1>   0.0800 
 54 H        2.7620    17.4710    -0.1430 H     1 <1>   0.0800 
 55 H        1.0210    17.3100    -0.1200 H     1 <1>   0.0800 
@<TRIPOS>BOND
  1   1   2  ar  
  2   2   3  ar  
  3   2   4  1   
  4   4   5  1   
  5   4   6  1   
  6   4  29  1   
  7   5   7  1   
  8   5   8  1   
  9   5  30  1   
 10   6   9  1   
 11   6  31  1   
 12   6  32  1   
 13   7  33  1   
 14   8  10  1   
 15   8  34  1   
 16   8  35  1   
 17   9  10  1   
 18   9  11  1   
 19   9  36  1   
 20  10  37  1   
 21  10  38  1   
 22  11  12  1   
 23  11  39  1   
 24  11  40  1   
 25  12  13  ar  
 26  12  14  ar  
 27  13  15  ar  
 28  13  41  1   
 29  14  16  ar  
 30  14  42  1   
 31  15  17  1   
 32  15  18  ar  
 33  16  18  ar  
 34  16  43  1   
 35  17  19  1   
 36  18  20  1   
 37  19  44  1   
 38  19  45  1   
 39  19  46  1   
 40  20  21  1   
 41  21  22  1   
 42  21  47  1   
 43  21  48  1   
 44  22  23  ar  
 45  22  24  ar  
 46  23  25  ar  
 47  23  49  1   
 48  24  26  ar  
 49  24  50  1   
 50  25  27  ar  
 51  25  51  1   
 52  26  27  ar  
 53  26  52  1   
 54  27  28  1   
 55  28  53  1   
 56  28  54  1   
 57  28  55  1   
@<TRIPOS>SUBSTRUCTURE
  1 ****  15 GROUP 4 **** **** 0

# MOE 2024.06 (io_trps.svl 2023.06)
