@<TRIPOS>MOLECULE
NONAME
49 51 1 0 0 
SMALL
USER_CHARGES


@<TRIPOS>ATOM
  1 F       -0.9940    -0.9940     0.2590 F     1 <1>  -0.3400 
  2 C       -0.0720    -1.8270     0.7340 C.3   1 <1>   1.1640 
  3 F       -0.1540    -1.7300     2.0600 F     1 <1>  -0.3400 
  4 F        1.1080    -1.3040     0.4110 F     1 <1>  -0.3400 
  5 C       -0.2510    -3.2880     0.2190 C.ar  1 <1>   0.1660 
  6 N       -0.2160    -3.5170    -1.1000 N.ar  1 <1>  -0.6200 
  7 C       -0.4410    -4.3250     1.1320 C.ar  1 <1>  -0.1500 
  8 C       -0.3650    -4.7710    -1.4990 C.ar  1 <1>   0.1600 
  9 C       -0.6020    -5.6230     0.6940 C.ar  1 <1>  -0.1500 
 10 C       -0.5750    -5.8670    -0.6710 C.ar  1 <1>   0.0860 
 11 C       -0.7310    -7.1880    -1.2390 C.2   1 <1>   0.5440 
 12 O        0.0690    -7.5550    -2.0760 O.2   1 <1>  -0.5700 
 13 N       -1.7530    -8.0400    -0.8690 N.am  1 <1>  -0.6600 
 14 C       -1.7490    -9.4870    -1.2690 C.3   1 <1>   0.1400 
 15 C       -3.0430    -7.5730    -0.2940 C.3   1 <1>   0.1400 
 16 C       -2.0500   -10.4060    -0.0600 C.3   1 <1>   0.0000 
 17 C       -3.3950    -8.4230     0.9270 C.3   1 <1>  -0.1600 
 18 C       -3.3880    -9.9090     0.5540 C.3   1 <1>   0.2000 
 19 C       -2.2890   -11.8540    -0.5570 C.3   1 <1>   0.1200 
 20 C       -0.8890   -10.3480     0.9830 C.3   1 <1>  -0.0160 
 21 O       -3.7280   -10.6360     1.6820 O.3   1 <1>  -0.6800 
 22 O       -1.2960   -12.2700    -1.4320 O.3   1 <1>  -0.6800 
 23 C        0.4170   -11.0050     0.5470 C.ar  1 <1>  -0.1440 
 24 C        0.6930   -12.3150     0.9110 C.ar  1 <1>  -0.1500 
 25 C        1.3440   -10.3070    -0.2110 C.ar  1 <1>  -0.1500 
 26 C        1.8700   -12.9230     0.5090 C.ar  1 <1>  -0.1500 
 27 C        2.5200   -10.9120    -0.6150 C.ar  1 <1>  -0.1500 
 28 C        2.7840   -12.2220    -0.2570 C.ar  1 <1>  -0.1500 
 29 H       -0.4610    -4.1310     2.1910 H     1 <1>   0.1500 
 30 H       -0.3190    -4.9520    -2.5610 H     1 <1>   0.1500 
 31 H       -0.7390    -6.4330     1.3890 H     1 <1>   0.1500 
 32 H       -2.4980    -9.6340    -2.0290 H     1 <1>   0.0800 
 33 H       -0.8050    -9.7550    -1.7090 H     1 <1>   0.0800 
 34 H       -2.9980    -6.5340    -0.0200 H     1 <1>   0.0800 
 35 H       -3.8120    -7.6800    -1.0420 H     1 <1>   0.0800 
 36 H       -4.3770    -8.1470     1.2670 H     1 <1>   0.0800 
 37 H       -2.6930    -8.2190     1.7140 H     1 <1>   0.0800 
 38 H       -4.1760   -10.0770    -0.1630 H     1 <1>   0.0800 
 39 H       -3.2220   -11.9240    -1.0890 H     1 <1>   0.0800 
 40 H       -2.3190   -12.5410     0.2710 H     1 <1>   0.0800 
 41 H       -0.6760    -9.3260     1.2380 H     1 <1>   0.0800 
 42 H       -1.1980   -10.8320     1.8910 H     1 <1>   0.0800 
 43 H       -3.1540   -10.3940     2.4330 H     1 <1>   0.4000 
 44 H       -0.4100   -12.1530    -1.0150 H     1 <1>   0.4000 
 45 H       -0.0070   -12.8750     1.5070 H     1 <1>   0.1500 
 46 H        1.1590    -9.2860    -0.4970 H     1 <1>   0.1500 
 47 H        2.0740   -13.9410     0.7910 H     1 <1>   0.1500 
 48 H        3.2280   -10.3610    -1.2100 H     1 <1>   0.1500 
 49 H        3.6980   -12.6930    -0.5730 H     1 <1>   0.1500 
@<TRIPOS>BOND
  1   1   2  1   
  2   2   3  1   
  3   2   4  1   
  4   2   5  1   
  5   5   6  ar  
  6   5   7  ar  
  7   6   8  ar  
  8   7   9  ar  
  9   7  29  1   
 10   8  10  ar  
 11   8  30  1   
 12   9  10  ar  
 13   9  31  1   
 14  10  11  1   
 15  11  12  2   
 16  11  13  am  
 17  13  14  1   
 18  13  15  1   
 19  14  16  1   
 20  14  32  1   
 21  14  33  1   
 22  15  17  1   
 23  15  34  1   
 24  15  35  1   
 25  16  18  1   
 26  16  19  1   
 27  16  20  1   
 28  17  18  1   
 29  17  36  1   
 30  17  37  1   
 31  18  21  1   
 32  18  38  1   
 33  19  22  1   
 34  19  39  1   
 35  19  40  1   
 36  20  23  1   
 37  20  41  1   
 38  20  42  1   
 39  21  43  1   
 40  22  44  1   
 41  23  24  ar  
 42  23  25  ar  
 43  24  26  ar  
 44  24  45  1   
 45  25  27  ar  
 46  25  46  1   
 47  26  28  ar  
 48  26  47  1   
 49  27  28  ar  
 50  27  48  1   
 51  28  49  1   
@<TRIPOS>SUBSTRUCTURE
  1 ****  11 GROUP 4 **** **** 0

# MOE 2024.06 (io_trps.svl 2023.06)
