@<TRIPOS>MOLECULE
NONAME
59 62 1 0 0 
SMALL
USER_CHARGES


@<TRIPOS>ATOM
  1 O       -2.8940     1.9270     2.0980 O.2   1 <1>  -0.5700 
  2 C       -2.4800     1.9890     0.9530 C.2   1 <1>   0.6900 
  3 N       -1.2100     2.4540     0.7150 N.am  1 <1>  -0.6600 
  4 N       -3.2860     1.5900    -0.0840 N.am  1 <1>  -0.6600 
  5 C       -0.9250     3.4020    -0.3950 C.3   1 <1>   0.1400 
  6 C       -0.1690     2.3720     1.7740 C.3   1 <1>   0.1400 
  7 C       -2.7610     0.8980    -1.2810 C.3   1 <1>   0.1400 
  8 C       -4.7010     1.2220     0.1480 C.3   1 <1>   0.1400 
  9 C       -0.6400     4.7920     0.1730 C.3   1 <1>  -0.1600 
 10 C        0.1080     3.7640     2.3440 C.3   1 <1>  -0.1600 
 11 C       -3.8190    -0.1420    -1.6310 C.3   1 <1>  -0.1600 
 12 C       -5.1200     0.4460    -1.0960 C.3   1 <1>  -0.1600 
 13 C        0.4680     4.7370     1.2250 C.3   1 <1>   0.2890 
 14 N        0.6500     6.0760     1.8010 N.pl3 1 <1>  -0.8690 
 15 C        1.3450     7.0170     1.1060 C.ar  1 <1>   0.4100 
 16 N        0.6710     8.0690     0.7860 N.ar  1 <1>  -0.6200 
 17 C        2.6890     6.8300     0.7700 C.ar  1 <1>  -0.1500 
 18 C        1.2930     9.0330     0.0530 C.ar  1 <1>   0.3100 
 19 C        3.3570     7.7550     0.0300 C.ar  1 <1>  -0.1430 
 20 C        2.6420     8.9150    -0.3930 C.ar  1 <1>   0.0000 
 21 C        0.5530    10.1980    -0.2980 C.ar  1 <1>   0.0820 
 22 C        4.8250     7.4790    -0.2800 C.3   1 <1>  -0.0970 
 23 C        3.1620     9.9530    -1.2250 C.ar  1 <1>   0.0820 
 24 O       -0.7280    10.4210     0.1090 O.3   1 <1>  -0.3630 
 25 C        1.0930    11.1680    -1.0940 C.ar  1 <1>  -0.1500 
 26 O        4.4350     9.8400    -1.6920 O.3   1 <1>  -0.3630 
 27 C        2.3950    11.0470    -1.5590 C.ar  1 <1>  -0.1500 
 28 C       -1.0020    10.4350     1.4940 C.3   1 <1>   0.0400 
 29 C        5.0330    10.7870    -2.5520 C.3   1 <1>   0.0400 
 30 H       -1.7690     3.4660    -1.0600 H     1 <1>   0.0800 
 31 H       -0.0770     3.0460    -0.9530 H     1 <1>   0.0800 
 32 H        0.7300     1.9620     1.3490 H     1 <1>   0.0800 
 33 H       -0.4920     1.7140     2.5640 H     1 <1>   0.0800 
 34 H       -1.8080     0.4390    -1.0790 H     1 <1>   0.0800 
 35 H       -2.6620     1.6080    -2.0830 H     1 <1>   0.0800 
 36 H       -5.3030     2.1030     0.2930 H     1 <1>   0.0800 
 37 H       -4.7680     0.5940     1.0210 H     1 <1>   0.0800 
 38 H       -1.5430     5.1780     0.6110 H     1 <1>   0.0800 
 39 H       -0.3470     5.4470    -0.6280 H     1 <1>   0.0800 
 40 H        0.9180     3.7080     3.0470 H     1 <1>   0.0800 
 41 H       -0.7720     4.1040     2.8610 H     1 <1>   0.0800 
 42 H       -3.5920    -1.0580    -1.1140 H     1 <1>   0.0800 
 43 H       -3.8590    -0.3350    -2.6890 H     1 <1>   0.0800 
 44 H       -5.5360     1.1330    -1.8120 H     1 <1>   0.0800 
 45 H       -5.8510    -0.3090    -0.8670 H     1 <1>   0.0800 
 46 H        1.3850     4.4160     0.7590 H     1 <1>   0.0800 
 47 H       -0.2500     6.4650     2.0880 H     1 <1>   0.4000 
 48 H        3.1620     5.9360     1.1260 H     1 <1>   0.1500 
 49 H        5.1630     6.5760     0.1940 H     1 <1>   0.0800 
 50 H        5.4350     8.2890     0.0790 H     1 <1>   0.0800 
 51 H        4.9650     7.3720    -1.3400 H     1 <1>   0.0800 
 52 H        0.5080    12.0300    -1.3600 H     1 <1>   0.1500 
 53 H        2.7630    11.8400    -2.1820 H     1 <1>   0.1500 
 54 H       -1.8730    11.0430     1.6570 H     1 <1>   0.0800 
 55 H       -0.1580    10.8470     2.0190 H     1 <1>   0.0800 
 56 H       -1.1960     9.4300     1.8220 H     1 <1>   0.0800 
 57 H        6.0280    10.4490    -2.7780 H     1 <1>   0.0800 
 58 H        5.0760    11.7370    -2.0500 H     1 <1>   0.0800 
 59 H        4.4550    10.8520    -3.4570 H     1 <1>   0.0800 
@<TRIPOS>BOND
  1   1   2  2   
  2   2   3  am  
  3   2   4  am  
  4   3   5  1   
  5   3   6  1   
  6   4   7  1   
  7   4   8  1   
  8   5   9  1   
  9   5  30  1   
 10   5  31  1   
 11   6  10  1   
 12   6  32  1   
 13   6  33  1   
 14   7  11  1   
 15   7  34  1   
 16   7  35  1   
 17   8  12  1   
 18   8  36  1   
 19   8  37  1   
 20   9  13  1   
 21   9  38  1   
 22   9  39  1   
 23  10  13  1   
 24  10  40  1   
 25  10  41  1   
 26  11  12  1   
 27  11  42  1   
 28  11  43  1   
 29  12  44  1   
 30  12  45  1   
 31  13  14  1   
 32  13  46  1   
 33  14  15  1   
 34  14  47  1   
 35  15  16  ar  
 36  15  17  ar  
 37  16  18  ar  
 38  17  19  ar  
 39  17  48  1   
 40  18  20  ar  
 41  18  21  ar  
 42  19  20  ar  
 43  19  22  1   
 44  20  23  ar  
 45  21  24  1   
 46  21  25  ar  
 47  22  49  1   
 48  22  50  1   
 49  22  51  1   
 50  23  26  1   
 51  23  27  ar  
 52  24  28  1   
 53  25  27  ar  
 54  25  52  1   
 55  26  29  1   
 56  27  53  1   
 57  28  54  1   
 58  28  55  1   
 59  28  56  1   
 60  29  57  1   
 61  29  58  1   
 62  29  59  1   
@<TRIPOS>SUBSTRUCTURE
  1 ****   9 GROUP 4 **** **** 0

# MOE 2024.06 (io_trps.svl 2023.06)
