@<TRIPOS>MOLECULE
NONAME
48 50 1 0 0 
SMALL
USER_CHARGES


@<TRIPOS>ATOM
  1 O        0.4840    -1.4860     0.7050 O.2   1 <1>  -0.5700 
  2 C       -0.6540    -1.1650     0.3640 C.2   1 <1>   0.5410 
  3 C       -1.7940    -1.8950     0.8330 C.2   1 <1>  -0.1240 
  4 C       -0.8730    -0.0690    -0.5210 C.2   1 <1>  -0.1240 
  5 C       -3.0490    -1.5410     0.4200 C.2   1 <1>  -0.0380 
  6 C       -1.4990    -3.0560     1.7900 C.3   1 <1>  -0.1020 
  7 C       -2.1360     0.2530    -0.8960 C.2   1 <1>  -0.0500 
  8 C        0.3270     0.7250    -1.0250 C.3   1 <1>  -0.1020 
  9 N       -3.2130    -0.4660    -0.4360 N.pl3 1 <1>  -0.6000 
 10 C       -4.3230    -2.2750     0.8310 C.3   1 <1>   0.4810 
 11 N       -4.8250    -3.0540    -0.3400 N.4   1 <1>  -0.9590 
 12 C       -6.2070    -3.5510    -0.1130 C.3   1 <1>   0.4230 
 13 C       -3.8760    -4.1650    -0.6720 C.3   1 <1>   0.2630 
 14 C       -6.7560    -4.2970    -1.3220 C.3   1 <1>  -0.1600 
 15 C       -7.2040    -2.4110     0.0850 C.3   1 <1>  -0.1600 
 16 C       -8.2780    -4.2460    -1.1500 C.3   1 <1>  -0.0800 
 17 C       -8.5720    -2.9670    -0.3460 C.3   1 <1>  -0.0800 
 18 C       -8.8250    -5.4190    -0.3150 C.3   1 <1>  -0.1600 
 19 C       -9.4500    -3.4050     0.8380 C.3   1 <1>  -0.1600 
 20 C       -9.1410    -4.8770     1.0740 C.3   1 <1>   0.2000 
 21 O       -8.0080    -4.9680     1.8640 O.3   1 <1>  -0.6800 
 22 H       -1.0040    -2.6760     2.6680 H     1 <1>   0.0800 
 23 H       -0.8290    -3.7530     1.3160 H     1 <1>   0.0800 
 24 H       -2.3690    -3.5930     2.1070 H     1 <1>   0.0800 
 25 H       -2.3360     1.0830    -1.5570 H     1 <1>   0.1500 
 26 H        0.9960     0.0760    -1.5620 H     1 <1>   0.0800 
 27 H        0.8610     1.1490    -0.1930 H     1 <1>   0.0800 
 28 H        0.0210     1.5220    -1.6790 H     1 <1>   0.0800 
 29 H       -4.1460    -0.1190    -0.6970 H     1 <1>   0.4000 
 30 H       -5.0530    -1.5470     1.1390 H     1 <1>   0.0800 
 31 H       -4.1430    -2.9330     1.6620 H     1 <1>   0.0800 
 32 H       -4.8380    -2.4100    -1.1390 H     1 <1>   0.4500 
 33 H       -6.2330    -4.2060     0.7420 H     1 <1>   0.0800 
 34 H       -3.8310    -4.8750     0.1390 H     1 <1>   0.0800 
 35 H       -2.8850    -3.7740    -0.8450 H     1 <1>   0.0800 
 36 H       -4.1950    -4.6800    -1.5630 H     1 <1>   0.0800 
 37 H       -6.4970    -3.7760    -2.2270 H     1 <1>   0.0800 
 38 H       -6.3980    -5.3090    -1.3730 H     1 <1>   0.0800 
 39 H       -7.2200    -2.0730     1.1050 H     1 <1>   0.0800 
 40 H       -6.9580    -1.5880    -0.5630 H     1 <1>   0.0800 
 41 H       -8.7640    -4.2270    -2.1120 H     1 <1>   0.0800 
 42 H       -9.0960    -2.2380    -0.9420 H     1 <1>   0.0800 
 43 H       -8.1720    -6.2730    -0.2730 H     1 <1>   0.0800 
 44 H       -9.7520    -5.7390    -0.7590 H     1 <1>   0.0800 
 45 H      -10.4800    -3.3310     0.5360 H     1 <1>   0.0800 
 46 H       -9.3230    -2.8060     1.7220 H     1 <1>   0.0800 
 47 H       -9.9440    -5.4130     1.5540 H     1 <1>   0.0800 
 48 H       -8.2670    -4.8980     2.8050 H     1 <1>   0.4000 
@<TRIPOS>BOND
  1   1   2  2   
  2   2   3  1   
  3   2   4  1   
  4   3   5  2   
  5   3   6  1   
  6   4   7  2   
  7   4   8  1   
  8   5   9  1   
  9   5  10  1   
 10   6  22  1   
 11   6  23  1   
 12   6  24  1   
 13   7   9  1   
 14   7  25  1   
 15   8  26  1   
 16   8  27  1   
 17   8  28  1   
 18   9  29  1   
 19  10  11  1   
 20  10  30  1   
 21  10  31  1   
 22  11  12  1   
 23  11  13  1   
 24  11  32  1   
 25  12  14  1   
 26  12  15  1   
 27  12  33  1   
 28  13  34  1   
 29  13  35  1   
 30  13  36  1   
 31  14  16  1   
 32  14  37  1   
 33  14  38  1   
 34  15  17  1   
 35  15  39  1   
 36  15  40  1   
 37  16  17  1   
 38  16  18  1   
 39  16  41  1   
 40  17  19  1   
 41  17  42  1   
 42  18  20  1   
 43  18  43  1   
 44  18  44  1   
 45  19  20  1   
 46  19  45  1   
 47  19  46  1   
 48  20  21  1   
 49  20  47  1   
 50  21  48  1   
@<TRIPOS>SUBSTRUCTURE
  1 ****  11 GROUP 4 **** **** 0

# MOE 2024.06 (io_trps.svl 2023.06)
