@<TRIPOS>MOLECULE
NONAME
42 44 1 0 0 
SMALL
USER_CHARGES


@<TRIPOS>ATOM
  1 O        2.2780     0.1980     1.6420 O.3   1 <1>  -0.6800 
  2 C        1.9170    -0.1190     0.3330 C.3   1 <1>   0.2000 
  3 C        2.6300    -1.3940    -0.1200 C.3   1 <1>  -0.0800 
  4 C        2.5160     0.9350    -0.6020 C.3   1 <1>   0.3430 
  5 C        4.0120    -0.9280    -0.6030 C.3   1 <1>   0.3430 
  6 C        2.7160    -2.5290     0.9190 C.3   1 <1>   0.0210 
  7 N        3.9620     0.5610    -0.7530 N.4   1 <1>  -0.9590 
  8 C        3.3950    -3.7550     0.3370 C.2   1 <1>   0.1080 
  9 C        4.8210     1.1970     0.2940 C.3   1 <1>   0.4860 
 10 N        4.6030    -3.7360    -0.1390 N.2   1 <1>  -0.7070 
 11 C        2.8150    -5.0150     0.2540 C.2   1 <1>  -0.1500 
 12 C        4.7060     2.7020     0.2190 C.ar  1 <1>  -0.1440 
 13 N        4.8320    -5.0090    -0.5310 N.pl3 1 <1>   0.3000 
 14 C        3.7600    -5.7970    -0.3080 C.2   1 <1>  -0.3320 
 15 C        5.3470     3.4390    -0.7520 C.ar  1 <1>   0.1600 
 16 C        3.9420     3.3990     1.1290 C.ar  1 <1>   0.1600 
 17 C        3.7060    -7.2760    -0.6440 C.3   1 <1>  -0.0600 
 18 N        5.2180     4.7390    -0.8370 N.ar  1 <1>  -0.6200 
 19 N        3.7960     4.6990     1.0640 N.ar  1 <1>  -0.6200 
 20 C        4.4370     5.2940     0.0730 C.ar  1 <1>   0.7200 
 21 N        4.2890     6.6150    -0.0090 N.pl3 1 <1>  -0.9000 
 22 H        1.7300    -0.2990     2.2880 H     1 <1>   0.4000 
 23 H        0.8430    -0.1700     0.2650 H     1 <1>   0.0800 
 24 H        2.1100    -1.7780    -0.9810 H     1 <1>   0.0800 
 25 H        2.3750     1.9300    -0.2150 H     1 <1>   0.0800 
 26 H        2.0280     0.8640    -1.5600 H     1 <1>   0.0800 
 27 H        4.2520    -1.4100    -1.5380 H     1 <1>   0.0800 
 28 H        4.7610    -1.2120     0.1200 H     1 <1>   0.0800 
 29 H        1.7280    -2.7990     1.2470 H     1 <1>   0.0800 
 30 H        3.2800    -2.2160     1.7800 H     1 <1>   0.0800 
 31 H        4.3000     0.8430    -1.6810 H     1 <1>   0.4500 
 32 H        4.5130     0.8630     1.2720 H     1 <1>   0.0800 
 33 H        5.8490     0.9070     0.1520 H     1 <1>   0.0800 
 34 H        1.8270    -5.2900     0.5780 H     1 <1>   0.1500 
 35 H        5.7240    -5.3140    -0.9400 H     1 <1>   0.2700 
 36 H        5.9790     2.9600    -1.4820 H     1 <1>   0.1500 
 37 H        3.4290     2.8830     1.9260 H     1 <1>   0.1500 
 38 H        2.7490    -7.6830    -0.3700 H     1 <1>   0.0800 
 39 H        4.4700    -7.8090    -0.1070 H     1 <1>   0.0800 
 40 H        3.8510    -7.4250    -1.7000 H     1 <1>   0.0800 
 41 H        3.9510     7.0770     0.8310 H     1 <1>   0.4000 
 42 H        4.9910     7.1100    -0.5530 H     1 <1>   0.4000 
@<TRIPOS>BOND
  1   1   2  1   
  2   1  22  1   
  3   2   3  1   
  4   2   4  1   
  5   2  23  1   
  6   3   5  1   
  7   3   6  1   
  8   3  24  1   
  9   4   7  1   
 10   4  25  1   
 11   4  26  1   
 12   5   7  1   
 13   5  27  1   
 14   5  28  1   
 15   6   8  1   
 16   6  29  1   
 17   6  30  1   
 18   7   9  1   
 19   7  31  1   
 20   8  10  2   
 21   8  11  1   
 22   9  12  1   
 23   9  32  1   
 24   9  33  1   
 25  10  13  1   
 26  11  14  2   
 27  11  34  1   
 28  12  15  ar  
 29  12  16  ar  
 30  13  14  1   
 31  13  35  1   
 32  14  17  1   
 33  15  18  ar  
 34  15  36  1   
 35  16  19  ar  
 36  16  37  1   
 37  17  38  1   
 38  17  39  1   
 39  17  40  1   
 40  18  20  ar  
 41  19  20  ar  
 42  20  21  1   
 43  21  41  1   
 44  21  42  1   
@<TRIPOS>SUBSTRUCTURE
  1 ****   7 GROUP 4 **** **** 0

# MOE 2024.06 (io_trps.svl 2023.06)
