@<TRIPOS>MOLECULE
NONAME
54 58 1 0 0 
SMALL
USER_CHARGES


@<TRIPOS>ATOM
  1 S       -1.4120     0.3780     0.0670 S.3   1 <1>  -0.0800 
  2 C       -2.4680     1.6000    -0.6500 C.2   1 <1>   0.0400 
  3 C        0.0090     1.3860    -0.1310 C.2   1 <1>  -0.1100 
  4 C       -3.8730     1.3300    -0.7730 C.2   1 <1>   0.1400 
  5 C       -1.7160     2.6760    -0.9930 C.2   1 <1>  -0.1500 
  6 C       -0.3250     2.5580    -0.7030 C.2   1 <1>  -0.1500 
  7 O       -4.3880     0.1800    -0.3590 O.3   1 <1>  -0.2800 
  8 C       -4.8780     2.0950    -1.2790 C.2   1 <1>  -0.1500 
  9 C       -5.6850     0.1830    -0.5820 C.2   1 <1>  -0.0400 
 10 C       -6.0520     1.3510    -1.1550 C.2   1 <1>  -0.1500 
 11 C       -6.4750    -1.0510    -0.1790 C.3   1 <1>   0.0200 
 12 C       -7.9810    -0.8880    -0.4340 C.3   1 <1>  -0.0990 
 13 C       -8.8090    -2.1020    -0.0360 C.2   1 <1>   0.5690 
 14 O       -8.2350    -3.0660     0.4140 O.2   1 <1>  -0.5700 
 15 N      -10.1730    -2.0840    -0.1890 N.am  1 <1>  -0.6600 
 16 C      -10.9750    -0.9270    -0.7030 C.3   1 <1>   0.1400 
 17 C      -11.0060    -3.2720     0.1580 C.3   1 <1>   0.1400 
 18 C      -12.0320    -0.4860     0.3280 C.3   1 <1>   0.1440 
 19 C      -12.0780    -2.8840     1.1840 C.3   1 <1>  -0.1600 
 20 C      -12.8280     0.6610    -0.2660 C.ar  1 <1>   0.1670 
 21 C      -12.9220    -1.6890     0.7060 C.3   1 <1>  -0.1600 
 22 C      -11.3830     0.1700     1.5790 C.3   1 <1>  -0.1600 
 23 N      -13.7080     0.5560    -1.2370 N.ar  1 <1>  -0.6200 
 24 C      -12.5080     1.8520     0.3160 C.ar  1 <1>  -0.1430 
 25 C      -11.4530     1.6940     1.3810 C.3   1 <1>  -0.0170 
 26 C      -14.2730     1.7010    -1.5920 C.ar  1 <1>   0.4770 
 27 C      -13.1520     2.9780    -0.1320 C.ar  1 <1>   0.1600 
 28 N      -14.0470     2.9110    -1.0970 N.ar  1 <1>  -0.6200 
 29 C      -15.3020     1.6240    -2.6940 C.3   1 <1>  -0.0970 
 30 H        0.9500     0.9900     0.2040 H     1 <1>   0.1500 
 31 H       -2.1060     3.5670    -1.4510 H     1 <1>   0.1500 
 32 H        0.3610     3.3540    -0.9340 H     1 <1>   0.1500 
 33 H       -4.8030     3.0810    -1.6980 H     1 <1>   0.1500 
 34 H       -7.0280     1.6770    -1.4670 H     1 <1>   0.1500 
 35 H       -6.3050    -1.2420     0.8660 H     1 <1>   0.0800 
 36 H       -6.1020    -1.8950    -0.7330 H     1 <1>   0.0800 
 37 H       -8.1360    -0.7050    -1.4810 H     1 <1>   0.0800 
 38 H       -8.3300    -0.0410     0.1250 H     1 <1>   0.0800 
 39 H      -11.4770    -1.2320    -1.6060 H     1 <1>   0.0800 
 40 H      -10.3510    -0.0900    -0.9510 H     1 <1>   0.0800 
 41 H      -10.3960    -4.0640     0.5590 H     1 <1>   0.0800 
 42 H      -11.4760    -3.6400    -0.7380 H     1 <1>   0.0800 
 43 H      -11.5950    -2.6500     2.1170 H     1 <1>   0.0800 
 44 H      -12.7200    -3.7300     1.3580 H     1 <1>   0.0800 
 45 H      -13.4860    -1.9900    -0.1610 H     1 <1>   0.0800 
 46 H      -13.6300    -1.4050     1.4650 H     1 <1>   0.0800 
 47 H      -10.3750    -0.1650     1.7470 H     1 <1>   0.0800 
 48 H      -11.9630    -0.0760     2.4510 H     1 <1>   0.0800 
 49 H      -10.5130     2.0760     1.0220 H     1 <1>   0.0800 
 50 H      -11.7290     2.1980     2.2920 H     1 <1>   0.0800 
 51 H      -12.9360     3.9400     0.2980 H     1 <1>   0.1500 
 52 H      -15.1730     0.7220    -3.2640 H     1 <1>   0.0800 
 53 H      -15.2000     2.4690    -3.3490 H     1 <1>   0.0800 
 54 H      -16.2840     1.6300    -2.2600 H     1 <1>   0.0800 
@<TRIPOS>BOND
  1   1   2  1   
  2   1   3  1   
  3   2   4  1   
  4   2   5  2   
  5   3   6  2   
  6   3  30  1   
  7   4   7  1   
  8   4   8  2   
  9   5   6  1   
 10   5  31  1   
 11   6  32  1   
 12   7   9  1   
 13   8  10  1   
 14   8  33  1   
 15   9  10  2   
 16   9  11  1   
 17  10  34  1   
 18  11  12  1   
 19  11  35  1   
 20  11  36  1   
 21  12  13  1   
 22  12  37  1   
 23  12  38  1   
 24  13  14  2   
 25  13  15  am  
 26  15  16  1   
 27  15  17  1   
 28  16  18  1   
 29  16  39  1   
 30  16  40  1   
 31  17  19  1   
 32  17  41  1   
 33  17  42  1   
 34  18  20  1   
 35  18  21  1   
 36  18  22  1   
 37  19  21  1   
 38  19  43  1   
 39  19  44  1   
 40  20  23  ar  
 41  20  24  ar  
 42  21  45  1   
 43  21  46  1   
 44  22  25  1   
 45  22  47  1   
 46  22  48  1   
 47  23  26  ar  
 48  24  25  1   
 49  24  27  ar  
 50  25  49  1   
 51  25  50  1   
 52  26  28  ar  
 53  26  29  1   
 54  27  28  ar  
 55  27  51  1   
 56  29  52  1   
 57  29  53  1   
 58  29  54  1   
@<TRIPOS>SUBSTRUCTURE
  1 ****  12 GROUP 4 **** **** 0

# MOE 2024.06 (io_trps.svl 2023.06)
