@<TRIPOS>MOLECULE
NONAME
49 52 1 0 0 
SMALL
USER_CHARGES


@<TRIPOS>ATOM
  1 CL       0.1070    -0.1910     0.4530 Cl    1 <1>  -0.1770 
  2 C       -0.0330    -1.8490    -0.0650 C.ar  1 <1>   0.1770 
  3 C        0.2570    -2.8660     0.8240 C.ar  1 <1>  -0.1500 
  4 C       -0.4310    -2.1250    -1.3580 C.ar  1 <1>  -0.1500 
  5 C        0.1450    -4.1880     0.4210 C.ar  1 <1>  -0.1440 
  6 C       -0.5420    -3.4440    -1.7590 C.ar  1 <1>  -0.1500 
  7 C       -0.2630    -4.4960    -0.8850 C.ar  1 <1>   0.0860 
  8 C        0.4760    -5.3020     1.4050 C.3   1 <1>  -0.0960 
  9 C       -0.4170    -5.8630    -1.3410 C.2   1 <1>   0.5440 
 10 O        0.5590    -6.4780    -1.7260 O.2   1 <1>  -0.5700 
 11 N       -1.6500    -6.4790    -1.3430 N.am  1 <1>  -0.6600 
 12 C       -2.8940    -5.8750    -0.7760 C.3   1 <1>   0.1400 
 13 C       -1.8390    -7.8920    -1.7940 C.3   1 <1>   0.1400 
 14 C       -3.4810    -6.7720     0.3300 C.3   1 <1>   0.1900 
 15 C       -2.4720    -8.7430    -0.6800 C.3   1 <1>   0.1100 
 16 N       -3.7320    -8.1430    -0.1820 N.3   1 <1>  -0.8100 
 17 C       -4.7780    -6.1580     0.8900 C.3   1 <1>   0.1200 
 18 C       -4.3580    -8.9710     0.8760 C.3   1 <1>   0.3330 
 19 O       -5.3090    -6.9720     1.8960 O.3   1 <1>  -0.5600 
 20 C       -4.7550   -10.3450     0.3380 C.ar  1 <1>  -0.1430 
 21 C       -5.6070    -8.2700     1.4530 C.3   1 <1>   0.1200 
 22 C       -4.4390   -11.4910     1.0540 C.ar  1 <1>  -0.1500 
 23 C       -5.4370   -10.4690    -0.8650 C.ar  1 <1>  -0.1500 
 24 C       -4.8000   -12.7390     0.5770 C.ar  1 <1>  -0.1500 
 25 C       -5.7990   -11.7160    -1.3440 C.ar  1 <1>  -0.1500 
 26 C       -5.4810   -12.8530    -0.6220 C.ar  1 <1>  -0.1500 
 27 H        0.5690    -2.6120     1.8210 H     1 <1>   0.1500 
 28 H       -0.6470    -1.3180    -2.0350 H     1 <1>   0.1500 
 29 H       -0.8470    -3.6740    -2.7660 H     1 <1>   0.1500 
 30 H        0.7760    -4.9040     2.3580 H     1 <1>   0.0800 
 31 H        1.2820    -5.9020     1.0200 H     1 <1>   0.0800 
 32 H       -0.3810    -5.9340     1.5540 H     1 <1>   0.0800 
 33 H       -2.6960    -4.9000    -0.3700 H     1 <1>   0.0800 
 34 H       -3.6180    -5.7650    -1.5650 H     1 <1>   0.0800 
 35 H       -2.4850    -7.9030    -2.6540 H     1 <1>   0.0800 
 36 H       -0.9000    -8.3310    -2.0820 H     1 <1>   0.0800 
 37 H       -2.7660    -6.8160     1.1330 H     1 <1>   0.0800 
 38 H       -1.7660    -8.8440     0.1270 H     1 <1>   0.0800 
 39 H       -2.6670    -9.7250    -1.0750 H     1 <1>   0.0800 
 40 H       -5.5140    -6.0470     0.1130 H     1 <1>   0.0800 
 41 H       -4.5800    -5.1940     1.3240 H     1 <1>   0.0800 
 42 H       -3.6540    -9.1020     1.6800 H     1 <1>   0.0800 
 43 H       -5.9840    -8.8260     2.2930 H     1 <1>   0.0800 
 44 H       -6.3790    -8.2100     0.7070 H     1 <1>   0.0800 
 45 H       -3.9100   -11.4190     1.9890 H     1 <1>   0.1500 
 46 H       -5.6820    -9.5870    -1.4320 H     1 <1>   0.1500 
 47 H       -4.5520   -13.6230     1.1390 H     1 <1>   0.1500 
 48 H       -6.3270   -11.8010    -2.2770 H     1 <1>   0.1500 
 49 H       -5.7620   -13.8230    -0.9930 H     1 <1>   0.1500 
@<TRIPOS>BOND
  1   1   2  1   
  2   2   3  ar  
  3   2   4  ar  
  4   3   5  ar  
  5   3  27  1   
  6   4   6  ar  
  7   4  28  1   
  8   5   7  ar  
  9   5   8  1   
 10   6   7  ar  
 11   6  29  1   
 12   7   9  1   
 13   8  30  1   
 14   8  31  1   
 15   8  32  1   
 16   9  10  2   
 17   9  11  am  
 18  11  12  1   
 19  11  13  1   
 20  12  14  1   
 21  12  33  1   
 22  12  34  1   
 23  13  15  1   
 24  13  35  1   
 25  13  36  1   
 26  14  16  1   
 27  14  17  1   
 28  14  37  1   
 29  15  16  1   
 30  15  38  1   
 31  15  39  1   
 32  16  18  1   
 33  17  19  1   
 34  17  40  1   
 35  17  41  1   
 36  18  20  1   
 37  18  21  1   
 38  18  42  1   
 39  19  21  1   
 40  20  22  ar  
 41  20  23  ar  
 42  21  43  1   
 43  21  44  1   
 44  22  24  ar  
 45  22  45  1   
 46  23  25  ar  
 47  23  46  1   
 48  24  26  ar  
 49  24  47  1   
 50  25  26  ar  
 51  25  48  1   
 52  26  49  1   
@<TRIPOS>SUBSTRUCTURE
  1 ****  14 GROUP 4 **** **** 0

# MOE 2024.06 (io_trps.svl 2023.06)
