@<TRIPOS>MOLECULE
NONAME
51 53 1 0 0 
SMALL
USER_CHARGES


@<TRIPOS>ATOM
  1 O       -1.2970     0.1020     2.4730 O.2   1 <1>  -0.5700 
  2 C       -1.5710     0.6780     1.4370 C.2   1 <1>   0.5440 
  3 N       -2.0140    -0.0590     0.3590 N.am  1 <1>  -0.6600 
  4 C       -1.4550     2.1210     1.4000 C.ar  1 <1>   0.0860 
  5 C       -2.0460    -1.5620     0.3980 C.3   1 <1>   0.3640 
  6 C       -2.6910     0.5850    -0.8070 C.3   1 <1>   0.1400 
  7 C       -0.6190     2.8020     0.5050 C.ar  1 <1>   0.0830 
  8 C       -2.1990     2.8920     2.2950 C.ar  1 <1>  -0.1500 
  9 C       -0.6990    -2.1480    -0.0650 C.ar  1 <1>  -0.1440 
 10 C       -3.2780    -2.1280    -0.3680 C.3   1 <1>   0.2000 
 11 C       -2.8330    -0.3780    -1.9900 C.3   1 <1>   0.1200 
 12 O        0.1450     2.1460    -0.3900 O.3   1 <1>  -0.3630 
 13 C       -0.5680     4.1870     0.4870 C.ar  1 <1>  -0.1500 
 14 C       -2.1400     4.2740     2.2860 C.ar  1 <1>  -0.1500 
 15 C       -0.4860    -2.6950    -1.3270 C.ar  1 <1>  -0.1500 
 16 C        0.3560    -2.1600     0.8380 C.ar  1 <1>  -0.1500 
 17 O       -3.5080    -1.5600    -1.6460 O.3   1 <1>  -0.5600 
 18 C       -4.5760    -1.9610     0.4380 C.3   1 <1>   0.1200 
 19 C        1.2930     1.4810     0.0880 C.3   1 <1>   0.1200 
 20 C       -1.3260     4.9250     1.3760 C.ar  1 <1>  -0.1500 
 21 C        0.7460    -3.2200    -1.6770 C.ar  1 <1>  -0.1500 
 22 C        1.5870    -2.6900     0.4950 C.ar  1 <1>  -0.1500 
 23 O       -4.5830    -2.8180     1.5350 O.3   1 <1>  -0.6800 
 24 C        1.9670     0.7840    -1.0940 C.3   1 <1>  -0.1600 
 25 C        1.7860    -3.2180    -0.7660 C.ar  1 <1>  -0.1500 
 26 C        3.3480     0.2430    -0.7100 C.3   1 <1>  -0.2400 
 27 H       -2.1650    -1.8700     1.4220 H     1 <1>   0.0800 
 28 H       -3.6670     0.9260    -0.5080 H     1 <1>   0.0800 
 29 H       -2.1300     1.4380    -1.1380 H     1 <1>   0.0800 
 30 H       -2.8300     2.3880     3.0070 H     1 <1>   0.1500 
 31 H       -3.1300    -3.1800    -0.5300 H     1 <1>   0.0800 
 32 H       -1.8600    -0.6290    -2.3690 H     1 <1>   0.0800 
 33 H       -3.3870     0.0920    -2.7820 H     1 <1>   0.0800 
 34 H        0.0700     4.6810    -0.2250 H     1 <1>   0.1500 
 35 H       -2.7270     4.8430     2.9860 H     1 <1>   0.1500 
 36 H       -1.2710    -2.7290    -2.0590 H     1 <1>   0.1500 
 37 H        0.2230    -1.7550     1.8260 H     1 <1>   0.1500 
 38 H       -5.4300    -2.1970    -0.1710 H     1 <1>   0.0800 
 39 H       -4.6630    -0.9550     0.8080 H     1 <1>   0.0800 
 40 H        1.9450     2.2170     0.5250 H     1 <1>   0.0800 
 41 H        1.0050     0.7630     0.8360 H     1 <1>   0.0800 
 42 H       -1.2820     6.0010     1.3630 H     1 <1>   0.1500 
 43 H        0.8950    -3.6330    -2.6590 H     1 <1>   0.1500 
 44 H        2.3890    -2.6890     1.2130 H     1 <1>   0.1500 
 45 H       -4.6970    -3.7470     1.2530 H     1 <1>   0.4000 
 46 H        1.3420    -0.0310    -1.4190 H     1 <1>   0.0800 
 47 H        2.0770     1.4820    -1.9050 H     1 <1>   0.0800 
 48 H        2.7440    -3.6270    -1.0360 H     1 <1>   0.1500 
 49 H        3.2670    -0.4370     0.1200 H     1 <1>   0.0800 
 50 H        4.0050     1.0490    -0.4340 H     1 <1>   0.0800 
 51 H        3.7800    -0.2840    -1.5420 H     1 <1>   0.0800 
@<TRIPOS>BOND
  1   1   2  2   
  2   2   3  am  
  3   2   4  1   
  4   3   5  1   
  5   3   6  1   
  6   4   7  ar  
  7   4   8  ar  
  8   5   9  1   
  9   5  10  1   
 10   5  27  1   
 11   6  11  1   
 12   6  28  1   
 13   6  29  1   
 14   7  12  1   
 15   7  13  ar  
 16   8  14  ar  
 17   8  30  1   
 18   9  15  ar  
 19   9  16  ar  
 20  10  17  1   
 21  10  18  1   
 22  10  31  1   
 23  11  17  1   
 24  11  32  1   
 25  11  33  1   
 26  12  19  1   
 27  13  20  ar  
 28  13  34  1   
 29  14  20  ar  
 30  14  35  1   
 31  15  21  ar  
 32  15  36  1   
 33  16  22  ar  
 34  16  37  1   
 35  18  23  1   
 36  18  38  1   
 37  18  39  1   
 38  19  24  1   
 39  19  40  1   
 40  19  41  1   
 41  20  42  1   
 42  21  25  ar  
 43  21  43  1   
 44  22  25  ar  
 45  22  44  1   
 46  23  45  1   
 47  24  26  1   
 48  24  46  1   
 49  24  47  1   
 50  25  48  1   
 51  26  49  1   
 52  26  50  1   
 53  26  51  1   
@<TRIPOS>SUBSTRUCTURE
  1 ****   3 GROUP 4 **** **** 0

# MOE 2024.06 (io_trps.svl 2023.06)
