@<TRIPOS>MOLECULE
NONAME
50 52 1 0 0 
SMALL
USER_CHARGES


@<TRIPOS>ATOM
  1 S        0.6410    -1.7930    -1.0020 S.o2  1 <1>   1.3330 
  2 O        0.3310    -0.4010    -1.2110 O.2   1 <1>  -0.6500 
  3 O        0.3350    -2.7680    -2.0190 O.2   1 <1>  -0.6500 
  4 N       -0.2330    -2.2840     0.4090 N.am  1 <1>  -0.6930 
  5 C        2.3410    -1.9260    -0.4890 C.3   1 <1>  -0.1350 
  6 C        0.0390    -3.4570     1.1130 C.ar  1 <1>   0.1990 
  7 C       -1.6310    -1.7410     0.4990 C.3   1 <1>   0.2570 
  8 C        0.3080    -4.6670     0.4770 C.ar  1 <1>  -0.1500 
  9 C        0.0340    -3.4300     2.5070 C.ar  1 <1>  -0.1500 
 10 C       -2.6970    -2.5820    -0.2160 C.2   1 <1>   0.5690 
 11 C        0.5590    -5.7870     1.2410 C.ar  1 <1>   0.1900 
 12 C        0.2850    -4.5670     3.2580 C.ar  1 <1>  -0.1500 
 13 O       -3.8460    -2.4670     0.1370 O.2   1 <1>  -0.5700 
 14 N       -2.3530    -3.4490    -1.2060 N.am  1 <1>  -0.7300 
 15 F        0.8080    -6.9160     0.6340 F     1 <1>  -0.1900 
 16 C        0.5530    -5.7660     2.6220 C.ar  1 <1>  -0.1500 
 17 C       -3.2900    -4.2980    -1.9750 C.3   1 <1>   0.2200 
 18 C       -3.4050    -5.6990    -1.3860 C.3   1 <1>  -0.0800 
 19 C       -2.6770    -4.6110    -3.3350 C.3   1 <1>   0.1200 
 20 C       -2.2140    -6.4330    -2.0080 C.3   1 <1>   0.1200 
 21 C       -3.4700    -5.7950     0.1490 C.3   1 <1>  -0.0170 
 22 O       -1.8240    -5.6980    -3.1300 O.3   1 <1>  -0.5600 
 23 C       -3.7300    -7.2260     0.5950 C.ar  1 <1>  -0.1430 
 24 C       -5.0110    -7.7280     0.7030 C.ar  1 <1>  -0.1500 
 25 C       -2.7080    -8.0970     0.9130 C.ar  1 <1>  -0.1500 
 26 C       -5.2020    -9.0390     1.1080 C.ar  1 <1>   0.1600 
 27 C       -3.0070    -9.3910     1.3070 C.ar  1 <1>   0.1600 
 28 N       -4.2300    -9.8840     1.4110 N.ar  1 <1>  -0.6200 
 29 H        2.5190    -1.3000     0.3630 H     1 <1>   0.0800 
 30 H        2.9880    -1.6140    -1.2850 H     1 <1>   0.0800 
 31 H        2.5780    -2.9390    -0.2320 H     1 <1>   0.0800 
 32 H       -1.9130    -1.6760     1.5340 H     1 <1>   0.0800 
 33 H       -1.6700    -0.7440     0.1020 H     1 <1>   0.0800 
 34 H        0.3150    -4.7560    -0.5920 H     1 <1>   0.1500 
 35 H       -0.1680    -2.5010     3.0100 H     1 <1>   0.1500 
 36 H        0.2730    -4.5190     4.3350 H     1 <1>   0.1500 
 37 H       -1.3770    -3.4880    -1.5400 H     1 <1>   0.3700 
 38 H        0.7520    -6.6640     3.1800 H     1 <1>   0.1500 
 39 H       -4.2460    -3.8100    -2.0630 H     1 <1>   0.0800 
 40 H       -4.2980    -6.1460    -1.7860 H     1 <1>   0.0800 
 41 H       -2.1180    -3.7850    -3.7410 H     1 <1>   0.0800 
 42 H       -3.4360    -4.9190    -4.0310 H     1 <1>   0.0800 
 43 H       -2.4730    -7.4320    -2.3130 H     1 <1>   0.0800 
 44 H       -1.3750    -6.4640    -1.3360 H     1 <1>   0.0800 
 45 H       -4.2620    -5.1630     0.5110 H     1 <1>   0.0800 
 46 H       -2.5530    -5.4450     0.5870 H     1 <1>   0.0800 
 47 H       -5.8630    -7.1130     0.4770 H     1 <1>   0.1500 
 48 H       -1.6820    -7.7840     0.8570 H     1 <1>   0.1500 
 49 H       -6.2090    -9.4120     1.1870 H     1 <1>   0.1500 
 50 H       -2.1940   -10.0550     1.5480 H     1 <1>   0.1500 
@<TRIPOS>BOND
  1   1   2  2   
  2   1   3  2   
  3   1   4  am  
  4   1   5  1   
  5   4   6  1   
  6   4   7  1   
  7   5  29  1   
  8   5  30  1   
  9   5  31  1   
 10   6   8  ar  
 11   6   9  ar  
 12   7  10  1   
 13   7  32  1   
 14   7  33  1   
 15   8  11  ar  
 16   8  34  1   
 17   9  12  ar  
 18   9  35  1   
 19  10  13  2   
 20  10  14  am  
 21  11  15  1   
 22  11  16  ar  
 23  12  16  ar  
 24  12  36  1   
 25  14  17  1   
 26  14  37  1   
 27  16  38  1   
 28  17  18  1   
 29  17  19  1   
 30  17  39  1   
 31  18  20  1   
 32  18  21  1   
 33  18  40  1   
 34  19  22  1   
 35  19  41  1   
 36  19  42  1   
 37  20  22  1   
 38  20  43  1   
 39  20  44  1   
 40  21  23  1   
 41  21  45  1   
 42  21  46  1   
 43  23  24  ar  
 44  23  25  ar  
 45  24  26  ar  
 46  24  47  1   
 47  25  27  ar  
 48  25  48  1   
 49  26  28  ar  
 50  26  49  1   
 51  27  28  ar  
 52  27  50  1   
@<TRIPOS>SUBSTRUCTURE
  1 ****   8 GROUP 4 **** **** 0

# MOE 2024.06 (io_trps.svl 2023.06)
