@<TRIPOS>MOLECULE
NONAME
40 41 1 0 0 
SMALL
USER_CHARGES


@<TRIPOS>ATOM
  1 CL       0.4430    -0.0700     0.2080 Cl    1 <1>  -0.1770 
  2 C        0.1610    -1.7880     0.3860 C.ar  1 <1>   0.1770 
  3 C        0.6080    -2.7080    -0.5600 C.ar  1 <1>  -0.1790 
  4 C       -0.5530    -2.1870     1.5010 C.ar  1 <1>  -0.1500 
  5 C        1.3720    -2.3470    -1.7330 C.2   1 <1>   0.9790 
  6 C        0.2790    -4.0450    -0.3420 C.ar  1 <1>  -0.1500 
  7 C       -0.8530    -3.5240     1.6930 C.ar  1 <1>  -0.1500 
  8 O        2.3400    -1.5740    -1.6690 O.co2 1 <1>  -0.9000 
  9 O        1.1040    -2.8890    -2.8200 O.co2 1 <1>  -0.9000 
 10 C       -0.4420    -4.4740     0.7640 C.ar  1 <1>   0.1170 
 11 N       -0.7200    -5.8450     0.8650 N.am  1 <1>  -0.5470 
 12 C       -1.3130    -6.6090     1.8370 C.2   1 <1>   0.5690 
 13 O       -1.6790    -6.1710     2.9020 O.2   1 <1>  -0.5700 
 14 C       -1.4540    -8.1140     1.5690 C.3   1 <1>   0.1710 
 15 N       -2.6190    -8.5450     0.7390 N.3   1 <1>  -0.8100 
 16 C       -2.6880   -10.0180     0.7020 C.3   1 <1>   0.1100 
 17 C       -2.6210    -7.9720    -0.6180 C.3   1 <1>   0.1100 
 18 C       -3.9730   -10.4880     0.0060 C.3   1 <1>  -0.0190 
 19 C       -3.8940    -8.3800    -1.3660 C.3   1 <1>  -0.1600 
 20 C       -4.0380   -12.0090    -0.0150 C.2   1 <1>   0.5690 
 21 C       -4.0590    -9.9050    -1.4140 C.3   1 <1>  -0.1600 
 22 O       -3.0650   -12.6590    -0.3000 O.2   1 <1>  -0.5700 
 23 N       -5.1950   -12.6300     0.2800 N.am  1 <1>  -0.8000 
 24 H       -0.8760    -1.4490     2.2110 H     1 <1>   0.1500 
 25 H        0.6090    -4.7580    -1.0780 H     1 <1>   0.1500 
 26 H       -1.4120    -3.8150     2.5620 H     1 <1>   0.1500 
 27 H       -0.4510    -6.3640     0.0330 H     1 <1>   0.3700 
 28 H       -1.5320    -8.5900     2.5310 H     1 <1>   0.0800 
 29 H       -0.5460    -8.4650     1.1130 H     1 <1>   0.0800 
 30 H       -2.6790   -10.4050     1.7070 H     1 <1>   0.0800 
 31 H       -1.8290   -10.4110     0.1820 H     1 <1>   0.0800 
 32 H       -1.7530    -8.3080    -1.1620 H     1 <1>   0.0800 
 33 H       -2.6030    -6.8970    -0.5630 H     1 <1>   0.0800 
 34 H       -4.8030   -10.1240     0.5840 H     1 <1>   0.0800 
 35 H       -3.8600    -7.9880    -2.3670 H     1 <1>   0.0800 
 36 H       -4.7400    -7.9380    -0.8700 H     1 <1>   0.0800 
 37 H       -5.0050   -10.1580    -1.8610 H     1 <1>   0.0800 
 38 H       -3.2770   -10.3290    -2.0210 H     1 <1>   0.0800 
 39 H       -5.2320   -13.6500     0.2560 H     1 <1>   0.3700 
 40 H       -6.0580   -12.1450     0.5230 H     1 <1>   0.3700 
@<TRIPOS>BOND
  1   1   2  1   
  2   2   3  ar  
  3   2   4  ar  
  4   3   5  1   
  5   3   6  ar  
  6   4   7  ar  
  7   4  24  1   
  8   5   8  ar  
  9   5   9  ar  
 10   6  10  ar  
 11   6  25  1   
 12   7  10  ar  
 13   7  26  1   
 14  10  11  1   
 15  11  12  am  
 16  11  27  1   
 17  12  13  2   
 18  12  14  1   
 19  14  15  1   
 20  14  28  1   
 21  14  29  1   
 22  15  16  1   
 23  15  17  1   
 24  16  18  1   
 25  16  30  1   
 26  16  31  1   
 27  17  19  1   
 28  17  32  1   
 29  17  33  1   
 30  18  20  1   
 31  18  21  1   
 32  18  34  1   
 33  19  21  1   
 34  19  35  1   
 35  19  36  1   
 36  20  22  2   
 37  20  23  am  
 38  21  37  1   
 39  21  38  1   
 40  23  39  1   
 41  23  40  1   
@<TRIPOS>SUBSTRUCTURE
  1 ****  11 GROUP 4 **** **** 0

# MOE 2024.06 (io_trps.svl 2023.06)
