@<TRIPOS>MOLECULE
NONAME
23 23 1 0 0 
SMALL
USER_CHARGES


@<TRIPOS>ATOM
  1 N      -14.5220     1.0300    -0.2720 N.4   1 <1>  -0.9590 
  2 C      -13.3440     0.3380     0.3590 C.3   1 <1>   0.4230 
  3 C      -15.8090     0.3360     0.0920 C.3   1 <1>   0.3430 
  4 C      -14.6120     2.4790     0.0910 C.3   1 <1>   0.2630 
  5 C      -13.3520    -1.1860     0.0640 C.3   1 <1>   0.1100 
  6 C      -12.0460     0.9590    -0.1600 C.3   1 <1>  -0.2400 
  7 C      -15.7700    -1.1740    -0.2230 C.3   1 <1>   0.1100 
  8 N      -14.6280    -1.8180     0.4370 N.3   1 <1>  -0.9000 
  9 H      -14.4010     0.9420    -1.2880 H     1 <1>   0.4500 
 10 H      -13.3880     0.4630     1.4290 H     1 <1>   0.0800 
 11 H      -15.9950     0.4520     1.1470 H     1 <1>   0.0800 
 12 H      -16.6320     0.7840    -0.4400 H     1 <1>   0.0800 
 13 H      -14.6850     2.5910     1.1610 H     1 <1>   0.0800 
 14 H      -15.4820     2.9250    -0.3630 H     1 <1>   0.0800 
 15 H      -13.7410     3.0100    -0.2540 H     1 <1>   0.0800 
 16 H      -12.5590    -1.6540     0.6230 H     1 <1>   0.0800 
 17 H      -13.1580    -1.3560    -0.9820 H     1 <1>   0.0800 
 18 H      -11.9970     0.9140    -1.2340 H     1 <1>   0.0800 
 19 H      -11.2060     0.4150     0.2340 H     1 <1>   0.0800 
 20 H      -11.9400     1.9780     0.1650 H     1 <1>   0.0800 
 21 H      -15.7150    -1.3260    -1.2880 H     1 <1>   0.0800 
 22 H      -16.6800    -1.6310     0.1300 H     1 <1>   0.0800 
 23 H      -14.6040    -2.8220     0.1980 H     1 <1>   0.3600 
@<TRIPOS>BOND
  1   1   2  1   
  2   1   3  1   
  3   1   4  1   
  4   1   9  1   
  5   2   5  1   
  6   2   6  1   
  7   2  10  1   
  8   3   7  1   
  9   3  11  1   
 10   3  12  1   
 11   4  13  1   
 12   4  14  1   
 13   4  15  1   
 14   5   8  1   
 15   5  16  1   
 16   5  17  1   
 17   6  18  1   
 18   6  19  1   
 19   6  20  1   
 20   7   8  1   
 21   7  21  1   
 22   7  22  1   
 23   8  23  1   
@<TRIPOS>SUBSTRUCTURE
  1 ****   2 GROUP 4 **** **** 0

# MOE 2024.06 (io_trps.svl 2023.06)
