@<TRIPOS>MOLECULE
NONAME
24 23 1 0 0 
SMALL
USER_CHARGES


@<TRIPOS>ATOM
  1 O        0.4830    -1.6060    -1.6560 O.2   1 <1>  -0.5700 
  2 C       -0.0030    -1.8260    -0.5720 C.2   1 <1>   0.6590 
  3 O        0.5880    -1.4450     0.5560 O.3   1 <1>  -0.4300 
  4 C       -1.3510    -2.5520    -0.4220 C.3   1 <1>   0.2610 
  5 C        1.8220    -0.7560     0.5510 C.3   1 <1>   0.0400 
  6 O       -1.6220    -3.3500    -1.5370 O.3   1 <1>  -0.6800 
  7 C       -2.5170    -1.5680    -0.2420 C.3   1 <1>  -0.1600 
  8 C       -3.8850    -2.2640    -0.0700 C.3   1 <1>  -0.0990 
  9 C       -5.0340    -1.3040     0.1830 C.2   1 <1>   0.6590 
 10 O       -4.8680    -0.1210     0.3400 O.2   1 <1>  -0.5700 
 11 O       -6.2380    -1.8590     0.2290 O.3   1 <1>  -0.4300 
 12 C       -7.4000    -1.0890     0.4580 C.3   1 <1>   0.0400 
 13 H       -1.2960    -3.2070     0.4290 H     1 <1>   0.0800 
 14 H        2.1040    -0.5520     1.5690 H     1 <1>   0.0800 
 15 H        1.7040     0.1650     0.0070 H     1 <1>   0.0800 
 16 H        2.5640    -1.3740     0.0770 H     1 <1>   0.0800 
 17 H       -1.1630    -2.9590    -2.3130 H     1 <1>   0.4000 
 18 H       -2.3220    -0.9690     0.6320 H     1 <1>   0.0800 
 19 H       -2.5540    -0.8990    -1.0850 H     1 <1>   0.0800 
 20 H       -3.8400    -2.9510     0.7550 H     1 <1>   0.0800 
 21 H       -4.1190    -2.8270    -0.9550 H     1 <1>   0.0800 
 22 H       -8.2510    -1.7460     0.4530 H     1 <1>   0.0800 
 23 H       -7.4900    -0.3550    -0.3240 H     1 <1>   0.0800 
 24 H       -7.3110    -0.6030     1.4140 H     1 <1>   0.0800 
@<TRIPOS>BOND
  1   1   2  2   
  2   2   3  1   
  3   2   4  1   
  4   3   5  1   
  5   4   6  1   
  6   4   7  1   
  7   4  13  1   
  8   5  14  1   
  9   5  15  1   
 10   5  16  1   
 11   6  17  1   
 12   7   8  1   
 13   7  18  1   
 14   7  19  1   
 15   8   9  1   
 16   8  20  1   
 17   8  21  1   
 18   9  10  2   
 19   9  11  1   
 20  11  12  1   
 21  12  22  1   
 22  12  23  1   
 23  12  24  1   
@<TRIPOS>SUBSTRUCTURE
  1 ****   7 GROUP 4 **** **** 0

# MOE 2024.06 (io_trps.svl 2023.06)
