@<TRIPOS>MOLECULE
NONAME
51 53 1 0 0 
SMALL
USER_CHARGES


@<TRIPOS>ATOM
  1 S        0.5780     0.1570     0.1710 S.o2  1 <1>   1.3330 
  2 O        0.8190    -0.1820     1.5560 O.2   1 <1>  -0.6500 
  3 O        0.3690    -0.8970    -0.7960 O.2   1 <1>  -0.6500 
  4 N       -0.7510     1.2120     0.1150 N.am  1 <1>  -0.8490 
  5 C        1.9250     1.1790    -0.4180 C.3   1 <1>  -0.0550 
  6 C       -0.8700     2.0650     1.3020 C.3   1 <1>   0.1160 
  7 C       -2.0130     0.5060    -0.1230 C.3   1 <1>   0.1160 
  8 C        3.2520     0.4080    -0.5630 C.3   1 <1>  -0.0800 
  9 C        4.3990     1.2060    -1.1660 C.3   1 <1>   0.2200 
 10 C        3.8460    -0.1050     0.7580 C.3   1 <1>   0.1200 
 11 N        4.4460     2.5760    -0.5980 N.am  1 <1>  -0.7300 
 12 C        5.5870     0.4250    -0.6270 C.3   1 <1>   0.1200 
 13 O        5.2270     0.1090     0.6830 O.3   1 <1>  -0.5600 
 14 C        4.0500     3.7160    -1.2330 C.2   1 <1>   0.5440 
 15 O        3.5120     3.6090    -2.3150 O.2   1 <1>  -0.5700 
 16 C        4.2050     5.0140    -0.6210 C.ar  1 <1>   0.0860 
 17 C        5.3480     5.4750     0.0180 C.ar  1 <1>   0.1670 
 18 C        3.1510     5.9050    -0.6430 C.ar  1 <1>   0.1600 
 19 N        5.4000     6.6500     0.6000 N.ar  1 <1>  -0.6200 
 20 C        6.6340     4.6650     0.0860 C.3   1 <1>  -0.0970 
 21 N        3.1840     7.0860    -0.0720 N.ar  1 <1>  -0.6200 
 22 C        4.3160     7.4300     0.5450 C.ar  1 <1>   0.6200 
 23 C        4.3730     8.7290     1.1940 C.ar  1 <1>   0.0000 
 24 C        5.5920     9.3120     1.5520 C.ar  1 <1>   0.1600 
 25 C        3.2290     9.4660     1.4940 C.ar  1 <1>  -0.1500 
 26 N        5.7570    10.4850     2.1450 N.ar  1 <1>  -0.6200 
 27 C        3.3760    10.6880     2.1110 C.ar  1 <1>  -0.1500 
 28 C        4.6450    11.1480     2.4110 C.ar  1 <1>   0.1600 
 29 H        1.6590     1.5810    -1.3770 H     1 <1>   0.0800 
 30 H        2.0570     2.0030     0.2540 H     1 <1>   0.0800 
 31 H       -1.6710     2.7720     1.1700 H     1 <1>   0.0800 
 32 H        0.0430     2.6120     1.4600 H     1 <1>   0.0800 
 33 H       -1.0710     1.4670     2.1770 H     1 <1>   0.0800 
 34 H       -2.8300     1.2060    -0.1700 H     1 <1>   0.0800 
 35 H       -2.1990    -0.2060     0.6650 H     1 <1>   0.0800 
 36 H       -1.9690    -0.0210    -1.0610 H     1 <1>   0.0800 
 37 H        3.0760    -0.4470    -1.1930 H     1 <1>   0.0800 
 38 H        4.3740     1.2330    -2.2430 H     1 <1>   0.0800 
 39 H        3.6630    -1.1570     0.8960 H     1 <1>   0.0800 
 40 H        3.4760     0.4400     1.6090 H     1 <1>   0.0800 
 41 H        4.8040     2.6000     0.3620 H     1 <1>   0.3700 
 42 H        6.5010     0.9920    -0.6290 H     1 <1>   0.0800 
 43 H        5.7220    -0.4960    -1.1670 H     1 <1>   0.0800 
 44 H        2.2450     5.6190    -1.1530 H     1 <1>   0.1500 
 45 H        6.7620     4.0650    -0.7960 H     1 <1>   0.0800 
 46 H        6.6220     4.0300     0.9530 H     1 <1>   0.0800 
 47 H        7.4800     5.3250     0.1600 H     1 <1>   0.0800 
 48 H        6.4970     8.7710     1.3320 H     1 <1>   0.1500 
 49 H        2.2490     9.0910     1.2520 H     1 <1>   0.1500 
 50 H        2.5150    11.2840     2.3570 H     1 <1>   0.1500 
 51 H        4.7510    12.1050     2.8930 H     1 <1>   0.1500 
@<TRIPOS>BOND
  1   1   2  2   
  2   1   3  2   
  3   1   4  am  
  4   1   5  1   
  5   4   6  1   
  6   4   7  1   
  7   5   8  1   
  8   5  29  1   
  9   5  30  1   
 10   6  31  1   
 11   6  32  1   
 12   6  33  1   
 13   7  34  1   
 14   7  35  1   
 15   7  36  1   
 16   8   9  1   
 17   8  10  1   
 18   8  37  1   
 19   9  11  1   
 20   9  12  1   
 21   9  38  1   
 22  10  13  1   
 23  10  39  1   
 24  10  40  1   
 25  11  14  am  
 26  11  41  1   
 27  12  13  1   
 28  12  42  1   
 29  12  43  1   
 30  14  15  2   
 31  14  16  1   
 32  16  17  ar  
 33  16  18  ar  
 34  17  19  ar  
 35  17  20  1   
 36  18  21  ar  
 37  18  44  1   
 38  19  22  ar  
 39  20  45  1   
 40  20  46  1   
 41  20  47  1   
 42  21  22  ar  
 43  22  23  1   
 44  23  24  ar  
 45  23  25  ar  
 46  24  26  ar  
 47  24  48  1   
 48  25  27  ar  
 49  25  49  1   
 50  26  28  ar  
 51  27  28  ar  
 52  27  50  1   
 53  28  51  1   
@<TRIPOS>SUBSTRUCTURE
  1 ****  16 GROUP 4 **** **** 0

# MOE 2024.06 (io_trps.svl 2023.06)
