@<TRIPOS>MOLECULE
NONAME
42 44 1 0 0 
SMALL
USER_CHARGES


@<TRIPOS>ATOM
  1 CL      -3.1580     3.0010     1.3310 Cl    1 <1>  -0.1770 
  2 C       -2.1200     2.4340     0.0430 C.ar  1 <1>   0.1770 
  3 C       -0.7400     2.5580     0.1370 C.ar  1 <1>  -0.1440 
  4 C       -2.7200     1.8680    -1.0670 C.ar  1 <1>  -0.1500 
  5 C        0.0370     2.1030    -0.9180 C.ar  1 <1>  -0.1500 
  6 C       -0.0640     3.1760     1.3540 C.3   1 <1>   0.2140 
  7 C       -1.9330     1.4160    -2.1120 C.ar  1 <1>  -0.1500 
  8 C       -0.5560     1.5350    -2.0350 C.ar  1 <1>  -0.1500 
  9 S        0.6510     4.7730     0.8720 S.3   1 <1>  -0.4600 
 10 C       -0.7740     5.6820     0.1600 C.3   1 <1>   0.1310 
 11 C       -0.4360     7.1330    -0.1670 C.2   1 <1>   0.5690 
 12 O       -1.2790     7.8190    -0.6930 O.2   1 <1>  -0.5700 
 13 N        0.7840     7.6310     0.1300 N.am  1 <1>  -0.7300 
 14 C        1.2490     8.9810    -0.1840 C.3   1 <1>   0.4950 
 15 C        2.6990     8.9040    -0.6650 C.2   1 <1>   0.0060 
 16 C        1.0580     9.8510     1.0740 C.3   1 <1>  -0.1950 
 17 N        3.5870     8.0450    -0.2860 N.2   1 <1>  -0.5650 
 18 N        3.2070     9.7520    -1.5680 N.pl3 1 <1>   0.3140 
 19 C        1.9270    11.0230     1.4260 C.3   1 <1>  -0.2000 
 20 C        1.9650     9.7760     2.2640 C.3   1 <1>  -0.2000 
 21 C        4.6500     8.4250    -1.0030 C.2   1 <1>   0.3660 
 22 N        4.4750     9.4390    -1.7830 N.2   1 <1>  -0.7070 
 23 C        2.5630    10.8700    -2.2760 C.3   1 <1>   0.0160 
 24 H       -3.7910     1.7840    -1.1110 H     1 <1>   0.1500 
 25 H        1.1090     2.1940    -0.8760 H     1 <1>   0.1500 
 26 H        0.7470     2.5600     1.6990 H     1 <1>   0.0800 
 27 H       -0.7410     3.3610     2.1670 H     1 <1>   0.0800 
 28 H       -2.3890     0.9740    -2.9810 H     1 <1>   0.1500 
 29 H        0.0590     1.1860    -2.8480 H     1 <1>   0.1500 
 30 H       -1.5700     5.6460     0.8790 H     1 <1>   0.0800 
 31 H       -1.0680     5.1670    -0.7360 H     1 <1>   0.0800 
 32 H        1.5220     7.0200     0.4940 H     1 <1>   0.3700 
 33 H        0.6390     9.3820    -0.9750 H     1 <1>   0.0800 
 34 H        0.0090     9.9650     1.2830 H     1 <1>   0.1000 
 35 H        1.4670    11.9030     1.8430 H     1 <1>   0.1000 
 36 H        2.8180    11.2550     0.8690 H     1 <1>   0.1000 
 37 H        2.8400     9.1490     2.2170 H     1 <1>   0.1000 
 38 H        1.5250     9.7910     3.2460 H     1 <1>   0.1000 
 39 H        5.5880     7.8990    -0.9180 H     1 <1>   0.1500 
 40 H        2.0500    11.4960    -1.5710 H     1 <1>   0.0800 
 41 H        1.8690    10.4780    -2.9960 H     1 <1>   0.0800 
 42 H        3.3160    11.4450    -2.7830 H     1 <1>   0.0800 
@<TRIPOS>BOND
  1   1   2  1   
  2   2   3  ar  
  3   2   4  ar  
  4   3   5  ar  
  5   3   6  1   
  6   4   7  ar  
  7   4  24  1   
  8   5   8  ar  
  9   5  25  1   
 10   6   9  1   
 11   6  26  1   
 12   6  27  1   
 13   7   8  ar  
 14   7  28  1   
 15   8  29  1   
 16   9  10  1   
 17  10  11  1   
 18  10  30  1   
 19  10  31  1   
 20  11  12  2   
 21  11  13  am  
 22  13  14  1   
 23  13  32  1   
 24  14  15  1   
 25  14  16  1   
 26  14  33  1   
 27  15  17  2   
 28  15  18  1   
 29  16  19  1   
 30  16  20  1   
 31  16  34  1   
 32  17  21  1   
 33  18  22  1   
 34  18  23  1   
 35  19  20  1   
 36  19  35  1   
 37  19  36  1   
 38  20  37  1   
 39  20  38  1   
 40  21  22  2   
 41  21  39  1   
 42  23  40  1   
 43  23  41  1   
 44  23  42  1   
@<TRIPOS>SUBSTRUCTURE
  1 ****  13 GROUP 4 **** **** 0

# MOE 2024.06 (io_trps.svl 2023.06)
