@<TRIPOS>MOLECULE
NONAME
53 56 1 0 0 
SMALL
USER_CHARGES


@<TRIPOS>ATOM
  1 O        0.2040     0.6110    -0.5640 O.2   1 <1>  -0.5700 
  2 C        0.0600     1.7720    -0.2570 C.2   1 <1>   0.5690 
  3 N       -1.1920     2.3360    -0.1800 N.am  1 <1>  -0.6600 
  4 C        1.3130     2.5960     0.0200 C.3   1 <1>  -0.0190 
  5 C       -1.4430     3.7980     0.0260 C.3   1 <1>   0.1400 
  6 C       -2.4010     1.4670    -0.3220 C.3   1 <1>   0.1400 
  7 C        1.8700     3.1510    -1.2900 C.3   1 <1>   0.1200 
  8 C        2.4230     1.7940     0.7130 C.3   1 <1>  -0.0170 
  9 C       -2.7860     4.1940    -0.5820 C.3   1 <1>  -0.1600 
 10 C       -3.5630     2.0200     0.5050 C.3   1 <1>  -0.1600 
 11 O        2.9350     4.0370    -1.0160 O.3   1 <1>  -0.3630 
 12 C        3.7040     2.6120     0.7560 C.ar  1 <1>  -0.1440 
 13 C       -3.9430     3.4590     0.1130 C.3   1 <1>   0.4180 
 14 C        3.8950     3.6870    -0.1110 C.ar  1 <1>   0.0830 
 15 C        4.6950     2.2830     1.6670 C.ar  1 <1>  -0.1500 
 16 O       -4.2230     4.1120     1.3270 O.3   1 <1>  -0.5600 
 17 C       -5.1780     3.4410    -0.7880 C.2   1 <1>  -0.2880 
 18 C        5.0740     4.4350    -0.0570 C.ar  1 <1>   0.0830 
 19 C        5.8650     3.0180     1.7220 C.ar  1 <1>  -0.1500 
 20 C       -5.0530     5.2410     1.2930 C.3   1 <1>   0.1200 
 21 C       -6.3250     4.0620    -0.5050 C.2   1 <1>  -0.2760 
 22 O        5.2120     5.4820    -0.9210 O.3   1 <1>  -0.3630 
 23 C        6.0570     4.0890     0.8670 C.ar  1 <1>  -0.1500 
 24 C       -6.4480     4.8780     0.7680 C.3   1 <1>  -0.0220 
 25 C       -7.5690     4.0130    -1.3730 C.3   1 <1>  -0.1020 
 26 C        6.3790     6.2710    -0.9480 C.3   1 <1>   0.0400 
 27 H        1.0630     3.4180     0.6630 H     1 <1>   0.0800 
 28 H       -0.6660     4.3790    -0.4390 H     1 <1>   0.0800 
 29 H       -1.4480     4.0120     1.0830 H     1 <1>   0.0800 
 30 H       -2.1750     0.4670     0.0120 H     1 <1>   0.0800 
 31 H       -2.6770     1.4160    -1.3610 H     1 <1>   0.0800 
 32 H        1.1200     3.6990    -1.8310 H     1 <1>   0.0800 
 33 H        2.2460     2.3580    -1.9130 H     1 <1>   0.0800 
 34 H        2.6220     0.8860     0.1700 H     1 <1>   0.0800 
 35 H        2.1110     1.5300     1.7080 H     1 <1>   0.0800 
 36 H       -2.7690     3.9400    -1.6270 H     1 <1>   0.0800 
 37 H       -2.9210     5.2560    -0.5200 H     1 <1>   0.0800 
 38 H       -3.2700     1.9870     1.5400 H     1 <1>   0.0800 
 39 H       -4.4160     1.3760     0.3940 H     1 <1>   0.0800 
 40 H        4.5590     1.4510     2.3360 H     1 <1>   0.1500 
 41 H       -5.0320     2.8590    -1.6790 H     1 <1>   0.1500 
 42 H        6.6290     2.7550     2.4330 H     1 <1>   0.1500 
 43 H       -4.6000     5.9860     0.6640 H     1 <1>   0.0800 
 44 H       -5.1210     5.6290     2.2940 H     1 <1>   0.0800 
 45 H        6.9750     4.6390     0.9380 H     1 <1>   0.1500 
 46 H       -6.9880     5.7880     0.5780 H     1 <1>   0.0800 
 47 H       -6.9840     4.3160     1.5120 H     1 <1>   0.0800 
 48 H       -8.3900     3.5950    -0.8180 H     1 <1>   0.0800 
 49 H       -7.3990     3.4020    -2.2420 H     1 <1>   0.0800 
 50 H       -7.8360     5.0020    -1.6990 H     1 <1>   0.0800 
 51 H        6.2560     7.0200    -1.7100 H     1 <1>   0.0800 
 52 H        7.2190     5.6430    -1.1840 H     1 <1>   0.0800 
 53 H        6.5030     6.7430     0.0110 H     1 <1>   0.0800 
@<TRIPOS>BOND
  1   1   2  2   
  2   2   3  am  
  3   2   4  1   
  4   3   5  1   
  5   3   6  1   
  6   4   7  1   
  7   4   8  1   
  8   4  27  1   
  9   5   9  1   
 10   5  28  1   
 11   5  29  1   
 12   6  10  1   
 13   6  30  1   
 14   6  31  1   
 15   7  11  1   
 16   7  32  1   
 17   7  33  1   
 18   8  12  1   
 19   8  34  1   
 20   8  35  1   
 21   9  13  1   
 22   9  36  1   
 23   9  37  1   
 24  10  13  1   
 25  10  38  1   
 26  10  39  1   
 27  11  14  1   
 28  12  14  ar  
 29  12  15  ar  
 30  13  16  1   
 31  13  17  1   
 32  14  18  ar  
 33  15  19  ar  
 34  15  40  1   
 35  16  20  1   
 36  17  21  2   
 37  17  41  1   
 38  18  22  1   
 39  18  23  ar  
 40  19  23  ar  
 41  19  42  1   
 42  20  24  1   
 43  20  43  1   
 44  20  44  1   
 45  21  24  1   
 46  21  25  1   
 47  22  26  1   
 48  23  45  1   
 49  24  46  1   
 50  24  47  1   
 51  25  48  1   
 52  25  49  1   
 53  25  50  1   
 54  26  51  1   
 55  26  52  1   
 56  26  53  1   
@<TRIPOS>SUBSTRUCTURE
  1 ****   5 GROUP 4 **** **** 0

# MOE 2024.06 (io_trps.svl 2023.06)
