@<TRIPOS>MOLECULE
NONAME
46 48 1 0 0 
SMALL
USER_CHARGES


@<TRIPOS>ATOM
  1 CL      -2.0410     1.1020    -0.2430 Cl    1 <1>  -0.1770 
  2 C       -1.0700     2.4640     0.2450 C.ar  1 <1>   0.1770 
  3 C       -1.0260     3.5860    -0.5560 C.ar  1 <1>  -0.1500 
  4 C       -0.3570     2.3970     1.4270 C.ar  1 <1>  -0.1500 
  5 C       -0.2480     4.6750    -0.1710 C.ar  1 <1>   0.0830 
  6 C        0.4120     3.4790     1.8110 C.ar  1 <1>  -0.1500 
  7 O       -0.1550     5.7990    -0.9270 O.3   1 <1>  -0.3630 
  8 C        0.4810     4.6310     1.0260 C.ar  1 <1>   0.0860 
  9 C       -1.0340     6.0460    -2.0060 C.3   1 <1>   0.0400 
 10 C        1.2860     5.7500     1.4580 C.2   1 <1>   0.5440 
 11 O        0.7860     6.6530     2.1030 O.2   1 <1>  -0.5700 
 12 N        2.6160     5.8730     1.1220 N.am  1 <1>  -0.6600 
 13 C        3.5090     6.8350     1.8720 C.3   1 <1>   0.1400 
 14 C        3.1130     5.4570    -0.2230 C.3   1 <1>   0.1400 
 15 C        3.5710     8.2390     1.2130 C.3   1 <1>   0.4230 
 16 C        3.2700     6.6340    -1.2200 C.3   1 <1>  -0.0800 
 17 N        2.3260     8.4240     0.3820 N.4   1 <1>  -0.9590 
 18 C        4.9180     8.4530     0.4740 C.3   1 <1>   0.1200 
 19 C        4.7350     7.0560    -1.4120 C.3   1 <1>   0.1200 
 20 C        2.3790     7.8760    -1.0090 C.3   1 <1>   0.3430 
 21 C        1.8800     9.8790     0.3620 C.3   1 <1>   0.2370 
 22 O        5.3490     7.2990    -0.1930 O.3   1 <1>  -0.5600 
 23 C        2.8790    10.8510    -0.2670 C.2   1 <1>   0.9060 
 24 O        2.9260    10.9190    -1.4990 O.co2 1 <1>  -0.9000 
 25 O        3.6950    11.3990     0.4790 O.co2 1 <1>  -0.9000 
 26 H       -1.5980     3.5800    -1.4650 H     1 <1>   0.1500 
 27 H       -0.4110     1.5090     2.0330 H     1 <1>   0.1500 
 28 H        0.9680     3.4400     2.7320 H     1 <1>   0.1500 
 29 H       -0.8430     7.0370    -2.3780 H     1 <1>   0.0800 
 30 H       -2.0490     5.9810    -1.6530 H     1 <1>   0.0800 
 31 H       -0.8510     5.3240    -2.7830 H     1 <1>   0.0800 
 32 H        3.1320     6.9530     2.8730 H     1 <1>   0.0800 
 33 H        4.4950     6.4160     1.9660 H     1 <1>   0.0800 
 34 H        4.0570     4.9510    -0.1030 H     1 <1>   0.0800 
 35 H        2.4330     4.7400    -0.6490 H     1 <1>   0.0800 
 36 H        3.5470     8.9700     2.0030 H     1 <1>   0.0800 
 37 H        2.9820     6.2480    -2.1810 H     1 <1>   0.0800 
 38 H        1.6160     7.8640     0.8940 H     1 <1>   0.4500 
 39 H        5.6720     8.6760     1.2080 H     1 <1>   0.0800 
 40 H        4.8910     9.2790    -0.2150 H     1 <1>   0.0800 
 41 H        4.8220     7.9350    -2.0300 H     1 <1>   0.0800 
 42 H        5.2850     6.2590    -1.8820 H     1 <1>   0.0800 
 43 H        1.3740     7.6320    -1.3100 H     1 <1>   0.0800 
 44 H        2.7270     8.6490    -1.6770 H     1 <1>   0.0800 
 45 H        0.9600     9.9680    -0.1850 H     1 <1>   0.0800 
 46 H        1.7060    10.2160     1.3680 H     1 <1>   0.0800 
@<TRIPOS>BOND
  1   1   2  1   
  2   2   3  ar  
  3   2   4  ar  
  4   3   5  ar  
  5   3  26  1   
  6   4   6  ar  
  7   4  27  1   
  8   5   7  1   
  9   5   8  ar  
 10   6   8  ar  
 11   6  28  1   
 12   7   9  1   
 13   8  10  1   
 14   9  29  1   
 15   9  30  1   
 16   9  31  1   
 17  10  11  2   
 18  10  12  am  
 19  12  13  1   
 20  12  14  1   
 21  13  15  1   
 22  13  32  1   
 23  13  33  1   
 24  14  16  1   
 25  14  34  1   
 26  14  35  1   
 27  15  17  1   
 28  15  18  1   
 29  15  36  1   
 30  16  19  1   
 31  16  20  1   
 32  16  37  1   
 33  17  20  1   
 34  17  21  1   
 35  17  38  1   
 36  18  22  1   
 37  18  39  1   
 38  18  40  1   
 39  19  22  1   
 40  19  41  1   
 41  19  42  1   
 42  20  43  1   
 43  20  44  1   
 44  21  23  1   
 45  21  45  1   
 46  21  46  1   
 47  23  24  ar  
 48  23  25  ar  
@<TRIPOS>SUBSTRUCTURE
  1 ****  12 GROUP 4 **** **** 0

# MOE 2024.06 (io_trps.svl 2023.06)
