@<TRIPOS>MOLECULE
NONAME
45 47 1 0 0 
SMALL
USER_CHARGES


@<TRIPOS>ATOM
  1 O        1.3370     1.5050    -0.6800 O.3   1 <1>  -0.6800 
  2 C        1.7140     0.3620    -0.0080 C.3   1 <1>   0.2800 
  3 C        3.1600     0.5650     0.5040 C.3   1 <1>  -0.0800 
  4 C        1.6300    -0.7890    -1.0270 C.3   1 <1>  -0.1600 
  5 C        0.7000     0.1440     1.1440 C.3   1 <1>  -0.1600 
  6 C        3.8830    -0.7230     0.9240 C.3   1 <1>  -0.0800 
  7 C        4.1250     1.2080    -0.4920 C.3   1 <1>   0.2090 
  8 C        2.2510    -2.0890    -0.4930 C.3   1 <1>  -0.1600 
  9 C        0.4660     1.3440     2.0830 C.3   1 <1>  -0.2400 
 10 C        3.7150    -1.8630    -0.1050 C.3   1 <1>  -0.1600 
 11 C        5.3480    -0.2830     0.9900 C.3   1 <1>   0.2090 
 12 N        5.4840     0.7610    -0.0610 N.pl3 1 <1>  -0.8380 
 13 C        6.6290     1.2200    -0.6220 C.ar  1 <1>   0.4100 
 14 N        6.5160     2.0480    -1.6450 N.ar  1 <1>  -0.6200 
 15 C        7.8920     0.8310    -0.1320 C.ar  1 <1>  -0.1500 
 16 C        7.6210     2.4920    -2.1970 C.ar  1 <1>   0.7710 
 17 C        9.0140     1.3090    -0.7240 C.ar  1 <1>   0.2180 
 18 N        8.8490     2.1500    -1.7730 N.ar  1 <1>  -0.1790 
 19 N        7.4720     3.3220    -3.2260 N.pl3 1 <1>  -0.9000 
 20 C       10.4210     0.9540    -0.2750 C.3   1 <1>  -0.0970 
 21 H        0.3920     1.4460    -0.9080 H     1 <1>   0.4000 
 22 H        3.1350     1.2200     1.3530 H     1 <1>   0.0800 
 23 H        0.6050    -0.9740    -1.2930 H     1 <1>   0.0800 
 24 H        2.1540    -0.5100    -1.9250 H     1 <1>   0.0800 
 25 H       -0.2480    -0.1390     0.7230 H     1 <1>   0.0800 
 26 H        1.0280    -0.6860     1.7430 H     1 <1>   0.0800 
 27 H        3.5420    -1.0570     1.8880 H     1 <1>   0.0800 
 28 H        4.0420     2.2810    -0.4700 H     1 <1>   0.0800 
 29 H        3.9380     0.8590    -1.4920 H     1 <1>   0.0800 
 30 H        1.6980    -2.4460     0.3580 H     1 <1>   0.0800 
 31 H        2.1990    -2.8470    -1.2560 H     1 <1>   0.0800 
 32 H        0.1370     2.2070     1.5310 H     1 <1>   0.0800 
 33 H        1.3600     1.6010     2.6200 H     1 <1>   0.0800 
 34 H       -0.2940     1.0980     2.8030 H     1 <1>   0.0800 
 35 H        4.2690    -1.6290    -0.9990 H     1 <1>   0.0800 
 36 H        4.1230    -2.7740     0.2970 H     1 <1>   0.0800 
 37 H        6.0140    -1.1110     0.8150 H     1 <1>   0.0800 
 38 H        5.5550     0.1560     1.9510 H     1 <1>   0.0800 
 39 H        7.9400     0.1660     0.7080 H     1 <1>   0.1500 
 40 H        9.6360     2.5500    -2.2700 H     1 <1>   0.4570 
 41 H        8.1820     3.7820    -3.7960 H     1 <1>   0.4000 
 42 H        6.5090     3.5460    -3.5000 H     1 <1>   0.4000 
 43 H       10.3890     0.2810     0.5640 H     1 <1>   0.0800 
 44 H       10.9550     1.8380     0.0260 H     1 <1>   0.0800 
 45 H       10.9600     0.4700    -1.0710 H     1 <1>   0.0800 
@<TRIPOS>BOND
  1   1   2  1   
  2   1  21  1   
  3   2   3  1   
  4   2   4  1   
  5   2   5  1   
  6   3   6  1   
  7   3   7  1   
  8   3  22  1   
  9   4   8  1   
 10   4  23  1   
 11   4  24  1   
 12   5   9  1   
 13   5  25  1   
 14   5  26  1   
 15   6  10  1   
 16   6  11  1   
 17   6  27  1   
 18   7  12  1   
 19   7  28  1   
 20   7  29  1   
 21   8  10  1   
 22   8  30  1   
 23   8  31  1   
 24   9  32  1   
 25   9  33  1   
 26   9  34  1   
 27  10  35  1   
 28  10  36  1   
 29  11  12  1   
 30  11  37  1   
 31  11  38  1   
 32  12  13  1   
 33  13  14  ar  
 34  13  15  ar  
 35  14  16  ar  
 36  15  17  ar  
 37  15  39  1   
 38  16  18  ar  
 39  16  19  1   
 40  17  18  ar  
 41  17  20  1   
 42  18  40  1   
 43  19  41  1   
 44  19  42  1   
 45  20  43  1   
 46  20  44  1   
 47  20  45  1   
@<TRIPOS>SUBSTRUCTURE
  1 ****  12 GROUP 4 **** **** 0

# MOE 2024.06 (io_trps.svl 2023.06)
