@<TRIPOS>MOLECULE
NONAME
55 58 1 0 0 
SMALL
USER_CHARGES


@<TRIPOS>ATOM
  1 O        4.2910    -1.4710    -1.7030 O.2   1 <1>  -0.5700 
  2 C        3.4670    -1.5040    -0.8050 C.2   1 <1>   0.5440 
  3 N        3.2400    -0.3090    -0.1680 N.am  1 <1>  -0.6600 
  4 C        2.8210    -2.7360    -0.3900 C.ar  1 <1>   0.0860 
  5 C        4.0400    -0.0400     1.0770 C.3   1 <1>   0.2200 
  6 C        2.7520     0.8430    -0.9880 C.3   1 <1>   0.1400 
  7 C        1.7540    -2.7480     0.5130 C.ar  1 <1>  -0.1500 
  8 C        3.2440    -3.9760    -0.8770 C.ar  1 <1>  -0.1500 
  9 C        3.4000     1.0230     1.9840 C.3   1 <1>   0.1200 
 10 C        5.5060     0.3370     0.7350 C.3   1 <1>   0.3430 
 11 C        3.5200     2.1640    -0.7860 C.3   1 <1>  -0.0800 
 12 C        1.1580    -3.9270     0.9140 C.ar  1 <1>  -0.1500 
 13 C        2.6470    -5.1550    -0.4770 C.ar  1 <1>  -0.1500 
 14 O        3.8130     2.3040     1.6090 O.3   1 <1>  -0.5600 
 15 N        5.6820     0.7820    -0.6920 N.4   1 <1>  -0.9590 
 16 C        3.1430     2.8620     0.5300 C.3   1 <1>   0.1200 
 17 C        5.0480     2.1000    -1.0030 C.3   1 <1>   0.3430 
 18 C        1.5930    -5.1550     0.4300 C.ar  1 <1>   0.1000 
 19 C        7.1100     0.7390    -1.1110 C.3   1 <1>   0.2630 
 20 N        0.9850    -6.3320     0.8450 N.pl3 1 <1>  -0.8380 
 21 C       -0.4810    -6.5260     0.6910 C.3   1 <1>   0.2090 
 22 C        1.7680    -7.5530     1.1760 C.3   1 <1>   0.2090 
 23 C       -0.7530    -7.6220    -0.3450 C.3   1 <1>  -0.1600 
 24 C        1.4920    -8.6510     0.1430 C.3   1 <1>  -0.1600 
 25 C       -0.0110    -8.9240    -0.0110 C.3   1 <1>  -0.1600 
 26 H        4.0620    -0.9510     1.6510 H     1 <1>   0.0800 
 27 H        2.8020     0.5740    -2.0310 H     1 <1>   0.0800 
 28 H        1.7110     1.0010    -0.7610 H     1 <1>   0.0800 
 29 H        1.3800    -1.8210     0.9080 H     1 <1>   0.1500 
 30 H        4.0540    -4.0140    -1.5850 H     1 <1>   0.1500 
 31 H        3.7420     0.8780     2.9940 H     1 <1>   0.0800 
 32 H        2.3250     0.9610     1.9820 H     1 <1>   0.0800 
 33 H        6.1140    -0.5360     0.9040 H     1 <1>   0.0800 
 34 H        5.8480     1.1050     1.4090 H     1 <1>   0.0800 
 35 H        3.1490     2.8250    -1.5490 H     1 <1>   0.0800 
 36 H        0.3460    -3.9140     1.6170 H     1 <1>   0.1500 
 37 H        2.9880    -6.0920    -0.8760 H     1 <1>   0.1500 
 38 H        5.1590     0.0600    -1.2410 H     1 <1>   0.4500 
 39 H        2.0820     2.8240     0.7150 H     1 <1>   0.0800 
 40 H        3.4340     3.8980     0.4880 H     1 <1>   0.0800 
 41 H        5.5150     2.8720    -0.4130 H     1 <1>   0.0800 
 42 H        5.2400     2.3250    -2.0400 H     1 <1>   0.0800 
 43 H        7.6890     1.4490    -0.5440 H     1 <1>   0.0800 
 44 H        7.1970     0.9760    -2.1590 H     1 <1>   0.0800 
 45 H        7.5140    -0.2470    -0.9520 H     1 <1>   0.0800 
 46 H       -0.9000    -6.8060     1.6420 H     1 <1>   0.0800 
 47 H       -0.9440    -5.6080     0.3720 H     1 <1>   0.0800 
 48 H        2.8190    -7.3210     1.2020 H     1 <1>   0.0800 
 49 H        1.4780    -7.8940     2.1550 H     1 <1>   0.0800 
 50 H       -1.8110    -7.8090    -0.3940 H     1 <1>   0.0800 
 51 H       -0.4380    -7.2630    -1.3100 H     1 <1>   0.0800 
 52 H        1.9010    -8.3440    -0.8040 H     1 <1>   0.0800 
 53 H        1.9960    -9.5520     0.4410 H     1 <1>   0.0800 
 54 H       -0.1720    -9.6460    -0.7930 H     1 <1>   0.0800 
 55 H       -0.3970    -9.3310     0.9070 H     1 <1>   0.0800 
@<TRIPOS>BOND
  1   1   2  2   
  2   2   3  am  
  3   2   4  1   
  4   3   5  1   
  5   3   6  1   
  6   4   7  ar  
  7   4   8  ar  
  8   5   9  1   
  9   5  10  1   
 10   5  26  1   
 11   6  11  1   
 12   6  27  1   
 13   6  28  1   
 14   7  12  ar  
 15   7  29  1   
 16   8  13  ar  
 17   8  30  1   
 18   9  14  1   
 19   9  31  1   
 20   9  32  1   
 21  10  15  1   
 22  10  33  1   
 23  10  34  1   
 24  11  16  1   
 25  11  17  1   
 26  11  35  1   
 27  12  18  ar  
 28  12  36  1   
 29  13  18  ar  
 30  13  37  1   
 31  14  16  1   
 32  15  17  1   
 33  15  19  1   
 34  15  38  1   
 35  16  39  1   
 36  16  40  1   
 37  17  41  1   
 38  17  42  1   
 39  18  20  1   
 40  19  43  1   
 41  19  44  1   
 42  19  45  1   
 43  20  21  1   
 44  20  22  1   
 45  21  23  1   
 46  21  46  1   
 47  21  47  1   
 48  22  24  1   
 49  22  48  1   
 50  22  49  1   
 51  23  25  1   
 52  23  50  1   
 53  23  51  1   
 54  24  25  1   
 55  24  52  1   
 56  24  53  1   
 57  25  54  1   
 58  25  55  1   
@<TRIPOS>SUBSTRUCTURE
  1 ****   4 GROUP 4 **** **** 0

# MOE 2024.06 (io_trps.svl 2023.06)
