@<TRIPOS>MOLECULE
NONAME
60 63 1 0 0 
SMALL
USER_CHARGES


@<TRIPOS>ATOM
  1 O       -2.7050     1.7680    -2.5660 O.co2 1 <1>  -0.9000 
  2 C       -1.5790     1.9500    -2.0660 C.2   1 <1>   0.9060 
  3 O       -0.5450     1.6790    -2.6740 O.co2 1 <1>  -0.9000 
  4 C       -1.4920     2.2920    -0.5460 C.3   1 <1>   0.4600 
  5 N       -2.5590     1.5970     0.3200 N.4   1 <1>  -0.9590 
  6 C       -1.5210     3.7880    -0.2200 C.ar  1 <1>  -0.1430 
  7 C       -2.5130     0.1430    -0.0340 C.3   1 <1>   0.3430 
  8 C       -3.8710     2.2710     0.0480 C.3   1 <1>   0.3430 
  9 C       -2.0750     4.7170    -1.0670 C.ar  1 <1>  -0.1500 
 10 C       -0.9760     4.2200     1.0000 C.ar  1 <1>  -0.1500 
 11 C       -3.7290    -0.6150     0.4850 C.3   1 <1>  -0.1600 
 12 C       -5.0610     1.4620     0.5510 C.3   1 <1>  -0.1600 
 13 C       -2.1300     6.0840    -0.7340 C.ar  1 <1>   0.0000 
 14 C       -1.0180     5.5420     1.3490 C.ar  1 <1>  -0.1500 
 15 C       -5.0130     0.0450    -0.0320 C.3   1 <1>   0.4230 
 16 C       -1.5990     6.5050     0.5020 C.ar  1 <1>   0.0000 
 17 C       -2.7010     7.0480    -1.5890 C.ar  1 <1>  -0.1500 
 18 N       -6.2220    -0.7660     0.3590 N.4   1 <1>  -0.9590 
 19 C       -1.6670     7.8710     0.8380 C.ar  1 <1>  -0.1500 
 20 C       -2.7550     8.3690    -1.2400 C.ar  1 <1>  -0.1500 
 21 C       -6.2130    -2.1250    -0.2900 C.3   1 <1>   0.3430 
 22 C       -7.5230    -0.0750     0.0490 C.3   1 <1>   0.3430 
 23 C       -2.2300     8.7920    -0.0030 C.ar  1 <1>   0.0830 
 24 C       -7.3640    -2.9810     0.2320 C.3   1 <1>  -0.1600 
 25 C       -8.7060    -0.8850     0.5750 C.3   1 <1>  -0.1600 
 26 O       -2.2510    10.0840     0.4070 O.3   1 <1>  -0.3630 
 27 C       -8.6940    -2.2850    -0.0260 C.3   1 <1>   0.2000 
 28 C       -2.7820    11.1120    -0.3990 C.3   1 <1>   0.0400 
 29 O       -9.7000    -3.0220     0.5490 O.3   1 <1>  -0.6800 
 30 H       -0.5250     1.9270    -0.2500 H     1 <1>   0.0800 
 31 H       -2.2910     1.7560     1.2960 H     1 <1>   0.4500 
 32 H       -1.6080    -0.2990     0.3520 H     1 <1>   0.0800 
 33 H       -2.4940     0.0260    -1.1070 H     1 <1>   0.0800 
 34 H       -3.9940     2.4230    -1.0110 H     1 <1>   0.0800 
 35 H       -3.8770     3.2470     0.5070 H     1 <1>   0.0800 
 36 H       -2.4880     4.4290    -2.0200 H     1 <1>   0.1500 
 37 H       -0.5140     3.5100     1.6640 H     1 <1>   0.1500 
 38 H       -3.7050    -0.6380     1.5600 H     1 <1>   0.0800 
 39 H       -3.6310    -1.6200     0.1210 H     1 <1>   0.0800 
 40 H       -5.9320     1.9930     0.2170 H     1 <1>   0.0800 
 41 H       -5.0560     1.4460     1.6260 H     1 <1>   0.0800 
 42 H       -0.6000     5.8750     2.2820 H     1 <1>   0.1500 
 43 H       -4.9640     0.1160    -1.1100 H     1 <1>   0.0800 
 44 H       -3.0960     6.7210    -2.5350 H     1 <1>   0.1500 
 45 H       -6.1920    -0.9110     1.3760 H     1 <1>   0.4500 
 46 H       -1.2650     8.1960     1.7790 H     1 <1>   0.1500 
 47 H       -3.1970     9.0760    -1.9150 H     1 <1>   0.1500 
 48 H       -5.2910    -2.6410    -0.0820 H     1 <1>   0.0800 
 49 H       -6.3020    -2.0180    -1.3600 H     1 <1>   0.0800 
 50 H       -7.6220     0.0560    -1.0170 H     1 <1>   0.0800 
 51 H       -7.5540     0.8970     0.5120 H     1 <1>   0.0800 
 52 H       -7.2270    -3.1680     1.2820 H     1 <1>   0.0800 
 53 H       -7.3580    -3.9260    -0.2840 H     1 <1>   0.0800 
 54 H       -9.6200    -0.3910     0.2950 H     1 <1>   0.0800 
 55 H       -8.6610    -0.9300     1.6490 H     1 <1>   0.0800 
 56 H       -8.8960    -2.2400    -1.0850 H     1 <1>   0.0800 
 57 H       -2.6760    12.0400     0.1340 H     1 <1>   0.0800 
 58 H       -3.8230    10.9120    -0.5800 H     1 <1>   0.0800 
 59 H       -2.2290    11.1550    -1.3200 H     1 <1>   0.0800 
 60 H       -9.5920    -3.1110     1.5150 H     1 <1>   0.4000 
@<TRIPOS>BOND
  1   1   2  ar  
  2   2   3  ar  
  3   2   4  1   
  4   4   5  1   
  5   4   6  1   
  6   4  30  1   
  7   5   7  1   
  8   5   8  1   
  9   5  31  1   
 10   6   9  ar  
 11   6  10  ar  
 12   7  11  1   
 13   7  32  1   
 14   7  33  1   
 15   8  12  1   
 16   8  34  1   
 17   8  35  1   
 18   9  13  ar  
 19   9  36  1   
 20  10  14  ar  
 21  10  37  1   
 22  11  15  1   
 23  11  38  1   
 24  11  39  1   
 25  12  15  1   
 26  12  40  1   
 27  12  41  1   
 28  13  16  ar  
 29  13  17  ar  
 30  14  16  ar  
 31  14  42  1   
 32  15  18  1   
 33  15  43  1   
 34  16  19  ar  
 35  17  20  ar  
 36  17  44  1   
 37  18  21  1   
 38  18  22  1   
 39  18  45  1   
 40  19  23  ar  
 41  19  46  1   
 42  20  23  ar  
 43  20  47  1   
 44  21  24  1   
 45  21  48  1   
 46  21  49  1   
 47  22  25  1   
 48  22  50  1   
 49  22  51  1   
 50  23  26  1   
 51  24  27  1   
 52  24  52  1   
 53  24  53  1   
 54  25  27  1   
 55  25  54  1   
 56  25  55  1   
 57  26  28  1   
 58  27  29  1   
 59  27  56  1   
 60  28  57  1   
 61  28  58  1   
 62  28  59  1   
 63  29  60  1   
@<TRIPOS>SUBSTRUCTURE
  1 ****   8 GROUP 4 **** **** 0

# MOE 2024.06 (io_trps.svl 2023.06)
