@<TRIPOS>MOLECULE
NONAME
46 48 1 0 0 
SMALL
USER_CHARGES


@<TRIPOS>ATOM
  1 S        0.2260     0.1720    -0.5100 S.o2  1 <1>   1.3330 
  2 O        0.1730    -1.2210    -0.1280 O.2   1 <1>  -0.6500 
  3 O        0.0330     0.5440    -1.8940 O.2   1 <1>  -0.6500 
  4 N       -0.9090     1.0170     0.4260 N.am  1 <1>  -0.8490 
  5 C        1.7740     0.9100     0.0060 C.3   1 <1>  -0.0550 
  6 C       -1.0480     0.4810     1.7860 C.3   1 <1>   0.1160 
  7 C       -2.2250     1.0730    -0.2190 C.3   1 <1>   0.1160 
  8 C        3.0070     0.3360    -0.7340 C.3   1 <1>  -0.0800 
  9 C        4.2920     1.1360    -0.5350 C.3   1 <1>   0.2200 
 10 C        3.4190    -0.9880    -0.0960 C.3   1 <1>   0.1200 
 11 N        4.0760     2.6090    -0.5050 N.am  1 <1>  -0.7300 
 12 C        4.8540     0.5650     0.7740 C.3   1 <1>   0.1200 
 13 O        4.1500    -0.6180     1.0270 O.3   1 <1>  -0.5600 
 14 C        5.0580     3.5240    -0.2460 C.2   1 <1>   0.5440 
 15 O        6.1790     3.1220    -0.0170 O.2   1 <1>  -0.5700 
 16 C        4.7870     4.9420    -0.2610 C.ar  1 <1>   0.0860 
 17 C        5.7810     5.8730    -0.4940 C.ar  1 <1>   0.1600 
 18 C        3.5300     5.4740    -0.0410 C.ar  1 <1>   0.1600 
 19 N        5.5630     7.1700    -0.5280 N.ar  1 <1>  -0.6200 
 20 N        3.2740     6.7630    -0.0690 N.ar  1 <1>  -0.6200 
 21 C        4.3130     7.5490    -0.3100 C.ar  1 <1>   0.5880 
 22 C        4.0400     9.0460    -0.3480 C.3   1 <1>  -0.0680 
 23 C        4.7880     9.9930     0.5480 C.3   1 <1>  -0.2000 
 24 C        3.3320     9.7400     0.7820 C.3   1 <1>  -0.2000 
 25 H        1.6920     1.9600    -0.1840 H     1 <1>   0.0800 
 26 H        1.9030     0.7850     1.0630 H     1 <1>   0.0800 
 27 H       -1.7120     1.1030     2.3620 H     1 <1>   0.0800 
 28 H       -0.0920     0.4590     2.2790 H     1 <1>   0.0800 
 29 H       -1.4440    -0.5210     1.7580 H     1 <1>   0.0800 
 30 H       -2.9170     1.6270     0.3910 H     1 <1>   0.0800 
 31 H       -2.6080     0.0780    -0.3760 H     1 <1>   0.0800 
 32 H       -2.1480     1.5670    -1.1730 H     1 <1>   0.0800 
 33 H        2.7950     0.2070    -1.7820 H     1 <1>   0.0800 
 34 H        4.9880     0.9060    -1.3240 H     1 <1>   0.0800 
 35 H        4.0700    -1.5490    -0.7450 H     1 <1>   0.0800 
 36 H        2.5940    -1.6080     0.2090 H     1 <1>   0.0800 
 37 H        3.2370     2.9180    -0.9980 H     1 <1>   0.3700 
 38 H        4.6940     1.2310     1.6030 H     1 <1>   0.0800 
 39 H        5.9000     0.3320     0.6800 H     1 <1>   0.0800 
 40 H        6.7900     5.5290    -0.6600 H     1 <1>   0.1500 
 41 H        2.7050     4.8160     0.1710 H     1 <1>   0.1500 
 42 H        3.8240     9.3790    -1.3460 H     1 <1>   0.1000 
 43 H        5.5060     9.5830     1.2380 H     1 <1>   0.1000 
 44 H        5.0990    10.9400     0.1430 H     1 <1>   0.1000 
 45 H        2.6210    10.5110     0.5420 H     1 <1>   0.1000 
 46 H        3.0360     9.1560     1.6360 H     1 <1>   0.1000 
@<TRIPOS>BOND
  1   1   2  2   
  2   1   3  2   
  3   1   4  am  
  4   1   5  1   
  5   4   6  1   
  6   4   7  1   
  7   5   8  1   
  8   5  25  1   
  9   5  26  1   
 10   6  27  1   
 11   6  28  1   
 12   6  29  1   
 13   7  30  1   
 14   7  31  1   
 15   7  32  1   
 16   8   9  1   
 17   8  10  1   
 18   8  33  1   
 19   9  11  1   
 20   9  12  1   
 21   9  34  1   
 22  10  13  1   
 23  10  35  1   
 24  10  36  1   
 25  11  14  am  
 26  11  37  1   
 27  12  13  1   
 28  12  38  1   
 29  12  39  1   
 30  14  15  2   
 31  14  16  1   
 32  16  17  ar  
 33  16  18  ar  
 34  17  19  ar  
 35  17  40  1   
 36  18  20  ar  
 37  18  41  1   
 38  19  21  ar  
 39  20  21  ar  
 40  21  22  1   
 41  22  23  1   
 42  22  24  1   
 43  22  42  1   
 44  23  24  1   
 45  23  43  1   
 46  23  44  1   
 47  24  45  1   
 48  24  46  1   
@<TRIPOS>SUBSTRUCTURE
  1 ****  11 GROUP 4 **** **** 0

# MOE 2024.06 (io_trps.svl 2023.06)
