@<TRIPOS>MOLECULE
NONAME
47 48 1 0 0 
SMALL
USER_CHARGES


@<TRIPOS>ATOM
  1 S        0.3360     0.0180     0.6870 S.o2  1 <1>   1.3330 
  2 O       -0.7730     0.0270     1.6130 O.2   1 <1>  -0.6500 
  3 O        1.6890     0.0920     1.1890 O.2   1 <1>  -0.6500 
  4 N        0.2150    -1.3690    -0.2830 N.am  1 <1>  -0.8490 
  5 C        0.0720     1.3470    -0.4850 C.3   1 <1>  -0.0550 
  6 C       -0.2800    -2.5290     0.4660 C.3   1 <1>   0.1160 
  7 C        1.4670    -1.7150    -0.9660 C.3   1 <1>   0.1160 
  8 C        0.0440     2.7360     0.1740 C.3   1 <1>  -0.0800 
  9 C       -0.3190     3.8390    -0.8140 C.3   1 <1>   0.2000 
 10 C        1.3900     3.1840     0.7520 C.3   1 <1>   0.1400 
 11 O       -1.6930     3.9100    -0.9690 O.3   1 <1>  -0.6800 
 12 C        0.2520     5.1190    -0.2110 C.3   1 <1>   0.1400 
 13 N        1.4050     4.6610     0.6040 N.am  1 <1>  -0.6600 
 14 C        2.5390     5.4070     0.8260 C.2   1 <1>   0.5440 
 15 O        3.5630     4.8380     1.1490 O.2   1 <1>  -0.5700 
 16 C        2.5420     6.8470     0.6590 C.ar  1 <1>   0.0860 
 17 C        3.5020     7.4630    -0.1390 C.ar  1 <1>  -0.1500 
 18 C        1.6010     7.6610     1.2850 C.ar  1 <1>  -0.1500 
 19 C        3.5390     8.8360    -0.3360 C.ar  1 <1>  -0.0090 
 20 C        1.6130     9.0310     1.1050 C.ar  1 <1>  -0.1500 
 21 S        4.8260     9.5910    -1.3610 S.o2  1 <1>   1.2040 
 22 C        2.5760     9.6110     0.2990 C.ar  1 <1>  -0.1500 
 23 O        5.1640     8.6930    -2.4420 O.2   1 <1>  -0.6500 
 24 O        4.4700    10.9630    -1.6450 O.2   1 <1>  -0.6500 
 25 C        6.2160     9.6240    -0.2470 C.3   1 <1>  -0.1350 
 26 H        0.8360     1.3230    -1.2360 H     1 <1>   0.0800 
 27 H       -0.8710     1.1840    -0.9730 H     1 <1>   0.0800 
 28 H       -0.3600    -3.3850    -0.1810 H     1 <1>   0.0800 
 29 H       -1.2580    -2.3190     0.8660 H     1 <1>   0.0800 
 30 H        0.3850    -2.7590     1.2810 H     1 <1>   0.0800 
 31 H        1.3070    -2.5440    -1.6340 H     1 <1>   0.0800 
 32 H        2.2260    -1.9830    -0.2490 H     1 <1>   0.0800 
 33 H        1.8190    -0.8770    -1.5430 H     1 <1>   0.0800 
 34 H       -0.6670     2.7340     0.9830 H     1 <1>   0.0800 
 35 H        0.1250     3.6660    -1.7800 H     1 <1>   0.0800 
 36 H        2.2130     2.7670     0.1950 H     1 <1>   0.0800 
 37 H        1.4920     2.9050     1.7880 H     1 <1>   0.0800 
 38 H       -2.1370     3.9680    -0.1000 H     1 <1>   0.4000 
 39 H       -0.4690     5.5930     0.4320 H     1 <1>   0.0800 
 40 H        0.5700     5.7970    -0.9840 H     1 <1>   0.0800 
 41 H        4.2370     6.8400    -0.6210 H     1 <1>   0.1500 
 42 H        0.8580     7.2100     1.9200 H     1 <1>   0.1500 
 43 H        0.8760     9.6480     1.5920 H     1 <1>   0.1500 
 44 H        2.5770    10.6800     0.1600 H     1 <1>   0.1500 
 45 H        6.4720     8.6300     0.0640 H     1 <1>   0.0800 
 46 H        5.9880    10.2120     0.6210 H     1 <1>   0.0800 
 47 H        7.0670    10.0570    -0.7370 H     1 <1>   0.0800 
@<TRIPOS>BOND
  1   1   2  2   
  2   1   3  2   
  3   1   4  am  
  4   1   5  1   
  5   4   6  1   
  6   4   7  1   
  7   5   8  1   
  8   5  26  1   
  9   5  27  1   
 10   6  28  1   
 11   6  29  1   
 12   6  30  1   
 13   7  31  1   
 14   7  32  1   
 15   7  33  1   
 16   8   9  1   
 17   8  10  1   
 18   8  34  1   
 19   9  11  1   
 20   9  12  1   
 21   9  35  1   
 22  10  13  1   
 23  10  36  1   
 24  10  37  1   
 25  11  38  1   
 26  12  13  1   
 27  12  39  1   
 28  12  40  1   
 29  13  14  am  
 30  14  15  2   
 31  14  16  1   
 32  16  17  ar  
 33  16  18  ar  
 34  17  19  ar  
 35  17  41  1   
 36  18  20  ar  
 37  18  42  1   
 38  19  21  1   
 39  19  22  ar  
 40  20  22  ar  
 41  20  43  1   
 42  21  23  2   
 43  21  24  2   
 44  21  25  1   
 45  22  44  1   
 46  25  45  1   
 47  25  46  1   
 48  25  47  1   
@<TRIPOS>SUBSTRUCTURE
  1 ****  13 GROUP 4 **** **** 0

# MOE 2024.06 (io_trps.svl 2023.06)
