@<TRIPOS>MOLECULE
NONAME
42 43 1 0 0 
SMALL
USER_CHARGES


@<TRIPOS>ATOM
  1 O        0.1080    -0.8790     1.1510 O.co2 1 <1>  -0.9000 
  2 C        0.9180    -1.4760     0.4120 C.2   1 <1>   0.9790 
  3 O        1.8520    -0.7940    -0.0650 O.co2 1 <1>  -0.9000 
  4 C        0.8170    -2.9120     0.0840 C.ar  1 <1>   0.1310 
  5 N       -0.1230    -3.7210     0.5860 N.ar  1 <1>  -0.6200 
  6 C        1.7400    -3.4630    -0.7910 C.ar  1 <1>  -0.1500 
  7 C       -0.1250    -4.9980     0.2220 C.ar  1 <1>   0.7200 
  8 C        1.6620    -4.7940    -1.1100 C.ar  1 <1>   0.1660 
  9 N        0.7380    -5.5730    -0.6150 N.ar  1 <1>  -0.6200 
 10 N       -1.1110    -5.8090     0.7520 N.pl3 1 <1>  -0.8380 
 11 C        2.6530    -5.4280    -2.0610 C.3   1 <1>  -0.0970 
 12 C       -1.6700    -6.9710    -0.0100 C.3   1 <1>   0.2090 
 13 C       -2.0200    -5.3400     1.8390 C.3   1 <1>   0.2090 
 14 C       -3.0330    -6.5900    -0.6190 C.3   1 <1>   0.2000 
 15 C       -3.3690    -4.9380     1.2280 C.3   1 <1>  -0.1600 
 16 O       -3.5490    -7.6800    -1.3070 O.3   1 <1>  -0.6800 
 17 C       -4.0420    -6.1170     0.4640 C.3   1 <1>  -0.1060 
 18 C       -4.3440    -7.2800     1.4390 C.2   1 <1>   0.9060 
 19 C       -5.3960    -5.6540    -0.1500 C.3   1 <1>  -0.1600 
 20 O       -4.5630    -7.0430     2.6340 O.co2 1 <1>  -0.9000 
 21 O       -4.3930    -8.4430     1.0050 O.co2 1 <1>  -0.9000 
 22 C       -5.3250    -4.5400    -1.2120 C.3   1 <1>  -0.1600 
 23 C       -6.7250    -4.1850    -1.7210 C.3   1 <1>  -0.2400 
 24 H        2.5080    -2.8380    -1.2090 H     1 <1>   0.1500 
 25 H        3.3720    -4.7080    -2.4040 H     1 <1>   0.0800 
 26 H        2.1260    -5.8300    -2.9070 H     1 <1>   0.0800 
 27 H        3.1670    -6.2270    -1.5590 H     1 <1>   0.0800 
 28 H       -1.0070    -7.2690    -0.8010 H     1 <1>   0.0800 
 29 H       -1.7890    -7.8020     0.6620 H     1 <1>   0.0800 
 30 H       -2.1560    -6.1340     2.5530 H     1 <1>   0.0800 
 31 H       -1.5940    -4.5040     2.3670 H     1 <1>   0.0800 
 32 H       -2.8590    -5.8130    -1.3400 H     1 <1>   0.0800 
 33 H       -4.0150    -4.6000     2.0180 H     1 <1>   0.0800 
 34 H       -3.1870    -4.1050     0.5750 H     1 <1>   0.0800 
 35 H       -3.9530    -8.2600    -0.5910 H     1 <1>   0.4000 
 36 H       -5.8730    -6.5130    -0.5910 H     1 <1>   0.0800 
 37 H       -6.0310    -5.3280     0.6560 H     1 <1>   0.0800 
 38 H       -4.8740    -3.6560    -0.7980 H     1 <1>   0.0800 
 39 H       -4.7280    -4.8660    -2.0450 H     1 <1>   0.0800 
 40 H       -7.3400    -3.8380    -0.9090 H     1 <1>   0.0800 
 41 H       -7.1890    -5.0480    -2.1640 H     1 <1>   0.0800 
 42 H       -6.6600    -3.4090    -2.4620 H     1 <1>   0.0800 
@<TRIPOS>BOND
  1   1   2  ar  
  2   2   3  ar  
  3   2   4  1   
  4   4   5  ar  
  5   4   6  ar  
  6   5   7  ar  
  7   6   8  ar  
  8   6  24  1   
  9   7   9  ar  
 10   7  10  1   
 11   8   9  ar  
 12   8  11  1   
 13  10  12  1   
 14  10  13  1   
 15  11  25  1   
 16  11  26  1   
 17  11  27  1   
 18  12  14  1   
 19  12  28  1   
 20  12  29  1   
 21  13  15  1   
 22  13  30  1   
 23  13  31  1   
 24  14  16  1   
 25  14  17  1   
 26  14  32  1   
 27  15  17  1   
 28  15  33  1   
 29  15  34  1   
 30  16  35  1   
 31  17  18  1   
 32  17  19  1   
 33  18  20  ar  
 34  18  21  ar  
 35  19  22  1   
 36  19  36  1   
 37  19  37  1   
 38  22  23  1   
 39  22  38  1   
 40  22  39  1   
 41  23  40  1   
 42  23  41  1   
 43  23  42  1   
@<TRIPOS>SUBSTRUCTURE
  1 ****  10 GROUP 4 **** **** 0

# MOE 2024.06 (io_trps.svl 2023.06)
