@<TRIPOS>MOLECULE
NONAME
58 61 1 0 0 
SMALL
USER_CHARGES


@<TRIPOS>ATOM
  1 F       -2.2680     0.8890     3.1790 F     1 <1>  -0.1900 
  2 C       -3.4040     1.0020     2.5430 C.ar  1 <1>   0.1900 
  3 C       -3.8290     2.2590     2.1550 C.ar  1 <1>  -0.1500 
  4 C       -4.1380    -0.1400     2.2840 C.ar  1 <1>  -0.1500 
  5 C       -5.0340     2.3690     1.4820 C.ar  1 <1>  -0.1500 
  6 C       -5.3430    -0.0200     1.6100 C.ar  1 <1>  -0.1500 
  7 C       -5.7940     1.2390     1.2070 C.ar  1 <1>   0.0830 
  8 O       -6.9600     1.4430     0.5450 O.3   1 <1>  -0.3630 
  9 C       -7.8190     0.3780     0.2260 C.3   1 <1>   0.1200 
 10 C       -9.0300     0.9760    -0.4880 C.3   1 <1>  -0.1600 
 11 C      -10.0290    -0.1130    -0.8680 C.3   1 <1>   0.3430 
 12 N      -11.1710     0.4720    -1.6240 N.4   1 <1>  -0.9590 
 13 C      -12.0610     1.3010    -0.7320 C.3   1 <1>   0.3430 
 14 C      -11.9600    -0.6010    -2.2990 C.3   1 <1>   0.3430 
 15 C      -13.2070     1.9710    -1.5080 C.3   1 <1>   0.1430 
 16 C      -13.0740     0.0200    -3.1460 C.3   1 <1>  -0.1600 
 17 C      -14.1020     2.6540    -0.5040 C.ar  1 <1>   0.1670 
 18 C      -14.0010     0.9200    -2.3100 C.3   1 <1>  -0.1600 
 19 C      -12.7370     3.1550    -2.3970 C.3   1 <1>  -0.1600 
 20 N      -14.5260     2.0970     0.5990 N.ar  1 <1>  -0.6200 
 21 C      -14.3950     3.9310    -0.8680 C.ar  1 <1>  -0.1430 
 22 C      -13.7500     4.2980    -2.1810 C.3   1 <1>  -0.0170 
 23 C      -15.2920     2.8820     1.3640 C.ar  1 <1>   0.7200 
 24 C      -15.1890     4.6620    -0.0210 C.ar  1 <1>   0.1600 
 25 N      -15.6380     4.1450     1.0980 N.ar  1 <1>  -0.6200 
 26 N      -15.7580     2.3360     2.5410 N.pl3 1 <1>  -0.8380 
 27 C      -15.9630     0.8720     2.7150 C.3   1 <1>   0.1290 
 28 C      -16.3100     3.1890     3.6310 C.3   1 <1>   0.1290 
 29 H       -3.2290     3.1240     2.3750 H     1 <1>   0.1500 
 30 H       -3.7700    -1.0970     2.6050 H     1 <1>   0.1500 
 31 H       -5.3900     3.3330     1.1670 H     1 <1>   0.1500 
 32 H       -5.9060    -0.9120     1.4120 H     1 <1>   0.1500 
 33 H       -8.1070    -0.1080     1.1430 H     1 <1>   0.0800 
 34 H       -7.2840    -0.3060    -0.4120 H     1 <1>   0.0800 
 35 H       -8.6870     1.4800    -1.3740 H     1 <1>   0.0800 
 36 H       -9.4850     1.6880     0.1780 H     1 <1>   0.0800 
 37 H      -10.3900    -0.6090     0.0200 H     1 <1>   0.0800 
 38 H       -9.5280    -0.8450    -1.4820 H     1 <1>   0.0800 
 39 H      -10.7930     1.0890    -2.3550 H     1 <1>   0.4500 
 40 H      -11.4910     2.0670    -0.2350 H     1 <1>   0.0800 
 41 H      -12.4930     0.6710     0.0290 H     1 <1>   0.0800 
 42 H      -12.3970    -1.2520    -1.5580 H     1 <1>   0.0800 
 43 H      -11.3170    -1.1920    -2.9310 H     1 <1>   0.0800 
 44 H      -13.6590    -0.7720    -3.5830 H     1 <1>   0.0800 
 45 H      -12.6400     0.5760    -3.9580 H     1 <1>   0.0800 
 46 H      -14.7230     1.4050    -2.9450 H     1 <1>   0.0800 
 47 H      -14.5520     0.3020    -1.6200 H     1 <1>   0.0800 
 48 H      -12.6640     2.8980    -3.4390 H     1 <1>   0.0800 
 49 H      -11.7740     3.5010    -2.0620 H     1 <1>   0.0800 
 50 H      -14.4950     4.3030    -2.9590 H     1 <1>   0.0800 
 51 H      -13.2660     5.2580    -2.1340 H     1 <1>   0.0800 
 52 H      -15.4560     5.6780    -0.2580 H     1 <1>   0.1500 
 53 H      -15.9420     0.3660     1.7660 H     1 <1>   0.0800 
 54 H      -16.9190     0.6880     3.1730 H     1 <1>   0.0800 
 55 H      -15.1870     0.4730     3.3440 H     1 <1>   0.0800 
 56 H      -15.8170     4.1460     3.6440 H     1 <1>   0.0800 
 57 H      -16.1560     2.7160     4.5840 H     1 <1>   0.0800 
 58 H      -17.3630     3.3410     3.4720 H     1 <1>   0.0800 
@<TRIPOS>BOND
  1   1   2  1   
  2   2   3  ar  
  3   2   4  ar  
  4   3   5  ar  
  5   3  29  1   
  6   4   6  ar  
  7   4  30  1   
  8   5   7  ar  
  9   5  31  1   
 10   6   7  ar  
 11   6  32  1   
 12   7   8  1   
 13   8   9  1   
 14   9  10  1   
 15   9  33  1   
 16   9  34  1   
 17  10  11  1   
 18  10  35  1   
 19  10  36  1   
 20  11  12  1   
 21  11  37  1   
 22  11  38  1   
 23  12  13  1   
 24  12  14  1   
 25  12  39  1   
 26  13  15  1   
 27  13  40  1   
 28  13  41  1   
 29  14  16  1   
 30  14  42  1   
 31  14  43  1   
 32  15  17  1   
 33  15  18  1   
 34  15  19  1   
 35  16  18  1   
 36  16  44  1   
 37  16  45  1   
 38  17  20  ar  
 39  17  21  ar  
 40  18  46  1   
 41  18  47  1   
 42  19  22  1   
 43  19  48  1   
 44  19  49  1   
 45  20  23  ar  
 46  21  22  1   
 47  21  24  ar  
 48  22  50  1   
 49  22  51  1   
 50  23  25  ar  
 51  23  26  1   
 52  24  25  ar  
 53  24  52  1   
 54  26  27  1   
 55  26  28  1   
 56  27  53  1   
 57  27  54  1   
 58  27  55  1   
 59  28  56  1   
 60  28  57  1   
 61  28  58  1   
@<TRIPOS>SUBSTRUCTURE
  1 ****  13 GROUP 4 **** **** 0

# MOE 2024.06 (io_trps.svl 2023.06)
