@<TRIPOS>MOLECULE
NONAME
55 57 1 0 0 
SMALL
USER_CHARGES


@<TRIPOS>ATOM
  1 O       -0.8140    -0.7450     1.5050 O.3   1 <1>  -0.3630 
  2 C        0.3010    -0.3630     0.8370 C.ar  1 <1>   0.0820 
  3 C       -0.7810    -1.1210     2.8690 C.3   1 <1>   0.1200 
  4 C        1.5920    -0.4980     1.3400 C.ar  1 <1>  -0.1500 
  5 C        0.1130     0.1790    -0.4250 C.ar  1 <1>  -0.1500 
  6 C       -2.1450    -1.7070     3.2580 C.3   1 <1>   0.2090 
  7 C        2.6750    -0.1080     0.5720 C.ar  1 <1>  -0.1500 
  8 C        1.2000     0.5660    -1.1880 C.ar  1 <1>  -0.1500 
  9 N       -2.4030    -3.0850     2.7240 N.pl3 1 <1>  -0.8690 
 10 C        2.4870     0.4210    -0.6950 C.ar  1 <1>  -0.1430 
 11 C       -2.2960    -3.6830     1.5280 C.ar  1 <1>   0.7710 
 12 C        3.6820     0.8510    -1.5310 C.3   1 <1>  -0.0160 
 13 N       -2.7280    -4.9270     1.4770 N.ar  1 <1>  -0.6200 
 14 N       -1.7830    -3.0500     0.4620 N.ar  1 <1>  -0.1790 
 15 C        4.0290     2.3180    -1.2570 C.3   1 <1>  -0.1600 
 16 C       -2.6600    -5.5630     0.3210 C.ar  1 <1>   0.4100 
 17 C       -1.6610    -3.6700    -0.7320 C.ar  1 <1>   0.2110 
 18 C        5.2320     2.7780    -2.0870 C.3   1 <1>  -0.2400 
 19 N       -3.1440    -6.8330     0.2690 N.pl3 1 <1>  -0.8380 
 20 C       -2.1010    -4.9480    -0.8180 C.ar  1 <1>  -0.1500 
 21 C       -3.7460    -7.4650    -0.9510 C.3   1 <1>   0.2090 
 22 C       -3.2090    -7.7210     1.4700 C.3   1 <1>   0.2090 
 23 C       -3.0270    -8.7840    -1.2780 C.3   1 <1>   0.2000 
 24 C       -2.4850    -9.0410     1.1720 C.3   1 <1>  -0.1600 
 25 O       -3.6540    -9.4070    -2.3420 O.3   1 <1>  -0.6800 
 26 C       -3.0350    -9.7430    -0.0820 C.3   1 <1>  -0.1600 
 27 H       -0.5700    -0.2370     3.4470 H     1 <1>   0.0800 
 28 H       -0.0110    -1.8540     3.0310 H     1 <1>   0.0800 
 29 H        1.7850    -0.8970     2.3170 H     1 <1>   0.1500 
 30 H       -0.8800     0.3140    -0.8120 H     1 <1>   0.1500 
 31 H       -2.9320    -1.0390     2.9490 H     1 <1>   0.0800 
 32 H       -2.1810    -1.7620     4.3340 H     1 <1>   0.0800 
 33 H        3.6720    -0.2130     0.9650 H     1 <1>   0.1500 
 34 H        1.0450     0.9910    -2.1650 H     1 <1>   0.1500 
 35 H       -2.8360    -3.7050     3.4180 H     1 <1>   0.4000 
 36 H        3.4590     0.7200    -2.5760 H     1 <1>   0.0800 
 37 H        4.5290     0.2290    -1.2990 H     1 <1>   0.0800 
 38 H       -1.4580    -2.0950     0.6290 H     1 <1>   0.4570 
 39 H        4.2500     2.4430    -0.2100 H     1 <1>   0.0800 
 40 H        3.1780     2.9360    -1.4900 H     1 <1>   0.0800 
 41 H       -1.2180    -3.1380    -1.5600 H     1 <1>   0.1500 
 42 H        6.1000     2.1880    -1.8510 H     1 <1>   0.0800 
 43 H        5.4520     3.8090    -1.8740 H     1 <1>   0.0800 
 44 H        5.0230     2.6840    -3.1380 H     1 <1>   0.0800 
 45 H       -2.0150    -5.5040    -1.7320 H     1 <1>   0.1500 
 46 H       -3.6980    -6.8070    -1.7990 H     1 <1>   0.0800 
 47 H       -4.7840    -7.6690    -0.7490 H     1 <1>   0.0800 
 48 H       -4.2410    -7.9120     1.7140 H     1 <1>   0.0800 
 49 H       -2.7470    -7.2540     2.3230 H     1 <1>   0.0800 
 50 H       -2.0160    -8.5700    -1.5800 H     1 <1>   0.0800 
 51 H       -2.5810    -9.6950     2.0200 H     1 <1>   0.0800 
 52 H       -1.4370    -8.8340     1.0400 H     1 <1>   0.0800 
 53 H       -4.4860    -9.8280    -2.0520 H     1 <1>   0.4000 
 54 H       -2.4300   -10.6040    -0.3060 H     1 <1>   0.0800 
 55 H       -4.0410   -10.0680     0.1180 H     1 <1>   0.0800 
@<TRIPOS>BOND
  1   1   2  1   
  2   1   3  1   
  3   2   4  ar  
  4   2   5  ar  
  5   3   6  1   
  6   3  27  1   
  7   3  28  1   
  8   4   7  ar  
  9   4  29  1   
 10   5   8  ar  
 11   5  30  1   
 12   6   9  1   
 13   6  31  1   
 14   6  32  1   
 15   7  10  ar  
 16   7  33  1   
 17   8  10  ar  
 18   8  34  1   
 19   9  11  1   
 20   9  35  1   
 21  10  12  1   
 22  11  13  ar  
 23  11  14  ar  
 24  12  15  1   
 25  12  36  1   
 26  12  37  1   
 27  13  16  ar  
 28  14  17  ar  
 29  14  38  1   
 30  15  18  1   
 31  15  39  1   
 32  15  40  1   
 33  16  19  1   
 34  16  20  ar  
 35  17  20  ar  
 36  17  41  1   
 37  18  42  1   
 38  18  43  1   
 39  18  44  1   
 40  19  21  1   
 41  19  22  1   
 42  20  45  1   
 43  21  23  1   
 44  21  46  1   
 45  21  47  1   
 46  22  24  1   
 47  22  48  1   
 48  22  49  1   
 49  23  25  1   
 50  23  26  1   
 51  23  50  1   
 52  24  26  1   
 53  24  51  1   
 54  24  52  1   
 55  25  53  1   
 56  26  54  1   
 57  26  55  1   
@<TRIPOS>SUBSTRUCTURE
  1 ****  14 GROUP 4 **** **** 0

# MOE 2024.06 (io_trps.svl 2023.06)
