@<TRIPOS>MOLECULE
NONAME
59 61 1 0 0 
SMALL
USER_CHARGES


@<TRIPOS>ATOM
  1 F       -0.7130     0.7680     0.7390 F     1 <1>  -0.1900 
  2 C       -1.9890     1.0140     0.5790 C.ar  1 <1>   0.1900 
  3 C       -2.4480     2.1400    -0.1110 C.ar  1 <1>   0.0830 
  4 C       -2.8640     0.0990     1.1320 C.ar  1 <1>  -0.1500 
  5 O       -1.6890     3.1090    -0.6990 O.3   1 <1>  -0.3630 
  6 C       -3.8190     2.3100    -0.2230 C.ar  1 <1>  -0.1500 
  7 C       -4.2260     0.3010     1.0030 C.ar  1 <1>  -0.1500 
  8 C       -0.2790     3.0740    -0.7230 C.3   1 <1>   0.0400 
  9 C       -4.7380     1.4090     0.3210 C.ar  1 <1>   0.0530 
 10 C       -6.1580     1.6320     0.1800 C.2   1 <1>   0.0870 
 11 O       -6.6140     2.8370    -0.0570 O.3   1 <1>  -0.0190 
 12 C       -7.2430     0.8150     0.2510 C.2   1 <1>  -0.0860 
 13 N       -7.9150     2.8840    -0.1550 N.2   1 <1>  -0.4100 
 14 C       -8.3210     1.6740     0.0150 C.2   1 <1>   0.3720 
 15 C       -7.3280    -0.5910     0.4880 C.2   1 <1>   0.7160 
 16 N       -9.6720     1.2920    -0.0410 N.pl3 1 <1>  -0.8210 
 17 O       -6.7800    -1.3530    -0.2890 O.2   1 <1>  -0.5700 
 18 N       -7.9910    -1.1150     1.5820 N.am  1 <1>  -0.6600 
 19 C      -10.0230     0.3910    -1.1740 C.3   1 <1>   0.1290 
 20 C      -10.6670     2.3860     0.1390 C.3   1 <1>   0.1290 
 21 C       -8.2810    -2.5700     1.6860 C.3   1 <1>   0.1400 
 22 C       -8.6210    -0.2620     2.6300 C.3   1 <1>   0.0600 
 23 C       -9.6290    -2.8680     1.0260 C.3   1 <1>  -0.1600 
 24 C       -9.9660    -4.3650     1.0950 C.3   1 <1>  -0.1600 
 25 C      -11.3400    -4.6780     0.4820 C.3   1 <1>  -0.0800 
 26 C      -11.6990    -6.1580     0.5770 C.3   1 <1>  -0.1600 
 27 C      -11.4410    -4.3830    -1.0150 C.3   1 <1>  -0.1600 
 28 C      -12.7990    -6.3540    -0.4640 C.3   1 <1>  -0.1600 
 29 C      -12.5650    -5.2840    -1.5360 C.3   1 <1>  -0.1600 
 30 H       -2.4820    -0.7580     1.6560 H     1 <1>   0.1500 
 31 H       -4.1780     3.1730    -0.7550 H     1 <1>   0.1500 
 32 H       -4.8940    -0.4170     1.4420 H     1 <1>   0.1500 
 33 H        0.0670     3.9350    -1.2650 H     1 <1>   0.0800 
 34 H        0.0400     2.1760    -1.2230 H     1 <1>   0.0800 
 35 H        0.0900     3.1060     0.2860 H     1 <1>   0.0800 
 36 H       -9.2090    -0.2750    -1.4010 H     1 <1>   0.0800 
 37 H      -10.2430     0.9720    -2.0530 H     1 <1>   0.0800 
 38 H      -10.8850    -0.1990    -0.9140 H     1 <1>   0.0800 
 39 H      -10.4070     2.9780     0.9990 H     1 <1>   0.0800 
 40 H      -11.6480     1.9710     0.2890 H     1 <1>   0.0800 
 41 H      -10.6770     3.0220    -0.7300 H     1 <1>   0.0800 
 42 H       -8.2980    -2.8630     2.7210 H     1 <1>   0.0800 
 43 H       -7.5050    -3.1350     1.1960 H     1 <1>   0.0800 
 44 H       -8.1340     0.6960     2.6870 H     1 <1>   0.0800 
 45 H       -8.5440    -0.7390     3.5910 H     1 <1>   0.0800 
 46 H       -9.6590    -0.1080     2.3930 H     1 <1>   0.0800 
 47 H       -9.5820    -2.5590    -0.0030 H     1 <1>   0.0800 
 48 H      -10.4020    -2.3060     1.5190 H     1 <1>   0.0800 
 49 H       -9.9680    -4.6800     2.1250 H     1 <1>   0.0800 
 50 H       -9.2050    -4.9260     0.5800 H     1 <1>   0.0800 
 51 H      -12.1020    -4.1140     0.9960 H     1 <1>   0.0800 
 52 H      -12.0260    -6.4320     1.5650 H     1 <1>   0.0800 
 53 H      -10.8470    -6.7580     0.3070 H     1 <1>   0.0800 
 54 H      -10.5200    -4.6550    -1.5010 H     1 <1>   0.0800 
 55 H      -11.6450    -3.3440    -1.2050 H     1 <1>   0.0800 
 56 H      -13.7600    -6.1930    -0.0050 H     1 <1>   0.0800 
 57 H      -12.7730    -7.3470    -0.8790 H     1 <1>   0.0800 
 58 H      -12.2810    -5.7310    -2.4730 H     1 <1>   0.0800 
 59 H      -13.4650    -4.7120    -1.6830 H     1 <1>   0.0800 
@<TRIPOS>BOND
  1   1   2  1   
  2   2   3  ar  
  3   2   4  ar  
  4   3   5  1   
  5   3   6  ar  
  6   4   7  ar  
  7   4  30  1   
  8   5   8  1   
  9   6   9  ar  
 10   6  31  1   
 11   7   9  ar  
 12   7  32  1   
 13   8  33  1   
 14   8  34  1   
 15   8  35  1   
 16   9  10  1   
 17  10  11  1   
 18  10  12  2   
 19  11  13  1   
 20  12  14  1   
 21  12  15  1   
 22  13  14  2   
 23  14  16  1   
 24  15  17  2   
 25  15  18  am  
 26  16  19  1   
 27  16  20  1   
 28  18  21  1   
 29  18  22  1   
 30  19  36  1   
 31  19  37  1   
 32  19  38  1   
 33  20  39  1   
 34  20  40  1   
 35  20  41  1   
 36  21  23  1   
 37  21  42  1   
 38  21  43  1   
 39  22  44  1   
 40  22  45  1   
 41  22  46  1   
 42  23  24  1   
 43  23  47  1   
 44  23  48  1   
 45  24  25  1   
 46  24  49  1   
 47  24  50  1   
 48  25  26  1   
 49  25  27  1   
 50  25  51  1   
 51  26  28  1   
 52  26  52  1   
 53  26  53  1   
 54  27  29  1   
 55  27  54  1   
 56  27  55  1   
 57  28  29  1   
 58  28  56  1   
 59  28  57  1   
 60  29  58  1   
 61  29  59  1   
@<TRIPOS>SUBSTRUCTURE
  1 ****  15 GROUP 4 **** **** 0

# MOE 2024.06 (io_trps.svl 2023.06)
