@<TRIPOS>MOLECULE
NONAME
28 28 1 0 0 
SMALL
USER_CHARGES


@<TRIPOS>ATOM
  1 O        1.0970    -0.2750    -1.4120 O.2   1 <1>  -0.5700 
  2 C        1.5150    -0.8500    -0.4250 C.2   1 <1>   0.6340 
  3 O        2.0730    -0.1300     0.5540 O.3   1 <1>  -0.4300 
  4 C        1.4010    -2.2770    -0.2290 C.ar  1 <1>   0.0860 
  5 C        2.2380     1.2690     0.4470 C.3   1 <1>   0.0400 
  6 C        2.5630    -3.0600    -0.1720 C.ar  1 <1>   0.0830 
  7 C        0.1510    -2.9070    -0.0930 C.ar  1 <1>  -0.1440 
  8 O        3.7560    -2.4330    -0.3230 O.3   1 <1>  -0.3630 
  9 C        2.4770    -4.4350     0.0210 C.ar  1 <1>  -0.1500 
 10 C        0.0920    -4.2810     0.0920 C.ar  1 <1>  -0.1500 
 11 C       -1.1230    -2.0520    -0.1590 C.3   1 <1>  -0.0170 
 12 C        4.9920    -3.1110    -0.2820 C.3   1 <1>   0.0400 
 13 C        1.2460    -5.0410     0.1520 C.ar  1 <1>  -0.1500 
 14 C       -2.4200    -2.7450     0.2740 C.3   1 <1>  -0.2400 
 15 H        2.7130     1.6250     1.3430 H     1 <1>   0.0800 
 16 H        1.2700     1.7250     0.3300 H     1 <1>   0.0800 
 17 H        2.8550     1.4790    -0.4100 H     1 <1>   0.0800 
 18 H        3.3550    -5.0510     0.0700 H     1 <1>   0.1500 
 19 H       -0.8470    -4.7930     0.1930 H     1 <1>   0.1500 
 20 H       -1.2440    -1.6950    -1.1680 H     1 <1>   0.0800 
 21 H       -0.9930    -1.1890     0.4720 H     1 <1>   0.0800 
 22 H        5.7730    -2.3870    -0.4230 H     1 <1>   0.0800 
 23 H        5.0180    -3.8360    -1.0760 H     1 <1>   0.0800 
 24 H        5.1000    -3.5830     0.6780 H     1 <1>   0.0800 
 25 H        1.1790    -6.1050     0.2980 H     1 <1>   0.1500 
 26 H       -2.6650    -3.5460    -0.4010 H     1 <1>   0.0800 
 27 H       -3.2300    -2.0380     0.2620 H     1 <1>   0.0800 
 28 H       -2.3230    -3.1340     1.2720 H     1 <1>   0.0800 
@<TRIPOS>BOND
  1   1   2  2   
  2   2   3  1   
  3   2   4  1   
  4   3   5  1   
  5   4   6  ar  
  6   4   7  ar  
  7   5  15  1   
  8   5  16  1   
  9   5  17  1   
 10   6   8  1   
 11   6   9  ar  
 12   7  10  ar  
 13   7  11  1   
 14   8  12  1   
 15   9  13  ar  
 16   9  18  1   
 17  10  13  ar  
 18  10  19  1   
 19  11  14  1   
 20  11  20  1   
 21  11  21  1   
 22  12  22  1   
 23  12  23  1   
 24  12  24  1   
 25  13  25  1   
 26  14  26  1   
 27  14  27  1   
 28  14  28  1   
@<TRIPOS>SUBSTRUCTURE
  1 ****   4 GROUP 4 **** **** 0

# MOE 2024.06 (io_trps.svl 2023.06)
