@<TRIPOS>MOLECULE
NONAME
42 43 1 0 0 
SMALL
USER_CHARGES


@<TRIPOS>ATOM
  1 O       -0.0030    -2.9500    -1.5790 O.2   1 <1>  -0.5700 
  2 C        0.8810    -2.4510    -0.8940 C.2   1 <1>   0.6900 
  3 N        1.1150    -2.7320     0.4220 N.am  1 <1>  -0.4690 
  4 N        1.7850    -1.5460    -1.3210 N.am  1 <1>  -0.5390 
  5 C        2.2020    -1.9500     0.8100 C.2   1 <1>  -0.0410 
  6 C        0.3070    -3.6030     1.3070 C.3   1 <1>   0.1400 
  7 C        2.6100    -1.2310    -0.2500 C.2   1 <1>  -0.0410 
  8 C        0.0750    -4.9910     0.6760 C.3   1 <1>   0.3430 
  9 N       -1.3760    -5.3740     0.5860 N.4   1 <1>  -0.9590 
 10 C       -1.4980    -6.8340     0.2440 C.3   1 <1>   0.3430 
 11 C       -2.0920    -4.5450    -0.4360 C.3   1 <1>   0.3430 
 12 C       -2.9620    -7.3030     0.1640 C.3   1 <1>   0.2000 
 13 C       -3.5730    -4.9280    -0.4760 C.3   1 <1>  -0.1600 
 14 O       -2.9350    -8.6050    -0.3170 O.3   1 <1>  -0.5600 
 15 C       -3.7740    -6.4180    -0.7940 C.3   1 <1>  -0.1600 
 16 C       -4.0780    -9.3700    -0.0870 C.3   1 <1>   0.1200 
 17 C       -3.8090   -10.7770    -0.6150 C.3   1 <1>  -0.1600 
 18 C       -5.0190   -11.6940    -0.4020 C.3   1 <1>  -0.2400 
 19 H        1.8020    -1.1800    -2.2740 H     1 <1>   0.3700 
 20 H        2.5970    -1.9650     1.8130 H     1 <1>   0.1500 
 21 H       -0.6270    -3.1100     1.5080 H     1 <1>   0.0800 
 22 H        0.8320    -3.7240     2.2380 H     1 <1>   0.0800 
 23 H        3.4160    -0.5190    -0.3350 H     1 <1>   0.1500 
 24 H        0.5960    -5.7210     1.2730 H     1 <1>   0.0800 
 25 H        0.5090    -5.0060    -0.3110 H     1 <1>   0.0800 
 26 H       -1.8300    -5.2200     1.4940 H     1 <1>   0.4500 
 27 H       -0.9870    -7.4290     0.9820 H     1 <1>   0.0800 
 28 H       -1.0390    -7.0130    -0.7150 H     1 <1>   0.0800 
 29 H       -1.6520    -4.7050    -1.4090 H     1 <1>   0.0800 
 30 H       -1.9950    -3.4960    -0.2030 H     1 <1>   0.0800 
 31 H       -3.3910    -7.3070     1.1520 H     1 <1>   0.0800 
 32 H       -4.0600    -4.3380    -1.2330 H     1 <1>   0.0800 
 33 H       -4.0330    -4.6830     0.4660 H     1 <1>   0.0800 
 34 H       -4.8220    -6.6550    -0.7210 H     1 <1>   0.0800 
 35 H       -3.4530    -6.6080    -1.8050 H     1 <1>   0.0800 
 36 H       -4.9120    -8.9310    -0.6070 H     1 <1>   0.0800 
 37 H       -4.2760    -9.3980     0.9720 H     1 <1>   0.0800 
 38 H       -2.9570   -11.1920    -0.1050 H     1 <1>   0.0800 
 39 H       -3.5880   -10.7240    -1.6670 H     1 <1>   0.0800 
 40 H       -5.2500   -11.7780     0.6460 H     1 <1>   0.0800 
 41 H       -4.8050   -12.6770    -0.7830 H     1 <1>   0.0800 
 42 H       -5.8810   -11.3090    -0.9190 H     1 <1>   0.0800 
@<TRIPOS>BOND
  1   1   2  2   
  2   2   3  am  
  3   2   4  am  
  4   3   5  1   
  5   3   6  1   
  6   4   7  1   
  7   4  19  1   
  8   5   7  2   
  9   5  20  1   
 10   6   8  1   
 11   6  21  1   
 12   6  22  1   
 13   7  23  1   
 14   8   9  1   
 15   8  24  1   
 16   8  25  1   
 17   9  10  1   
 18   9  11  1   
 19   9  26  1   
 20  10  12  1   
 21  10  27  1   
 22  10  28  1   
 23  11  13  1   
 24  11  29  1   
 25  11  30  1   
 26  12  14  1   
 27  12  15  1   
 28  12  31  1   
 29  13  15  1   
 30  13  32  1   
 31  13  33  1   
 32  14  16  1   
 33  15  34  1   
 34  15  35  1   
 35  16  17  1   
 36  16  36  1   
 37  16  37  1   
 38  17  18  1   
 39  17  38  1   
 40  17  39  1   
 41  18  40  1   
 42  18  41  1   
 43  18  42  1   
@<TRIPOS>SUBSTRUCTURE
  1 ****   9 GROUP 4 **** **** 0

# MOE 2024.06 (io_trps.svl 2023.06)
