@<TRIPOS>MOLECULE
NONAME
50 53 1 0 0 
SMALL
USER_CHARGES


@<TRIPOS>ATOM
  1 O       -1.2320     0.2170     0.4530 O.2   1 <1>  -0.5700 
  2 C       -2.0500     1.0870     0.7070 C.2   1 <1>   0.7150 
  3 N       -3.3290     0.6760     1.0210 N.am  1 <1>  -0.6600 
  4 C       -1.6500     2.4730     0.6390 C.2   1 <1>   0.0550 
  5 C       -3.5880    -0.7290     1.4530 C.3   1 <1>   0.1400 
  6 C       -4.5450     1.3580     0.4910 C.3   1 <1>   0.1400 
  7 O       -2.3760     3.4210     1.2120 O.3   1 <1>  -0.0190 
  8 C       -0.5670     3.0240     0.0620 C.2   1 <1>  -0.1500 
  9 C       -4.0590    -1.5490     0.2290 C.3   1 <1>   0.4230 
 10 C       -5.0770     0.5530    -0.7050 C.3   1 <1>  -0.1600 
 11 N       -1.7770     4.5640     0.9900 N.2   1 <1>  -0.4100 
 12 C       -0.6880     4.3760     0.3130 C.2   1 <1>   0.2350 
 13 N       -4.2470    -3.0150     0.4970 N.4   1 <1>  -0.9590 
 14 C       -5.3570    -0.9350    -0.3430 C.3   1 <1>  -0.1060 
 15 C        0.2290     5.4190    -0.1080 C.ar  1 <1>   0.0540 
 16 C       -4.5810    -3.7680    -0.7390 C.3   1 <1>   0.3430 
 17 C       -3.1620    -3.6650     1.2790 C.3   1 <1>   0.2630 
 18 C       -6.4630    -1.0350     0.7260 C.2   1 <1>   0.9060 
 19 C       -5.7660    -1.6940    -1.6270 C.3   1 <1>  -0.1600 
 20 C        1.5460     5.1370    -0.4760 C.ar  1 <1>  -0.1500 
 21 C       -0.1770     6.7520    -0.1600 C.ar  1 <1>  -0.1500 
 22 C       -5.8530    -3.2080    -1.3820 C.3   1 <1>  -0.1600 
 23 O       -6.4440    -1.9890     1.5210 O.co2 1 <1>  -0.9000 
 24 O       -7.3320    -0.1680     0.7810 O.co2 1 <1>  -0.9000 
 25 C        2.4110     6.1370    -0.8840 C.ar  1 <1>  -0.1500 
 26 C        0.6830     7.7570    -0.5650 C.ar  1 <1>  -0.1500 
 27 C        1.9810     7.4500    -0.9300 C.ar  1 <1>  -0.1500 
 28 H       -2.6840    -1.1430     1.8600 H     1 <1>   0.0800 
 29 H       -4.3360    -0.7280     2.2280 H     1 <1>   0.0800 
 30 H       -5.2930     1.4150     1.2660 H     1 <1>   0.0800 
 31 H       -4.3250     2.3610     0.1720 H     1 <1>   0.0800 
 32 H        0.2190     2.5310    -0.4780 H     1 <1>   0.1500 
 33 H       -3.2890    -1.4500    -0.5170 H     1 <1>   0.0800 
 34 H       -5.9870     1.0160    -1.0500 H     1 <1>   0.0800 
 35 H       -4.3620     0.6180    -1.5070 H     1 <1>   0.0800 
 36 H       -5.1310    -2.9950     1.0760 H     1 <1>   0.4500 
 37 H       -3.7640    -3.6950    -1.4370 H     1 <1>   0.0800 
 38 H       -4.7370    -4.8080    -0.5020 H     1 <1>   0.0800 
 39 H       -2.2250    -3.5880     0.7530 H     1 <1>   0.0800 
 40 H       -3.3930    -4.7050     1.4380 H     1 <1>   0.0800 
 41 H       -3.0640    -3.1910     2.2420 H     1 <1>   0.0800 
 42 H       -6.7240    -1.3300    -1.9650 H     1 <1>   0.0800 
 43 H       -5.0490    -1.5050    -2.4080 H     1 <1>   0.0800 
 44 H        1.9080     4.1260    -0.4410 H     1 <1>   0.1500 
 45 H       -1.1840     7.0050     0.1230 H     1 <1>   0.1500 
 46 H       -6.0280    -3.7110    -2.3160 H     1 <1>   0.0800 
 47 H       -6.6920    -3.4250    -0.7420 H     1 <1>   0.0800 
 48 H        3.4220     5.8950    -1.1630 H     1 <1>   0.1500 
 49 H        0.3420     8.7770    -0.5960 H     1 <1>   0.1500 
 50 H        2.6520     8.2300    -1.2460 H     1 <1>   0.1500 
@<TRIPOS>BOND
  1   1   2  2   
  2   2   3  am  
  3   2   4  1   
  4   3   5  1   
  5   3   6  1   
  6   4   7  1   
  7   4   8  2   
  8   5   9  1   
  9   5  28  1   
 10   5  29  1   
 11   6  10  1   
 12   6  30  1   
 13   6  31  1   
 14   7  11  1   
 15   8  12  1   
 16   8  32  1   
 17   9  13  1   
 18   9  14  1   
 19   9  33  1   
 20  10  14  1   
 21  10  34  1   
 22  10  35  1   
 23  11  12  2   
 24  12  15  1   
 25  13  16  1   
 26  13  17  1   
 27  13  36  1   
 28  14  18  1   
 29  14  19  1   
 30  15  20  ar  
 31  15  21  ar  
 32  16  22  1   
 33  16  37  1   
 34  16  38  1   
 35  17  39  1   
 36  17  40  1   
 37  17  41  1   
 38  18  23  ar  
 39  18  24  ar  
 40  19  22  1   
 41  19  42  1   
 42  19  43  1   
 43  20  25  ar  
 44  20  44  1   
 45  21  26  ar  
 46  21  45  1   
 47  22  46  1   
 48  22  47  1   
 49  25  27  ar  
 50  25  48  1   
 51  26  27  ar  
 52  26  49  1   
 53  27  50  1   
@<TRIPOS>SUBSTRUCTURE
  1 ****   2 GROUP 4 **** **** 0

# MOE 2024.06 (io_trps.svl 2023.06)
