@<TRIPOS>MOLECULE
NONAME
55 56 1 0 0 
SMALL
USER_CHARGES


@<TRIPOS>ATOM
  1 S       -1.0400    -0.6450     0.5410 S.o2  1 <1>   1.3330 
  2 O       -2.4190    -0.6430     0.1080 O.2   1 <1>  -0.6500 
  3 O       -0.7150    -0.3390     1.9090 O.2   1 <1>  -0.6500 
  4 N       -0.4930    -2.2610     0.2590 N.am  1 <1>  -0.6930 
  5 C       -0.0660     0.3410    -0.5790 C.3   1 <1>  -0.1350 
  6 C        0.8600    -2.5420     0.1020 C.ar  1 <1>   0.1990 
  7 C       -1.2620    -3.2820     1.0370 C.3   1 <1>   0.2570 
  8 C        1.7990    -2.1670     1.0570 C.ar  1 <1>  -0.1500 
  9 C        1.2930    -3.2190    -1.0350 C.ar  1 <1>  -0.1500 
 10 C       -1.5820    -4.5900     0.2960 C.2   1 <1>   0.5690 
 11 C        3.1280    -2.4660     0.8410 C.ar  1 <1>   0.1900 
 12 C        2.6320    -3.5130    -1.2340 C.ar  1 <1>  -0.1500 
 13 O       -1.0830    -5.5890     0.7570 O.2   1 <1>  -0.5700 
 14 N       -2.4070    -4.6630    -0.8090 N.am  1 <1>  -0.6600 
 15 F        4.0060    -2.1060     1.7380 F     1 <1>  -0.1900 
 16 C        3.5680    -3.1310    -0.2870 C.ar  1 <1>  -0.1500 
 17 C       -2.7140    -6.0230    -1.3680 C.3   1 <1>   0.3210 
 18 C       -2.7740    -3.5040    -1.6920 C.3   1 <1>   0.1400 
 19 C       -3.8530    -6.6970    -0.6040 C.2   1 <1>   0.0460 
 20 C       -4.2840    -3.3560    -1.9820 C.3   1 <1>   0.3430 
 21 N       -5.1390    -6.3100    -0.7610 N.2   1 <1>  -0.5650 
 22 C       -3.7710    -7.7270     0.2730 C.2   1 <1>  -0.3320 
 23 N       -5.1450    -3.4460    -0.7660 N.4   1 <1>  -0.9590 
 24 C       -5.8020    -7.1140     0.0070 C.2   1 <1>   0.0360 
 25 N       -5.0270    -7.9970     0.6670 N.pl3 1 <1>   0.0330 
 26 C       -2.5750    -8.5110     0.7930 C.3   1 <1>  -0.0600 
 27 C       -6.5850    -3.5060    -1.1430 C.3   1 <1>   0.2630 
 28 C       -4.8940    -2.3660     0.2320 C.3   1 <1>   0.2630 
 29 H       -0.3670     1.3680    -0.5200 H     1 <1>   0.0800 
 30 H       -0.1970     0.0010    -1.5870 H     1 <1>   0.0800 
 31 H        0.9740     0.2790    -0.3250 H     1 <1>   0.0800 
 32 H       -2.1850    -2.8630     1.3880 H     1 <1>   0.0800 
 33 H       -0.6930    -3.5330     1.9160 H     1 <1>   0.0800 
 34 H        1.5060    -1.6580     1.9570 H     1 <1>   0.1500 
 35 H        0.5700    -3.5230    -1.7700 H     1 <1>   0.1500 
 36 H        2.9470    -4.0390    -2.1200 H     1 <1>   0.1500 
 37 H        4.6150    -3.3460    -0.4150 H     1 <1>   0.1500 
 38 H       -1.8350    -6.6400    -1.3140 H     1 <1>   0.0800 
 39 H       -2.9850    -5.9520    -2.4050 H     1 <1>   0.0800 
 40 H       -2.2600    -3.6170    -2.6310 H     1 <1>   0.0800 
 41 H       -2.4290    -2.5870    -1.2720 H     1 <1>   0.0800 
 42 H       -4.5690    -4.1390    -2.6650 H     1 <1>   0.0800 
 43 H       -4.4540    -2.4140    -2.4770 H     1 <1>   0.0800 
 44 H       -4.9130    -4.3800    -0.3530 H     1 <1>   0.4500 
 45 H       -6.8720    -7.1070     0.1260 H     1 <1>   0.1500 
 46 H       -5.3300    -8.7240     1.3220 H     1 <1>   0.2700 
 47 H       -1.6630    -8.1750     0.3350 H     1 <1>   0.0800 
 48 H       -2.6940    -9.5590     0.5820 H     1 <1>   0.0800 
 49 H       -2.4810    -8.3770     1.8560 H     1 <1>   0.0800 
 50 H       -6.8850    -2.5970    -1.6370 H     1 <1>   0.0800 
 51 H       -7.1930    -3.6430    -0.2630 H     1 <1>   0.0800 
 52 H       -6.7570    -4.3400    -1.8050 H     1 <1>   0.0800 
 53 H       -5.0810    -1.3980    -0.2020 H     1 <1>   0.0800 
 54 H       -3.8720    -2.3960     0.5620 H     1 <1>   0.0800 
 55 H       -5.5330    -2.4930     1.0900 H     1 <1>   0.0800 
@<TRIPOS>BOND
  1   1   2  2   
  2   1   3  2   
  3   1   4  am  
  4   1   5  1   
  5   4   6  1   
  6   4   7  1   
  7   5  29  1   
  8   5  30  1   
  9   5  31  1   
 10   6   8  ar  
 11   6   9  ar  
 12   7  10  1   
 13   7  32  1   
 14   7  33  1   
 15   8  11  ar  
 16   8  34  1   
 17   9  12  ar  
 18   9  35  1   
 19  10  13  2   
 20  10  14  am  
 21  11  15  1   
 22  11  16  ar  
 23  12  16  ar  
 24  12  36  1   
 25  14  17  1   
 26  14  18  1   
 27  16  37  1   
 28  17  19  1   
 29  17  38  1   
 30  17  39  1   
 31  18  20  1   
 32  18  40  1   
 33  18  41  1   
 34  19  21  1   
 35  19  22  2   
 36  20  23  1   
 37  20  42  1   
 38  20  43  1   
 39  21  24  2   
 40  22  25  1   
 41  22  26  1   
 42  23  27  1   
 43  23  28  1   
 44  23  44  1   
 45  24  25  1   
 46  24  45  1   
 47  25  46  1   
 48  26  47  1   
 49  26  48  1   
 50  26  49  1   
 51  27  50  1   
 52  27  51  1   
 53  27  52  1   
 54  28  53  1   
 55  28  54  1   
 56  28  55  1   
@<TRIPOS>SUBSTRUCTURE
  1 ****  10 GROUP 4 **** **** 0

# MOE 2024.06 (io_trps.svl 2023.06)
