@<TRIPOS>MOLECULE
NONAME
50 52 1 0 0 
SMALL
USER_CHARGES


@<TRIPOS>ATOM
  1 O       -0.8120    -0.9190    -0.5530 O.2   1 <1>  -0.5700 
  2 C        0.0010    -1.7640    -0.2720 C.2   1 <1>   0.5690 
  3 N       -0.3260    -2.9800     0.2630 N.am  1 <1>  -0.6600 
  4 C        1.4700    -1.4790    -0.5120 C.3   1 <1>  -0.0990 
  5 C        0.7270    -3.9690     0.5960 C.3   1 <1>   0.1400 
  6 C       -1.7300    -3.3590     0.5830 C.3   1 <1>   0.0600 
  7 C        2.1540    -2.6910    -1.1730 C.3   1 <1>  -0.0800 
  8 C        1.7540    -4.0500    -0.5520 C.3   1 <1>  -0.0800 
  9 C        3.6860    -2.6240    -1.1270 C.3   1 <1>  -0.1600 
 10 C        3.0680    -4.7330    -0.1440 C.3   1 <1>  -0.1600 
 11 C        4.1220    -4.0830    -1.0370 C.3   1 <1>   0.4230 
 12 N        5.5200    -4.2730    -0.5590 N.4   1 <1>  -0.9590 
 13 C        5.8860    -3.6430     0.7520 C.3   1 <1>   0.4860 
 14 C        5.9720    -5.6920    -0.6420 C.3   1 <1>   0.2630 
 15 C        6.5950    -2.3150     0.4870 C.ar  1 <1>   0.1670 
 16 N        7.2570    -2.2130    -0.6630 N.ar  1 <1>  -0.6200 
 17 C        6.5080    -1.2970     1.4250 C.ar  1 <1>  -0.1500 
 18 C        7.8630    -1.0520    -0.8720 C.ar  1 <1>   0.1600 
 19 C        7.1390    -0.0960     1.1840 C.ar  1 <1>  -0.1500 
 20 C        7.8360     0.0250     0.0000 C.ar  1 <1>  -0.1440 
 21 C        8.5660     1.3170    -0.3360 C.3   1 <1>  -0.0170 
 22 C       10.0010     1.2770     0.1930 C.3   1 <1>  -0.2400 
 23 H        1.5670    -0.6110    -1.1390 H     1 <1>   0.0800 
 24 H        1.9140    -1.2570     0.4400 H     1 <1>   0.0800 
 25 H        1.2040    -3.6540     1.5090 H     1 <1>   0.0800 
 26 H        0.2860    -4.9380     0.7600 H     1 <1>   0.0800 
 27 H       -2.0080    -4.2350     0.0240 H     1 <1>   0.0800 
 28 H       -2.4050    -2.5600     0.3270 H     1 <1>   0.0800 
 29 H       -1.8230    -3.5620     1.6350 H     1 <1>   0.0800 
 30 H        1.8440    -2.7090    -2.2060 H     1 <1>   0.0800 
 31 H        1.3020    -4.6390    -1.3350 H     1 <1>   0.0800 
 32 H        3.9850    -2.0730    -0.2550 H     1 <1>   0.0800 
 33 H        4.0830    -2.1450    -2.0050 H     1 <1>   0.0800 
 34 H        3.0110    -5.7960    -0.3010 H     1 <1>   0.0800 
 35 H        3.2690    -4.5300     0.8920 H     1 <1>   0.0800 
 36 H        4.0280    -4.5090    -2.0240 H     1 <1>   0.0800 
 37 H        6.1220    -3.7170    -1.2020 H     1 <1>   0.4500 
 38 H        5.0130    -3.4820     1.3600 H     1 <1>   0.0800 
 39 H        6.5670    -4.2830     1.2880 H     1 <1>   0.0800 
 40 H        5.4210    -6.3040     0.0540 H     1 <1>   0.0800 
 41 H        7.0230    -5.7620    -0.4110 H     1 <1>   0.0800 
 42 H        5.8170    -6.0750    -1.6380 H     1 <1>   0.0800 
 43 H        5.9590    -1.4260     2.3410 H     1 <1>   0.1500 
 44 H        8.4160    -0.9500    -1.7910 H     1 <1>   0.1500 
 45 H        7.0930     0.7130     1.8940 H     1 <1>   0.1500 
 46 H        8.5800     1.4640    -1.4020 H     1 <1>   0.0800 
 47 H        8.0470     2.1530     0.1000 H     1 <1>   0.0800 
 48 H       10.5410     0.4580    -0.2490 H     1 <1>   0.0800 
 49 H       10.0020     1.1530     1.2620 H     1 <1>   0.0800 
 50 H       10.5100     2.1940    -0.0470 H     1 <1>   0.0800 
@<TRIPOS>BOND
  1   1   2  2   
  2   2   3  am  
  3   2   4  1   
  4   3   5  1   
  5   3   6  1   
  6   4   7  1   
  7   4  23  1   
  8   4  24  1   
  9   5   8  1   
 10   5  25  1   
 11   5  26  1   
 12   6  27  1   
 13   6  28  1   
 14   6  29  1   
 15   7   8  1   
 16   7   9  1   
 17   7  30  1   
 18   8  10  1   
 19   8  31  1   
 20   9  11  1   
 21   9  32  1   
 22   9  33  1   
 23  10  11  1   
 24  10  34  1   
 25  10  35  1   
 26  11  12  1   
 27  11  36  1   
 28  12  13  1   
 29  12  14  1   
 30  12  37  1   
 31  13  15  1   
 32  13  38  1   
 33  13  39  1   
 34  14  40  1   
 35  14  41  1   
 36  14  42  1   
 37  15  16  ar  
 38  15  17  ar  
 39  16  18  ar  
 40  17  19  ar  
 41  17  43  1   
 42  18  20  ar  
 43  18  44  1   
 44  19  20  ar  
 45  19  45  1   
 46  20  21  1   
 47  21  22  1   
 48  21  46  1   
 49  21  47  1   
 50  22  48  1   
 51  22  49  1   
 52  22  50  1   
@<TRIPOS>SUBSTRUCTURE
  1 ****   9 GROUP 4 **** **** 0

# MOE 2024.06 (io_trps.svl 2023.06)
