@<TRIPOS>MOLECULE
NONAME
46 48 1 0 0 
SMALL
USER_CHARGES


@<TRIPOS>ATOM
  1 O        1.8530     0.1980     0.7960 O.2   1 <1>  -0.5700 
  2 C        2.4790    -0.8460     0.8270 C.2   1 <1>   0.5440 
  3 N        3.8140    -0.7590     1.1450 N.am  1 <1>  -0.6600 
  4 C        1.8540    -2.1050     0.4610 C.ar  1 <1>   0.0860 
  5 C        4.3060     0.3310     2.0680 C.3   1 <1>   0.1400 
  6 C        4.8430    -1.4200     0.2840 C.3   1 <1>   0.1400 
  7 C        0.8720    -2.1570    -0.5240 C.ar  1 <1>  -0.1500 
  8 C        2.2150    -3.3070     1.0700 C.ar  1 <1>  -0.1500 
  9 C        4.8350     1.5790     1.3140 C.3   1 <1>   0.4230 
 10 C        5.6200    -0.4510    -0.6440 C.3   1 <1>  -0.0800 
 11 C        0.2940    -3.3560    -0.8950 C.ar  1 <1>   0.0830 
 12 C        1.6350    -4.5090     0.7030 C.ar  1 <1>  -0.1500 
 13 N        4.1940     1.6080    -0.0510 N.4   1 <1>  -0.9590 
 14 C        6.3850     1.6340     1.3410 C.3   1 <1>   0.1200 
 15 C        7.0200    -0.1070    -0.1110 C.3   1 <1>   0.1200 
 16 C        4.8930     0.8250    -1.1150 C.3   1 <1>   0.3430 
 17 O       -0.6370    -3.3390    -1.8590 O.3   1 <1>  -0.5330 
 18 C        0.6670    -4.5490    -0.2880 C.ar  1 <1>  -0.1430 
 19 C        3.9560     3.0360    -0.5170 C.3   1 <1>   0.2370 
 20 O        6.9610     0.3660     1.1900 O.3   1 <1>  -0.5600 
 21 C        0.0410    -5.8810    -0.6810 C.3   1 <1>  -0.0970 
 22 C        5.2230     3.8800    -0.6600 C.2   1 <1>   0.9060 
 23 O        5.9070     3.7320    -1.6770 O.co2 1 <1>  -0.9000 
 24 O        5.5880     4.5350     0.3200 O.co2 1 <1>  -0.9000 
 25 H        3.4910     0.6450     2.6960 H     1 <1>   0.0800 
 26 H        5.0620    -0.0640     2.7250 H     1 <1>   0.0800 
 27 H        5.5340    -1.9520     0.9160 H     1 <1>   0.0800 
 28 H        4.3570    -2.1540    -0.3360 H     1 <1>   0.0800 
 29 H        0.5510    -1.2520    -1.0080 H     1 <1>   0.1500 
 30 H        2.9600    -3.2980     1.8460 H     1 <1>   0.1500 
 31 H        4.4980     2.4500     1.8510 H     1 <1>   0.0800 
 32 H        5.8180    -1.0040    -1.5450 H     1 <1>   0.0800 
 33 H        1.9410    -5.4150     1.1970 H     1 <1>   0.1500 
 34 H        3.2750     1.1490     0.1100 H     1 <1>   0.4500 
 35 H        6.6920     1.9920     2.3070 H     1 <1>   0.0800 
 36 H        6.7920     2.3060     0.6070 H     1 <1>   0.0800 
 37 H        7.5130     0.6280    -0.7280 H     1 <1>   0.0800 
 38 H        7.6310    -0.9930    -0.0920 H     1 <1>   0.0800 
 39 H        4.1680     0.5530    -1.8630 H     1 <1>   0.0800 
 40 H        5.6200     1.4610    -1.5980 H     1 <1>   0.0800 
 41 H       -1.0150    -4.2190    -2.0290 H     1 <1>   0.4500 
 42 H        3.4670     3.0300    -1.4740 H     1 <1>   0.0800 
 43 H        3.3180     3.5430     0.1840 H     1 <1>   0.0800 
 44 H        0.4660    -6.6880    -0.1120 H     1 <1>   0.0800 
 45 H        0.2140    -6.0780    -1.7240 H     1 <1>   0.0800 
 46 H       -1.0180    -5.8600    -0.4940 H     1 <1>   0.0800 
@<TRIPOS>BOND
  1   1   2  2   
  2   2   3  am  
  3   2   4  1   
  4   3   5  1   
  5   3   6  1   
  6   4   7  ar  
  7   4   8  ar  
  8   5   9  1   
  9   5  25  1   
 10   5  26  1   
 11   6  10  1   
 12   6  27  1   
 13   6  28  1   
 14   7  11  ar  
 15   7  29  1   
 16   8  12  ar  
 17   8  30  1   
 18   9  13  1   
 19   9  14  1   
 20   9  31  1   
 21  10  15  1   
 22  10  16  1   
 23  10  32  1   
 24  11  17  1   
 25  11  18  ar  
 26  12  18  ar  
 27  12  33  1   
 28  13  16  1   
 29  13  19  1   
 30  13  34  1   
 31  14  20  1   
 32  14  35  1   
 33  14  36  1   
 34  15  20  1   
 35  15  37  1   
 36  15  38  1   
 37  16  39  1   
 38  16  40  1   
 39  17  41  1   
 40  18  21  1   
 41  19  22  1   
 42  19  42  1   
 43  19  43  1   
 44  21  44  1   
 45  21  45  1   
 46  21  46  1   
 47  22  23  ar  
 48  22  24  ar  
@<TRIPOS>SUBSTRUCTURE
  1 ****   3 GROUP 4 **** **** 0

# MOE 2024.06 (io_trps.svl 2023.06)
