@<TRIPOS>MOLECULE
NONAME
57 59 1 0 0 
SMALL
USER_CHARGES


@<TRIPOS>ATOM
  1 O        1.0610    -0.4990     2.1190 O.2   1 <1>  -0.5700 
  2 C        1.4900    -0.4070     0.9950 C.2   1 <1>   0.5690 
  3 N        2.1230     0.7160     0.5650 N.am  1 <1>  -0.7300 
  4 C        1.2770    -1.6000     0.0450 C.3   1 <1>   0.4040 
  5 C        2.4850     1.8470     1.4430 C.3   1 <1>   0.2840 
  6 N       -0.1150    -1.7580    -0.5560 N.4   1 <1>  -0.9590 
  7 C        3.7670     2.4420     0.8940 C.ar  1 <1>  -0.1430 
  8 C       -1.1650    -1.7550     0.5240 C.3   1 <1>   0.4230 
  9 C       -0.1130    -2.9520    -1.4610 C.3   1 <1>   0.2630 
 10 C        3.7410     3.5870     0.1110 C.ar  1 <1>  -0.1500 
 11 C        4.9790     1.8280     1.1610 C.ar  1 <1>  -0.1500 
 12 C       -2.4140    -2.5880     0.2050 C.3   1 <1>  -0.1600 
 13 C       -1.7540    -0.3440     0.6070 C.3   1 <1>  -0.1600 
 14 C        4.9130     4.1290    -0.4140 C.ar  1 <1>   0.0820 
 15 C        6.1490     2.3530     0.6470 C.ar  1 <1>  -0.1500 
 16 C       -3.2500    -1.7310    -0.7560 C.3   1 <1>  -0.0800 
 17 C       -2.8430    -0.2800    -0.4760 C.3   1 <1>  -0.0800 
 18 O        4.8840     5.2430    -1.2040 O.3   1 <1>  -0.3630 
 19 C        6.1380     3.4970    -0.1340 C.ar  1 <1>   0.0820 
 20 C       -4.7700    -1.8140    -0.5560 C.3   1 <1>  -0.1600 
 21 C       -4.1230     0.4670    -0.0780 C.3   1 <1>  -0.1600 
 22 C        3.7070     5.9890    -1.4250 C.3   1 <1>   0.0400 
 23 O        7.3690     3.8950    -0.5660 O.3   1 <1>  -0.3630 
 24 C       -5.2470    -0.3720    -0.6710 C.3   1 <1>   0.2000 
 25 C        7.6560     5.2420    -0.8690 C.3   1 <1>   0.0400 
 26 O       -6.4060    -0.1950     0.0500 O.3   1 <1>  -0.6800 
 27 H        2.5710     0.7890    -0.3530 H     1 <1>   0.3700 
 28 H        1.5130    -2.4870     0.6060 H     1 <1>   0.0800 
 29 H        1.9990    -1.5200    -0.7480 H     1 <1>   0.0800 
 30 H        1.6940     2.5770     1.4410 H     1 <1>   0.0800 
 31 H        2.6340     1.5050     2.4540 H     1 <1>   0.0800 
 32 H       -0.3170    -0.9240    -1.1220 H     1 <1>   0.4500 
 33 H       -0.7370    -2.0570     1.4680 H     1 <1>   0.0800 
 34 H        0.0430    -3.8540    -0.8920 H     1 <1>   0.0800 
 35 H        0.6700    -2.8680    -2.1970 H     1 <1>   0.0800 
 36 H       -1.0550    -3.0320    -1.9800 H     1 <1>   0.0800 
 37 H        2.7910     4.0450    -0.0860 H     1 <1>   0.1500 
 38 H        5.0210     0.9410     1.7700 H     1 <1>   0.1500 
 39 H       -2.2240    -3.5790    -0.1610 H     1 <1>   0.0800 
 40 H       -2.9510    -2.7010     1.1310 H     1 <1>   0.0800 
 41 H       -2.2010    -0.2410     1.5810 H     1 <1>   0.0800 
 42 H       -1.0300     0.4420     0.4990 H     1 <1>   0.0800 
 43 H        7.0910     1.8770     0.8530 H     1 <1>   0.1500 
 44 H       -3.0110    -1.9680    -1.7790 H     1 <1>   0.0800 
 45 H       -2.4480     0.1490    -1.3820 H     1 <1>   0.0800 
 46 H       -5.0080    -2.1990     0.4200 H     1 <1>   0.0800 
 47 H       -5.2330    -2.4330    -1.3050 H     1 <1>   0.0800 
 48 H       -4.1370     1.4680    -0.4740 H     1 <1>   0.0800 
 49 H       -4.2250     0.5050     0.9920 H     1 <1>   0.0800 
 50 H        3.9630     6.8450    -2.0230 H     1 <1>   0.0800 
 51 H        3.3130     6.3100    -0.4780 H     1 <1>   0.0800 
 52 H        2.9990     5.3760    -1.9540 H     1 <1>   0.0800 
 53 H       -5.4320    -0.1050    -1.6990 H     1 <1>   0.0800 
 54 H        8.7240     5.3620    -0.8800 H     1 <1>   0.0800 
 55 H        7.2220     5.8730    -0.1140 H     1 <1>   0.0800 
 56 H        7.2550     5.4720    -1.8400 H     1 <1>   0.0800 
 57 H       -6.2600    -0.4100     0.9890 H     1 <1>   0.4000 
@<TRIPOS>BOND
  1   1   2  2   
  2   2   3  am  
  3   2   4  1   
  4   3   5  1   
  5   3  27  1   
  6   4   6  1   
  7   4  28  1   
  8   4  29  1   
  9   5   7  1   
 10   5  30  1   
 11   5  31  1   
 12   6   8  1   
 13   6   9  1   
 14   6  32  1   
 15   7  10  ar  
 16   7  11  ar  
 17   8  12  1   
 18   8  13  1   
 19   8  33  1   
 20   9  34  1   
 21   9  35  1   
 22   9  36  1   
 23  10  14  ar  
 24  10  37  1   
 25  11  15  ar  
 26  11  38  1   
 27  12  16  1   
 28  12  39  1   
 29  12  40  1   
 30  13  17  1   
 31  13  41  1   
 32  13  42  1   
 33  14  18  1   
 34  14  19  ar  
 35  15  19  ar  
 36  15  43  1   
 37  16  17  1   
 38  16  20  1   
 39  16  44  1   
 40  17  21  1   
 41  17  45  1   
 42  18  22  1   
 43  19  23  1   
 44  20  24  1   
 45  20  46  1   
 46  20  47  1   
 47  21  24  1   
 48  21  48  1   
 49  21  49  1   
 50  22  50  1   
 51  22  51  1   
 52  22  52  1   
 53  23  25  1   
 54  24  26  1   
 55  24  53  1   
 56  25  54  1   
 57  25  55  1   
 58  25  56  1   
 59  26  57  1   
@<TRIPOS>SUBSTRUCTURE
  1 ****   3 GROUP 4 **** **** 0

# MOE 2024.06 (io_trps.svl 2023.06)
