@<TRIPOS>MOLECULE
NONAME
40 42 1 0 0 
SMALL
USER_CHARGES


@<TRIPOS>ATOM
  1 CL      -0.3300     0.4340    -0.9640 Cl    1 <1>  -0.1770 
  2 C       -0.0120     2.0590    -0.4200 C.ar  1 <1>   0.1770 
  3 C       -0.8650     3.0800    -0.7950 C.ar  1 <1>  -0.1500 
  4 C        1.0890     2.3060     0.3790 C.ar  1 <1>  -0.1500 
  5 C       -0.6060     4.3700    -0.3640 C.ar  1 <1>  -0.1500 
  6 C        1.3380     3.5990     0.8040 C.ar  1 <1>  -0.1500 
  7 C        0.5010     4.6530     0.4380 C.ar  1 <1>   0.0860 
  8 C        0.7900     6.0040     0.8710 C.2   1 <1>   0.5440 
  9 O        0.5800     6.3120     2.0290 O.2   1 <1>  -0.5700 
 10 N        1.3290     6.9530     0.0170 N.am  1 <1>  -0.6600 
 11 C        1.6580     8.3100     0.5610 C.3   1 <1>   0.1400 
 12 C        1.9110     6.5740    -1.3110 C.3   1 <1>   0.1400 
 13 C        3.1500     8.4800     0.9550 C.3   1 <1>   0.4230 
 14 C        3.4180     6.8810    -1.4640 C.3   1 <1>  -0.0800 
 15 N        4.0100     8.9820    -0.1790 N.4   1 <1>  -0.9590 
 16 C        3.8030     7.2270     1.6030 C.3   1 <1>   0.1200 
 17 C        4.3580     6.1190    -0.5030 C.3   1 <1>   0.1200 
 18 C        3.6850     8.3870    -1.5090 C.3   1 <1>   0.3430 
 19 C        3.9990    10.4750    -0.2560 C.3   1 <1>   0.2630 
 20 O        3.8720     6.0710     0.8010 O.3   1 <1>  -0.5600 
 21 H       -1.7180     2.8620    -1.4120 H     1 <1>   0.1500 
 22 H        1.7360     1.4950     0.6620 H     1 <1>   0.1500 
 23 H       -1.2680     5.1720    -0.6440 H     1 <1>   0.1500 
 24 H        2.1910     3.8070     1.4280 H     1 <1>   0.1500 
 25 H        1.3670     9.0620    -0.1490 H     1 <1>   0.0800 
 26 H        1.0660     8.4920     1.4420 H     1 <1>   0.0800 
 27 H        1.7730     5.5220    -1.4890 H     1 <1>   0.0800 
 28 H        1.3590     7.0900    -2.0780 H     1 <1>   0.0800 
 29 H        3.1650     9.2390     1.7190 H     1 <1>   0.0800 
 30 H        3.6710     6.5320    -2.4500 H     1 <1>   0.0800 
 31 H        4.9660     8.6790     0.0550 H     1 <1>   0.4500 
 32 H        3.2280     6.9540     2.4720 H     1 <1>   0.0800 
 33 H        4.7990     7.4570     1.9350 H     1 <1>   0.0800 
 34 H        5.3530     6.5300    -0.4920 H     1 <1>   0.0800 
 35 H        4.4310     5.0940    -0.8280 H     1 <1>   0.0800 
 36 H        2.8190     8.8760    -1.9260 H     1 <1>   0.0800 
 37 H        4.5110     8.5700    -2.1790 H     1 <1>   0.0800 
 38 H        3.0100    10.8330    -0.4910 H     1 <1>   0.0800 
 39 H        4.6790    10.8170    -1.0200 H     1 <1>   0.0800 
 40 H        4.3050    10.9020     0.6870 H     1 <1>   0.0800 
@<TRIPOS>BOND
  1   1   2  1   
  2   2   3  ar  
  3   2   4  ar  
  4   3   5  ar  
  5   3  21  1   
  6   4   6  ar  
  7   4  22  1   
  8   5   7  ar  
  9   5  23  1   
 10   6   7  ar  
 11   6  24  1   
 12   7   8  1   
 13   8   9  2   
 14   8  10  am  
 15  10  11  1   
 16  10  12  1   
 17  11  13  1   
 18  11  25  1   
 19  11  26  1   
 20  12  14  1   
 21  12  27  1   
 22  12  28  1   
 23  13  15  1   
 24  13  16  1   
 25  13  29  1   
 26  14  17  1   
 27  14  18  1   
 28  14  30  1   
 29  15  18  1   
 30  15  19  1   
 31  15  31  1   
 32  16  20  1   
 33  16  32  1   
 34  16  33  1   
 35  17  20  1   
 36  17  34  1   
 37  17  35  1   
 38  18  36  1   
 39  18  37  1   
 40  19  38  1   
 41  19  39  1   
 42  19  40  1   
@<TRIPOS>SUBSTRUCTURE
  1 ****  10 GROUP 4 **** **** 0

# MOE 2024.06 (io_trps.svl 2023.06)
