@<TRIPOS>MOLECULE
NONAME
46 48 1 0 0 
SMALL
USER_CHARGES


@<TRIPOS>ATOM
  1 O       -0.3000     0.1700    -0.0360 O.2   1 <1>  -0.5700 
  2 C       -1.3400     0.7850    -0.0680 C.2   1 <1>   0.5690 
  3 N       -2.5420     0.1380    -0.1360 N.am  1 <1>  -0.6600 
  4 C       -1.3090     2.3050    -0.0430 C.3   1 <1>  -0.0990 
  5 C       -3.8800     0.7650    -0.2710 C.3   1 <1>   0.1400 
  6 C       -2.6460    -1.3390    -0.1560 C.3   1 <1>   0.1400 
  7 C        0.0680     2.8900     0.3010 C.3   1 <1>  -0.0160 
  8 C       -4.8330    -0.4000    -0.5400 C.3   1 <1>   0.2000 
  9 C       -4.1350    -1.6410     0.0180 C.3   1 <1>  -0.0800 
 10 C        0.0040     4.4080     0.3240 C.ar  1 <1>  -0.1440 
 11 O       -6.0530    -0.2150     0.0900 O.3   1 <1>  -0.6800 
 12 C       -4.5880    -2.9390    -0.6670 C.3   1 <1>  -0.0170 
 13 C        0.2920     5.1400    -0.8180 C.ar  1 <1>  -0.1500 
 14 C       -0.3500     5.0740     1.4890 C.ar  1 <1>  -0.1500 
 15 C       -3.8740    -4.1470    -0.0800 C.ar  1 <1>  -0.1440 
 16 C        0.2220     6.5240    -0.7870 C.ar  1 <1>   0.0820 
 17 C       -0.4190     6.4570     1.5160 C.ar  1 <1>  -0.1500 
 18 C       -4.3140    -4.7530     1.0800 C.ar  1 <1>  -0.1500 
 19 C       -2.7550    -4.6990    -0.6690 C.ar  1 <1>  -0.1500 
 20 O        0.5010     7.2380    -1.8880 O.3   1 <1>  -0.5330 
 21 C       -0.1340     7.1850     0.3740 C.ar  1 <1>  -0.1500 
 22 C       -3.6310    -5.8480     1.5820 C.ar  1 <1>   0.1600 
 23 C       -2.1440    -5.7960    -0.0840 C.ar  1 <1>   0.1600 
 24 N       -2.5560    -6.3850     1.0280 N.ar  1 <1>  -0.6200 
 25 H       -1.6120     2.6660    -1.0090 H     1 <1>   0.0800 
 26 H       -2.0190     2.6520     0.6840 H     1 <1>   0.0800 
 27 H       -4.1330     1.2630     0.6480 H     1 <1>   0.0800 
 28 H       -3.8910     1.4620    -1.0910 H     1 <1>   0.0800 
 29 H       -2.2850    -1.6980    -1.1050 H     1 <1>   0.0800 
 30 H       -2.0580    -1.7770     0.6340 H     1 <1>   0.0800 
 31 H        0.7930     2.5660    -0.4260 H     1 <1>   0.0800 
 32 H        0.3890     2.5230     1.2610 H     1 <1>   0.0800 
 33 H       -5.0070    -0.4900    -1.5990 H     1 <1>   0.0800 
 34 H       -4.3220    -1.7110     1.0750 H     1 <1>   0.0800 
 35 H       -5.9380    -0.1840     1.0590 H     1 <1>   0.4000 
 36 H       -4.3970    -2.8840    -1.7250 H     1 <1>   0.0800 
 37 H       -5.6500    -3.0580    -0.5380 H     1 <1>   0.0800 
 38 H        0.5680     4.6340    -1.7240 H     1 <1>   0.1500 
 39 H       -0.5730     4.5170     2.3830 H     1 <1>   0.1500 
 40 H       -0.6940     6.9670     2.4230 H     1 <1>   0.1500 
 41 H       -5.1810    -4.3840     1.5970 H     1 <1>   0.1500 
 42 H       -2.3480    -4.2890    -1.5750 H     1 <1>   0.1500 
 43 H        0.7600     6.6830    -2.6440 H     1 <1>   0.4500 
 44 H       -0.1830     8.2590     0.3790 H     1 <1>   0.1500 
 45 H       -3.9890    -6.3080     2.4870 H     1 <1>   0.1500 
 46 H       -1.2710    -6.2130    -0.5560 H     1 <1>   0.1500 
@<TRIPOS>BOND
  1   1   2  2   
  2   2   3  am  
  3   2   4  1   
  4   3   5  1   
  5   3   6  1   
  6   4   7  1   
  7   4  25  1   
  8   4  26  1   
  9   5   8  1   
 10   5  27  1   
 11   5  28  1   
 12   6   9  1   
 13   6  29  1   
 14   6  30  1   
 15   7  10  1   
 16   7  31  1   
 17   7  32  1   
 18   8   9  1   
 19   8  11  1   
 20   8  33  1   
 21   9  12  1   
 22   9  34  1   
 23  10  13  ar  
 24  10  14  ar  
 25  11  35  1   
 26  12  15  1   
 27  12  36  1   
 28  12  37  1   
 29  13  16  ar  
 30  13  38  1   
 31  14  17  ar  
 32  14  39  1   
 33  15  18  ar  
 34  15  19  ar  
 35  16  20  1   
 36  16  21  ar  
 37  17  21  ar  
 38  17  40  1   
 39  18  22  ar  
 40  18  41  1   
 41  19  23  ar  
 42  19  42  1   
 43  20  43  1   
 44  21  44  1   
 45  22  24  ar  
 46  22  45  1   
 47  23  24  ar  
 48  23  46  1   
@<TRIPOS>SUBSTRUCTURE
  1 ****   3 GROUP 4 **** **** 0

# MOE 2024.06 (io_trps.svl 2023.06)
