@<TRIPOS>MOLECULE
NONAME
62 65 1 0 0 
SMALL
USER_CHARGES


@<TRIPOS>ATOM
  1 O       -0.0890     0.5730     0.0130 O.3   1 <1>  -0.1650 
  2 C       -1.1110     1.4050    -0.3070 C.ar  1 <1>   0.0830 
  3 C       -0.3030    -0.7370     0.2920 C.ar  1 <1>   0.0830 
  4 C       -2.3560     1.3130     0.3050 C.ar  1 <1>  -0.1500 
  5 C       -0.8850     2.3790    -1.2660 C.ar  1 <1>  -0.1500 
  6 C        0.4370    -1.3200     1.3080 C.ar  1 <1>  -0.1500 
  7 C       -1.2250    -1.4970    -0.4190 C.ar  1 <1>  -0.1500 
  8 C       -3.3650     2.1920    -0.0430 C.ar  1 <1>  -0.1500 
  9 C       -1.8950     3.2580    -1.6110 C.ar  1 <1>  -0.1500 
 10 C        0.2470    -2.6540     1.6260 C.ar  1 <1>  -0.1500 
 11 C       -1.4140    -2.8300    -0.0990 C.ar  1 <1>  -0.1500 
 12 C       -3.1430     3.1810    -0.9970 C.ar  1 <1>  -0.0230 
 13 C       -0.6800    -3.4070     0.9240 C.ar  1 <1>  -0.1500 
 14 N       -4.1630     4.1190    -1.3190 N.pl3 1 <1>   0.5930 
 15 N       -5.3730     3.8020    -1.7640 N.2   1 <1>  -0.4180 
 16 C       -4.1030     5.4670    -1.2790 C.2   1 <1>   0.2700 
 17 N       -5.9830     4.9030    -1.9930 N.2   1 <1>   0.0000 
 18 N       -5.2140     5.9500    -1.7060 N.2   1 <1>  -0.3380 
 19 N       -3.0200     6.2640    -0.8500 N.pl3 1 <1>  -0.8220 
 20 C       -3.0250     7.7160    -1.2810 C.3   1 <1>   0.2090 
 21 C       -2.4660     6.0340     0.5370 C.3   1 <1>   0.2090 
 22 C       -1.7980     8.5190    -0.7510 C.3   1 <1>   0.4230 
 23 C       -1.0580     6.6580     0.7120 C.3   1 <1>   0.3430 
 24 N       -0.7010     7.5340    -0.4560 N.4   1 <1>  -0.9590 
 25 C       -2.2340     9.4030     0.4460 C.3   1 <1>  -0.1600 
 26 C        0.6740     8.0900    -0.3730 C.3   1 <1>   0.3430 
 27 C       -1.1850    10.3110     1.0980 C.3   1 <1>   0.1200 
 28 C        1.6140     7.3520    -1.3420 C.3   1 <1>  -0.0800 
 29 O       -0.3610     9.5500     1.9070 O.3   1 <1>  -0.6800 
 30 C        1.6850     5.8360    -1.0860 C.3   1 <1>  -0.2400 
 31 C        3.0240     7.9490    -1.2400 C.3   1 <1>  -0.2400 
 32 H       -2.5340     0.5590     1.0530 H     1 <1>   0.1500 
 33 H        0.0800     2.4340    -1.7390 H     1 <1>   0.1500 
 34 H        1.1560    -0.7300     1.8470 H     1 <1>   0.1500 
 35 H       -1.7880    -1.0540    -1.2210 H     1 <1>   0.1500 
 36 H       -4.3300     2.1090     0.4300 H     1 <1>   0.1500 
 37 H       -1.7140     4.0050    -2.3660 H     1 <1>   0.1500 
 38 H        0.8190    -3.1060     2.4180 H     1 <1>   0.1500 
 39 H       -2.1290    -3.4200    -0.6460 H     1 <1>   0.1500 
 40 H       -0.8270    -4.4440     1.1720 H     1 <1>   0.1500 
 41 H       -3.9430     8.1840    -0.9670 H     1 <1>   0.0800 
 42 H       -3.0150     7.7470    -2.3580 H     1 <1>   0.0800 
 43 H       -2.4090     4.9830     0.7570 H     1 <1>   0.0800 
 44 H       -3.1360     6.4700     1.2580 H     1 <1>   0.0800 
 45 H       -1.4740     9.1780    -1.5400 H     1 <1>   0.0800 
 46 H       -0.3350     5.8640     0.8040 H     1 <1>   0.0800 
 47 H       -1.0310     7.2290     1.6260 H     1 <1>   0.0800 
 48 H       -0.7240     6.8910    -1.2590 H     1 <1>   0.4500 
 49 H       -2.7140     8.8170     1.2080 H     1 <1>   0.0800 
 50 H       -2.9950    10.0630     0.0690 H     1 <1>   0.0800 
 51 H        1.0460     8.0010     0.6350 H     1 <1>   0.0800 
 52 H        0.6610     9.1370    -0.6250 H     1 <1>   0.0800 
 53 H       -1.6730    11.0390     1.7260 H     1 <1>   0.0800 
 54 H       -0.5840    10.8250     0.3670 H     1 <1>   0.0800 
 55 H        1.2660     7.5180    -2.3480 H     1 <1>   0.0800 
 56 H        0.1220    10.1270     2.5400 H     1 <1>   0.4000 
 57 H        1.9980     5.6340    -0.0760 H     1 <1>   0.0800 
 58 H        2.4010     5.3840    -1.7510 H     1 <1>   0.0800 
 59 H        0.7380     5.3590    -1.2600 H     1 <1>   0.0800 
 60 H        3.4330     7.8050    -0.2540 H     1 <1>   0.0800 
 61 H        3.0080     9.0040    -1.4540 H     1 <1>   0.0800 
 62 H        3.6830     7.4790    -1.9500 H     1 <1>   0.0800 
@<TRIPOS>BOND
  1   1   2  1   
  2   1   3  1   
  3   2   4  ar  
  4   2   5  ar  
  5   3   6  ar  
  6   3   7  ar  
  7   4   8  ar  
  8   4  32  1   
  9   5   9  ar  
 10   5  33  1   
 11   6  10  ar  
 12   6  34  1   
 13   7  11  ar  
 14   7  35  1   
 15   8  12  ar  
 16   8  36  1   
 17   9  12  ar  
 18   9  37  1   
 19  10  13  ar  
 20  10  38  1   
 21  11  13  ar  
 22  11  39  1   
 23  12  14  1   
 24  13  40  1   
 25  14  15  1   
 26  14  16  1   
 27  15  17  2   
 28  16  18  2   
 29  16  19  1   
 30  17  18  1   
 31  19  20  1   
 32  19  21  1   
 33  20  22  1   
 34  20  41  1   
 35  20  42  1   
 36  21  23  1   
 37  21  43  1   
 38  21  44  1   
 39  22  24  1   
 40  22  25  1   
 41  22  45  1   
 42  23  24  1   
 43  23  46  1   
 44  23  47  1   
 45  24  26  1   
 46  24  48  1   
 47  25  27  1   
 48  25  49  1   
 49  25  50  1   
 50  26  28  1   
 51  26  51  1   
 52  26  52  1   
 53  27  29  1   
 54  27  53  1   
 55  27  54  1   
 56  28  30  1   
 57  28  31  1   
 58  28  55  1   
 59  29  56  1   
 60  30  57  1   
 61  30  58  1   
 62  30  59  1   
 63  31  60  1   
 64  31  61  1   
 65  31  62  1   
@<TRIPOS>SUBSTRUCTURE
  1 ****   9 GROUP 4 **** **** 0

# MOE 2024.06 (io_trps.svl 2023.06)
