@<TRIPOS>MOLECULE
NONAME
44 45 1 0 0 
SMALL
USER_CHARGES


@<TRIPOS>ATOM
  1 O        1.5560    -0.1050     1.6600 O.2   1 <1>  -0.5700 
  2 C        1.3740    -1.2840     1.4560 C.2   1 <1>   0.5690 
  3 N        0.4470    -1.9490     2.1850 N.am  1 <1>  -0.7300 
  4 C        2.2120    -2.0240     0.3770 C.3   1 <1>   0.2510 
  5 C        0.1610    -3.3910     2.0090 C.3   1 <1>   0.1400 
  6 N        1.9220    -3.4930     0.2330 N.3   1 <1>  -0.8100 
  7 C        3.7090    -1.8310     0.6850 C.3   1 <1>  -0.0990 
  8 C        0.5210    -3.8370     0.5830 C.3   1 <1>   0.1100 
  9 C        2.3920    -4.0490    -1.0540 C.3   1 <1>   0.1900 
 10 C        4.2720    -0.6640    -0.0940 C.2   1 <1>   0.5690 
 11 C        1.4200    -3.7970    -2.2110 C.3   1 <1>  -0.2400 
 12 C        2.6710    -5.5410    -0.8850 C.3   1 <1>  -0.2400 
 13 O        5.0580    -0.9020    -0.9790 O.2   1 <1>  -0.5700 
 14 N        3.8610     0.5920     0.2270 N.am  1 <1>  -0.4930 
 15 C        4.2450     1.8350    -0.3340 C.2   1 <1>   0.0630 
 16 C        3.7170     3.0430    -0.0380 C.2   1 <1>  -0.3320 
 17 C        5.2240     2.1020    -1.2920 C.2   1 <1>   0.1390 
 18 N        4.3770     3.9500    -0.8000 N.pl3 1 <1>   0.3140 
 19 C        2.6050     3.3980     0.9400 C.3   1 <1>  -0.0600 
 20 N        5.3080     3.3690    -1.5740 N.2   1 <1>  -0.7070 
 21 C        4.1630     5.4020    -0.8370 C.3   1 <1>   0.0160 
 22 H       -0.0390    -1.4390     2.9250 H     1 <1>   0.3700 
 23 H        1.9830    -1.5480    -0.5600 H     1 <1>   0.0800 
 24 H       -0.8840    -3.5740     2.1870 H     1 <1>   0.0800 
 25 H        0.7350    -3.9600     2.7200 H     1 <1>   0.0800 
 26 H        4.2750    -2.7070     0.4330 H     1 <1>   0.0800 
 27 H        3.8550    -1.6550     1.7350 H     1 <1>   0.0800 
 28 H       -0.1580    -3.3640    -0.1040 H     1 <1>   0.0800 
 29 H        0.3780    -4.9010     0.5150 H     1 <1>   0.0800 
 30 H        3.3290    -3.5840    -1.3150 H     1 <1>   0.0800 
 31 H        0.5110    -4.3570    -2.0900 H     1 <1>   0.0800 
 32 H        1.8770    -4.1120    -3.1310 H     1 <1>   0.0800 
 33 H        1.1910    -2.7510    -2.3000 H     1 <1>   0.0800 
 34 H        1.7660    -6.0960    -0.7270 H     1 <1>   0.0800 
 35 H        3.3350    -5.6950    -0.0530 H     1 <1>   0.0800 
 36 H        3.1470    -5.9220    -1.7700 H     1 <1>   0.0800 
 37 H        3.1100     0.6570     0.9260 H     1 <1>   0.3700 
 38 H        5.8410     1.3480    -1.7470 H     1 <1>   0.1500 
 39 H        2.2350     2.5180     1.4340 H     1 <1>   0.0800 
 40 H        1.7860     3.8590     0.4170 H     1 <1>   0.0800 
 41 H        2.9720     4.0770     1.6890 H     1 <1>   0.0800 
 42 H        3.1520     5.6020    -1.1340 H     1 <1>   0.0800 
 43 H        4.8400     5.8390    -1.5480 H     1 <1>   0.0800 
 44 H        4.3510     5.8110     0.1380 H     1 <1>   0.0800 
@<TRIPOS>BOND
  1   1   2  2   
  2   2   3  am  
  3   2   4  1   
  4   3   5  1   
  5   3  22  1   
  6   4   6  1   
  7   4   7  1   
  8   4  23  1   
  9   5   8  1   
 10   5  24  1   
 11   5  25  1   
 12   6   8  1   
 13   6   9  1   
 14   7  10  1   
 15   7  26  1   
 16   7  27  1   
 17   8  28  1   
 18   8  29  1   
 19   9  11  1   
 20   9  12  1   
 21   9  30  1   
 22  10  13  2   
 23  10  14  am  
 24  11  31  1   
 25  11  32  1   
 26  11  33  1   
 27  12  34  1   
 28  12  35  1   
 29  12  36  1   
 30  14  15  1   
 31  14  37  1   
 32  15  16  2   
 33  15  17  1   
 34  16  18  1   
 35  16  19  1   
 36  17  20  2   
 37  17  38  1   
 38  18  20  1   
 39  18  21  1   
 40  19  39  1   
 41  19  40  1   
 42  19  41  1   
 43  21  42  1   
 44  21  43  1   
 45  21  44  1   
@<TRIPOS>SUBSTRUCTURE
  1 ****  10 GROUP 4 **** **** 0

# MOE 2024.06 (io_trps.svl 2023.06)
