@<TRIPOS>MOLECULE
NONAME
55 59 1 0 0 
SMALL
USER_CHARGES


@<TRIPOS>ATOM
  1 O       -3.1250     3.1420     2.0420 O.2   1 <1>  -0.5700 
  2 C       -3.0720     2.6970     0.9160 C.2   1 <1>   0.6300 
  3 N       -4.0560     1.8720     0.4260 N.am  1 <1>  -0.6600 
  4 C       -1.8420     3.0520     0.0660 C.3   1 <1>   0.0320 
  5 C       -4.0440     1.2370    -0.9170 C.3   1 <1>   0.1400 
  6 C       -5.1140     1.3210     1.3120 C.3   1 <1>   0.1400 
  7 C       -0.8580     1.8890    -0.0290 C.ar  1 <1>  -0.0320 
  8 C       -1.9710     4.0660    -1.0430 C.3   1 <1>  -0.2000 
  9 C       -1.2320     4.4210     0.2040 C.3   1 <1>  -0.2000 
 10 C       -3.7390    -0.2530    -0.7490 C.3   1 <1>  -0.1600 
 11 C       -4.8270    -0.1660     1.5320 C.3   1 <1>  -0.1600 
 12 C       -0.5250     1.3070    -1.2440 C.ar  1 <1>  -0.1500 
 13 C       -0.2960     1.3870     1.1340 C.ar  1 <1>  -0.1500 
 14 C       -4.7340    -0.9380     0.2010 C.3   1 <1>   0.4240 
 15 C        0.3500     0.2350    -1.2930 C.ar  1 <1>  -0.1500 
 16 C        0.5800     0.3160     1.0890 C.ar  1 <1>  -0.1500 
 17 O       -5.9810    -0.8410    -0.4460 O.3   1 <1>  -0.5600 
 18 C       -4.3200    -2.4070     0.4360 C.ar  1 <1>  -0.1430 
 19 C        0.9020    -0.2620    -0.1260 C.ar  1 <1>  -0.1500 
 20 C       -6.9730    -1.7460    -0.0710 C.3   1 <1>   0.1200 
 21 C       -5.1740    -3.4560     0.1130 C.ar  1 <1>  -0.1440 
 22 C       -3.0770    -2.7070     0.9840 C.ar  1 <1>  -0.1500 
 23 C       -6.5370    -3.1510    -0.4750 C.3   1 <1>  -0.0170 
 24 C       -4.7910    -4.7710     0.3250 C.ar  1 <1>  -0.1500 
 25 C       -2.6950    -4.0180     1.1980 C.ar  1 <1>  -0.1500 
 26 C       -3.5440    -5.0590     0.8710 C.ar  1 <1>   0.0820 
 27 O       -3.0930    -6.3160     1.1100 O.3   1 <1>  -0.3620 
 28 C       -3.8740    -7.4470     0.7970 C.3   1 <1>   0.0400 
 29 H       -3.3150     1.6930    -1.5600 H     1 <1>   0.0800 
 30 H       -5.0110     1.3640    -1.3750 H     1 <1>   0.0800 
 31 H       -6.0750     1.4510     0.8440 H     1 <1>   0.0800 
 32 H       -5.1290     1.8350     2.2570 H     1 <1>   0.0800 
 33 H       -2.9330     4.5170    -1.2130 H     1 <1>   0.1000 
 34 H       -1.4000     3.9590    -1.9470 H     1 <1>   0.1000 
 35 H       -0.1600     4.5050     0.1700 H     1 <1>   0.1000 
 36 H       -1.6780     5.1110     0.9000 H     1 <1>   0.1000 
 37 H       -2.7400    -0.3490    -0.3680 H     1 <1>   0.0800 
 38 H       -3.7680    -0.7450    -1.7030 H     1 <1>   0.0800 
 39 H       -5.5810    -0.5990     2.1610 H     1 <1>   0.0800 
 40 H       -3.8950    -0.2470     2.0590 H     1 <1>   0.0800 
 41 H       -0.9480     1.6780    -2.1590 H     1 <1>   0.1500 
 42 H       -0.5460     1.8330     2.0820 H     1 <1>   0.1500 
 43 H        0.6020    -0.2130    -2.2390 H     1 <1>   0.1500 
 44 H        1.0080    -0.0660     1.9990 H     1 <1>   0.1500 
 45 H        1.5820    -1.0950    -0.1630 H     1 <1>   0.1500 
 46 H       -7.8790    -1.4720    -0.5810 H     1 <1>   0.0800 
 47 H       -7.1320    -1.6800     0.9910 H     1 <1>   0.0800 
 48 H       -2.3920    -1.9210     1.2500 H     1 <1>   0.1500 
 49 H       -6.4920    -3.2170    -1.5470 H     1 <1>   0.0800 
 50 H       -7.2630    -3.8610    -0.1210 H     1 <1>   0.0800 
 51 H       -5.4690    -5.5590     0.0610 H     1 <1>   0.1500 
 52 H       -1.7320    -4.2420     1.6200 H     1 <1>   0.1500 
 53 H       -3.3130    -8.3240     1.0660 H     1 <1>   0.0800 
 54 H       -4.0740    -7.4510    -0.2600 H     1 <1>   0.0800 
 55 H       -4.7860    -7.4090     1.3650 H     1 <1>   0.0800 
@<TRIPOS>BOND
  1   1   2  2   
  2   2   3  am  
  3   2   4  1   
  4   3   5  1   
  5   3   6  1   
  6   4   7  1   
  7   4   8  1   
  8   4   9  1   
  9   5  10  1   
 10   5  29  1   
 11   5  30  1   
 12   6  11  1   
 13   6  31  1   
 14   6  32  1   
 15   7  12  ar  
 16   7  13  ar  
 17   8   9  1   
 18   8  33  1   
 19   8  34  1   
 20   9  35  1   
 21   9  36  1   
 22  10  14  1   
 23  10  37  1   
 24  10  38  1   
 25  11  14  1   
 26  11  39  1   
 27  11  40  1   
 28  12  15  ar  
 29  12  41  1   
 30  13  16  ar  
 31  13  42  1   
 32  14  17  1   
 33  14  18  1   
 34  15  19  ar  
 35  15  43  1   
 36  16  19  ar  
 37  16  44  1   
 38  17  20  1   
 39  18  21  ar  
 40  18  22  ar  
 41  19  45  1   
 42  20  23  1   
 43  20  46  1   
 44  20  47  1   
 45  21  23  1   
 46  21  24  ar  
 47  22  25  ar  
 48  22  48  1   
 49  23  49  1   
 50  23  50  1   
 51  24  26  ar  
 52  24  51  1   
 53  25  26  ar  
 54  25  52  1   
 55  26  27  1   
 56  27  28  1   
 57  28  53  1   
 58  28  54  1   
 59  28  55  1   
@<TRIPOS>SUBSTRUCTURE
  1 ****  10 GROUP 4 **** **** 0

# MOE 2024.06 (io_trps.svl 2023.06)
