@<TRIPOS>MOLECULE
NONAME
55 56 1 0 0 
SMALL
USER_CHARGES


@<TRIPOS>ATOM
  1 O       -0.3640     1.7450     2.1910 O.2   1 <1>  -0.5700 
  2 C       -0.4130     2.8170     1.6380 C.2   1 <1>   0.5690 
  3 N       -1.5890     3.4930     1.4480 N.am  1 <1>  -0.6600 
  4 C        0.8990     3.4120     1.1160 C.3   1 <1>   0.1810 
  5 C       -1.6110     4.8280     0.7730 C.3   1 <1>   0.3640 
  6 C       -2.8760     3.0410     2.0550 C.3   1 <1>   0.0600 
  7 O        0.8440     4.8060     0.9050 O.3   1 <1>  -0.5600 
  8 C       -2.7210     4.9330    -0.2840 C.ar  1 <1>  -0.1430 
  9 C       -0.2620     5.2160     0.1220 C.3   1 <1>   0.2610 
 10 C       -2.9620     3.9900    -1.2900 C.ar  1 <1>  -0.1430 
 11 C       -3.5150     6.0730    -0.2300 C.ar  1 <1>  -0.1500 
 12 C       -0.1870     6.7330    -0.1150 C.2   1 <1>   0.5690 
 13 C       -3.9830     4.2160    -2.2020 C.ar  1 <1>  -0.1500 
 14 C       -2.1790     2.6890    -1.4490 C.3   1 <1>  -0.0960 
 15 C       -4.5270     6.2860    -1.1450 C.ar  1 <1>  -0.1500 
 16 O       -0.5680     7.4730     0.7700 O.2   1 <1>  -0.5700 
 17 N        0.4010     7.2740    -1.2390 N.am  1 <1>  -0.6600 
 18 C       -4.7610     5.3550    -2.1360 C.ar  1 <1>  -0.1500 
 19 C        0.6190     8.7580    -1.3400 C.3   1 <1>   0.1400 
 20 C        0.7320     6.4980    -2.4680 C.3   1 <1>   0.1400 
 21 C        1.8730     9.2420    -0.5750 C.3   1 <1>   0.3430 
 22 C        2.1550     5.9560    -2.3650 C.3   1 <1>  -0.2400 
 23 N        1.9000     8.7650     0.8460 N.4   1 <1>  -0.9590 
 24 C        2.2390     9.8450     1.8170 C.3   1 <1>   0.2630 
 25 C        2.7780     7.5690     1.0220 C.3   1 <1>   0.2630 
 26 H        1.1600     2.9350     0.1900 H     1 <1>   0.0800 
 27 H        1.6780     3.2210     1.8320 H     1 <1>   0.0800 
 28 H       -1.8190     5.5430     1.5490 H     1 <1>   0.0800 
 29 H       -3.6170     2.8950     1.2880 H     1 <1>   0.0800 
 30 H       -3.2320     3.7820     2.7490 H     1 <1>   0.0800 
 31 H       -2.7440     2.1120     2.5830 H     1 <1>   0.0800 
 32 H       -0.1850     4.7090    -0.8160 H     1 <1>   0.0800 
 33 H       -3.3520     6.8160     0.5330 H     1 <1>   0.1500 
 34 H       -4.1870     3.4980    -2.9780 H     1 <1>   0.1500 
 35 H       -2.3340     2.2650    -2.4240 H     1 <1>   0.0800 
 36 H       -2.5120     1.9720    -0.7200 H     1 <1>   0.0800 
 37 H       -1.1250     2.8380    -1.3260 H     1 <1>   0.0800 
 38 H       -5.1330     7.1740    -1.0870 H     1 <1>   0.1500 
 39 H       -5.5490     5.5140    -2.8520 H     1 <1>   0.1500 
 40 H        0.7070     9.0490    -2.3720 H     1 <1>   0.0800 
 41 H       -0.2450     9.2680    -0.9490 H     1 <1>   0.0800 
 42 H        0.0320     5.6920    -2.6050 H     1 <1>   0.0800 
 43 H        0.6470     7.1280    -3.3380 H     1 <1>   0.0800 
 44 H        1.8780    10.3200    -0.5940 H     1 <1>   0.0800 
 45 H        2.7550     8.9040    -1.0920 H     1 <1>   0.0800 
 46 H        2.2560     5.3050    -1.5160 H     1 <1>   0.0800 
 47 H        2.8630     6.7610    -2.2900 H     1 <1>   0.0800 
 48 H        2.3850     5.3890    -3.2500 H     1 <1>   0.0800 
 49 H        0.9270     8.4370     1.0460 H     1 <1>   0.4500 
 50 H        3.2370    10.2100     1.6390 H     1 <1>   0.0800 
 51 H        2.1810     9.4680     2.8250 H     1 <1>   0.0800 
 52 H        1.5450    10.6650     1.7190 H     1 <1>   0.0800 
 53 H        3.8070     7.8230     0.8290 H     1 <1>   0.0800 
 54 H        2.4790     6.7860     0.3440 H     1 <1>   0.0800 
 55 H        2.6940     7.1900     2.0280 H     1 <1>   0.0800 
@<TRIPOS>BOND
  1   1   2  2   
  2   2   3  am  
  3   2   4  1   
  4   3   5  1   
  5   3   6  1   
  6   4   7  1   
  7   4  26  1   
  8   4  27  1   
  9   5   8  1   
 10   5   9  1   
 11   5  28  1   
 12   6  29  1   
 13   6  30  1   
 14   6  31  1   
 15   7   9  1   
 16   8  10  ar  
 17   8  11  ar  
 18   9  12  1   
 19   9  32  1   
 20  10  13  ar  
 21  10  14  1   
 22  11  15  ar  
 23  11  33  1   
 24  12  16  2   
 25  12  17  am  
 26  13  18  ar  
 27  13  34  1   
 28  14  35  1   
 29  14  36  1   
 30  14  37  1   
 31  15  18  ar  
 32  15  38  1   
 33  17  19  1   
 34  17  20  1   
 35  18  39  1   
 36  19  21  1   
 37  19  40  1   
 38  19  41  1   
 39  20  22  1   
 40  20  42  1   
 41  20  43  1   
 42  21  23  1   
 43  21  44  1   
 44  21  45  1   
 45  22  46  1   
 46  22  47  1   
 47  22  48  1   
 48  23  24  1   
 49  23  25  1   
 50  23  49  1   
 51  24  50  1   
 52  24  51  1   
 53  24  52  1   
 54  25  53  1   
 55  25  54  1   
 56  25  55  1   
@<TRIPOS>SUBSTRUCTURE
  1 ****   9 GROUP 4 **** **** 0

# MOE 2024.06 (io_trps.svl 2023.06)
