@<TRIPOS>MOLECULE
NONAME
45 47 1 0 0 
SMALL
USER_CHARGES


@<TRIPOS>ATOM
  1 O        3.4370     2.2900     2.5040 O.2   1 <1>  -0.5700 
  2 C        3.2260     2.1640     1.3200 C.2   1 <1>   0.7800 
  3 O        3.6420     3.0740     0.4530 O.3   1 <1>  -0.4300 
  4 N        2.6200     1.1240     0.7050 N.am  1 <1>  -0.6600 
  5 C        3.4480     2.6370    -0.8780 C.3   1 <1>   0.2800 
  6 C        2.5780     1.3620    -0.7370 C.3   1 <1>   0.1400 
  7 C        1.9440    -0.0250     1.3540 C.3   1 <1>   0.0600 
  8 C        4.8370     2.3220    -1.4730 C.3   1 <1>  -0.1600 
  9 C        2.7230     3.7420    -1.6740 C.3   1 <1>  -0.1600 
 10 C        5.9860     3.2150    -0.9900 C.3   1 <1>   0.3430 
 11 C        3.3470     5.1520    -1.6380 C.3   1 <1>  -0.1600 
 12 N        5.6060     4.6420    -0.8170 N.4   1 <1>  -0.9590 
 13 C        4.8450     5.2430    -1.9460 C.3   1 <1>   0.3430 
 14 C        6.7680     5.4760    -0.3780 C.3   1 <1>   0.5230 
 15 C        6.3250     6.8290     0.1650 C.2   1 <1>   0.0060 
 16 N        5.1060     7.1520     0.4280 N.2   1 <1>  -0.3380 
 17 N        7.1570     7.8410     0.4350 N.pl3 1 <1>   0.0330 
 18 N        5.1170     8.4070     0.8690 N.2   1 <1>  -0.3380 
 19 C        6.3420     8.8010     0.8700 C.2   1 <1>   0.0060 
 20 C        6.8070    10.1770     1.3140 C.3   1 <1>   0.0200 
 21 C        7.4480    10.9560     0.1600 C.3   1 <1>  -0.2400 
 22 H        1.5620     1.5350    -1.0490 H     1 <1>   0.0800 
 23 H        2.9790     0.5250    -1.2810 H     1 <1>   0.0800 
 24 H        2.0680     0.0340     2.4230 H     1 <1>   0.0800 
 25 H        2.3730    -0.9480     1.0050 H     1 <1>   0.0800 
 26 H        0.8930    -0.0090     1.1260 H     1 <1>   0.0800 
 27 H        4.7860     2.3520    -2.5470 H     1 <1>   0.0800 
 28 H        5.1060     1.3120    -1.2210 H     1 <1>   0.0800 
 29 H        1.7140     3.8230    -1.3030 H     1 <1>   0.0800 
 30 H        2.6430     3.4260    -2.7000 H     1 <1>   0.0800 
 31 H        6.8080     3.1330    -1.6830 H     1 <1>   0.0800 
 32 H        6.3210     2.8370    -0.0360 H     1 <1>   0.0800 
 33 H        3.1570     5.6000    -0.6770 H     1 <1>   0.0800 
 34 H        2.8270     5.7600    -2.3570 H     1 <1>   0.0800 
 35 H        4.9400     4.6770    -0.0190 H     1 <1>   0.4500 
 36 H        5.1010     6.2870    -2.0420 H     1 <1>   0.0800 
 37 H        5.0770     4.7480    -2.8750 H     1 <1>   0.0800 
 38 H        7.4390     5.6240    -1.2070 H     1 <1>   0.0800 
 39 H        7.3010     4.9590     0.4020 H     1 <1>   0.0800 
 40 H        8.1740     7.9070     0.3460 H     1 <1>   0.2700 
 41 H        7.5070    10.0770     2.1250 H     1 <1>   0.0800 
 42 H        5.9580    10.7280     1.6810 H     1 <1>   0.0800 
 43 H        8.3310    10.4580    -0.1980 H     1 <1>   0.0800 
 44 H        7.7220    11.9420     0.4930 H     1 <1>   0.0800 
 45 H        6.7480    11.0530    -0.6510 H     1 <1>   0.0800 
@<TRIPOS>BOND
  1   1   2  2   
  2   2   3  1   
  3   2   4  am  
  4   3   5  1   
  5   4   6  1   
  6   4   7  1   
  7   5   6  1   
  8   5   8  1   
  9   5   9  1   
 10   6  22  1   
 11   6  23  1   
 12   7  24  1   
 13   7  25  1   
 14   7  26  1   
 15   8  10  1   
 16   8  27  1   
 17   8  28  1   
 18   9  11  1   
 19   9  29  1   
 20   9  30  1   
 21  10  12  1   
 22  10  31  1   
 23  10  32  1   
 24  11  13  1   
 25  11  33  1   
 26  11  34  1   
 27  12  13  1   
 28  12  14  1   
 29  12  35  1   
 30  13  36  1   
 31  13  37  1   
 32  14  15  1   
 33  14  38  1   
 34  14  39  1   
 35  15  16  2   
 36  15  17  1   
 37  16  18  1   
 38  17  19  1   
 39  17  40  1   
 40  18  19  2   
 41  19  20  1   
 42  20  21  1   
 43  20  41  1   
 44  20  42  1   
 45  21  43  1   
 46  21  44  1   
 47  21  45  1   
@<TRIPOS>SUBSTRUCTURE
  1 ****  12 GROUP 4 **** **** 0

# MOE 2024.06 (io_trps.svl 2023.06)
