@<TRIPOS>MOLECULE
NONAME
54 57 1 0 0 
SMALL
USER_CHARGES


@<TRIPOS>ATOM
  1 O        0.0720     0.7310    -1.4180 O.2   1 <1>  -0.5700 
  2 C       -0.0490     1.8990    -1.1260 C.2   1 <1>   0.5690 
  3 N       -1.2420     2.5600    -1.2810 N.am  1 <1>  -0.6600 
  4 C        1.1610     2.6310    -0.5670 C.3   1 <1>  -0.0990 
  5 C       -1.4990     3.9820    -0.9300 C.3   1 <1>   0.1400 
  6 C       -2.4480     1.8770    -1.8230 C.3   1 <1>   0.1400 
  7 C        2.4160     1.7510    -0.4480 C.3   1 <1>   0.0200 
  8 C       -2.5890     4.0400     0.1440 C.3   1 <1>  -0.1600 
  9 C       -3.5580     1.9120    -0.7690 C.3   1 <1>  -0.1600 
 10 C        3.6100     2.5060     0.1200 C.2   1 <1>   0.0060 
 11 C       -3.8910     3.3420    -0.3080 C.3   1 <1>   0.2800 
 12 N        3.6030     3.7380     0.5000 N.2   1 <1>  -0.5650 
 13 N        4.8140     1.8970     0.2700 N.pl3 1 <1>   0.0330 
 14 O       -4.3730     3.9960    -1.4460 O.3   1 <1>  -0.5600 
 15 C       -4.9670     3.2850     0.8130 C.3   1 <1>  -0.1600 
 16 C        4.8760     3.9700     0.9290 C.ar  1 <1>   0.2270 
 17 C        5.6470     2.8310     0.7930 C.ar  1 <1>  -0.1520 
 18 C       -4.9820     5.2630    -1.3570 C.3   1 <1>   0.1200 
 19 C       -6.2270     4.1300     0.5600 C.3   1 <1>   0.2800 
 20 C        5.4420     5.1330     1.4470 C.ar  1 <1>  -0.1500 
 21 C        6.9930     2.8160     1.1660 C.ar  1 <1>  -0.1500 
 22 C       -5.8290     5.4760    -0.0860 C.3   1 <1>   0.2000 
 23 O       -7.0460     3.4430    -0.3160 O.3   1 <1>  -0.6800 
 24 C       -7.0540     4.2990     1.8390 C.3   1 <1>  -0.2400 
 25 C        6.7690     5.1300     1.8180 C.ar  1 <1>  -0.1500 
 26 C        7.5430     3.9700     1.6770 C.ar  1 <1>  -0.1500 
 27 O       -5.0920     6.2510     0.8160 O.3   1 <1>  -0.6800 
 28 H        1.3840     3.4640    -1.2080 H     1 <1>   0.0800 
 29 H        0.9120     3.0070     0.4080 H     1 <1>   0.0800 
 30 H       -0.6100     4.4670    -0.5690 H     1 <1>   0.0800 
 31 H       -1.8260     4.5060    -1.8120 H     1 <1>   0.0800 
 32 H       -2.7720     2.3840    -2.7160 H     1 <1>   0.0800 
 33 H       -2.2270     0.8550    -2.0820 H     1 <1>   0.0800 
 34 H        2.6730     1.3740    -1.4230 H     1 <1>   0.0800 
 35 H        2.1990     0.9130     0.1890 H     1 <1>   0.0800 
 36 H       -2.7720     5.0650     0.3960 H     1 <1>   0.0800 
 37 H       -2.2120     3.5550     1.0270 H     1 <1>   0.0800 
 38 H       -3.2390     1.3220     0.0710 H     1 <1>   0.0800 
 39 H       -4.4420     1.4540    -1.1740 H     1 <1>   0.0800 
 40 H        5.0520     0.9310     0.0380 H     1 <1>   0.2700 
 41 H       -5.2600     2.2700     1.0090 H     1 <1>   0.0800 
 42 H       -4.5110     3.6260     1.7240 H     1 <1>   0.0800 
 43 H       -4.2220     6.0190    -1.4450 H     1 <1>   0.0800 
 44 H       -5.6290     5.3370    -2.2120 H     1 <1>   0.0800 
 45 H        4.8250     6.0060     1.5440 H     1 <1>   0.1500 
 46 H        7.5790     1.9210     1.0530 H     1 <1>   0.1500 
 47 H       -6.7100     6.0440    -0.3260 H     1 <1>   0.0800 
 48 H       -7.2580     2.5640     0.0470 H     1 <1>   0.4000 
 49 H       -6.4890     4.8300     2.5830 H     1 <1>   0.0800 
 50 H       -7.3310     3.3440     2.2460 H     1 <1>   0.0800 
 51 H       -7.9420     4.8690     1.6300 H     1 <1>   0.0800 
 52 H        7.2220     6.0190     2.2210 H     1 <1>   0.1500 
 53 H        8.5770     3.9930     1.9750 H     1 <1>   0.1500 
 54 H       -4.2860     5.7700     1.0770 H     1 <1>   0.4000 
@<TRIPOS>BOND
  1   1   2  2   
  2   2   3  am  
  3   2   4  1   
  4   3   5  1   
  5   3   6  1   
  6   4   7  1   
  7   4  28  1   
  8   4  29  1   
  9   5   8  1   
 10   5  30  1   
 11   5  31  1   
 12   6   9  1   
 13   6  32  1   
 14   6  33  1   
 15   7  10  1   
 16   7  34  1   
 17   7  35  1   
 18   8  11  1   
 19   8  36  1   
 20   8  37  1   
 21   9  11  1   
 22   9  38  1   
 23   9  39  1   
 24  10  12  2   
 25  10  13  1   
 26  11  14  1   
 27  11  15  1   
 28  12  16  1   
 29  13  17  1   
 30  13  40  1   
 31  14  18  1   
 32  15  19  1   
 33  15  41  1   
 34  15  42  1   
 35  16  17  ar  
 36  16  20  ar  
 37  17  21  ar  
 38  18  22  1   
 39  18  43  1   
 40  18  44  1   
 41  19  22  1   
 42  19  23  1   
 43  19  24  1   
 44  20  25  ar  
 45  20  45  1   
 46  21  26  ar  
 47  21  46  1   
 48  22  27  1   
 49  22  47  1   
 50  23  48  1   
 51  24  49  1   
 52  24  50  1   
 53  24  51  1   
 54  25  26  ar  
 55  25  52  1   
 56  26  53  1   
 57  27  54  1   
@<TRIPOS>SUBSTRUCTURE
  1 ****   5 GROUP 4 **** **** 0

# MOE 2024.06 (io_trps.svl 2023.06)
