@<TRIPOS>MOLECULE
NONAME
47 50 1 0 0 
SMALL
USER_CHARGES


@<TRIPOS>ATOM
  1 CL      -2.7510    -1.1510    -2.9350 Cl    1 <1>  -0.1770 
  2 C       -3.0990     0.1020    -1.7630 C.ar  1 <1>   0.1770 
  3 C       -3.6550    -0.2610    -0.5170 C.ar  1 <1>   0.3100 
  4 C       -2.8240     1.4010    -2.0960 C.ar  1 <1>  -0.1500 
  5 N       -3.9090    -1.5680    -0.2220 N.ar  1 <1>  -0.6200 
  6 C       -3.9380     0.7790     0.3970 C.ar  1 <1>   0.0000 
  7 C       -3.1020     2.4200    -1.1800 C.ar  1 <1>  -0.1500 
  8 C       -4.4300    -1.8520     0.9380 C.ar  1 <1>   0.1670 
  9 C       -4.5020     0.4340     1.6360 C.ar  1 <1>  -0.1500 
 10 C       -3.6480     2.1120     0.0380 C.ar  1 <1>  -0.1500 
 11 C       -4.7460    -0.8800     1.9000 C.ar  1 <1>  -0.1500 
 12 C       -4.7040    -3.3250     1.2510 C.3   1 <1>   0.4870 
 13 N       -4.9420    -4.0760    -0.0210 N.4   1 <1>  -0.9590 
 14 C       -6.3160    -3.8200    -0.5380 C.3   1 <1>   0.3430 
 15 C       -4.8080    -5.5480     0.1720 C.3   1 <1>   0.3430 
 16 C       -7.1620    -4.9860    -0.0210 C.3   1 <1>   0.2000 
 17 C       -6.1870    -6.1630    -0.1050 C.3   1 <1>  -0.0800 
 18 O       -7.4940    -4.7320     1.3090 O.3   1 <1>  -0.6800 
 19 C       -6.4940    -7.3660     0.8080 C.3   1 <1>   0.0210 
 20 C       -5.4680    -8.4680     0.6230 C.2   1 <1>   0.1080 
 21 N       -4.2070    -8.3060     0.8830 N.2   1 <1>  -0.7070 
 22 C       -5.7520    -9.7510     0.1690 C.2   1 <1>  -0.1500 
 23 N       -3.6470    -9.5030     0.6070 N.pl3 1 <1>   0.3000 
 24 C       -4.5640   -10.3900     0.1680 C.2   1 <1>  -0.3320 
 25 C       -4.2440   -11.8210    -0.2250 C.3   1 <1>  -0.0600 
 26 H       -2.3980     1.6430    -3.0540 H     1 <1>   0.1500 
 27 H       -2.8830     3.4410    -1.4470 H     1 <1>   0.1500 
 28 H       -4.7300     1.2080     2.3500 H     1 <1>   0.1500 
 29 H       -3.8650     2.8940     0.7450 H     1 <1>   0.1500 
 30 H       -5.1770    -1.1750     2.8400 H     1 <1>   0.1500 
 31 H       -5.5560    -3.4170     1.9040 H     1 <1>   0.0800 
 32 H       -3.8410    -3.7290     1.7520 H     1 <1>   0.0800 
 33 H       -4.2470    -3.6810    -0.6800 H     1 <1>   0.4500 
 34 H       -6.7070    -2.8700    -0.2140 H     1 <1>   0.0800 
 35 H       -6.3000    -3.8460    -1.6150 H     1 <1>   0.0800 
 36 H       -4.0730    -5.9670    -0.4970 H     1 <1>   0.0800 
 37 H       -4.5100    -5.7690     1.1840 H     1 <1>   0.0800 
 38 H       -8.0660    -5.1250    -0.5900 H     1 <1>   0.0800 
 39 H       -6.1740    -6.5160    -1.1220 H     1 <1>   0.0800 
 40 H       -8.2000    -5.3380     1.6190 H     1 <1>   0.4000 
 41 H       -7.4720    -7.7540     0.5860 H     1 <1>   0.0800 
 42 H       -6.4770    -7.0730     1.8430 H     1 <1>   0.0800 
 43 H       -6.7170   -10.1340    -0.1120 H     1 <1>   0.1500 
 44 H       -2.6430    -9.6880     0.7310 H     1 <1>   0.2700 
 45 H       -5.1390   -12.3290    -0.5370 H     1 <1>   0.0800 
 46 H       -3.8250   -12.3520     0.6110 H     1 <1>   0.0800 
 47 H       -3.5410   -11.8370    -1.0390 H     1 <1>   0.0800 
@<TRIPOS>BOND
  1   1   2  1   
  2   2   3  ar  
  3   2   4  ar  
  4   3   5  ar  
  5   3   6  ar  
  6   4   7  ar  
  7   4  26  1   
  8   5   8  ar  
  9   6   9  ar  
 10   6  10  ar  
 11   7  10  ar  
 12   7  27  1   
 13   8  11  ar  
 14   8  12  1   
 15   9  11  ar  
 16   9  28  1   
 17  10  29  1   
 18  11  30  1   
 19  12  13  1   
 20  12  31  1   
 21  12  32  1   
 22  13  14  1   
 23  13  15  1   
 24  13  33  1   
 25  14  16  1   
 26  14  34  1   
 27  14  35  1   
 28  15  17  1   
 29  15  36  1   
 30  15  37  1   
 31  16  17  1   
 32  16  18  1   
 33  16  38  1   
 34  17  19  1   
 35  17  39  1   
 36  18  40  1   
 37  19  20  1   
 38  19  41  1   
 39  19  42  1   
 40  20  21  2   
 41  20  22  1   
 42  21  23  1   
 43  22  24  2   
 44  22  43  1   
 45  23  24  1   
 46  23  44  1   
 47  24  25  1   
 48  25  45  1   
 49  25  46  1   
 50  25  47  1   
@<TRIPOS>SUBSTRUCTURE
  1 ****  13 GROUP 4 **** **** 0

# MOE 2024.06 (io_trps.svl 2023.06)
