@<TRIPOS>MOLECULE
NONAME
51 54 1 0 0 
SMALL
USER_CHARGES


@<TRIPOS>ATOM
  1 O       -0.9970     3.5530    -2.7740 O.2   1 <1>  -0.5700 
  2 C       -0.7020     2.8070    -1.8680 C.2   1 <1>   0.5690 
  3 N       -1.6260     2.4150    -0.9280 N.am  1 <1>  -0.6600 
  4 C        0.7590     2.3370    -1.8050 C.3   1 <1>   0.2010 
  5 C       -3.0040     3.0180    -0.9180 C.3   1 <1>   0.1400 
  6 C       -1.2930     1.5030     0.2120 C.3   1 <1>   0.1400 
  7 N        1.4780     2.7240    -0.5470 N.am  1 <1>  -0.7300 
  8 C       -3.4250     3.3940     0.5160 C.3   1 <1>   0.1430 
  9 C       -2.5560     0.9950     0.9170 C.3   1 <1>  -0.1600 
 10 C        1.5200     3.9450     0.0270 C.2   1 <1>   0.5690 
 11 C       -4.7750     4.0880     0.5330 C.ar  1 <1>   0.1660 
 12 C       -3.4640     2.1360     1.4200 C.3   1 <1>  -0.1600 
 13 C       -2.4940     4.4910     1.1060 C.3   1 <1>  -0.1600 
 14 O        1.8240     4.0450     1.1860 O.2   1 <1>  -0.5700 
 15 C        1.1830     5.1910    -0.7550 C.3   1 <1>  -0.1790 
 16 N       -5.8520     3.6680    -0.0870 N.ar  1 <1>  -0.6200 
 17 C       -4.7500     5.2200     1.2870 C.ar  1 <1>  -0.1440 
 18 C       -3.3900     5.4650     1.8890 C.3   1 <1>  -0.0170 
 19 C       -6.9460     4.4280     0.0610 C.ar  1 <1>   0.6200 
 20 C       -5.9090     5.9440     1.3900 C.ar  1 <1>   0.1600 
 21 N       -7.0070     5.5570     0.7820 N.ar  1 <1>  -0.6200 
 22 C       -8.1630     3.9920    -0.6130 C.ar  1 <1>   0.0000 
 23 C       -9.1480     4.9020    -1.0090 C.ar  1 <1>  -0.1500 
 24 C       -8.4040     2.6440    -0.8950 C.ar  1 <1>  -0.1500 
 25 C      -10.3060     4.4930    -1.6460 C.ar  1 <1>  -0.1500 
 26 C       -9.5590     2.2270    -1.5330 C.ar  1 <1>  -0.1500 
 27 C      -10.5140     3.1520    -1.9100 C.ar  1 <1>  -0.1500 
 28 H        1.2860     2.7520    -2.6450 H     1 <1>   0.0800 
 29 H        0.7760     1.2680    -1.9090 H     1 <1>   0.0800 
 30 H       -3.7030     2.3060    -1.3220 H     1 <1>   0.0800 
 31 H       -3.0390     3.8950    -1.5400 H     1 <1>   0.0800 
 32 H       -0.6860     2.0390     0.9230 H     1 <1>   0.0800 
 33 H       -0.7290     0.6620    -0.1510 H     1 <1>   0.0800 
 34 H        1.7960     1.9570     0.0480 H     1 <1>   0.3700 
 35 H       -2.2800     0.3650     1.7440 H     1 <1>   0.0800 
 36 H       -3.1050     0.3840     0.2210 H     1 <1>   0.0800 
 37 H       -4.4710     1.7560     1.4620 H     1 <1>   0.0800 
 38 H       -3.1910     2.4030     2.4250 H     1 <1>   0.0800 
 39 H       -2.0410     5.0390     0.2980 H     1 <1>   0.0800 
 40 H       -1.7050     4.0890     1.7170 H     1 <1>   0.0800 
 41 H        1.5730     5.1220    -1.7530 H     1 <1>   0.0800 
 42 H        1.6190     6.0460    -0.2730 H     1 <1>   0.0800 
 43 H        0.1200     5.3210    -0.7960 H     1 <1>   0.0800 
 44 H       -3.0710     6.4850     1.7610 H     1 <1>   0.0800 
 45 H       -3.4040     5.2120     2.9350 H     1 <1>   0.0800 
 46 H       -5.9370     6.8470     1.9750 H     1 <1>   0.1500 
 47 H       -9.0040     5.9510    -0.8130 H     1 <1>   0.1500 
 48 H       -7.6730     1.9080    -0.6080 H     1 <1>   0.1500 
 49 H      -11.0450     5.2190    -1.9360 H     1 <1>   0.1500 
 50 H       -9.7130     1.1820    -1.7350 H     1 <1>   0.1500 
 51 H      -11.4140     2.8310    -2.4050 H     1 <1>   0.1500 
@<TRIPOS>BOND
  1   1   2  2   
  2   2   3  am  
  3   2   4  1   
  4   3   5  1   
  5   3   6  1   
  6   4   7  1   
  7   4  28  1   
  8   4  29  1   
  9   5   8  1   
 10   5  30  1   
 11   5  31  1   
 12   6   9  1   
 13   6  32  1   
 14   6  33  1   
 15   7  10  am  
 16   7  34  1   
 17   8  11  1   
 18   8  12  1   
 19   8  13  1   
 20   9  12  1   
 21   9  35  1   
 22   9  36  1   
 23  10  14  2   
 24  10  15  1   
 25  11  16  ar  
 26  11  17  ar  
 27  12  37  1   
 28  12  38  1   
 29  13  18  1   
 30  13  39  1   
 31  13  40  1   
 32  15  41  1   
 33  15  42  1   
 34  15  43  1   
 35  16  19  ar  
 36  17  18  1   
 37  17  20  ar  
 38  18  44  1   
 39  18  45  1   
 40  19  21  ar  
 41  19  22  1   
 42  20  21  ar  
 43  20  46  1   
 44  22  23  ar  
 45  22  24  ar  
 46  23  25  ar  
 47  23  47  1   
 48  24  26  ar  
 49  24  48  1   
 50  25  27  ar  
 51  25  49  1   
 52  26  27  ar  
 53  26  50  1   
 54  27  51  1   
@<TRIPOS>SUBSTRUCTURE
  1 ****   8 GROUP 4 **** **** 0

# MOE 2024.06 (io_trps.svl 2023.06)
