@<TRIPOS>MOLECULE
NONAME
46 48 1 0 0 
SMALL
USER_CHARGES


@<TRIPOS>ATOM
  1 S        0.8280     0.5610     1.1490 S.3   1 <1>  -0.0800 
  2 C        1.6630     0.9410    -0.3510 C.2   1 <1>  -0.1400 
  3 C        1.1420    -1.1530     0.9470 C.2   1 <1>  -0.1100 
  4 C        2.1280    -0.1870    -0.9240 C.2   1 <1>  -0.1500 
  5 C        1.7280     2.4090    -0.7390 C.3   1 <1>   0.3800 
  6 C        1.8310    -1.3770    -0.1870 C.2   1 <1>  -0.1500 
  7 O        2.1690     2.4900    -2.0460 O.3   1 <1>  -0.6800 
  8 C        2.6880     3.2170     0.1670 C.3   1 <1>  -0.0800 
  9 C        2.7170     4.7120    -0.2110 C.3   1 <1>  -0.1600 
 10 C        4.1230     2.6490     0.1690 C.3   1 <1>  -0.1600 
 11 C        3.6980     5.5050     0.6510 C.3   1 <1>   0.3430 
 12 C        5.0710     3.4840     1.0240 C.3   1 <1>   0.3430 
 13 N        5.0580     4.8980     0.5550 N.4   1 <1>  -0.9590 
 14 C        6.1020     5.7040     1.2550 C.3   1 <1>   0.4810 
 15 C        6.1800     7.1060     0.6560 C.2   1 <1>  -0.0380 
 16 N        5.4430     8.1260     1.2230 N.pl3 1 <1>  -0.6000 
 17 C        6.9590     7.3730    -0.4290 C.2   1 <1>  -0.1360 
 18 C        5.4770     9.4000     0.6860 C.2   1 <1>  -0.0500 
 19 C        7.0310     8.6640    -1.0140 C.2   1 <1>   0.5410 
 20 C        6.2400     9.6980    -0.4010 C.2   1 <1>   0.0910 
 21 O        7.7470     8.8140    -2.0040 O.2   1 <1>  -0.5700 
 22 O        6.1870    10.9930    -0.8540 O.3   1 <1>  -0.3570 
 23 C        7.3390    11.5840    -1.4230 C.3   1 <1>   0.0400 
 24 H        0.7720    -1.8190     1.7060 H     1 <1>   0.1500 
 25 H        2.6790    -0.2420    -1.8470 H     1 <1>   0.1500 
 26 H        0.7370     2.8310    -0.7050 H     1 <1>   0.0800 
 27 H        2.1490    -2.3420    -0.5430 H     1 <1>   0.1500 
 28 H        1.6310     1.8830    -2.5920 H     1 <1>   0.4000 
 29 H        2.3050     3.1440     1.1710 H     1 <1>   0.0800 
 30 H        1.7330     5.1310    -0.0930 H     1 <1>   0.0800 
 31 H        2.9910     4.8320    -1.2460 H     1 <1>   0.0800 
 32 H        4.5060     2.5990    -0.8360 H     1 <1>   0.0800 
 33 H        4.1140     1.6440     0.5560 H     1 <1>   0.0800 
 34 H        3.3640     5.4990     1.6760 H     1 <1>   0.0800 
 35 H        3.7210     6.5270     0.3050 H     1 <1>   0.0800 
 36 H        6.0670     3.0770     0.9500 H     1 <1>   0.0800 
 37 H        4.7600     3.4360     2.0550 H     1 <1>   0.0800 
 38 H        5.2960     4.8940    -0.4460 H     1 <1>   0.4500 
 39 H        7.0610     5.2250     1.1400 H     1 <1>   0.0800 
 40 H        5.8850     5.7700     2.3080 H     1 <1>   0.0800 
 41 H        4.9010     7.9980     2.0900 H     1 <1>   0.4000 
 42 H        7.5610     6.6230    -0.9080 H     1 <1>   0.1500 
 43 H        4.8810    10.1640     1.1600 H     1 <1>   0.1500 
 44 H        7.1990    12.6490    -1.4330 H     1 <1>   0.0800 
 45 H        7.4530    11.2270    -2.4320 H     1 <1>   0.0800 
 46 H        8.2000    11.3300    -0.8300 H     1 <1>   0.0800 
@<TRIPOS>BOND
  1   1   2  1   
  2   1   3  1   
  3   2   4  2   
  4   2   5  1   
  5   3   6  2   
  6   3  24  1   
  7   4   6  1   
  8   4  25  1   
  9   5   7  1   
 10   5   8  1   
 11   5  26  1   
 12   6  27  1   
 13   7  28  1   
 14   8   9  1   
 15   8  10  1   
 16   8  29  1   
 17   9  11  1   
 18   9  30  1   
 19   9  31  1   
 20  10  12  1   
 21  10  32  1   
 22  10  33  1   
 23  11  13  1   
 24  11  34  1   
 25  11  35  1   
 26  12  13  1   
 27  12  36  1   
 28  12  37  1   
 29  13  14  1   
 30  13  38  1   
 31  14  15  1   
 32  14  39  1   
 33  14  40  1   
 34  15  16  1   
 35  15  17  2   
 36  16  18  1   
 37  16  41  1   
 38  17  19  1   
 39  17  42  1   
 40  18  20  2   
 41  18  43  1   
 42  19  20  1   
 43  19  21  2   
 44  20  22  1   
 45  22  23  1   
 46  23  44  1   
 47  23  45  1   
 48  23  46  1   
@<TRIPOS>SUBSTRUCTURE
  1 ****  13 GROUP 4 **** **** 0

# MOE 2024.06 (io_trps.svl 2023.06)
