@<TRIPOS>MOLECULE
NONAME
54 57 1 0 0 
SMALL
USER_CHARGES


@<TRIPOS>ATOM
  1 O       -1.4240     1.0470     2.1480 O.2   1 <1>  -0.5700 
  2 C       -2.2770     1.2310     1.3100 C.2   1 <1>   0.5690 
  3 N       -3.4420     0.5060     1.2920 N.am  1 <1>  -0.6600 
  4 C       -2.0340     2.3070     0.2620 C.3   1 <1>  -0.0990 
  5 C       -3.6530    -0.6450     2.2140 C.3   1 <1>   0.1400 
  6 C       -4.5820     0.7130     0.3550 C.3   1 <1>   0.1400 
  7 C       -0.5990     2.8510     0.2530 C.3   1 <1>   0.0200 
  8 C       -3.8190    -1.9250     1.3900 C.3   1 <1>  -0.1600 
  9 C       -4.7470    -0.5370    -0.5120 C.3   1 <1>  -0.1600 
 10 C       -0.4510     3.9240    -0.8140 C.2   1 <1>  -0.3320 
 11 C       -4.9430    -1.8050     0.3450 C.3   1 <1>   0.4240 
 12 N       -0.8340     5.2150    -0.6830 N.pl3 1 <1>   0.3140 
 13 C        0.0710     3.7980    -2.0530 C.2   1 <1>  -0.1500 
 14 O       -6.1010    -1.5880     1.1230 O.3   1 <1>  -0.5600 
 15 C       -5.0620    -3.0960    -0.5170 C.ar  1 <1>  -0.1430 
 16 N       -0.5830     5.9150    -1.8020 N.2   1 <1>  -0.7070 
 17 C       -1.4350     5.8630     0.4910 C.3   1 <1>   0.0160 
 18 C       -0.0400     5.0630    -2.6150 C.2   1 <1>   0.1390 
 19 C       -7.3350    -1.8830     0.5550 C.3   1 <1>   0.1200 
 20 C       -4.0160    -3.5470    -1.3340 C.ar  1 <1>   0.0820 
 21 C       -6.2400    -3.8420    -0.4900 C.ar  1 <1>  -0.1430 
 22 C       -7.4130    -3.3880     0.3530 C.3   1 <1>  -0.0170 
 23 O       -2.8660    -2.8240    -1.3930 O.3   1 <1>  -0.3630 
 24 C       -4.1600    -4.7170    -2.0770 C.ar  1 <1>  -0.1500 
 25 C       -6.3710    -5.0050    -1.2300 C.ar  1 <1>  -0.1500 
 26 C       -1.6960    -3.3040    -2.0170 C.3   1 <1>   0.0400 
 27 C       -5.3310    -5.4450    -2.0230 C.ar  1 <1>  -0.1500 
 28 H       -2.7210     3.1100     0.4420 H     1 <1>   0.0800 
 29 H       -2.2370     1.8930    -0.7080 H     1 <1>   0.0800 
 30 H       -4.5350    -0.4680     2.8060 H     1 <1>   0.0800 
 31 H       -2.8200    -0.7560     2.8870 H     1 <1>   0.0800 
 32 H       -4.4290     1.5720    -0.2710 H     1 <1>   0.0800 
 33 H       -5.4780     0.8810     0.9290 H     1 <1>   0.0800 
 34 H        0.0810     2.0430     0.0430 H     1 <1>   0.0800 
 35 H       -0.3400     3.2490     1.2190 H     1 <1>   0.0800 
 36 H       -4.0340    -2.7520     2.0410 H     1 <1>   0.0800 
 37 H       -2.8780    -2.1290     0.9200 H     1 <1>   0.0800 
 38 H       -3.8690    -0.6290    -1.1190 H     1 <1>   0.0800 
 39 H       -5.5760    -0.4160    -1.1820 H     1 <1>   0.0800 
 40 H        0.4860     2.9290    -2.5290 H     1 <1>   0.1500 
 41 H       -0.8650     5.6150     1.3650 H     1 <1>   0.0800 
 42 H       -2.4480     5.5260     0.6000 H     1 <1>   0.0800 
 43 H       -1.4250     6.9280     0.3460 H     1 <1>   0.0800 
 44 H        0.2840     5.3180    -3.6100 H     1 <1>   0.1500 
 45 H       -7.4350    -1.3580    -0.3790 H     1 <1>   0.0800 
 46 H       -8.1000    -1.5510     1.2340 H     1 <1>   0.0800 
 47 H       -8.3410    -3.6300    -0.1330 H     1 <1>   0.0800 
 48 H       -7.3890    -3.8810     1.3090 H     1 <1>   0.0800 
 49 H       -3.3740    -5.0810    -2.7090 H     1 <1>   0.1500 
 50 H       -7.2830    -5.5750    -1.1920 H     1 <1>   0.1500 
 51 H       -0.9100    -2.5900    -1.8440 H     1 <1>   0.0800 
 52 H       -1.8760    -3.3990    -3.0730 H     1 <1>   0.0800 
 53 H       -1.4310    -4.2510    -1.5810 H     1 <1>   0.0800 
 54 H       -5.4360    -6.3490    -2.5970 H     1 <1>   0.1500 
@<TRIPOS>BOND
  1   1   2  2   
  2   2   3  am  
  3   2   4  1   
  4   3   5  1   
  5   3   6  1   
  6   4   7  1   
  7   4  28  1   
  8   4  29  1   
  9   5   8  1   
 10   5  30  1   
 11   5  31  1   
 12   6   9  1   
 13   6  32  1   
 14   6  33  1   
 15   7  10  1   
 16   7  34  1   
 17   7  35  1   
 18   8  11  1   
 19   8  36  1   
 20   8  37  1   
 21   9  11  1   
 22   9  38  1   
 23   9  39  1   
 24  10  12  1   
 25  10  13  2   
 26  11  14  1   
 27  11  15  1   
 28  12  16  1   
 29  12  17  1   
 30  13  18  1   
 31  13  40  1   
 32  14  19  1   
 33  15  20  ar  
 34  15  21  ar  
 35  16  18  2   
 36  17  41  1   
 37  17  42  1   
 38  17  43  1   
 39  18  44  1   
 40  19  22  1   
 41  19  45  1   
 42  19  46  1   
 43  20  23  1   
 44  20  24  ar  
 45  21  22  1   
 46  21  25  ar  
 47  22  47  1   
 48  22  48  1   
 49  23  26  1   
 50  24  27  ar  
 51  24  49  1   
 52  25  27  ar  
 53  25  50  1   
 54  26  51  1   
 55  26  52  1   
 56  26  53  1   
 57  27  54  1   
@<TRIPOS>SUBSTRUCTURE
  1 ****   9 GROUP 4 **** **** 0

# MOE 2024.06 (io_trps.svl 2023.06)
