@<TRIPOS>MOLECULE
NONAME
44 47 1 0 0 
SMALL
USER_CHARGES


@<TRIPOS>ATOM
  1 CL      -0.3850    -1.8850    -3.7040 Cl    1 <1>  -0.1770 
  2 C        0.4850    -1.6380    -2.1990 C.ar  1 <1>   0.1770 
  3 C        0.2010    -2.4130    -1.0630 C.ar  1 <1>   0.4100 
  4 C        1.4510    -0.6620    -2.1650 C.ar  1 <1>  -0.1500 
  5 N        0.8410    -2.2370     0.0940 N.ar  1 <1>  -0.6200 
  6 N       -0.7890    -3.3880    -1.0850 N.pl3 1 <1>  -0.8380 
  7 C        2.1100    -0.4920    -0.9630 C.ar  1 <1>  -0.1500 
  8 C        1.7690    -1.2940     0.1130 C.ar  1 <1>   0.1600 
  9 C       -2.1840    -2.9060    -0.9850 C.3   1 <1>   0.2090 
 10 C       -0.6490    -4.6230    -0.2690 C.3   1 <1>   0.2090 
 11 C       -2.6570    -3.3800     0.3860 C.3   1 <1>  -0.0800 
 12 C       -1.8180    -4.6280     0.7240 C.3   1 <1>  -0.0800 
 13 C       -4.1890    -3.5280     0.5340 C.3   1 <1>   0.4240 
 14 C       -2.6250    -5.9380     0.6940 C.3   1 <1>  -0.1600 
 15 O       -4.6980    -4.1790    -0.5770 O.3   1 <1>  -0.6800 
 16 C       -4.8630    -2.1470     0.6730 C.ar  1 <1>  -0.1430 
 17 C       -4.4940    -4.4590     1.7200 C.3   1 <1>  -0.1600 
 18 C       -3.8830    -5.8750     1.5840 C.3   1 <1>  -0.1600 
 19 C       -4.6540    -1.3850     1.8190 C.ar  1 <1>  -0.1500 
 20 C       -5.6740    -1.6100    -0.3240 C.ar  1 <1>  -0.1500 
 21 C       -5.2360    -0.1380     1.9680 C.ar  1 <1>  -0.1500 
 22 C       -6.2570    -0.3640    -0.1790 C.ar  1 <1>  -0.1500 
 23 C       -6.0400     0.3750     0.9680 C.ar  1 <1>  -0.1500 
 24 H        1.6740    -0.0670    -3.0310 H     1 <1>   0.1500 
 25 H        2.8790     0.2530    -0.8620 H     1 <1>   0.1500 
 26 H        2.2900    -1.1500     1.0450 H     1 <1>   0.1500 
 27 H       -2.2420    -1.8330    -1.0630 H     1 <1>   0.0800 
 28 H       -2.7530    -3.3460    -1.7850 H     1 <1>   0.0800 
 29 H       -0.7000    -5.4730    -0.9260 H     1 <1>   0.0800 
 30 H        0.2950    -4.6520     0.2490 H     1 <1>   0.0800 
 31 H       -2.3390    -2.6220     1.0780 H     1 <1>   0.0800 
 32 H       -1.4140    -4.5100     1.7150 H     1 <1>   0.0800 
 33 H       -2.9140    -6.1460    -0.3220 H     1 <1>   0.0800 
 34 H       -2.0020    -6.7560     1.0150 H     1 <1>   0.0800 
 35 H       -4.3490    -5.0880    -0.5660 H     1 <1>   0.4000 
 36 H       -4.0900    -4.0130     2.6100 H     1 <1>   0.0800 
 37 H       -5.5590    -4.5240     1.8610 H     1 <1>   0.0800 
 38 H       -3.6370    -6.2310     2.5700 H     1 <1>   0.0800 
 39 H       -4.6230    -6.5470     1.1830 H     1 <1>   0.0800 
 40 H       -4.0290    -1.7510     2.6130 H     1 <1>   0.1500 
 41 H       -5.8620    -2.1580    -1.2310 H     1 <1>   0.1500 
 42 H       -5.0620     0.4340     2.8620 H     1 <1>   0.1500 
 43 H       -6.8810     0.0290    -0.9630 H     1 <1>   0.1500 
 44 H       -6.4930     1.3440     1.0810 H     1 <1>   0.1500 
@<TRIPOS>BOND
  1   1   2  1   
  2   2   3  ar  
  3   2   4  ar  
  4   3   5  ar  
  5   3   6  1   
  6   4   7  ar  
  7   4  24  1   
  8   5   8  ar  
  9   6   9  1   
 10   6  10  1   
 11   7   8  ar  
 12   7  25  1   
 13   8  26  1   
 14   9  11  1   
 15   9  27  1   
 16   9  28  1   
 17  10  12  1   
 18  10  29  1   
 19  10  30  1   
 20  11  12  1   
 21  11  13  1   
 22  11  31  1   
 23  12  14  1   
 24  12  32  1   
 25  13  15  1   
 26  13  16  1   
 27  13  17  1   
 28  14  18  1   
 29  14  33  1   
 30  14  34  1   
 31  15  35  1   
 32  16  19  ar  
 33  16  20  ar  
 34  17  18  1   
 35  17  36  1   
 36  17  37  1   
 37  18  38  1   
 38  18  39  1   
 39  19  21  ar  
 40  19  40  1   
 41  20  22  ar  
 42  20  41  1   
 43  21  23  ar  
 44  21  42  1   
 45  22  23  ar  
 46  22  43  1   
 47  23  44  1   
@<TRIPOS>SUBSTRUCTURE
  1 ****   9 GROUP 4 **** **** 0

# MOE 2024.06 (io_trps.svl 2023.06)
