@<TRIPOS>MOLECULE
NONAME
46 47 1 0 0 
SMALL
USER_CHARGES


@<TRIPOS>ATOM
  1 S        0.2260     0.2290    -0.3040 S.3   1 <1>  -0.4600 
  2 C       -0.8000    -0.7840     0.7980 C.3   1 <1>   0.2140 
  3 C        0.0300     1.8990     0.3710 C.3   1 <1>   0.0700 
  4 C       -0.6980    -2.2330     0.3540 C.ar  1 <1>  -0.1430 
  5 C        0.8530     2.8550    -0.4950 C.3   1 <1>  -0.0990 
  6 C        0.1430    -3.1140     1.0190 C.ar  1 <1>  -0.1500 
  7 C       -1.4490    -2.6890    -0.7180 C.ar  1 <1>  -0.1500 
  8 C        0.7790     4.2940    -0.0120 C.2   1 <1>   0.5690 
  9 C        0.2250    -4.4370     0.6210 C.ar  1 <1>  -0.1500 
 10 C       -1.3670    -4.0120    -1.1180 C.ar  1 <1>  -0.1500 
 11 O       -0.0590     4.5800     0.8120 O.2   1 <1>  -0.5700 
 12 N        1.6410     5.2350    -0.5110 N.am  1 <1>  -0.6600 
 13 C       -0.5310    -4.8870    -0.4470 C.ar  1 <1>  -0.1500 
 14 C        1.6640     6.6210     0.0740 C.3   1 <1>   0.3210 
 15 C        2.5940     5.0030    -1.6370 C.3   1 <1>   0.0600 
 16 C        3.0690     7.1150     0.4220 C.2   1 <1>   0.3350 
 17 N        3.6190     7.0060     1.5670 N.2   1 <1>  -0.4100 
 18 N        3.8400     7.7250    -0.4750 N.2   1 <1>  -0.5650 
 19 O        4.7980     7.5420     1.4800 O.3   1 <1>  -0.0190 
 20 C        4.8700     7.9540     0.2380 C.2   1 <1>   0.2980 
 21 C        6.1400     8.6530    -0.2400 C.3   1 <1>   0.1000 
 22 C        7.3560     7.7210    -0.1430 C.3   1 <1>  -0.2400 
 23 C        6.3930     9.9450     0.5500 C.3   1 <1>  -0.2400 
 24 H       -1.8100    -0.4220     0.7240 H     1 <1>   0.0800 
 25 H       -0.4310    -0.6470     1.7980 H     1 <1>   0.0800 
 26 H        0.3830     1.8870     1.3880 H     1 <1>   0.0800 
 27 H       -1.0170     2.1440     0.3430 H     1 <1>   0.0800 
 28 H        0.4890     2.8130    -1.5040 H     1 <1>   0.0800 
 29 H        1.8780     2.5350    -0.4790 H     1 <1>   0.0800 
 30 H        0.7390    -2.7720     1.8470 H     1 <1>   0.1500 
 31 H       -2.0950    -2.0120    -1.2480 H     1 <1>   0.1500 
 32 H        0.8790    -5.1150     1.1400 H     1 <1>   0.1500 
 33 H       -1.9520    -4.3590    -1.9510 H     1 <1>   0.1500 
 34 H       -0.4660    -5.9150    -0.7570 H     1 <1>   0.1500 
 35 H        1.0730     6.6570     0.9710 H     1 <1>   0.0800 
 36 H        1.2240     7.3030    -0.6310 H     1 <1>   0.0800 
 37 H        2.3040     4.1530    -2.2280 H     1 <1>   0.0800 
 38 H        3.5830     4.8370    -1.2440 H     1 <1>   0.0800 
 39 H        2.6180     5.8660    -2.2800 H     1 <1>   0.0800 
 40 H        5.9980     8.9150    -1.2740 H     1 <1>   0.0800 
 41 H        7.5410     7.4450     0.8800 H     1 <1>   0.0800 
 42 H        8.2330     8.2070    -0.5340 H     1 <1>   0.0800 
 43 H        7.1780     6.8260    -0.7130 H     1 <1>   0.0800 
 44 H        6.5540     9.7270     1.5910 H     1 <1>   0.0800 
 45 H        5.5430    10.5990     0.4650 H     1 <1>   0.0800 
 46 H        7.2580    10.4560     0.1660 H     1 <1>   0.0800 
@<TRIPOS>BOND
  1   1   2  1   
  2   1   3  1   
  3   2   4  1   
  4   2  24  1   
  5   2  25  1   
  6   3   5  1   
  7   3  26  1   
  8   3  27  1   
  9   4   6  ar  
 10   4   7  ar  
 11   5   8  1   
 12   5  28  1   
 13   5  29  1   
 14   6   9  ar  
 15   6  30  1   
 16   7  10  ar  
 17   7  31  1   
 18   8  11  2   
 19   8  12  am  
 20   9  13  ar  
 21   9  32  1   
 22  10  13  ar  
 23  10  33  1   
 24  12  14  1   
 25  12  15  1   
 26  13  34  1   
 27  14  16  1   
 28  14  35  1   
 29  14  36  1   
 30  15  37  1   
 31  15  38  1   
 32  15  39  1   
 33  16  17  2   
 34  16  18  1   
 35  17  19  1   
 36  18  20  2   
 37  19  20  1   
 38  20  21  1   
 39  21  22  1   
 40  21  23  1   
 41  21  40  1   
 42  22  41  1   
 43  22  42  1   
 44  22  43  1   
 45  23  44  1   
 46  23  45  1   
 47  23  46  1   
@<TRIPOS>SUBSTRUCTURE
  1 ****   5 GROUP 4 **** **** 0

# MOE 2024.06 (io_trps.svl 2023.06)
