@<TRIPOS>MOLECULE
NONAME
48 51 1 0 0 
SMALL
USER_CHARGES


@<TRIPOS>ATOM
  1 O        0.5240     2.0100     0.2700 O.2   1 <1>  -0.5700 
  2 C       -0.4060     2.7700     0.4170 C.2   1 <1>   0.5690 
  3 N       -1.7090     2.3310     0.3540 N.am  1 <1>  -0.6600 
  4 C       -0.0580     4.2460     0.6580 C.3   1 <1>   0.1810 
  5 C       -2.9120     3.1940     0.5920 C.3   1 <1>   0.1400 
  6 C       -2.0380     0.9000     0.0990 C.3   1 <1>   0.1400 
  7 O       -0.5090     4.7470     1.8950 O.3   1 <1>  -0.5600 
  8 C       -3.8860     3.1260    -0.6000 C.3   1 <1>   0.1430 
  9 C       -2.9950     0.7890    -1.0940 C.3   1 <1>  -0.1600 
 10 C        0.0990     4.1650     3.0060 C.3   1 <1>   0.0400 
 11 C       -5.1060     3.9680    -0.2730 C.ar  1 <1>   0.1670 
 12 C       -4.2510     1.6550    -0.8970 C.3   1 <1>  -0.1600 
 13 C       -3.3100     3.8480    -1.8480 C.3   1 <1>  -0.1600 
 14 N       -6.0530     3.6410     0.5730 N.ar  1 <1>  -0.6200 
 15 C       -5.1050     5.1410    -0.9630 C.ar  1 <1>  -0.1440 
 16 C       -3.8930     5.2720    -1.8510 C.3   1 <1>  -0.0170 
 17 C       -7.0430     4.5320     0.7190 C.ar  1 <1>   0.6200 
 18 C       -6.1510     6.0020    -0.7580 C.ar  1 <1>   0.1600 
 19 N       -7.1210     5.7070     0.0770 N.ar  1 <1>  -0.6200 
 20 C       -8.1150     4.1970     1.6480 C.ar  1 <1>   0.0000 
 21 C       -8.8630     5.1860     2.2940 C.ar  1 <1>  -0.1500 
 22 C       -8.4470     2.8700     1.9380 C.ar  1 <1>  -0.1500 
 23 C       -9.8810     4.8720     3.1760 C.ar  1 <1>  -0.1500 
 24 C       -9.4630     2.5470     2.8190 C.ar  1 <1>  -0.1500 
 25 C      -10.1850     3.5500     3.4410 C.ar  1 <1>  -0.1500 
 26 H       -0.5080     4.8400    -0.1140 H     1 <1>   0.0800 
 27 H        1.0080     4.3790     0.6080 H     1 <1>   0.0800 
 28 H       -2.6350     4.2170     0.7630 H     1 <1>   0.0800 
 29 H       -3.4140     2.8450     1.4780 H     1 <1>   0.0800 
 30 H       -2.5000     0.4880     0.9790 H     1 <1>   0.0800 
 31 H       -1.1450     0.3330    -0.1040 H     1 <1>   0.0800 
 32 H       -3.2840    -0.2400    -1.2170 H     1 <1>   0.0800 
 33 H       -2.4730     1.0870    -1.9870 H     1 <1>   0.0800 
 34 H       -0.2730     4.6570     3.8870 H     1 <1>   0.0800 
 35 H        1.1650     4.2960     2.9410 H     1 <1>   0.0800 
 36 H       -0.1510     3.1180     3.0470 H     1 <1>   0.0800 
 37 H       -4.8830     1.5970    -1.7660 H     1 <1>   0.0800 
 38 H       -4.8120     1.2620    -0.0660 H     1 <1>   0.0800 
 39 H       -3.6520     3.3480    -2.7380 H     1 <1>   0.0800 
 40 H       -2.2350     3.8560    -1.8630 H     1 <1>   0.0800 
 41 H       -4.1580     5.5900    -2.8440 H     1 <1>   0.0800 
 42 H       -3.1980     5.9690    -1.4140 H     1 <1>   0.0800 
 43 H       -6.1940     6.9420    -1.2810 H     1 <1>   0.1500 
 44 H       -8.6420     6.2220     2.1020 H     1 <1>   0.1500 
 45 H       -7.8990     2.0750     1.4630 H     1 <1>   0.1500 
 46 H      -10.4390     5.6580     3.6560 H     1 <1>   0.1500 
 47 H       -9.6930     1.5160     3.0200 H     1 <1>   0.1500 
 48 H      -10.9760     3.3020     4.1260 H     1 <1>   0.1500 
@<TRIPOS>BOND
  1   1   2  2   
  2   2   3  am  
  3   2   4  1   
  4   3   5  1   
  5   3   6  1   
  6   4   7  1   
  7   4  26  1   
  8   4  27  1   
  9   5   8  1   
 10   5  28  1   
 11   5  29  1   
 12   6   9  1   
 13   6  30  1   
 14   6  31  1   
 15   7  10  1   
 16   8  11  1   
 17   8  12  1   
 18   8  13  1   
 19   9  12  1   
 20   9  32  1   
 21   9  33  1   
 22  10  34  1   
 23  10  35  1   
 24  10  36  1   
 25  11  14  ar  
 26  11  15  ar  
 27  12  37  1   
 28  12  38  1   
 29  13  16  1   
 30  13  39  1   
 31  13  40  1   
 32  14  17  ar  
 33  15  16  1   
 34  15  18  ar  
 35  16  41  1   
 36  16  42  1   
 37  17  19  ar  
 38  17  20  1   
 39  18  19  ar  
 40  18  43  1   
 41  20  21  ar  
 42  20  22  ar  
 43  21  23  ar  
 44  21  44  1   
 45  22  24  ar  
 46  22  45  1   
 47  23  25  ar  
 48  23  46  1   
 49  24  25  ar  
 50  24  47  1   
 51  25  48  1   
@<TRIPOS>SUBSTRUCTURE
  1 ****  11 GROUP 4 **** **** 0

# MOE 2024.06 (io_trps.svl 2023.06)
