@<TRIPOS>MOLECULE
NONAME
50 52 1 0 0 
SMALL
USER_CHARGES


@<TRIPOS>ATOM
  1 O       -1.7540     2.7470    -2.2940 O.3   1 <1>  -0.0190 
  2 N       -2.7210     1.9080    -2.0860 N.2   1 <1>  -0.4100 
  3 C       -0.8270     2.3640    -1.4570 C.2   1 <1>   0.2980 
  4 C       -2.3380     1.0930    -1.1820 C.2   1 <1>   0.3350 
  5 N       -1.1000     1.3350    -0.7560 N.2   1 <1>  -0.5650 
  6 C        0.4570     3.1730    -1.3610 C.3   1 <1>   0.5230 
  7 C       -3.1880    -0.0410    -0.6130 C.3   1 <1>   0.3010 
  8 N        1.2520     2.7400    -0.1640 N.4   1 <1>  -0.9590 
  9 O       -3.3670     0.1320     0.7670 O.3   1 <1>  -0.5600 
 10 C        1.1280     3.6490     1.0260 C.3   1 <1>   0.4230 
 11 C        2.6600     2.5000    -0.5930 C.3   1 <1>   0.3430 
 12 C       -4.1610    -0.8430     1.3640 C.3   1 <1>   0.0400 
 13 C        2.0020     3.1010     2.1700 C.3   1 <1>  -0.1600 
 14 C       -0.3160     3.7880     1.5720 C.3   1 <1>  -0.1600 
 15 C        3.4850     1.9160     0.5490 C.3   1 <1>  -0.1600 
 16 C        3.4540     2.8420     1.7630 C.3   1 <1>  -0.1600 
 17 C       -1.3160     4.7150     0.8470 C.3   1 <1>  -0.0160 
 18 C       -0.6770     5.8990     0.1330 C.ar  1 <1>  -0.1440 
 19 C        0.2820     6.6810     0.7590 C.ar  1 <1>  -0.1500 
 20 C       -1.0650     6.2160    -1.1630 C.ar  1 <1>  -0.1500 
 21 C        0.8780     7.7270     0.0800 C.ar  1 <1>   0.0820 
 22 C       -0.4740     7.2730    -1.8360 C.ar  1 <1>  -0.1500 
 23 O        1.8250     8.4430     0.7000 O.3   1 <1>  -0.5330 
 24 C        0.5050     8.0300    -1.2190 C.ar  1 <1>  -0.1500 
 25 H        0.2350     4.2200    -1.3020 H     1 <1>   0.0800 
 26 H        1.0200     3.0040    -2.2620 H     1 <1>   0.0800 
 27 H       -2.6950    -0.9820    -0.7810 H     1 <1>   0.0800 
 28 H       -4.1530    -0.0450    -1.0880 H     1 <1>   0.0800 
 29 H        0.8290     1.8380     0.1140 H     1 <1>   0.4500 
 30 H        1.5070     4.6220     0.7610 H     1 <1>   0.0800 
 31 H        3.1060     3.4300    -0.9070 H     1 <1>   0.0800 
 32 H        2.6810     1.8150    -1.4260 H     1 <1>   0.0800 
 33 H       -4.2320    -0.6200     2.4140 H     1 <1>   0.0800 
 34 H       -3.7040    -1.8090     1.2300 H     1 <1>   0.0800 
 35 H       -5.1440    -0.8230     0.9250 H     1 <1>   0.0800 
 36 H        1.5700     2.1880     2.5450 H     1 <1>   0.0800 
 37 H        2.0030     3.8080     2.9820 H     1 <1>   0.0800 
 38 H       -0.2330     4.1990     2.5630 H     1 <1>   0.0800 
 39 H       -0.7580     2.8140     1.6970 H     1 <1>   0.0800 
 40 H        4.5030     1.7900     0.2210 H     1 <1>   0.0800 
 41 H        3.1060     0.9420     0.8100 H     1 <1>   0.0800 
 42 H        3.9890     2.3910     2.5820 H     1 <1>   0.0800 
 43 H        3.9390     3.7750     1.5260 H     1 <1>   0.0800 
 44 H       -2.0160     5.0990     1.5710 H     1 <1>   0.0800 
 45 H       -1.9050     4.1430     0.1540 H     1 <1>   0.0800 
 46 H        0.5770     6.4990     1.7770 H     1 <1>   0.1500 
 47 H       -1.8380     5.6520    -1.6570 H     1 <1>   0.1500 
 48 H       -0.7840     7.5130    -2.8400 H     1 <1>   0.1500 
 49 H        2.1170     9.2220     0.1920 H     1 <1>   0.4500 
 50 H        0.9630     8.8490    -1.7440 H     1 <1>   0.1500 
@<TRIPOS>BOND
  1   1   2  1   
  2   1   3  1   
  3   2   4  2   
  4   3   5  2   
  5   3   6  1   
  6   4   5  1   
  7   4   7  1   
  8   6   8  1   
  9   6  25  1   
 10   6  26  1   
 11   7   9  1   
 12   7  27  1   
 13   7  28  1   
 14   8  10  1   
 15   8  11  1   
 16   8  29  1   
 17   9  12  1   
 18  10  13  1   
 19  10  14  1   
 20  10  30  1   
 21  11  15  1   
 22  11  31  1   
 23  11  32  1   
 24  12  33  1   
 25  12  34  1   
 26  12  35  1   
 27  13  16  1   
 28  13  36  1   
 29  13  37  1   
 30  14  17  1   
 31  14  38  1   
 32  14  39  1   
 33  15  16  1   
 34  15  40  1   
 35  15  41  1   
 36  16  42  1   
 37  16  43  1   
 38  17  18  1   
 39  17  44  1   
 40  17  45  1   
 41  18  19  ar  
 42  18  20  ar  
 43  19  21  ar  
 44  19  46  1   
 45  20  22  ar  
 46  20  47  1   
 47  21  23  1   
 48  21  24  ar  
 49  22  24  ar  
 50  22  48  1   
 51  23  49  1   
 52  24  50  1   
@<TRIPOS>SUBSTRUCTURE
  1 ****   6 GROUP 4 **** **** 0

# MOE 2024.06 (io_trps.svl 2023.06)
