@<TRIPOS>MOLECULE
NONAME
41 42 1 0 0 
SMALL
USER_CHARGES


@<TRIPOS>ATOM
  1 CL      -1.9450     0.1190    -1.2800 Cl    1 <1>  -0.1770 
  2 C       -2.6630    -1.1510    -0.3180 C.ar  1 <1>   0.1770 
  3 C       -3.2090    -0.8730     0.9230 C.ar  1 <1>   0.1770 
  4 C       -2.6760    -2.4390    -0.8160 C.ar  1 <1>  -0.1500 
  5 CL      -3.2000     0.7490     1.5690 Cl    1 <1>  -0.1770 
  6 C       -3.7740    -1.8890     1.6700 C.ar  1 <1>  -0.1500 
  7 C       -3.2360    -3.4900    -0.0840 C.ar  1 <1>   0.0860 
  8 C       -3.7860    -3.1800     1.1670 C.ar  1 <1>  -0.1500 
  9 C       -3.2360    -4.8430    -0.6200 C.2   1 <1>   0.5440 
 10 O       -3.0510    -5.0420    -1.8030 O.2   1 <1>  -0.5700 
 11 N       -3.4480    -5.9270     0.1810 N.am  1 <1>  -0.7300 
 12 C       -3.3440    -7.3450    -0.2440 C.3   1 <1>   0.2200 
 13 C       -4.7220    -7.9580    -0.4360 C.3   1 <1>  -0.0800 
 14 C       -2.8440    -8.1640     0.9360 C.3   1 <1>   0.1200 
 15 C       -5.1240    -8.3430     0.9950 C.3   1 <1>   0.1200 
 16 C       -5.7310    -7.0630    -1.1890 C.3   1 <1>  -0.0550 
 17 O       -3.9560    -8.2980     1.7660 O.3   1 <1>  -0.5600 
 18 S       -7.2770    -7.8780    -1.5990 S.o2  1 <1>   1.3330 
 19 O       -6.9670    -9.1830    -2.1390 O.2   1 <1>  -0.6500 
 20 O       -8.1070    -6.9670    -2.3530 O.2   1 <1>  -0.6500 
 21 N       -8.0230    -8.1030    -0.0880 N.am  1 <1>  -0.8490 
 22 C       -8.7530    -6.9200     0.3810 C.3   1 <1>   0.1160 
 23 C       -8.9140    -9.2680    -0.0790 C.3   1 <1>   0.1160 
 24 H       -2.2470    -2.6320    -1.7850 H     1 <1>   0.1500 
 25 H       -4.1990    -1.6650     2.6330 H     1 <1>   0.1500 
 26 H       -4.2370    -3.9560     1.7600 H     1 <1>   0.1500 
 27 H       -3.5960    -5.8230     1.1870 H     1 <1>   0.3700 
 28 H       -2.7140    -7.4440    -1.1130 H     1 <1>   0.0800 
 29 H       -4.5990    -8.8700    -0.9940 H     1 <1>   0.0800 
 30 H       -2.0420    -7.6860     1.4710 H     1 <1>   0.0800 
 31 H       -2.5420    -9.1490     0.6220 H     1 <1>   0.0800 
 32 H       -5.5360    -9.3370     1.0390 H     1 <1>   0.0800 
 33 H       -5.8200    -7.6420     1.4200 H     1 <1>   0.0800 
 34 H       -5.2690    -6.7450    -2.1040 H     1 <1>   0.0800 
 35 H       -5.9370    -6.1830    -0.6150 H     1 <1>   0.0800 
 36 H       -9.1240    -7.0860     1.3780 H     1 <1>   0.0800 
 37 H       -9.5840    -6.7070    -0.2710 H     1 <1>   0.0800 
 38 H       -8.1010    -6.0640     0.3990 H     1 <1>   0.0800 
 39 H       -9.3630    -9.3880     0.8920 H     1 <1>   0.0800 
 40 H       -8.3560   -10.1620    -0.3040 H     1 <1>   0.0800 
 41 H       -9.6900    -9.1510    -0.8180 H     1 <1>   0.0800 
@<TRIPOS>BOND
  1   1   2  1   
  2   2   3  ar  
  3   2   4  ar  
  4   3   5  1   
  5   3   6  ar  
  6   4   7  ar  
  7   4  24  1   
  8   6   8  ar  
  9   6  25  1   
 10   7   8  ar  
 11   7   9  1   
 12   8  26  1   
 13   9  10  2   
 14   9  11  am  
 15  11  12  1   
 16  11  27  1   
 17  12  13  1   
 18  12  14  1   
 19  12  28  1   
 20  13  15  1   
 21  13  16  1   
 22  13  29  1   
 23  14  17  1   
 24  14  30  1   
 25  14  31  1   
 26  15  17  1   
 27  15  32  1   
 28  15  33  1   
 29  16  18  1   
 30  16  34  1   
 31  16  35  1   
 32  18  19  2   
 33  18  20  2   
 34  18  21  am  
 35  21  22  1   
 36  21  23  1   
 37  22  36  1   
 38  22  37  1   
 39  22  38  1   
 40  23  39  1   
 41  23  40  1   
 42  23  41  1   
@<TRIPOS>SUBSTRUCTURE
  1 ****  11 GROUP 4 **** **** 0

# MOE 2024.06 (io_trps.svl 2023.06)
