@<TRIPOS>MOLECULE
NONAME
53 57 1 0 0 
SMALL
USER_CHARGES


@<TRIPOS>ATOM
  1 O       -3.2870    -0.8260     2.2460 O.2   1 <1>  -0.5700 
  2 C       -2.4570    -1.1720     1.4250 C.2   1 <1>   0.8410 
  3 N       -1.7900    -0.2040     0.7210 N.2   1 <1>  -0.6610 
  4 N       -2.2190    -2.5160     1.1880 N.am  1 <1>  -0.4690 
  5 C       -0.9190    -0.5840    -0.1420 C.2   1 <1>   0.3760 
  6 C       -1.2830    -2.9010     0.2610 C.2   1 <1>  -0.0410 
  7 C       -2.9850    -3.5680     1.9320 C.3   1 <1>   0.2010 
  8 C       -0.6190    -1.9360    -0.4150 C.2   1 <1>  -0.1360 
  9 C       -3.7720    -4.4960     1.0050 C.2   1 <1>   0.5690 
 10 O       -3.2420    -5.5450     0.7140 O.2   1 <1>  -0.5700 
 11 N       -5.0190    -4.1750     0.5240 N.am  1 <1>  -0.6600 
 12 C       -5.7510    -2.8930     0.7930 C.3   1 <1>   0.1400 
 13 C       -5.7720    -5.1790    -0.2920 C.3   1 <1>   0.1400 
 14 C       -6.1870    -2.1880    -0.5150 C.3   1 <1>   0.1430 
 15 C       -6.9750    -4.5630    -1.0250 C.3   1 <1>  -0.1600 
 16 C       -7.3050    -1.2240    -0.1540 C.ar  1 <1>   0.1670 
 17 C       -6.6080    -3.1950    -1.6170 C.3   1 <1>  -0.1600 
 18 C       -5.0930    -1.2220    -1.0400 C.3   1 <1>  -0.1600 
 19 N       -8.5450    -1.5610     0.1100 N.ar  1 <1>  -0.6200 
 20 C       -6.8670     0.0630    -0.1180 C.ar  1 <1>  -0.1440 
 21 C       -5.4000     0.1670    -0.4510 C.3   1 <1>  -0.0170 
 22 C       -9.3750    -0.5530     0.4120 C.ar  1 <1>   0.6200 
 23 C       -7.7740     1.0380     0.2050 C.ar  1 <1>   0.1600 
 24 N       -9.0270     0.7410     0.4690 N.ar  1 <1>  -0.6200 
 25 C      -10.7630    -0.8920     0.7000 C.ar  1 <1>   0.0000 
 26 C      -11.3650    -2.0350     0.1650 C.ar  1 <1>  -0.1500 
 27 C      -11.5590    -0.0910     1.5250 C.ar  1 <1>  -0.1500 
 28 C      -12.6820    -2.3620     0.4370 C.ar  1 <1>  -0.1500 
 29 C      -12.8760    -0.4110     1.8010 C.ar  1 <1>  -0.1500 
 30 C      -13.4420    -1.5490     1.2570 C.ar  1 <1>  -0.1500 
 31 H       -0.3800     0.1620    -0.6990 H     1 <1>   0.0600 
 32 H       -1.1110    -3.9560     0.1020 H     1 <1>   0.1500 
 33 H       -3.6560    -3.1330     2.6490 H     1 <1>   0.0800 
 34 H       -2.2830    -4.1660     2.4840 H     1 <1>   0.0800 
 35 H        0.1270    -2.1610    -1.1550 H     1 <1>   0.1500 
 36 H       -5.1680    -2.2160     1.3870 H     1 <1>   0.0800 
 37 H       -6.6300    -3.1330     1.3660 H     1 <1>   0.0800 
 38 H       -6.1040    -5.9790     0.3470 H     1 <1>   0.0800 
 39 H       -5.0990    -5.5980    -1.0210 H     1 <1>   0.0800 
 40 H       -7.8000    -4.4560    -0.3420 H     1 <1>   0.0800 
 41 H       -7.2900    -5.2300    -1.8080 H     1 <1>   0.0800 
 42 H       -5.7910    -3.3480    -2.3000 H     1 <1>   0.0800 
 43 H       -7.4360    -2.8020    -2.1810 H     1 <1>   0.0800 
 44 H       -5.1730    -1.1410    -2.1110 H     1 <1>   0.0800 
 45 H       -4.1020    -1.5590    -0.8040 H     1 <1>   0.0800 
 46 H       -5.2020     0.9510    -1.1590 H     1 <1>   0.0800 
 47 H       -4.8370     0.3400     0.4500 H     1 <1>   0.0800 
 48 H       -7.4710     2.0700     0.2490 H     1 <1>   0.1500 
 49 H      -10.7920    -2.6800    -0.4770 H     1 <1>   0.1500 
 50 H      -11.1380     0.7990     1.9590 H     1 <1>   0.1500 
 51 H      -13.1150    -3.2490     0.0100 H     1 <1>   0.1500 
 52 H      -13.4620     0.2270     2.4400 H     1 <1>   0.1500 
 53 H      -14.4660    -1.8000     1.4700 H     1 <1>   0.1500 
@<TRIPOS>BOND
  1   1   2  2   
  2   2   3  1   
  3   2   4  am  
  4   3   5  2   
  5   4   6  1   
  6   4   7  1   
  7   5   8  1   
  8   5  31  1   
  9   6   8  2   
 10   6  32  1   
 11   7   9  1   
 12   7  33  1   
 13   7  34  1   
 14   8  35  1   
 15   9  10  2   
 16   9  11  am  
 17  11  12  1   
 18  11  13  1   
 19  12  14  1   
 20  12  36  1   
 21  12  37  1   
 22  13  15  1   
 23  13  38  1   
 24  13  39  1   
 25  14  16  1   
 26  14  17  1   
 27  14  18  1   
 28  15  17  1   
 29  15  40  1   
 30  15  41  1   
 31  16  19  ar  
 32  16  20  ar  
 33  17  42  1   
 34  17  43  1   
 35  18  21  1   
 36  18  44  1   
 37  18  45  1   
 38  19  22  ar  
 39  20  21  1   
 40  20  23  ar  
 41  21  46  1   
 42  21  47  1   
 43  22  24  ar  
 44  22  25  1   
 45  23  24  ar  
 46  23  48  1   
 47  25  26  ar  
 48  25  27  ar  
 49  26  28  ar  
 50  26  49  1   
 51  27  29  ar  
 52  27  50  1   
 53  28  30  ar  
 54  28  51  1   
 55  29  30  ar  
 56  29  52  1   
 57  30  53  1   
@<TRIPOS>SUBSTRUCTURE
  1 ****  14 GROUP 4 **** **** 0

# MOE 2024.06 (io_trps.svl 2023.06)
