@<TRIPOS>MOLECULE
NONAME
48 50 1 0 0 
SMALL
USER_CHARGES


@<TRIPOS>ATOM
  1 S       -0.3110     0.0620     1.2250 S.o2  1 <1>   1.4470 
  2 O       -0.9010     0.9640     2.1850 O.2   1 <1>  -0.6500 
  3 O       -0.0160    -1.3000     1.6230 O.2   1 <1>  -0.6500 
  4 N       -1.3780    -0.0640    -0.1000 N.am  1 <1>  -0.8490 
  5 C        1.1570     0.8300     0.4830 C.ar  1 <1>  -0.0090 
  6 C       -1.4400    -1.4010    -0.7100 C.3   1 <1>   0.1960 
  7 C       -2.7140     0.5210     0.1000 C.3   1 <1>   0.1960 
  8 C        1.0350     1.9230    -0.3670 C.ar  1 <1>  -0.1500 
  9 C        2.4350     0.3550     0.7520 C.ar  1 <1>  -0.1500 
 10 C       -2.3100    -2.3850     0.1270 C.3   1 <1>   0.4230 
 11 C       -3.5910    -0.4020     0.9590 C.3   1 <1>  -0.1600 
 12 C        2.1390     2.5310    -0.9530 C.ar  1 <1>   0.0730 
 13 C        3.5490     0.9450     0.1840 C.ar  1 <1>  -0.1500 
 14 N       -2.2770    -3.8280    -0.3620 N.4   1 <1>  -0.9590 
 15 C       -3.7420    -1.8310     0.3670 C.3   1 <1>   0.0000 
 16 C        1.9720     3.6520    -1.8340 C.1   1 <1>   0.4840 
 17 C        3.4000     2.0260    -0.6650 C.ar  1 <1>  -0.1500 
 18 C       -3.3940    -4.6760     0.1700 C.3   1 <1>   0.3430 
 19 C       -2.1560    -4.0150    -1.8450 C.3   1 <1>   0.2630 
 20 C       -4.4750    -2.7290     1.4060 C.3   1 <1>  -0.1600 
 21 C       -4.5360    -1.7900    -0.9700 C.3   1 <1>   0.1200 
 22 N        1.8250     4.5350    -2.5390 N.1   1 <1>  -0.5570 
 23 C       -3.8910    -4.1510     1.5160 C.3   1 <1>  -0.1600 
 24 O       -5.7120    -1.0730    -0.8450 O.3   1 <1>  -0.6800 
 25 H       -1.8440    -1.2960    -1.7000 H     1 <1>   0.0800 
 26 H       -0.4400    -1.7900    -0.8050 H     1 <1>   0.0800 
 27 H       -2.6330     1.4920     0.5630 H     1 <1>   0.0800 
 28 H       -3.1830     0.6740    -0.8580 H     1 <1>   0.0800 
 29 H        0.0530     2.3110    -0.5790 H     1 <1>   0.1500 
 30 H        2.5620    -0.4850     1.4160 H     1 <1>   0.1500 
 31 H       -1.8610    -2.4040     1.1050 H     1 <1>   0.0800 
 32 H       -3.1580    -0.4510     1.9440 H     1 <1>   0.0800 
 33 H       -4.5540     0.0620     1.0820 H     1 <1>   0.0800 
 34 H        4.5330     0.5630     0.4040 H     1 <1>   0.1500 
 35 H       -1.4170    -4.2130     0.0600 H     1 <1>   0.4500 
 36 H        4.2720     2.4810    -1.1050 H     1 <1>   0.1500 
 37 H       -4.2190    -4.6690    -0.5240 H     1 <1>   0.0800 
 38 H       -3.0600    -5.6960     0.2770 H     1 <1>   0.0800 
 39 H       -3.0140    -3.6030    -2.3500 H     1 <1>   0.0800 
 40 H       -2.0910    -5.0650    -2.0840 H     1 <1>   0.0800 
 41 H       -1.2680    -3.5310    -2.2190 H     1 <1>   0.0800 
 42 H       -4.4300    -2.2890     2.3890 H     1 <1>   0.0800 
 43 H       -5.5210    -2.7990     1.1610 H     1 <1>   0.0800 
 44 H       -4.7960    -2.7780    -1.3050 H     1 <1>   0.0800 
 45 H       -3.9740    -1.3070    -1.7490 H     1 <1>   0.0800 
 46 H       -4.6480    -4.8140     1.8980 H     1 <1>   0.0800 
 47 H       -3.0770    -4.1640     2.2220 H     1 <1>   0.0800 
 48 H       -6.3260    -1.4750    -0.1980 H     1 <1>   0.4000 
@<TRIPOS>BOND
  1   1   2  2   
  2   1   3  2   
  3   1   4  am  
  4   1   5  1   
  5   4   6  1   
  6   4   7  1   
  7   5   8  ar  
  8   5   9  ar  
  9   6  10  1   
 10   6  25  1   
 11   6  26  1   
 12   7  11  1   
 13   7  27  1   
 14   7  28  1   
 15   8  12  ar  
 16   8  29  1   
 17   9  13  ar  
 18   9  30  1   
 19  10  14  1   
 20  10  15  1   
 21  10  31  1   
 22  11  15  1   
 23  11  32  1   
 24  11  33  1   
 25  12  16  1   
 26  12  17  ar  
 27  13  17  ar  
 28  13  34  1   
 29  14  18  1   
 30  14  19  1   
 31  14  35  1   
 32  15  20  1   
 33  15  21  1   
 34  16  22  3   
 35  17  36  1   
 36  18  23  1   
 37  18  37  1   
 38  18  38  1   
 39  19  39  1   
 40  19  40  1   
 41  19  41  1   
 42  20  23  1   
 43  20  42  1   
 44  20  43  1   
 45  21  24  1   
 46  21  44  1   
 47  21  45  1   
 48  23  46  1   
 49  23  47  1   
 50  24  48  1   
@<TRIPOS>SUBSTRUCTURE
  1 ****   4 GROUP 4 **** **** 0

# MOE 2024.06 (io_trps.svl 2023.06)
