@<TRIPOS>MOLECULE
NONAME
53 56 1 0 0 
SMALL
USER_CHARGES


@<TRIPOS>ATOM
  1 O       -1.3920    -1.5550    -1.4770 O.2   1 <1>  -0.5700 
  2 C       -2.3930    -0.9130    -1.7210 C.2   1 <1>   0.7060 
  3 O       -3.4170    -0.9770    -0.8650 O.3   1 <1>  -0.2330 
  4 C       -2.5290    -0.0910    -2.8810 C.2   1 <1>  -0.1360 
  5 C       -4.5720    -0.2980    -1.0640 C.ar  1 <1>   0.0820 
  6 C       -3.6600     0.6080    -3.1220 C.2   1 <1>  -0.1780 
  7 C       -4.7420     0.5190    -2.1950 C.ar  1 <1>   0.0280 
  8 C       -5.6010    -0.4140    -0.1460 C.ar  1 <1>  -0.1440 
  9 C       -5.9550     1.1980    -2.3630 C.ar  1 <1>  -0.1500 
 10 C       -6.7760     0.2540    -0.3360 C.ar  1 <1>   0.0820 
 11 C       -5.6990    -1.2120     1.1200 C.3   1 <1>  -0.0160 
 12 C       -6.9760     1.0700    -1.4390 C.ar  1 <1>  -0.1500 
 13 O       -7.6710     0.0290     0.6330 O.3   1 <1>  -0.3620 
 14 C       -7.1200    -0.8490     1.6190 C.3   1 <1>   0.2000 
 15 C       -8.0550    -2.0670     1.8820 C.3   1 <1>   0.2800 
 16 O       -8.0460    -2.8510     0.7220 O.3   1 <1>  -0.5600 
 17 C       -9.4850    -1.5920     2.1920 C.3   1 <1>  -0.2400 
 18 C       -7.5030    -2.9010     3.0520 C.3   1 <1>  -0.2400 
 19 C       -8.8380    -3.9890     0.6350 C.3   1 <1>   0.4800 
 20 O       -9.9700    -3.6010    -0.0890 O.3   1 <1>  -0.5600 
 21 C       -8.0550    -5.0940    -0.1110 C.3   1 <1>   0.2000 
 22 C      -10.9090    -4.6090    -0.3310 C.3   1 <1>   0.2000 
 23 O       -7.0280    -5.6250     0.6770 O.3   1 <1>  -0.6800 
 24 C       -9.0000    -6.2330    -0.5150 C.3   1 <1>   0.2000 
 25 C      -10.2460    -5.6830    -1.2210 C.3   1 <1>   0.2000 
 26 C      -12.1350    -3.9510    -0.9810 C.3   1 <1>   0.1200 
 27 O       -8.3410    -7.1650    -1.3270 O.3   1 <1>  -0.6800 
 28 O      -11.1140    -6.7400    -1.4900 O.3   1 <1>  -0.6800 
 29 O      -13.1550    -4.8840    -1.1130 O.3   1 <1>  -0.6800 
 30 H       -1.6800    -0.0680    -3.5390 H     1 <1>   0.1500 
 31 H       -3.7830     1.2330    -3.9890 H     1 <1>   0.1500 
 32 H       -6.0930     1.8260    -3.2240 H     1 <1>   0.1500 
 33 H       -4.9520    -0.9110     1.8310 H     1 <1>   0.0800 
 34 H       -5.5890    -2.2610     0.9080 H     1 <1>   0.0800 
 35 H       -7.9150     1.5800    -1.5550 H     1 <1>   0.1500 
 36 H       -7.0380    -0.2690     2.5190 H     1 <1>   0.0800 
 37 H       -9.4690    -0.8800     2.9960 H     1 <1>   0.0800 
 38 H      -10.1190    -2.4080     2.4850 H     1 <1>   0.0800 
 39 H       -9.9100    -1.1130     1.3270 H     1 <1>   0.0800 
 40 H       -7.3260    -2.2660     3.9010 H     1 <1>   0.0800 
 41 H       -6.5760    -3.3720     2.7800 H     1 <1>   0.0800 
 42 H       -8.1980    -3.6590     3.3620 H     1 <1>   0.0800 
 43 H       -9.1450    -4.3260     1.6090 H     1 <1>   0.0800 
 44 H       -7.6110    -4.6530    -0.9850 H     1 <1>   0.0800 
 45 H      -11.1940    -5.0230     0.6220 H     1 <1>   0.0800 
 46 H       -6.6610    -6.4190     0.2360 H     1 <1>   0.4000 
 47 H       -9.3160    -6.7450     0.3780 H     1 <1>   0.0800 
 48 H       -9.9750    -5.2360    -2.1620 H     1 <1>   0.0800 
 49 H      -11.8920    -3.5800    -1.9610 H     1 <1>   0.0800 
 50 H      -12.5050    -3.1470    -0.3690 H     1 <1>   0.0800 
 51 H       -7.9770    -6.7380    -2.1290 H     1 <1>   0.4000 
 52 H      -10.5810    -7.5170    -1.7680 H     1 <1>   0.4000 
 53 H      -12.7650    -5.7390    -1.4180 H     1 <1>   0.4000 
@<TRIPOS>BOND
  1   1   2  2   
  2   2   3  1   
  3   2   4  1   
  4   3   5  1   
  5   4   6  2   
  6   4  30  1   
  7   5   7  ar  
  8   5   8  ar  
  9   6   7  1   
 10   6  31  1   
 11   7   9  ar  
 12   8  10  ar  
 13   8  11  1   
 14   9  12  ar  
 15   9  32  1   
 16  10  12  ar  
 17  10  13  1   
 18  11  14  1   
 19  11  33  1   
 20  11  34  1   
 21  12  35  1   
 22  13  14  1   
 23  14  15  1   
 24  14  36  1   
 25  15  16  1   
 26  15  17  1   
 27  15  18  1   
 28  16  19  1   
 29  17  37  1   
 30  17  38  1   
 31  17  39  1   
 32  18  40  1   
 33  18  41  1   
 34  18  42  1   
 35  19  20  1   
 36  19  21  1   
 37  19  43  1   
 38  20  22  1   
 39  21  23  1   
 40  21  24  1   
 41  21  44  1   
 42  22  25  1   
 43  22  26  1   
 44  22  45  1   
 45  23  46  1   
 46  24  25  1   
 47  24  27  1   
 48  24  47  1   
 49  25  28  1   
 50  25  48  1   
 51  26  29  1   
 52  26  49  1   
 53  26  50  1   
 54  27  51  1   
 55  28  52  1   
 56  29  53  1   
@<TRIPOS>SUBSTRUCTURE
  1 ****  16 GROUP 4 **** **** 0

# MOE 2024.06 (io_trps.svl 2023.06)
