@<TRIPOS>MOLECULE
NONAME
55 58 1 0 0 
SMALL
USER_CHARGES


@<TRIPOS>ATOM
  1 O        3.1520    -0.5200     1.9170 O.2   1 <1>  -0.5700 
  2 C        2.8610    -0.6750     0.7550 C.2   1 <1>   0.5690 
  3 N        2.5540     0.4210    -0.0260 N.am  1 <1>  -0.6600 
  4 C        2.9070    -2.0910     0.1560 C.3   1 <1>   0.1250 
  5 C        2.4640     0.4210    -1.5230 C.3   1 <1>   0.1400 
  6 C        2.2660     1.7410     0.6090 C.3   1 <1>   0.1400 
  7 C        1.5520    -2.7490    -0.0330 C.ar  1 <1>  -0.1440 
  8 C        3.6790    -3.1560     0.9700 C.3   1 <1>  -0.1600 
  9 C        3.8220     0.7660    -2.1710 C.3   1 <1>   0.3430 
 10 C        3.4960     2.6570     0.5770 C.3   1 <1>  -0.1600 
 11 C        1.6410    -4.1010     0.1940 C.ar  1 <1>  -0.1440 
 12 C        0.3380    -2.1790    -0.3830 C.ar  1 <1>  -0.1500 
 13 C        3.0330    -4.5030     0.6120 C.3   1 <1>  -0.0160 
 14 N        4.7060     1.5520    -1.2530 N.4   1 <1>  -0.9590 
 15 C        4.1250     2.8470    -0.8050 C.3   1 <1>   0.3430 
 16 C        0.5370    -4.9220     0.0550 C.ar  1 <1>  -0.1500 
 17 C       -0.7750    -2.9930    -0.5240 C.ar  1 <1>  -0.1500 
 18 C        6.1130     1.6500    -1.7300 C.3   1 <1>   0.4860 
 19 C       -0.6750    -4.3600    -0.3100 C.ar  1 <1>  -0.1500 
 20 C        6.9860     2.2100    -0.6270 C.ar  1 <1>  -0.1440 
 21 C        7.0850     1.5390     0.5890 C.ar  1 <1>   0.3930 
 22 C        7.6870     3.3850    -0.8080 C.ar  1 <1>  -0.1500 
 23 O        6.3810     0.3910     0.7320 O.3   1 <1>  -0.3630 
 24 N        7.8070     1.9660     1.6160 N.ar  1 <1>  -0.6200 
 25 C        8.4480     3.8280     0.2540 C.ar  1 <1>  -0.1500 
 26 C        6.3560    -0.2920     1.9760 C.3   1 <1>   0.0400 
 27 C        8.4720     3.0930     1.4250 C.ar  1 <1>   0.1600 
 28 H        3.3770    -2.0430    -0.8060 H     1 <1>   0.0800 
 29 H        1.7320     1.1450    -1.8350 H     1 <1>   0.0800 
 30 H        2.1240    -0.5320    -1.8900 H     1 <1>   0.0800 
 31 H        1.9630     1.5940     1.6330 H     1 <1>   0.0800 
 32 H        1.4400     2.2110     0.1030 H     1 <1>   0.0800 
 33 H        3.5270    -2.9870     2.0220 H     1 <1>   0.0800 
 34 H        4.7330    -3.1440     0.7620 H     1 <1>   0.0800 
 35 H        3.6560     1.3050    -3.0890 H     1 <1>   0.0800 
 36 H        4.3140    -0.1590    -2.4230 H     1 <1>   0.0800 
 37 H        4.2330     2.2860     1.2680 H     1 <1>   0.0800 
 38 H        3.1940     3.6220     0.9440 H     1 <1>   0.0800 
 39 H        0.2410    -1.1210    -0.5380 H     1 <1>   0.1500 
 40 H        3.0180    -5.1710     1.4560 H     1 <1>   0.0800 
 41 H        3.5390    -4.9680    -0.2160 H     1 <1>   0.0800 
 42 H        4.7630     0.9950    -0.3780 H     1 <1>   0.4500 
 43 H        4.9000     3.5920    -0.7280 H     1 <1>   0.0800 
 44 H        3.3880     3.1970    -1.5090 H     1 <1>   0.0800 
 45 H        0.6170    -5.9790     0.2330 H     1 <1>   0.1500 
 46 H       -1.7230    -2.5650    -0.7960 H     1 <1>   0.1500 
 47 H        6.1670     2.2840    -2.6000 H     1 <1>   0.0800 
 48 H        6.4770     0.6710    -1.9950 H     1 <1>   0.0800 
 49 H       -1.5430    -4.9860    -0.4210 H     1 <1>   0.1500 
 50 H        7.6590     3.9460    -1.7280 H     1 <1>   0.1500 
 51 H        9.0220     4.7350     0.1790 H     1 <1>   0.1500 
 52 H        5.7570    -1.1780     1.8730 H     1 <1>   0.0800 
 53 H        5.9230     0.3540     2.7210 H     1 <1>   0.0800 
 54 H        7.3620    -0.5580     2.2520 H     1 <1>   0.0800 
 55 H        9.0700     3.4490     2.2480 H     1 <1>   0.1500 
@<TRIPOS>BOND
  1   1   2  2   
  2   2   3  am  
  3   2   4  1   
  4   3   5  1   
  5   3   6  1   
  6   4   7  1   
  7   4   8  1   
  8   4  28  1   
  9   5   9  1   
 10   5  29  1   
 11   5  30  1   
 12   6  10  1   
 13   6  31  1   
 14   6  32  1   
 15   7  11  ar  
 16   7  12  ar  
 17   8  13  1   
 18   8  33  1   
 19   8  34  1   
 20   9  14  1   
 21   9  35  1   
 22   9  36  1   
 23  10  15  1   
 24  10  37  1   
 25  10  38  1   
 26  11  13  1   
 27  11  16  ar  
 28  12  17  ar  
 29  12  39  1   
 30  13  40  1   
 31  13  41  1   
 32  14  15  1   
 33  14  18  1   
 34  14  42  1   
 35  15  43  1   
 36  15  44  1   
 37  16  19  ar  
 38  16  45  1   
 39  17  19  ar  
 40  17  46  1   
 41  18  20  1   
 42  18  47  1   
 43  18  48  1   
 44  19  49  1   
 45  20  21  ar  
 46  20  22  ar  
 47  21  23  1   
 48  21  24  ar  
 49  22  25  ar  
 50  22  50  1   
 51  23  26  1   
 52  24  27  ar  
 53  25  27  ar  
 54  25  51  1   
 55  26  52  1   
 56  26  53  1   
 57  26  54  1   
 58  27  55  1   
@<TRIPOS>SUBSTRUCTURE
  1 ****   2 GROUP 4 **** **** 0

# MOE 2024.06 (io_trps.svl 2023.06)
