@<TRIPOS>MOLECULE
NONAME
36 36 1 0 0 
SMALL
USER_CHARGES


@<TRIPOS>ATOM
  1 O        1.3520     2.4800    -1.5080 O.2   1 <1>  -0.5700 
  2 C        1.2780     1.9790    -0.4030 C.2   1 <1>   0.7800 
  3 O        0.1060     1.8420     0.2210 O.3   1 <1>  -0.4300 
  4 N        2.3850     1.5370     0.2630 N.am  1 <1>  -0.6600 
  5 C       -1.1660     2.2280    -0.2530 C.3   1 <1>   0.2800 
  6 C        3.7360     1.5220    -0.3620 C.3   1 <1>   0.2200 
  7 C        2.3270     0.6400     1.4360 C.3   1 <1>   0.1400 
  8 C       -2.1410     1.8390     0.8590 C.3   1 <1>  -0.2400 
  9 C       -1.2160     3.7460    -0.4610 C.3   1 <1>  -0.2400 
 10 C       -1.5160     1.4490    -1.5270 C.3   1 <1>  -0.2400 
 11 C        4.3080     2.9540    -0.5440 C.3   1 <1>   0.2000 
 12 C        4.5670     0.6150     0.5570 C.3   1 <1>  -0.1600 
 13 C        3.5480    -0.2560     1.2860 C.3   1 <1>  -0.1600 
 14 O        4.2670     3.6320     0.6620 O.3   1 <1>  -0.6800 
 15 C        5.7530     2.9950    -1.0410 C.3   1 <1>  -0.2400 
 16 H        3.6530     1.0560    -1.3290 H     1 <1>   0.0800 
 17 H        2.4000     1.2310     2.3330 H     1 <1>   0.0800 
 18 H        1.4160     0.0650     1.4520 H     1 <1>   0.0800 
 19 H       -3.1460     2.0990     0.5830 H     1 <1>   0.0800 
 20 H       -1.8940     2.3570     1.7690 H     1 <1>   0.0800 
 21 H       -2.1010     0.7790     1.0360 H     1 <1>   0.0800 
 22 H       -2.2220     4.0520    -0.6870 H     1 <1>   0.0800 
 23 H       -0.5950     4.0460    -1.2840 H     1 <1>   0.0800 
 24 H       -0.8960     4.2560     0.4290 H     1 <1>   0.0800 
 25 H       -2.5370     1.6420    -1.8040 H     1 <1>   0.0800 
 26 H       -1.4010     0.3930    -1.3640 H     1 <1>   0.0800 
 27 H       -0.8950     1.7500    -2.3500 H     1 <1>   0.0800 
 28 H        3.6860     3.4920    -1.2390 H     1 <1>   0.0800 
 29 H        5.2780     0.0320    -0.0010 H     1 <1>   0.0800 
 30 H        5.1010     1.2110     1.2770 H     1 <1>   0.0800 
 31 H        3.9100    -0.6020     2.2380 H     1 <1>   0.0800 
 32 H        3.2880    -1.1050     0.6780 H     1 <1>   0.0800 
 33 H        3.3810     3.4830     1.0510 H     1 <1>   0.4000 
 34 H        6.4190     2.5430    -0.3290 H     1 <1>   0.0800 
 35 H        6.0510     4.0160    -1.2000 H     1 <1>   0.0800 
 36 H        5.8340     2.4700    -1.9750 H     1 <1>   0.0800 
@<TRIPOS>BOND
  1   1   2  2   
  2   2   3  1   
  3   2   4  am  
  4   3   5  1   
  5   4   6  1   
  6   4   7  1   
  7   5   8  1   
  8   5   9  1   
  9   5  10  1   
 10   6  11  1   
 11   6  12  1   
 12   6  16  1   
 13   7  13  1   
 14   7  17  1   
 15   7  18  1   
 16   8  19  1   
 17   8  20  1   
 18   8  21  1   
 19   9  22  1   
 20   9  23  1   
 21   9  24  1   
 22  10  25  1   
 23  10  26  1   
 24  10  27  1   
 25  11  14  1   
 26  11  15  1   
 27  11  28  1   
 28  12  13  1   
 29  12  29  1   
 30  12  30  1   
 31  13  31  1   
 32  13  32  1   
 33  14  33  1   
 34  15  34  1   
 35  15  35  1   
 36  15  36  1   
@<TRIPOS>SUBSTRUCTURE
  1 ****   2 GROUP 4 **** **** 0

# MOE 2024.06 (io_trps.svl 2023.06)
