@<TRIPOS>MOLECULE
NONAME
47 49 1 0 0 
SMALL
USER_CHARGES


@<TRIPOS>ATOM
  1 S        0.2670    -0.0970     1.7880 S.o2  1 <1>   1.4470 
  2 O       -0.2700    -1.1490     2.6270 O.2   1 <1>  -0.6500 
  3 O        0.6030     1.1510     2.4440 O.2   1 <1>  -0.6500 
  4 N       -0.9510     0.2780     0.6650 N.am  1 <1>  -0.8490 
  5 C        1.6040    -0.7820     0.7650 C.ar  1 <1>  -0.0090 
  6 C       -2.2420     0.4960     1.3330 C.3   1 <1>   0.1960 
  7 C       -0.5970     1.4290    -0.1670 C.3   1 <1>   0.1960 
  8 C        2.6400     0.0050     0.2600 C.ar  1 <1>   0.0820 
  9 C        1.5940    -2.1320     0.4360 C.ar  1 <1>  -0.1500 
 10 C       -3.3870     0.6270     0.3080 C.3   1 <1>   0.0000 
 11 C       -1.6460     1.6420    -1.2630 C.3   1 <1>  -0.1600 
 12 O        2.6430     1.3300     0.5400 O.3   1 <1>  -0.3630 
 13 C        3.6350    -0.5720    -0.5250 C.ar  1 <1>  -0.1500 
 14 C        2.5730    -2.7370    -0.3550 C.ar  1 <1>  -0.1790 
 15 C       -4.7380     0.7970     1.0280 C.3   1 <1>   0.2000 
 16 C       -3.0610     1.7830    -0.6770 C.3   1 <1>  -0.1600 
 17 C       -3.6270    -0.6910    -0.4530 C.3   1 <1>  -0.1600 
 18 C        3.7810     2.1400     0.3460 C.3   1 <1>   0.0400 
 19 C        3.5980    -1.9180    -0.8220 C.ar  1 <1>  -0.1500 
 20 C        2.5280    -4.1560    -0.6860 C.2   1 <1>   0.9790 
 21 O       -4.9960     2.1030     1.3990 O.3   1 <1>  -0.6800 
 22 C       -5.8100     0.3020     0.0570 C.3   1 <1>  -0.1600 
 23 C       -5.0900    -0.6520    -0.9060 C.3   1 <1>  -0.1600 
 24 O        3.4480    -4.6830    -1.3370 O.co2 1 <1>  -0.9000 
 25 O        1.5670    -4.8600    -0.3280 O.co2 1 <1>  -0.9000 
 26 H       -2.4590    -0.3340     1.9840 H     1 <1>   0.0800 
 27 H       -2.1910     1.3850     1.9410 H     1 <1>   0.0800 
 28 H       -0.5170     2.3140     0.4450 H     1 <1>   0.0800 
 29 H        0.3560     1.2600    -0.6380 H     1 <1>   0.0800 
 30 H        0.7950    -2.7570     0.8050 H     1 <1>   0.1500 
 31 H       -1.3980     2.5300    -1.8170 H     1 <1>   0.0800 
 32 H       -1.6010     0.8150    -1.9480 H     1 <1>   0.0800 
 33 H        4.4440     0.0080    -0.9230 H     1 <1>   0.1500 
 34 H       -4.7580     0.1900     1.9180 H     1 <1>   0.0800 
 35 H       -3.7820     1.8240    -1.4740 H     1 <1>   0.0800 
 36 H       -3.0940     2.7210    -0.1520 H     1 <1>   0.0800 
 37 H       -2.9530    -0.8390    -1.2770 H     1 <1>   0.0800 
 38 H       -3.4980    -1.5190     0.2240 H     1 <1>   0.0800 
 39 H        3.5760     3.1070     0.7690 H     1 <1>   0.0800 
 40 H        3.9680     2.2340    -0.7090 H     1 <1>   0.0800 
 41 H        4.6190     1.6910     0.8500 H     1 <1>   0.0800 
 42 H        4.3690    -2.3610    -1.4320 H     1 <1>   0.1500 
 43 H       -5.0310     2.6660     0.6050 H     1 <1>   0.4000 
 44 H       -6.5870    -0.2110     0.5950 H     1 <1>   0.0800 
 45 H       -6.2380     1.1180    -0.4980 H     1 <1>   0.0800 
 46 H       -5.5240    -1.6370    -0.8850 H     1 <1>   0.0800 
 47 H       -5.1510    -0.2690    -1.9100 H     1 <1>   0.0800 
@<TRIPOS>BOND
  1   1   2  2   
  2   1   3  2   
  3   1   4  am  
  4   1   5  1   
  5   4   6  1   
  6   4   7  1   
  7   5   8  ar  
  8   5   9  ar  
  9   6  10  1   
 10   6  26  1   
 11   6  27  1   
 12   7  11  1   
 13   7  28  1   
 14   7  29  1   
 15   8  12  1   
 16   8  13  ar  
 17   9  14  ar  
 18   9  30  1   
 19  10  15  1   
 20  10  16  1   
 21  10  17  1   
 22  11  16  1   
 23  11  31  1   
 24  11  32  1   
 25  12  18  1   
 26  13  19  ar  
 27  13  33  1   
 28  14  19  ar  
 29  14  20  1   
 30  15  21  1   
 31  15  22  1   
 32  15  34  1   
 33  16  35  1   
 34  16  36  1   
 35  17  23  1   
 36  17  37  1   
 37  17  38  1   
 38  18  39  1   
 39  18  40  1   
 40  18  41  1   
 41  19  42  1   
 42  20  24  ar  
 43  20  25  ar  
 44  21  43  1   
 45  22  23  1   
 46  22  44  1   
 47  22  45  1   
 48  23  46  1   
 49  23  47  1   
@<TRIPOS>SUBSTRUCTURE
  1 ****   4 GROUP 4 **** **** 0

# MOE 2024.06 (io_trps.svl 2023.06)
