@<TRIPOS>MOLECULE
NONAME
58 61 1 0 0 
SMALL
USER_CHARGES


@<TRIPOS>ATOM
  1 O        1.6690     0.1870    -0.0760 O.2   1 <1>  -0.5700 
  2 C        1.8960    -0.9590    -0.3830 C.2   1 <1>   0.5690 
  3 N        3.1680    -1.3570    -0.7210 N.am  1 <1>  -0.6600 
  4 C        0.7010    -1.8920    -0.3510 C.3   1 <1>  -0.0990 
  5 C        3.5490    -2.6970    -1.2650 C.3   1 <1>   0.1400 
  6 C        4.2710    -0.3400    -0.7110 C.3   1 <1>   0.1400 
  7 C        0.7890    -3.1290    -1.2370 C.3   1 <1>   0.1200 
  8 C        2.9730    -3.9240    -0.4950 C.3   1 <1>   0.2800 
  9 C        4.6660     0.0980     0.7090 C.3   1 <1>   0.1200 
 10 O        1.5960    -4.1060    -0.6490 O.3   1 <1>  -0.5600 
 11 C        3.5850    -5.2290    -1.0220 C.3   1 <1>  -0.1600 
 12 C        3.2360    -3.8450     1.0150 C.3   1 <1>  -0.1600 
 13 O        5.1850    -0.9720     1.4510 O.3   1 <1>  -0.5600 
 14 C        5.0670    -5.3570    -0.6810 C.3   1 <1>   0.3430 
 15 C        4.7290    -3.9130     1.2990 C.3   1 <1>   0.3430 
 16 C        5.4430    -0.6230     2.7760 C.3   1 <1>   0.0400 
 17 N        5.2900    -5.1990     0.7880 N.4   1 <1>  -0.9590 
 18 C        6.7440    -5.3120     1.1360 C.3   1 <1>   0.4860 
 19 C        7.5870    -4.3910     0.2640 C.ar  1 <1>  -0.1440 
 20 C        7.7280    -3.0440     0.5860 C.ar  1 <1>  -0.1500 
 21 C        8.2190    -4.8990    -0.8710 C.ar  1 <1>  -0.1500 
 22 C        8.4660    -2.2280    -0.2470 C.ar  1 <1>  -0.1440 
 23 C        8.9610    -4.0700    -1.6980 C.ar  1 <1>  -0.1500 
 24 C        9.0640    -2.7340    -1.3680 C.ar  1 <1>   0.0820 
 25 C        8.7740    -0.7620    -0.1600 C.3   1 <1>  -0.0170 
 26 O        9.7360    -1.8080    -2.0670 O.3   1 <1>  -0.3620 
 27 C        9.6550    -0.5520    -1.4060 C.3   1 <1>   0.1200 
 28 H       -0.1480    -1.3210    -0.6790 H     1 <1>   0.0800 
 29 H        0.5080    -2.1850     0.6640 H     1 <1>   0.0800 
 30 H        4.6210    -2.7640    -1.2380 H     1 <1>   0.0800 
 31 H        3.2740    -2.7500    -2.3040 H     1 <1>   0.0800 
 32 H        3.9320     0.5310    -1.2470 H     1 <1>   0.0800 
 33 H        5.1420    -0.7060    -1.2240 H     1 <1>   0.0800 
 34 H        1.1380    -2.9000    -2.2290 H     1 <1>   0.0800 
 35 H       -0.1930    -3.5620    -1.3280 H     1 <1>   0.0800 
 36 H        3.8050     0.4960     1.2200 H     1 <1>   0.0800 
 37 H        5.4180     0.8640     0.6520 H     1 <1>   0.0800 
 38 H        3.4670    -5.2730    -2.0900 H     1 <1>   0.0800 
 39 H        3.0610    -6.0700    -0.6030 H     1 <1>   0.0800 
 40 H        2.7340    -4.6470     1.5250 H     1 <1>   0.0800 
 41 H        2.8600    -2.9190     1.4110 H     1 <1>   0.0800 
 42 H        5.6180    -4.5980    -1.2140 H     1 <1>   0.0800 
 43 H        5.4280    -6.3190    -1.0070 H     1 <1>   0.0800 
 44 H        4.8980    -3.8230     2.3600 H     1 <1>   0.0800 
 45 H        5.2170    -3.0870     0.8100 H     1 <1>   0.0800 
 46 H        5.8470    -1.4790     3.2850 H     1 <1>   0.0800 
 47 H        4.5240    -0.3210     3.2500 H     1 <1>   0.0800 
 48 H        6.1580     0.1830     2.8000 H     1 <1>   0.0800 
 49 H        4.7870    -5.9570     1.2670 H     1 <1>   0.4500 
 50 H        7.0740    -6.3270     0.9870 H     1 <1>   0.0800 
 51 H        6.8970    -5.0630     2.1730 H     1 <1>   0.0800 
 52 H        7.2760    -2.6190     1.4660 H     1 <1>   0.1500 
 53 H        8.1450    -5.9430    -1.1260 H     1 <1>   0.1500 
 54 H        9.4570    -4.4400    -2.5790 H     1 <1>   0.1500 
 55 H        9.3170    -0.5270     0.7380 H     1 <1>   0.0800 
 56 H        7.8790    -0.1700    -0.2140 H     1 <1>   0.0800 
 57 H       10.6530    -0.2520    -1.1380 H     1 <1>   0.0800 
 58 H        9.2210     0.1590    -2.0860 H     1 <1>   0.0800 
@<TRIPOS>BOND
  1   1   2  2   
  2   2   3  am  
  3   2   4  1   
  4   3   5  1   
  5   3   6  1   
  6   4   7  1   
  7   4  28  1   
  8   4  29  1   
  9   5   8  1   
 10   5  30  1   
 11   5  31  1   
 12   6   9  1   
 13   6  32  1   
 14   6  33  1   
 15   7  10  1   
 16   7  34  1   
 17   7  35  1   
 18   8  10  1   
 19   8  11  1   
 20   8  12  1   
 21   9  13  1   
 22   9  36  1   
 23   9  37  1   
 24  11  14  1   
 25  11  38  1   
 26  11  39  1   
 27  12  15  1   
 28  12  40  1   
 29  12  41  1   
 30  13  16  1   
 31  14  17  1   
 32  14  42  1   
 33  14  43  1   
 34  15  17  1   
 35  15  44  1   
 36  15  45  1   
 37  16  46  1   
 38  16  47  1   
 39  16  48  1   
 40  17  18  1   
 41  17  49  1   
 42  18  19  1   
 43  18  50  1   
 44  18  51  1   
 45  19  20  ar  
 46  19  21  ar  
 47  20  22  ar  
 48  20  52  1   
 49  21  23  ar  
 50  21  53  1   
 51  22  24  ar  
 52  22  25  1   
 53  23  24  ar  
 54  23  54  1   
 55  24  26  1   
 56  25  27  1   
 57  25  55  1   
 58  25  56  1   
 59  26  27  1   
 60  27  57  1   
 61  27  58  1   
@<TRIPOS>SUBSTRUCTURE
  1 ****  15 GROUP 4 **** **** 0

# MOE 2024.06 (io_trps.svl 2023.06)
