@<TRIPOS>MOLECULE
NONAME
54 56 1 0 0 
SMALL
USER_CHARGES


@<TRIPOS>ATOM
  1 O        0.3500     0.2140    -0.4640 O.3   1 <1>  -0.5600 
  2 C        1.5900    -0.4190    -0.6110 C.3   1 <1>   0.3440 
  3 C        0.3160     1.5690    -0.8190 C.3   1 <1>   0.2000 
  4 C        1.4770    -1.8750    -0.1870 C.ar  1 <1>  -0.1440 
  5 C        2.6410     0.2880     0.2750 C.3   1 <1>   0.3430 
  6 C       -1.1370     2.0830    -0.7100 C.3   1 <1>  -0.0800 
  7 C        1.2920     2.3630     0.0820 C.3   1 <1>   0.3430 
  8 C        2.2270    -2.8420    -0.8430 C.ar  1 <1>  -0.1500 
  9 C        0.6520    -2.2570     0.8630 C.ar  1 <1>  -0.1500 
 10 N        2.6900     1.7850     0.0690 N.4   1 <1>  -0.9590 
 11 C       -1.7250     1.9520     0.7060 C.3   1 <1>  -0.2400 
 12 C       -2.0500     1.3540    -1.7090 C.3   1 <1>  -0.2400 
 13 C        2.1590    -4.1670    -0.4490 C.ar  1 <1>  -0.1500 
 14 C        0.5850    -3.5820     1.2560 C.ar  1 <1>  -0.1500 
 15 C        3.5820     2.4420     1.0700 C.3   1 <1>   0.4860 
 16 C        1.3400    -4.5370     0.6020 C.ar  1 <1>  -0.1500 
 17 C        3.6760     3.9140     0.7530 C.ar  1 <1>  -0.1430 
 18 C        2.9780     4.8510     1.4780 C.ar  1 <1>   0.1600 
 19 C        4.4500     4.3820    -0.2830 C.ar  1 <1>   0.1600 
 20 N        3.0080     6.1220     1.1800 N.ar  1 <1>  -0.6200 
 21 N        4.4970     5.6480    -0.5970 N.ar  1 <1>  -0.6200 
 22 C        3.7680     6.4820     0.1460 C.ar  1 <1>   0.7200 
 23 N        3.8020     7.8220    -0.1830 N.pl3 1 <1>  -0.8380 
 24 C        4.7510     8.3550    -1.2030 C.3   1 <1>   0.1290 
 25 C        3.1560     8.8560     0.6760 C.3   1 <1>   0.1290 
 26 H        1.8700    -0.3680    -1.6500 H     1 <1>   0.0800 
 27 H        0.6280     1.6530    -1.8460 H     1 <1>   0.0800 
 28 H        3.6060    -0.1480     0.0790 H     1 <1>   0.0800 
 29 H        2.3900     0.0710     1.3000 H     1 <1>   0.0800 
 30 H       -1.1430     3.1270    -0.9760 H     1 <1>   0.0800 
 31 H        0.9050     2.3480     1.0870 H     1 <1>   0.0800 
 32 H        1.3130     3.3900    -0.2470 H     1 <1>   0.0800 
 33 H        2.8670    -2.5830    -1.6680 H     1 <1>   0.1500 
 34 H        0.0470    -1.5300     1.3780 H     1 <1>   0.1500 
 35 H        3.0780     1.9700    -0.8650 H     1 <1>   0.4500 
 36 H       -1.7270     0.9230     1.0230 H     1 <1>   0.0800 
 37 H       -2.7430     2.3020     0.7150 H     1 <1>   0.0800 
 38 H       -1.1750     2.5360     1.4210 H     1 <1>   0.0800 
 39 H       -2.1060     0.3040    -1.4770 H     1 <1>   0.0800 
 40 H       -1.6780     1.4620    -2.7130 H     1 <1>   0.0800 
 41 H       -3.0450     1.7610    -1.6750 H     1 <1>   0.0800 
 42 H        2.7410    -4.9150    -0.9610 H     1 <1>   0.1500 
 43 H       -0.0590    -3.8720     2.0690 H     1 <1>   0.1500 
 44 H        3.1880     2.3060     2.0640 H     1 <1>   0.0800 
 45 H        4.5670     2.0050     1.0340 H     1 <1>   0.0800 
 46 H        1.2870    -5.5680     0.9080 H     1 <1>   0.1500 
 47 H        2.3700     4.5630     2.3200 H     1 <1>   0.1500 
 48 H        5.0470     3.7120    -0.8780 H     1 <1>   0.1500 
 49 H        4.4150     9.3100    -1.5650 H     1 <1>   0.0800 
 50 H        4.8190     7.6850    -2.0430 H     1 <1>   0.0800 
 51 H        5.7280     8.4670    -0.7650 H     1 <1>   0.0800 
 52 H        2.9890     9.7590     0.1150 H     1 <1>   0.0800 
 53 H        3.7900     9.0740     1.5180 H     1 <1>   0.0800 
 54 H        2.2040     8.5060     1.0370 H     1 <1>   0.0800 
@<TRIPOS>BOND
  1   1   2  1   
  2   1   3  1   
  3   2   4  1   
  4   2   5  1   
  5   2  26  1   
  6   3   6  1   
  7   3   7  1   
  8   3  27  1   
  9   4   8  ar  
 10   4   9  ar  
 11   5  10  1   
 12   5  28  1   
 13   5  29  1   
 14   6  11  1   
 15   6  12  1   
 16   6  30  1   
 17   7  10  1   
 18   7  31  1   
 19   7  32  1   
 20   8  13  ar  
 21   8  33  1   
 22   9  14  ar  
 23   9  34  1   
 24  10  15  1   
 25  10  35  1   
 26  11  36  1   
 27  11  37  1   
 28  11  38  1   
 29  12  39  1   
 30  12  40  1   
 31  12  41  1   
 32  13  16  ar  
 33  13  42  1   
 34  14  16  ar  
 35  14  43  1   
 36  15  17  1   
 37  15  44  1   
 38  15  45  1   
 39  16  46  1   
 40  17  18  ar  
 41  17  19  ar  
 42  18  20  ar  
 43  18  47  1   
 44  19  21  ar  
 45  19  48  1   
 46  20  22  ar  
 47  21  22  ar  
 48  22  23  1   
 49  23  24  1   
 50  23  25  1   
 51  24  49  1   
 52  24  50  1   
 53  24  51  1   
 54  25  52  1   
 55  25  53  1   
 56  25  54  1   
@<TRIPOS>SUBSTRUCTURE
  1 ****  10 GROUP 4 **** **** 0

# MOE 2024.06 (io_trps.svl 2023.06)
