@<TRIPOS>MOLECULE
NONAME
33 35 1 0 0 
SMALL
USER_CHARGES


@<TRIPOS>ATOM
  1 S        0.0670    -0.7320     0.6500 S.3   1 <1>  -0.4600 
  2 C       -1.3050     0.4170     0.3040 C.3   1 <1>   0.2510 
  3 C       -0.8190    -2.3040     0.4270 C.3   1 <1>   0.2510 
  4 C       -2.4560    -0.5090    -0.0120 C.2   1 <1>   0.1080 
  5 C       -2.2140    -1.8650     0.0470 C.2   1 <1>  -0.1810 
  6 N       -3.6740    -0.2250    -0.3420 N.2   1 <1>  -0.7070 
  7 C       -3.3880    -2.4590    -0.2690 C.2   1 <1>  -0.0880 
  8 N       -4.2670    -1.4350    -0.5020 N.pl3 1 <1>   0.3140 
  9 N       -3.6200    -3.8530    -0.3560 N.am  1 <1>  -0.4940 
 10 C       -5.6600    -1.5030    -0.9640 C.3   1 <1>   0.0160 
 11 C       -4.7120    -4.6260    -0.0440 C.2   1 <1>   0.7150 
 12 O       -5.7370    -4.1020     0.3510 O.2   1 <1>  -0.5700 
 13 C       -4.6020    -6.0580    -0.1930 C.2   1 <1>   0.0550 
 14 O       -3.4600    -6.5830    -0.6270 O.3   1 <1>  -0.2800 
 15 C       -5.4770    -7.0640     0.0330 C.2   1 <1>   0.0460 
 16 C       -3.7350    -7.8710    -0.6340 C.2   1 <1>   0.2980 
 17 N       -4.9040    -8.2250    -0.2570 N.2   1 <1>  -0.5650 
 18 C       -6.9090    -7.0530     0.5310 C.3   1 <1>  -0.0590 
 19 C       -2.6530    -8.8240    -1.0840 C.3   1 <1>  -0.0600 
 20 H       -1.0360     1.0290    -0.5370 H     1 <1>   0.0800 
 21 H       -1.4900     1.0050     1.1840 H     1 <1>   0.0800 
 22 H       -0.7970    -2.8350     1.3620 H     1 <1>   0.0800 
 23 H       -0.3310    -2.8540    -0.3570 H     1 <1>   0.0800 
 24 H       -2.8070    -4.4200    -0.5990 H     1 <1>   0.3700 
 25 H       -5.9070    -0.5900    -1.4740 H     1 <1>   0.0800 
 26 H       -6.3040    -1.6250    -0.1140 H     1 <1>   0.0800 
 27 H       -5.7760    -2.3330    -1.6340 H     1 <1>   0.0800 
 28 H       -7.2510    -6.0570     0.7340 H     1 <1>   0.0800 
 29 H       -6.9780    -7.6310     1.4350 H     1 <1>   0.0800 
 30 H       -7.5500    -7.4950    -0.2100 H     1 <1>   0.0800 
 31 H       -2.3670    -8.5950    -2.0930 H     1 <1>   0.0800 
 32 H       -3.0160    -9.8350    -1.0420 H     1 <1>   0.0800 
 33 H       -1.7980    -8.7310    -0.4410 H     1 <1>   0.0800 
@<TRIPOS>BOND
  1   1   2  1   
  2   1   3  1   
  3   2   4  1   
  4   2  20  1   
  5   2  21  1   
  6   3   5  1   
  7   3  22  1   
  8   3  23  1   
  9   4   5  1   
 10   4   6  2   
 11   5   7  2   
 12   6   8  1   
 13   7   8  1   
 14   7   9  1   
 15   8  10  1   
 16   9  11  am  
 17   9  24  1   
 18  10  25  1   
 19  10  26  1   
 20  10  27  1   
 21  11  12  2   
 22  11  13  1   
 23  13  14  1   
 24  13  15  2   
 25  14  16  1   
 26  15  17  1   
 27  15  18  1   
 28  16  17  2   
 29  16  19  1   
 30  18  28  1   
 31  18  29  1   
 32  18  30  1   
 33  19  31  1   
 34  19  32  1   
 35  19  33  1   
@<TRIPOS>SUBSTRUCTURE
  1 ****   9 GROUP 4 **** **** 0

# MOE 2024.06 (io_trps.svl 2023.06)
