@<TRIPOS>MOLECULE
NONAME
49 51 1 0 0 
SMALL
USER_CHARGES


@<TRIPOS>ATOM
  1 O        4.0870    -1.3700    -2.0820 O.2   1 <1>  -0.5700 
  2 C        3.2280    -1.3540    -1.2190 C.2   1 <1>   0.5440 
  3 N        3.1150    -0.1790    -0.5170 N.am  1 <1>  -0.6600 
  4 C        2.4960    -2.5490    -0.8720 C.ar  1 <1>   0.0860 
  5 C        3.7260    -0.1490     0.8590 C.3   1 <1>   0.2200 
  6 C        2.9940     1.1050    -1.2820 C.3   1 <1>   0.1400 
  7 C        1.1890    -2.5950    -0.3970 C.ar  1 <1>   0.1660 
  8 C        3.1150    -3.7820    -0.9850 C.ar  1 <1>   0.1600 
  9 C        3.1670     0.9770     1.7450 C.3   1 <1>   0.1200 
 10 C        5.2750    -0.0660     0.7730 C.3   1 <1>   0.3430 
 11 C        3.9720     2.2190    -0.8590 C.3   1 <1>  -0.0800 
 12 N        0.6190    -3.7120    -0.0250 N.ar  1 <1>  -0.6200 
 13 C        0.3080    -1.3620    -0.2810 C.3   1 <1>  -0.0970 
 14 N        2.5610    -4.9110    -0.6260 N.ar  1 <1>  -0.6200 
 15 O        3.8890     2.1570     1.5550 O.3   1 <1>  -0.5600 
 16 N        5.7650     0.4050    -0.5720 N.4   1 <1>  -0.9590 
 17 C        3.5370     2.9090     0.4440 C.3   1 <1>   0.1200 
 18 C        5.4700     1.8450    -0.8540 C.3   1 <1>   0.3430 
 19 C        1.3210    -4.8390    -0.1480 C.ar  1 <1>   0.7200 
 20 C        7.2070     0.0900    -0.7750 C.3   1 <1>   0.2630 
 21 N        0.7210    -6.0110     0.2480 N.pl3 1 <1>  -0.8380 
 22 C        1.2830    -7.3500    -0.0890 C.3   1 <1>   0.1290 
 23 C       -0.5660    -6.0390     0.9970 C.3   1 <1>   0.1290 
 24 H        3.4730    -1.0720     1.3520 H     1 <1>   0.0800 
 25 H        3.1390     0.9050    -2.3320 H     1 <1>   0.0800 
 26 H        1.9850     1.4660    -1.1770 H     1 <1>   0.0800 
 27 H        4.1140    -3.8300    -1.3840 H     1 <1>   0.1500 
 28 H        3.2960     0.7070     2.7790 H     1 <1>   0.0800 
 29 H        2.1180     1.1460     1.5700 H     1 <1>   0.0800 
 30 H        5.6650    -1.0510     0.9610 H     1 <1>   0.0800 
 31 H        5.6460     0.5810     1.5510 H     1 <1>   0.0800 
 32 H        3.8690     2.9850    -1.6060 H     1 <1>   0.0800 
 33 H        0.4590    -0.7060    -1.1170 H     1 <1>   0.0800 
 34 H        0.5220    -0.8420     0.6330 H     1 <1>   0.0800 
 35 H       -0.7290    -1.6500    -0.2720 H     1 <1>   0.0800 
 36 H        5.2080    -0.1480    -1.2630 H     1 <1>   0.4500 
 37 H        2.4760     3.0960     0.4650 H     1 <1>   0.0800 
 38 H        4.0420     3.8560     0.5400 H     1 <1>   0.0800 
 39 H        5.9810     2.4640    -0.1340 H     1 <1>   0.0800 
 40 H        5.8700     2.0830    -1.8260 H     1 <1>   0.0800 
 41 H        7.8130     0.6320    -0.0670 H     1 <1>   0.0800 
 42 H        7.5110     0.3630    -1.7730 H     1 <1>   0.0800 
 43 H        7.3790    -0.9660    -0.6440 H     1 <1>   0.0800 
 44 H        0.4860    -8.0460    -0.2830 H     1 <1>   0.0800 
 45 H        1.8760    -7.7090     0.7330 H     1 <1>   0.0800 
 46 H        1.9010    -7.2960    -0.9690 H     1 <1>   0.0800 
 47 H       -0.5780    -6.8700     1.6800 H     1 <1>   0.0800 
 48 H       -1.3840    -6.1360     0.3050 H     1 <1>   0.0800 
 49 H       -0.6960    -5.1340     1.5670 H     1 <1>   0.0800 
@<TRIPOS>BOND
  1   1   2  2   
  2   2   3  am  
  3   2   4  1   
  4   3   5  1   
  5   3   6  1   
  6   4   7  ar  
  7   4   8  ar  
  8   5   9  1   
  9   5  10  1   
 10   5  24  1   
 11   6  11  1   
 12   6  25  1   
 13   6  26  1   
 14   7  12  ar  
 15   7  13  1   
 16   8  14  ar  
 17   8  27  1   
 18   9  15  1   
 19   9  28  1   
 20   9  29  1   
 21  10  16  1   
 22  10  30  1   
 23  10  31  1   
 24  11  17  1   
 25  11  18  1   
 26  11  32  1   
 27  12  19  ar  
 28  13  33  1   
 29  13  34  1   
 30  13  35  1   
 31  14  19  ar  
 32  15  17  1   
 33  16  18  1   
 34  16  20  1   
 35  16  36  1   
 36  17  37  1   
 37  17  38  1   
 38  18  39  1   
 39  18  40  1   
 40  19  21  1   
 41  20  41  1   
 42  20  42  1   
 43  20  43  1   
 44  21  22  1   
 45  21  23  1   
 46  22  44  1   
 47  22  45  1   
 48  22  46  1   
 49  23  47  1   
 50  23  48  1   
 51  23  49  1   
@<TRIPOS>SUBSTRUCTURE
  1 ****   2 GROUP 4 **** **** 0

# MOE 2024.06 (io_trps.svl 2023.06)
