@<TRIPOS>MOLECULE
NONAME
52 57 1 0 0 
SMALL
USER_CHARGES


@<TRIPOS>ATOM
  1 O       -0.4530     0.4330     0.3590 O.2   1 <1>  -0.5700 
  2 C       -1.5460     0.9750     0.2670 C.2   1 <1>   0.7160 
  3 N       -2.6610     0.1560     0.3840 N.am  1 <1>  -0.6600 
  4 C       -1.6020     2.4220     0.0380 C.2   1 <1>   0.2030 
  5 C       -2.5240    -1.2180     0.9500 C.3   1 <1>   0.1400 
  6 C       -4.0240     0.5810    -0.0550 C.3   1 <1>   0.1400 
  7 N       -2.6510     3.2280     0.1230 N.2   1 <1>  -0.7070 
  8 C       -0.4650     3.1700    -0.3040 C.2   1 <1>  -0.1500 
  9 C       -3.8370    -1.6790     1.5830 C.3   1 <1>  -0.1600 
 10 C       -4.8180    -0.6320    -0.5350 C.3   1 <1>  -0.1600 
 11 N       -2.1860     4.4550    -0.1570 N.pl3 1 <1>   0.3000 
 12 C       -0.8680     4.4490    -0.4210 C.2   1 <1>  -0.2370 
 13 C       -5.0120    -1.6610     0.5910 C.3   1 <1>   0.4600 
 14 C       -0.0820     5.6960    -0.7690 C.3   1 <1>  -0.0150 
 15 O       -6.1350    -1.2830     1.3580 O.3   1 <1>  -0.5600 
 16 C       -5.2390    -3.0560     0.0140 C.2   1 <1>  -0.3320 
 17 C        1.3540     5.8120    -0.3730 C.3   1 <1>  -0.2000 
 18 C        0.3130     6.6430     0.3170 C.3   1 <1>  -0.2000 
 19 C       -7.4170    -1.6540     0.9070 C.3   1 <1>   0.1200 
 20 N       -4.3350    -3.7990    -0.6960 N.pl3 1 <1>   0.0330 
 21 C       -6.3850    -3.7550     0.1390 C.2   1 <1>  -0.1810 
 22 C       -7.5740    -3.1820     0.8670 C.3   1 <1>   0.0210 
 23 C       -4.9280    -4.9950    -1.0180 C.ar  1 <1>  -0.1520 
 24 C       -6.2210    -5.0000    -0.5030 C.ar  1 <1>   0.0000 
 25 C       -4.4360    -6.0940    -1.7280 C.ar  1 <1>  -0.1500 
 26 C       -7.0390    -6.1180    -0.6950 C.ar  1 <1>  -0.1500 
 27 C       -5.2520    -7.1870    -1.9110 C.ar  1 <1>  -0.1500 
 28 C       -6.5540    -7.1990    -1.3940 C.ar  1 <1>  -0.1500 
 29 H       -1.7490    -1.2240     1.6990 H     1 <1>   0.0800 
 30 H       -2.2310    -1.8920     0.1640 H     1 <1>   0.0800 
 31 H       -3.9470     1.2860    -0.8650 H     1 <1>   0.0800 
 32 H       -4.5320     1.0580     0.7670 H     1 <1>   0.0800 
 33 H        0.5220     2.7630    -0.4360 H     1 <1>   0.1500 
 34 H       -4.0480    -1.0210     2.4070 H     1 <1>   0.0800 
 35 H       -3.7170    -2.6690     1.9840 H     1 <1>   0.0800 
 36 H       -4.2750    -1.0770    -1.3470 H     1 <1>   0.0800 
 37 H       -5.7660    -0.3180    -0.9260 H     1 <1>   0.0800 
 38 H       -2.7840     5.2900    -0.1550 H     1 <1>   0.2700 
 39 H       -0.3590     6.1120    -1.7240 H     1 <1>   0.1000 
 40 H        2.0380     6.2900    -1.0520 H     1 <1>   0.1000 
 41 H        1.8100     5.0040     0.1730 H     1 <1>   0.1000 
 42 H        0.0610     6.4020     1.3350 H     1 <1>   0.1000 
 43 H        0.2830     7.7010     0.1200 H     1 <1>   0.1000 
 44 H       -7.5700    -1.2400    -0.0730 H     1 <1>   0.0800 
 45 H       -8.1380    -1.2240     1.5800 H     1 <1>   0.0800 
 46 H       -3.3820    -3.5260    -0.9540 H     1 <1>   0.2700 
 47 H       -8.4830    -3.4410     0.3560 H     1 <1>   0.0800 
 48 H       -7.6130    -3.5750     1.8670 H     1 <1>   0.0800 
 49 H       -3.4360    -6.0780    -2.1210 H     1 <1>   0.1500 
 50 H       -8.0350    -6.1130    -0.2920 H     1 <1>   0.1500 
 51 H       -4.8970    -8.0450    -2.4540 H     1 <1>   0.1500 
 52 H       -7.1710    -8.0660    -1.5500 H     1 <1>   0.1500 
@<TRIPOS>BOND
  1   1   2  2   
  2   2   3  am  
  3   2   4  1   
  4   3   5  1   
  5   3   6  1   
  6   4   7  2   
  7   4   8  1   
  8   5   9  1   
  9   5  29  1   
 10   5  30  1   
 11   6  10  1   
 12   6  31  1   
 13   6  32  1   
 14   7  11  1   
 15   8  12  2   
 16   8  33  1   
 17   9  13  1   
 18   9  34  1   
 19   9  35  1   
 20  10  13  1   
 21  10  36  1   
 22  10  37  1   
 23  11  12  1   
 24  11  38  1   
 25  12  14  1   
 26  13  15  1   
 27  13  16  1   
 28  14  17  1   
 29  14  18  1   
 30  14  39  1   
 31  15  19  1   
 32  16  20  1   
 33  16  21  2   
 34  17  18  1   
 35  17  40  1   
 36  17  41  1   
 37  18  42  1   
 38  18  43  1   
 39  19  22  1   
 40  19  44  1   
 41  19  45  1   
 42  20  23  1   
 43  20  46  1   
 44  21  22  1   
 45  21  24  1   
 46  22  47  1   
 47  22  48  1   
 48  23  24  ar  
 49  23  25  ar  
 50  24  26  ar  
 51  25  27  ar  
 52  25  49  1   
 53  26  28  ar  
 54  26  50  1   
 55  27  28  ar  
 56  27  51  1   
 57  28  52  1   
@<TRIPOS>SUBSTRUCTURE
  1 ****  10 GROUP 4 **** **** 0

# MOE 2024.06 (io_trps.svl 2023.06)
