@<TRIPOS>MOLECULE
NONAME
45 47 1 0 0 
SMALL
USER_CHARGES


@<TRIPOS>ATOM
  1 CL      -1.7750    -1.4870    -0.9350 Cl    1 <1>  -0.1770 
  2 C       -2.1940     0.1670    -0.5730 C.ar  1 <1>   0.1770 
  3 C       -1.3820     1.1840    -1.0290 C.ar  1 <1>  -0.1500 
  4 C       -3.3300     0.4290     0.1670 C.ar  1 <1>  -0.1500 
  5 C       -1.6890     2.5150    -0.7470 C.ar  1 <1>   0.0860 
  6 C       -3.6630     1.7410     0.4550 C.ar  1 <1>  -0.1440 
  7 C       -0.8300     3.5930    -1.2060 C.2   1 <1>   0.5440 
  8 C       -2.8480     2.7640    -0.0040 C.ar  1 <1>  -0.1500 
  9 C       -4.9160     2.0420     1.2590 C.3   1 <1>  -0.0960 
 10 O       -0.0220     3.4250    -2.1010 O.2   1 <1>  -0.5700 
 11 N       -0.8260     4.8230    -0.5980 N.am  1 <1>  -0.6600 
 12 C       -0.1950     4.8920     0.7700 C.3   1 <1>   0.2200 
 13 C       -0.7980     6.0500    -1.4600 C.3   1 <1>   0.1400 
 14 C       -0.6690     6.1100     1.5790 C.3   1 <1>   0.1200 
 15 C        1.3530     4.8360     0.6810 C.3   1 <1>   0.3430 
 16 C        0.2750     7.0940    -1.0950 C.3   1 <1>  -0.0800 
 17 O        0.1250     7.2270     1.3250 O.3   1 <1>  -0.5600 
 18 N        1.8610     5.1320    -0.7020 N.4   1 <1>  -0.9590 
 19 C       -0.1160     7.9150     0.1450 C.3   1 <1>   0.1200 
 20 C        1.7310     6.5820    -1.0320 C.3   1 <1>   0.3430 
 21 C        3.3250     4.7330    -0.7820 C.3   1 <1>   0.2370 
 22 C        4.2310     5.4480     0.2260 C.2   1 <1>   0.9060 
 23 O        4.7100     6.5380    -0.0980 O.co2 1 <1>  -0.9000 
 24 O        4.3280     4.9610     1.3570 O.co2 1 <1>  -0.9000 
 25 H       -0.5080     0.9410    -1.6060 H     1 <1>   0.1500 
 26 H       -3.9420    -0.3880     0.5060 H     1 <1>   0.1500 
 27 H       -3.1170     3.7830     0.2120 H     1 <1>   0.1500 
 28 H       -4.9190     3.0600     1.6040 H     1 <1>   0.0800 
 29 H       -4.9720     1.3930     2.1150 H     1 <1>   0.0800 
 30 H       -5.7870     1.8830     0.6480 H     1 <1>   0.0800 
 31 H       -0.5140     4.0250     1.3230 H     1 <1>   0.0800 
 32 H       -0.6480     5.7570    -2.4870 H     1 <1>   0.0800 
 33 H       -1.7680     6.5140    -1.4140 H     1 <1>   0.0800 
 34 H       -0.5570     5.8960     2.6280 H     1 <1>   0.0800 
 35 H       -1.7030     6.3410     1.3890 H     1 <1>   0.0800 
 36 H        1.6750     3.8490     0.9680 H     1 <1>   0.0800 
 37 H        1.7900     5.5230     1.3890 H     1 <1>   0.0800 
 38 H        0.2620     7.8090    -1.8970 H     1 <1>   0.0800 
 39 H        1.2890     4.5730    -1.3670 H     1 <1>   0.4500 
 40 H       -1.1520     8.2080     0.1180 H     1 <1>   0.0800 
 41 H        0.4830     8.8100     0.1860 H     1 <1>   0.0800 
 42 H        2.2840     7.1650    -0.3110 H     1 <1>   0.0800 
 43 H        2.1910     6.7500    -1.9910 H     1 <1>   0.0800 
 44 H        3.4240     3.6790    -0.6030 H     1 <1>   0.0800 
 45 H        3.7080     4.9470    -1.7630 H     1 <1>   0.0800 
@<TRIPOS>BOND
  1   1   2  1   
  2   2   3  ar  
  3   2   4  ar  
  4   3   5  ar  
  5   3  25  1   
  6   4   6  ar  
  7   4  26  1   
  8   5   7  1   
  9   5   8  ar  
 10   6   8  ar  
 11   6   9  1   
 12   7  10  2   
 13   7  11  am  
 14   8  27  1   
 15   9  28  1   
 16   9  29  1   
 17   9  30  1   
 18  11  12  1   
 19  11  13  1   
 20  12  14  1   
 21  12  15  1   
 22  12  31  1   
 23  13  16  1   
 24  13  32  1   
 25  13  33  1   
 26  14  17  1   
 27  14  34  1   
 28  14  35  1   
 29  15  18  1   
 30  15  36  1   
 31  15  37  1   
 32  16  19  1   
 33  16  20  1   
 34  16  38  1   
 35  17  19  1   
 36  18  20  1   
 37  18  21  1   
 38  18  39  1   
 39  19  40  1   
 40  19  41  1   
 41  20  42  1   
 42  20  43  1   
 43  21  22  1   
 44  21  44  1   
 45  21  45  1   
 46  22  23  ar  
 47  22  24  ar  
@<TRIPOS>SUBSTRUCTURE
  1 ****  11 GROUP 4 **** **** 0

# MOE 2024.06 (io_trps.svl 2023.06)
