@<TRIPOS>MOLECULE
NONAME
65 69 1 0 0 
SMALL
USER_CHARGES


@<TRIPOS>ATOM
  1 O       -1.6930     0.9130     0.8080 O.3   1 <1>  -0.3630 
  2 C       -1.0890     2.1200     0.6500 C.ar  1 <1>   0.0830 
  3 C       -0.9420    -0.2800     0.8560 C.3   1 <1>   0.1200 
  4 C       -1.8900     3.2510     0.7940 C.ar  1 <1>  -0.1440 
  5 C        0.2640     2.2600     0.3470 C.ar  1 <1>  -0.1500 
  6 C       -1.9060    -1.4310     1.1250 C.3   1 <1>  -0.2400 
  7 C       -1.3460     4.5190     0.6400 C.ar  1 <1>  -0.1500 
  8 C       -3.3580     3.0880     1.1220 C.3   1 <1>   0.4860 
  9 C        0.7870     3.5290     0.1920 C.ar  1 <1>  -0.1440 
 10 C       -0.0030     4.6400     0.3370 C.ar  1 <1>  -0.1430 
 11 N       -4.1430     3.2010    -0.1360 N.4   1 <1>  -0.9590 
 12 C        2.2110     3.9060    -0.1330 C.3   1 <1>  -0.0170 
 13 C        0.7910     5.9070     0.1300 C.3   1 <1>  -0.0170 
 14 C       -5.6050     3.3630     0.1580 C.3   1 <1>   0.3430 
 15 C       -3.8890     2.0220    -1.0180 C.3   1 <1>   0.3430 
 16 C        2.2500     5.4200     0.1370 C.3   1 <1>  -0.1600 
 17 C       -6.4390     3.5400    -1.1220 C.3   1 <1>   0.1430 
 18 C       -4.6550     2.1740    -2.3350 C.3   1 <1>  -0.1600 
 19 C       -7.8960     3.5560    -0.7320 C.ar  1 <1>   0.1670 
 20 C       -6.1630     2.3840    -2.1070 C.3   1 <1>  -0.1600 
 21 C       -6.2560     4.9310    -1.7880 C.3   1 <1>  -0.1600 
 22 N       -8.4500     2.6990     0.0850 N.ar  1 <1>  -0.6200 
 23 C       -8.5670     4.5860    -1.3150 C.ar  1 <1>  -0.1430 
 24 C       -7.6630     5.4140    -2.1930 C.3   1 <1>  -0.0170 
 25 C       -9.7520     2.8990     0.3100 C.ar  1 <1>   0.7200 
 26 C       -9.9020     4.7150    -1.0250 C.ar  1 <1>   0.1600 
 27 N      -10.5000     3.8770    -0.2110 N.ar  1 <1>  -0.6200 
 28 N      -10.3770     2.0180     1.1670 N.pl3 1 <1>  -0.8380 
 29 C      -11.7150     2.3150     1.7520 C.3   1 <1>   0.1290 
 30 C       -9.8830     0.6320     1.3880 C.3   1 <1>   0.1290 
 31 H       -0.2160    -0.1970     1.6480 H     1 <1>   0.0800 
 32 H       -0.4450    -0.4140    -0.0900 H     1 <1>   0.0800 
 33 H        0.9150     1.4150     0.2270 H     1 <1>   0.1500 
 34 H       -2.4050    -1.2870     2.0670 H     1 <1>   0.0800 
 35 H       -1.3590    -2.3560     1.1700 H     1 <1>   0.0800 
 36 H       -2.6320    -1.5050     0.3360 H     1 <1>   0.0800 
 37 H       -1.9400     5.4080     0.7570 H     1 <1>   0.1500 
 38 H       -3.6500     3.8610     1.8140 H     1 <1>   0.0800 
 39 H       -3.5300     2.1310     1.5880 H     1 <1>   0.0800 
 40 H       -3.7920     4.0310    -0.6270 H     1 <1>   0.4500 
 41 H        2.4110     3.7010    -1.1700 H     1 <1>   0.0800 
 42 H        2.9140     3.3780     0.4870 H     1 <1>   0.0800 
 43 H        0.6120     6.6230     0.9130 H     1 <1>   0.0800 
 44 H        0.5420     6.3390    -0.8240 H     1 <1>   0.0800 
 45 H       -5.7660     4.2130     0.8010 H     1 <1>   0.0800 
 46 H       -5.9650     2.4880     0.6750 H     1 <1>   0.0800 
 47 H       -4.2030     1.1200    -0.5180 H     1 <1>   0.0800 
 48 H       -2.8340     1.9360    -1.2270 H     1 <1>   0.0800 
 49 H        2.8500     5.9400    -0.5880 H     1 <1>   0.0800 
 50 H        2.6650     5.5850     1.1170 H     1 <1>   0.0800 
 51 H       -4.5090     1.2840    -2.9220 H     1 <1>   0.0800 
 52 H       -4.2390     2.9930    -2.8950 H     1 <1>   0.0800 
 53 H       -6.6590     2.5690    -3.0450 H     1 <1>   0.0800 
 54 H       -6.5800     1.4770    -1.7010 H     1 <1>   0.0800 
 55 H       -5.5970     4.9100    -2.6370 H     1 <1>   0.0800 
 56 H       -5.8620     5.6280    -1.0680 H     1 <1>   0.0800 
 57 H       -7.8630     5.1910    -3.2270 H     1 <1>   0.0800 
 58 H       -7.7910     6.4690    -2.0160 H     1 <1>   0.0800 
 59 H      -10.4850     5.5090    -1.4590 H     1 <1>   0.1500 
 60 H      -11.8320     3.3750     1.9030 H     1 <1>   0.0800 
 61 H      -11.8220     1.8230     2.7020 H     1 <1>   0.0800 
 62 H      -12.4850     1.9720     1.0830 H     1 <1>   0.0800 
 63 H       -9.1760     0.3510     0.6270 H     1 <1>   0.0800 
 64 H      -10.7050    -0.0610     1.3540 H     1 <1>   0.0800 
 65 H       -9.4060     0.5690     2.3500 H     1 <1>   0.0800 
@<TRIPOS>BOND
  1   1   2  1   
  2   1   3  1   
  3   2   4  ar  
  4   2   5  ar  
  5   3   6  1   
  6   3  31  1   
  7   3  32  1   
  8   4   7  ar  
  9   4   8  1   
 10   5   9  ar  
 11   5  33  1   
 12   6  34  1   
 13   6  35  1   
 14   6  36  1   
 15   7  10  ar  
 16   7  37  1   
 17   8  11  1   
 18   8  38  1   
 19   8  39  1   
 20   9  10  ar  
 21   9  12  1   
 22  10  13  1   
 23  11  14  1   
 24  11  15  1   
 25  11  40  1   
 26  12  16  1   
 27  12  41  1   
 28  12  42  1   
 29  13  16  1   
 30  13  43  1   
 31  13  44  1   
 32  14  17  1   
 33  14  45  1   
 34  14  46  1   
 35  15  18  1   
 36  15  47  1   
 37  15  48  1   
 38  16  49  1   
 39  16  50  1   
 40  17  19  1   
 41  17  20  1   
 42  17  21  1   
 43  18  20  1   
 44  18  51  1   
 45  18  52  1   
 46  19  22  ar  
 47  19  23  ar  
 48  20  53  1   
 49  20  54  1   
 50  21  24  1   
 51  21  55  1   
 52  21  56  1   
 53  22  25  ar  
 54  23  24  1   
 55  23  26  ar  
 56  24  57  1   
 57  24  58  1   
 58  25  27  ar  
 59  25  28  1   
 60  26  27  ar  
 61  26  59  1   
 62  28  29  1   
 63  28  30  1   
 64  29  60  1   
 65  29  61  1   
 66  29  62  1   
 67  30  63  1   
 68  30  64  1   
 69  30  65  1   
@<TRIPOS>SUBSTRUCTURE
  1 ****  11 GROUP 4 **** **** 0

# MOE 2024.06 (io_trps.svl 2023.06)
