@<TRIPOS>MOLECULE
NONAME
51 53 1 0 0 
SMALL
USER_CHARGES


@<TRIPOS>ATOM
  1 S        0.1650     0.2830     1.2340 S.o2  1 <1>   1.3330 
  2 O        0.1300     0.8100     2.5760 O.2   1 <1>  -0.6500 
  3 O        0.3300    -1.1320     0.9990 O.2   1 <1>  -0.6500 
  4 N        1.4270     1.0900     0.3530 N.am  1 <1>  -0.6930 
  5 C       -1.2860     0.8160     0.3530 C.3   1 <1>  -0.1350 
  6 C        1.5130     2.4710     0.2480 C.ar  1 <1>   0.1990 
  7 C        2.4190     0.2270    -0.3350 C.3   1 <1>   0.1160 
  8 C        1.5280     3.2930     1.3700 C.ar  1 <1>  -0.1500 
  9 C        1.5770     3.0780    -1.0030 C.ar  1 <1>  -0.1500 
 10 C        1.5990     4.6670     1.2450 C.ar  1 <1>  -0.1500 
 11 C        1.6520     4.4510    -1.1260 C.ar  1 <1>  -0.1500 
 12 C        1.6710     5.2820    -0.0040 C.ar  1 <1>   0.0860 
 13 C        1.7560     6.7220    -0.1230 C.2   1 <1>   0.5440 
 14 O        0.9430     7.4160     0.4600 O.2   1 <1>  -0.5700 
 15 N        2.7380     7.3430    -0.8710 N.am  1 <1>  -0.6600 
 16 C        2.6260     8.8000    -1.1790 C.3   1 <1>   0.1400 
 17 C        4.0010     6.6630    -1.2830 C.3   1 <1>   0.1400 
 18 C        3.1380     9.6620    -0.0160 C.3   1 <1>   0.1400 
 19 C        5.2660     7.4720    -0.9660 C.3   1 <1>  -0.1600 
 20 N        4.6260     9.5970     0.1390 N.am  1 <1>  -0.6600 
 21 C        5.2090     8.2430     0.3570 C.3   1 <1>   0.1400 
 22 C        5.4460    10.6970    -0.0360 C.2   1 <1>   0.7150 
 23 O        6.6120    10.5050    -0.3400 O.2   1 <1>  -0.5700 
 24 C        4.9560    12.0480     0.1480 C.2   1 <1>   0.0550 
 25 O        5.3130    13.0290    -0.6780 O.3   1 <1>  -0.2800 
 26 C        4.1200    12.5710     1.0910 C.2   1 <1>  -0.1500 
 27 C        4.7350    14.1430    -0.2930 C.2   1 <1>  -0.0100 
 28 C        3.9770    13.9280     0.8020 C.2   1 <1>  -0.1500 
 29 H       -2.1590     0.3650     0.7800 H     1 <1>   0.0800 
 30 H       -1.2190     0.5310    -0.6780 H     1 <1>   0.0800 
 31 H       -1.3850     1.8820     0.4150 H     1 <1>   0.0800 
 32 H        2.8470    -0.4630     0.3730 H     1 <1>   0.0800 
 33 H        3.2100     0.8220    -0.7560 H     1 <1>   0.0800 
 34 H        1.9370    -0.3330    -1.1170 H     1 <1>   0.0800 
 35 H        1.4890     2.8520     2.3500 H     1 <1>   0.1500 
 36 H        1.5590     2.4630    -1.8840 H     1 <1>   0.1500 
 37 H        1.5980     5.2850     2.1270 H     1 <1>   0.1500 
 38 H        1.6900     4.9000    -2.1040 H     1 <1>   0.1500 
 39 H        1.5890     9.0360    -1.3490 H     1 <1>   0.0800 
 40 H        3.1640     9.0370    -2.0810 H     1 <1>   0.0800 
 41 H        3.9630     6.4580    -2.3390 H     1 <1>   0.0800 
 42 H        4.0790     5.7200    -0.7690 H     1 <1>   0.0800 
 43 H        2.6650     9.3490     0.8990 H     1 <1>   0.0800 
 44 H        2.8310    10.6730    -0.2100 H     1 <1>   0.0800 
 45 H        5.4860     8.1510    -1.7710 H     1 <1>   0.0800 
 46 H        6.0870     6.7810    -0.9190 H     1 <1>   0.0800 
 47 H        6.2080     8.3490     0.7460 H     1 <1>   0.0800 
 48 H        4.6310     7.7070     1.0900 H     1 <1>   0.0800 
 49 H        3.6550    12.0550     1.9120 H     1 <1>   0.1500 
 50 H        4.9170    15.0450    -0.8530 H     1 <1>   0.1500 
 51 H        3.3830    14.6330     1.3560 H     1 <1>   0.1500 
@<TRIPOS>BOND
  1   1   2  2   
  2   1   3  2   
  3   1   4  am  
  4   1   5  1   
  5   4   6  1   
  6   4   7  1   
  7   5  29  1   
  8   5  30  1   
  9   5  31  1   
 10   6   8  ar  
 11   6   9  ar  
 12   7  32  1   
 13   7  33  1   
 14   7  34  1   
 15   8  10  ar  
 16   8  35  1   
 17   9  11  ar  
 18   9  36  1   
 19  10  12  ar  
 20  10  37  1   
 21  11  12  ar  
 22  11  38  1   
 23  12  13  1   
 24  13  14  2   
 25  13  15  am  
 26  15  16  1   
 27  15  17  1   
 28  16  18  1   
 29  16  39  1   
 30  16  40  1   
 31  17  19  1   
 32  17  41  1   
 33  17  42  1   
 34  18  20  1   
 35  18  43  1   
 36  18  44  1   
 37  19  21  1   
 38  19  45  1   
 39  19  46  1   
 40  20  21  1   
 41  20  22  am  
 42  21  47  1   
 43  21  48  1   
 44  22  23  2   
 45  22  24  1   
 46  24  25  1   
 47  24  26  2   
 48  25  27  1   
 49  26  28  1   
 50  26  49  1   
 51  27  28  2   
 52  27  50  1   
 53  28  51  1   
@<TRIPOS>SUBSTRUCTURE
  1 ****  13 GROUP 4 **** **** 0

# MOE 2024.06 (io_trps.svl 2023.06)
