@<TRIPOS>MOLECULE
NONAME
20 21 1 0 0 
SMALL
USER_CHARGES


@<TRIPOS>ATOM
  1 BR      -0.1810     0.1850    -0.6310 Br    1 <1>  -0.1110 
  2 C       -0.0090    -1.6740    -0.1600 C.ar  1 <1>   0.1110 
  3 C        1.2220    -2.2780    -0.0560 C.ar  1 <1>  -0.1440 
  4 C       -1.1550    -2.4030     0.0660 C.ar  1 <1>  -0.1500 
  5 C        1.2320    -3.6330     0.2800 C.ar  1 <1>   0.4100 
  6 C        2.5260    -1.5310    -0.3210 C.3   1 <1>  -0.0160 
  7 C       -1.0110    -3.7390     0.3840 C.ar  1 <1>   0.1600 
  8 N        2.4040    -4.3210     0.4130 N.pl3 1 <1>  -0.8690 
  9 N        0.1490    -4.3670     0.4900 N.ar  1 <1>  -0.6200 
 10 C        3.7390    -2.2890     0.2410 C.3   1 <1>  -0.1600 
 11 C        3.6760    -3.7790    -0.0990 C.3   1 <1>   0.2090 
 12 H       -2.1230    -1.9450    -0.0080 H     1 <1>   0.1500 
 13 H        2.4910    -0.5510     0.1220 H     1 <1>   0.0800 
 14 H        2.6400    -1.4150    -1.3840 H     1 <1>   0.0800 
 15 H       -1.8950    -4.3270     0.5610 H     1 <1>   0.1500 
 16 H        2.2740    -5.3350     0.3910 H     1 <1>   0.4000 
 17 H        3.7580    -2.1860     1.3120 H     1 <1>   0.0800 
 18 H        4.6470    -1.8650    -0.1490 H     1 <1>   0.0800 
 19 H        3.7240    -3.9250    -1.1650 H     1 <1>   0.0800 
 20 H        4.4980    -4.2970     0.3640 H     1 <1>   0.0800 
@<TRIPOS>BOND
  1   1   2  1   
  2   2   3  ar  
  3   2   4  ar  
  4   3   5  ar  
  5   3   6  1   
  6   4   7  ar  
  7   4  12  1   
  8   5   8  1   
  9   5   9  ar  
 10   6  10  1   
 11   6  13  1   
 12   6  14  1   
 13   7   9  ar  
 14   7  15  1   
 15   8  11  1   
 16   8  16  1   
 17  10  11  1   
 18  10  17  1   
 19  10  18  1   
 20  11  19  1   
 21  11  20  1   
@<TRIPOS>SUBSTRUCTURE
  1 ****   3 GROUP 4 **** **** 0

# MOE 2024.06 (io_trps.svl 2023.06)
