@<TRIPOS>MOLECULE
NONAME
46 49 1 0 0 
SMALL
USER_CHARGES


@<TRIPOS>ATOM
  1 O       -0.3990    -2.0460    -1.1260 O.2   1 <1>  -0.5700 
  2 C        0.6710    -2.5960    -1.0820 C.2   1 <1>   0.5690 
  3 N        1.2030    -3.1940    -2.1680 N.am  1 <1>  -0.7300 
  4 C        1.4620    -2.6510     0.2060 C.3   1 <1>  -0.0990 
  5 C        2.5050    -3.8930    -2.1470 C.3   1 <1>   0.1400 
  6 C        2.9530    -2.3690    -0.0630 C.3   1 <1>  -0.0800 
  7 C        3.5220    -3.0830    -1.3150 C.3   1 <1>  -0.0800 
  8 C        3.8580    -2.7550     1.1160 C.3   1 <1>  -0.1600 
  9 C        4.6960    -3.9360    -0.8180 C.3   1 <1>  -0.1600 
 10 C        5.1470    -3.2430     0.4650 C.3   1 <1>   0.2200 
 11 N        5.9600    -4.1090     1.3710 N.am  1 <1>  -0.6600 
 12 C        7.1830    -3.7020     1.8780 C.2   1 <1>   0.5440 
 13 C        5.4390    -5.4700     1.7110 C.3   1 <1>   0.0600 
 14 O        7.7710    -4.4360     2.6520 O.2   1 <1>  -0.5700 
 15 C        7.7700    -2.4150     1.5710 C.ar  1 <1>   0.0860 
 16 C        8.3010    -2.1160     0.3130 C.ar  1 <1>   0.0830 
 17 C        7.8140    -1.4230     2.5520 C.ar  1 <1>  -0.1500 
 18 O        8.2590    -3.0520    -0.6700 O.3   1 <1>  -0.3630 
 19 C        8.8620    -0.8600     0.0640 C.ar  1 <1>   0.0830 
 20 C        8.3540    -0.1750     2.2990 C.ar  1 <1>  -0.1500 
 21 C        8.5770    -2.6590    -1.9910 C.3   1 <1>   0.1200 
 22 O        9.4090    -0.5600    -1.1410 O.3   1 <1>  -0.3630 
 23 C        8.8790     0.1080     1.0500 C.ar  1 <1>  -0.1500 
 24 C        9.7290    -1.6490    -1.9830 C.3   1 <1>   0.1200 
 25 H        0.6510    -3.1910    -3.0280 H     1 <1>   0.3700 
 26 H        1.0680    -1.9340     0.9020 H     1 <1>   0.0800 
 27 H        1.3330    -3.6330     0.6230 H     1 <1>   0.0800 
 28 H        2.3560    -4.8660    -1.7110 H     1 <1>   0.0800 
 29 H        2.8690    -4.0210    -3.1520 H     1 <1>   0.0800 
 30 H        3.0540    -1.3090    -0.2320 H     1 <1>   0.0800 
 31 H        3.9250    -2.3200    -1.9600 H     1 <1>   0.0800 
 32 H        3.4060    -3.5440     1.6870 H     1 <1>   0.0800 
 33 H        4.0440    -1.9150     1.7610 H     1 <1>   0.0800 
 34 H        5.4950    -3.9760    -1.5370 H     1 <1>   0.0800 
 35 H        4.3530    -4.9310    -0.6090 H     1 <1>   0.0800 
 36 H        5.7060    -2.3710     0.1750 H     1 <1>   0.0800 
 37 H        4.3680    -5.5060     1.6420 H     1 <1>   0.0800 
 38 H        5.7200    -5.7360     2.7150 H     1 <1>   0.0800 
 39 H        5.8620    -6.1910     1.0340 H     1 <1>   0.0800 
 40 H        7.4180    -1.6480     3.5270 H     1 <1>   0.1500 
 41 H        8.3730     0.5740     3.0720 H     1 <1>   0.1500 
 42 H        8.8460    -3.5410    -2.5430 H     1 <1>   0.0800 
 43 H        7.6990    -2.2200    -2.4300 H     1 <1>   0.0800 
 44 H        9.3070     1.0720     0.8400 H     1 <1>   0.1500 
 45 H        9.9110    -1.2650    -2.9700 H     1 <1>   0.0800 
 46 H       10.6280    -2.1080    -1.6110 H     1 <1>   0.0800 
@<TRIPOS>BOND
  1   1   2  2   
  2   2   3  am  
  3   2   4  1   
  4   3   5  1   
  5   3  25  1   
  6   4   6  1   
  7   4  26  1   
  8   4  27  1   
  9   5   7  1   
 10   5  28  1   
 11   5  29  1   
 12   6   7  1   
 13   6   8  1   
 14   6  30  1   
 15   7   9  1   
 16   7  31  1   
 17   8  10  1   
 18   8  32  1   
 19   8  33  1   
 20   9  10  1   
 21   9  34  1   
 22   9  35  1   
 23  10  11  1   
 24  10  36  1   
 25  11  12  am  
 26  11  13  1   
 27  12  14  2   
 28  12  15  1   
 29  13  37  1   
 30  13  38  1   
 31  13  39  1   
 32  15  16  ar  
 33  15  17  ar  
 34  16  18  1   
 35  16  19  ar  
 36  17  20  ar  
 37  17  40  1   
 38  18  21  1   
 39  19  22  1   
 40  19  23  ar  
 41  20  23  ar  
 42  20  41  1   
 43  21  24  1   
 44  21  42  1   
 45  21  43  1   
 46  22  24  1   
 47  23  44  1   
 48  24  45  1   
 49  24  46  1   
@<TRIPOS>SUBSTRUCTURE
  1 ****  10 GROUP 4 **** **** 0

# MOE 2024.06 (io_trps.svl 2023.06)
