@<TRIPOS>MOLECULE
NONAME
42 43 1 0 0 
SMALL
USER_CHARGES


@<TRIPOS>ATOM
  1 F       -2.2010    -1.1750     1.8020 F     1 <1>  -0.1900 
  2 C       -2.3700    -0.1120     1.0620 C.ar  1 <1>   0.1900 
  3 C       -2.7450    -0.2790    -0.2580 C.ar  1 <1>  -0.1440 
  4 C       -2.1730     1.1310     1.6320 C.ar  1 <1>  -0.1500 
  5 C       -2.9150     0.8760    -1.0000 C.ar  1 <1>   0.1900 
  6 C       -2.9520    -1.6510    -0.8590 C.3   1 <1>   0.4860 
  7 C       -2.3550     2.2700     0.8600 C.ar  1 <1>   0.0820 
  8 F       -3.2760     0.7650    -2.2500 F     1 <1>  -0.1900 
  9 C       -2.7300     2.1430    -0.4770 C.ar  1 <1>  -0.1500 
 10 N       -4.2260    -2.2340    -0.3670 N.4   1 <1>  -0.9590 
 11 O       -2.1500     3.4590     1.4730 O.3   1 <1>  -0.3620 
 12 C       -4.3410    -3.6780    -0.7070 C.3   1 <1>   0.5240 
 13 C       -5.4340    -1.4250    -0.7390 C.3   1 <1>   0.3430 
 14 C       -2.3000     4.6820     0.7850 C.3   1 <1>   0.0400 
 15 C       -4.9610    -4.3800     0.4930 C.2   1 <1>   0.0460 
 16 C       -6.6700    -1.7470     0.1130 C.3   1 <1>   0.1200 
 17 N       -4.6820    -3.9350     1.7380 N.2   1 <1>  -0.5650 
 18 C       -5.8140    -5.4310     0.5360 C.2   1 <1>  -0.3320 
 19 O       -7.6870    -0.8950    -0.2810 O.3   1 <1>  -0.6800 
 20 C       -5.3520    -4.7300     2.5090 C.2   1 <1>   0.0360 
 21 N       -6.0620    -5.6620     1.8400 N.pl3 1 <1>   0.0330 
 22 C       -6.4330    -6.2720    -0.5700 C.3   1 <1>  -0.0600 
 23 H       -1.8830     1.2220     2.6640 H     1 <1>   0.1500 
 24 H       -2.1270    -2.2830    -0.5700 H     1 <1>   0.0800 
 25 H       -2.9670    -1.5830    -1.9350 H     1 <1>   0.0800 
 26 H       -2.8810     2.9970    -1.1100 H     1 <1>   0.1500 
 27 H       -4.1680    -2.2660     0.6720 H     1 <1>   0.4500 
 28 H       -3.3630    -4.0990    -0.8690 H     1 <1>   0.0800 
 29 H       -4.9400    -3.8260    -1.5900 H     1 <1>   0.0800 
 30 H       -5.6730    -1.5810    -1.7780 H     1 <1>   0.0800 
 31 H       -5.2190    -0.3790    -0.6010 H     1 <1>   0.0800 
 32 H       -2.0850     5.4800     1.4740 H     1 <1>   0.0800 
 33 H       -3.3140     4.7670     0.4360 H     1 <1>   0.0800 
 34 H       -1.6050     4.7120    -0.0350 H     1 <1>   0.0800 
 35 H       -6.4720    -1.5760     1.1580 H     1 <1>   0.0800 
 36 H       -7.0090    -2.7560    -0.0420 H     1 <1>   0.0800 
 37 H       -8.4890    -1.0140     0.2710 H     1 <1>   0.4000 
 38 H       -5.3570    -4.6740     3.5850 H     1 <1>   0.1500 
 39 H       -6.6540    -6.3930     2.2500 H     1 <1>   0.2700 
 40 H       -6.1100    -5.9360    -1.5390 H     1 <1>   0.0800 
 41 H       -7.5070    -6.2100    -0.5280 H     1 <1>   0.0800 
 42 H       -6.1450    -7.3030    -0.4560 H     1 <1>   0.0800 
@<TRIPOS>BOND
  1   1   2  1   
  2   2   3  ar  
  3   2   4  ar  
  4   3   5  ar  
  5   3   6  1   
  6   4   7  ar  
  7   4  23  1   
  8   5   8  1   
  9   5   9  ar  
 10   6  10  1   
 11   6  24  1   
 12   6  25  1   
 13   7   9  ar  
 14   7  11  1   
 15   9  26  1   
 16  10  12  1   
 17  10  13  1   
 18  10  27  1   
 19  11  14  1   
 20  12  15  1   
 21  12  28  1   
 22  12  29  1   
 23  13  16  1   
 24  13  30  1   
 25  13  31  1   
 26  14  32  1   
 27  14  33  1   
 28  14  34  1   
 29  15  17  1   
 30  15  18  2   
 31  16  19  1   
 32  16  35  1   
 33  16  36  1   
 34  17  20  2   
 35  18  21  1   
 36  18  22  1   
 37  19  37  1   
 38  20  21  1   
 39  20  38  1   
 40  21  39  1   
 41  22  40  1   
 42  22  41  1   
 43  22  42  1   
@<TRIPOS>SUBSTRUCTURE
  1 ****  10 GROUP 4 **** **** 0

# MOE 2024.06 (io_trps.svl 2023.06)
