@<TRIPOS>MOLECULE
NONAME
43 46 1 0 0 
SMALL
USER_CHARGES


@<TRIPOS>ATOM
  1 S       -0.7950     0.4010    -2.1100 S.3   1 <1>  -0.0800 
  2 C       -1.2620     1.3910    -0.7350 C.2   1 <1>  -0.1400 
  3 C       -2.3820    -0.3550    -2.1440 C.2   1 <1>  -0.1100 
  4 C       -2.5290     1.1410    -0.3800 C.2   1 <1>  -0.1810 
  5 C       -0.3150     2.3860    -0.0740 C.3   1 <1>   0.4600 
  6 C       -3.1740     0.1410    -1.1740 C.2   1 <1>  -0.1500 
  7 C       -3.1430     1.8980     0.7760 C.3   1 <1>   0.0210 
  8 O       -0.9380     2.8920     1.0920 O.3   1 <1>  -0.5600 
  9 C        0.9710     1.6960     0.3920 C.3   1 <1>  -0.1600 
 10 C        0.0190     3.5560    -1.0100 C.3   1 <1>  -0.1600 
 11 C       -2.3180     3.1730     1.0380 C.3   1 <1>   0.1200 
 12 C        1.9470     2.6900     1.0240 C.3   1 <1>   0.1400 
 13 C        0.9990     4.5330    -0.3600 C.3   1 <1>   0.1400 
 14 N        2.2240     3.7950     0.0620 N.am  1 <1>  -0.6600 
 15 C        3.5100     4.1040    -0.3210 C.2   1 <1>   0.5690 
 16 O        4.4620     3.4850     0.0990 O.2   1 <1>  -0.5700 
 17 C        3.8150     5.2450    -1.2930 C.3   1 <1>   0.2010 
 18 N        3.8010     6.5890    -0.6280 N.am  1 <1>  -0.4690 
 19 C        2.9400     7.5840    -1.0670 C.2   1 <1>   0.8410 
 20 C        4.6480     6.8230     0.4260 C.2   1 <1>  -0.0410 
 21 O        2.1870     7.3810    -2.0030 O.2   1 <1>  -0.5700 
 22 N        2.9110     8.8100    -0.4540 N.2   1 <1>  -0.6610 
 23 C        4.6120     8.0370     1.0190 C.2   1 <1>  -0.1360 
 24 C        3.7100     9.0070     0.5310 C.2   1 <1>   0.3760 
 25 H       -2.5560    -1.1030    -2.8980 H     1 <1>   0.1500 
 26 H       -4.1900    -0.1550    -0.9820 H     1 <1>   0.1500 
 27 H       -3.1490     1.2790     1.6540 H     1 <1>   0.0800 
 28 H       -4.1560     2.1710     0.5430 H     1 <1>   0.0800 
 29 H        1.4570     1.2280    -0.4440 H     1 <1>   0.0800 
 30 H        0.7230     0.9260     1.0980 H     1 <1>   0.0800 
 31 H       -0.8790     4.0690    -1.2970 H     1 <1>   0.0800 
 32 H        0.4640     3.1710    -1.9090 H     1 <1>   0.0800 
 33 H       -2.6000     3.6090     1.9800 H     1 <1>   0.0800 
 34 H       -2.4890     3.8960     0.2610 H     1 <1>   0.0800 
 35 H        2.8550     2.1780     1.2940 H     1 <1>   0.0800 
 36 H        1.5200     3.1050     1.9220 H     1 <1>   0.0800 
 37 H        0.5460     4.9840     0.5070 H     1 <1>   0.0800 
 38 H        1.2270     5.3150    -1.0570 H     1 <1>   0.0800 
 39 H        3.1220     5.2040    -2.1110 H     1 <1>   0.0800 
 40 H        4.7950     5.0830    -1.7020 H     1 <1>   0.0800 
 41 H        5.3090     6.0310     0.7470 H     1 <1>   0.1500 
 42 H        5.2430     8.2920     1.8500 H     1 <1>   0.1500 
 43 H        3.7000     9.9640     1.0220 H     1 <1>   0.0600 
@<TRIPOS>BOND
  1   1   2  1   
  2   1   3  1   
  3   2   4  2   
  4   2   5  1   
  5   3   6  2   
  6   3  25  1   
  7   4   6  1   
  8   4   7  1   
  9   5   8  1   
 10   5   9  1   
 11   5  10  1   
 12   6  26  1   
 13   7  11  1   
 14   7  27  1   
 15   7  28  1   
 16   8  11  1   
 17   9  12  1   
 18   9  29  1   
 19   9  30  1   
 20  10  13  1   
 21  10  31  1   
 22  10  32  1   
 23  11  33  1   
 24  11  34  1   
 25  12  14  1   
 26  12  35  1   
 27  12  36  1   
 28  13  14  1   
 29  13  37  1   
 30  13  38  1   
 31  14  15  am  
 32  15  16  2   
 33  15  17  1   
 34  17  18  1   
 35  17  39  1   
 36  17  40  1   
 37  18  19  am  
 38  18  20  1   
 39  19  21  2   
 40  19  22  1   
 41  20  23  2   
 42  20  41  1   
 43  22  24  2   
 44  23  24  1   
 45  23  42  1   
 46  24  43  1   
@<TRIPOS>SUBSTRUCTURE
  1 ****  13 GROUP 4 **** **** 0

# MOE 2024.06 (io_trps.svl 2023.06)
