@<TRIPOS>MOLECULE
NONAME
46 49 1 0 0 
SMALL
USER_CHARGES


@<TRIPOS>ATOM
  1 O       -0.5590     0.9760    -0.9230 O.2   1 <1>  -0.5700 
  2 C       -0.4920     2.1470    -0.6320 C.2   1 <1>   0.5690 
  3 N       -1.5530     2.8540    -0.1290 N.am  1 <1>  -0.5090 
  4 C        0.8390     2.8590    -0.8820 C.3   1 <1>   0.1810 
  5 C       -1.4850     4.3390     0.0580 C.3   1 <1>   0.3640 
  6 C       -2.8230     2.2020     0.2810 C.3   1 <1>   0.0490 
  7 O        0.9270     4.1140    -0.2520 O.3   1 <1>  -0.5600 
  8 C       -2.6840     5.0110    -0.6130 C.ar  1 <1>  -0.1440 
  9 C       -0.1790     4.9580    -0.4970 C.3   1 <1>   0.2610 
 10 C       -3.2990     2.3710     1.6910 C.3   1 <1>  -0.2000 
 11 C       -2.7840     1.0450     1.2290 C.3   1 <1>  -0.2000 
 12 C       -3.3970     5.9870     0.0690 C.ar  1 <1>   0.1600 
 13 C       -3.0810     4.6790    -1.8970 C.ar  1 <1>  -0.1500 
 14 C        0.0690     6.3640     0.0770 C.2   1 <1>   0.5690 
 15 N       -4.4440     6.6370    -0.4130 N.ar  1 <1>  -0.6200 
 16 C       -4.1710     5.3460    -2.4110 C.ar  1 <1>  -0.1500 
 17 O       -0.4520     6.6630     1.1300 O.2   1 <1>  -0.5700 
 18 N        0.8520     7.2730    -0.5940 N.am  1 <1>  -0.6600 
 19 C       -4.8070     6.3020    -1.6390 C.ar  1 <1>   0.1600 
 20 C        1.0210     8.6590    -0.0590 C.3   1 <1>   0.3210 
 21 C        1.7200     6.9580    -1.7660 C.3   1 <1>   0.0600 
 22 C        2.3170     8.7770     0.7280 C.2   1 <1>   0.1080 
 23 N        3.3330     9.4790     0.3600 N.2   1 <1>  -0.4100 
 24 C        2.5720     8.1380     1.9390 C.2   1 <1>  -0.1500 
 25 O        4.2350     9.3210     1.2860 O.3   1 <1>  -0.0190 
 26 C        3.8180     8.5320     2.2390 C.2   1 <1>  -0.0100 
 27 H        0.9790     2.9970    -1.9390 H     1 <1>   0.0800 
 28 H        1.6400     2.2490    -0.5050 H     1 <1>   0.0800 
 29 H       -1.5280     4.5210     1.1170 H     1 <1>   0.0800 
 30 H       -3.5530     2.1800    -0.5110 H     1 <1>   0.1000 
 31 H       -0.2780     5.0560    -1.5620 H     1 <1>   0.0800 
 32 H       -2.7040     2.9130     2.4040 H     1 <1>   0.1000 
 33 H       -4.3550     2.4710     1.8700 H     1 <1>   0.1000 
 34 H       -3.4850     0.2420     1.0840 H     1 <1>   0.1000 
 35 H       -1.8270     0.7000     1.5770 H     1 <1>   0.1000 
 36 H       -3.0900     6.2550     1.0680 H     1 <1>   0.1500 
 37 H       -2.5730     3.9260    -2.4750 H     1 <1>   0.1500 
 38 H       -4.5300     5.1290    -3.4010 H     1 <1>   0.1500 
 39 H       -5.6600     6.8160    -2.0500 H     1 <1>   0.1500 
 40 H        1.0340     9.3580    -0.8760 H     1 <1>   0.0800 
 41 H        0.1960     8.9210     0.5810 H     1 <1>   0.0800 
 42 H        2.6970     7.3890    -1.6260 H     1 <1>   0.0800 
 43 H        1.2860     7.3680    -2.6610 H     1 <1>   0.0800 
 44 H        1.8460     5.8970    -1.8870 H     1 <1>   0.0800 
 45 H        1.8980     7.4890     2.4690 H     1 <1>   0.1500 
 46 H        4.4640     8.3120     3.0690 H     1 <1>   0.1500 
@<TRIPOS>BOND
  1   1   2  2   
  2   2   3  am  
  3   2   4  1   
  4   3   5  1   
  5   3   6  1   
  6   4   7  1   
  7   4  27  1   
  8   4  28  1   
  9   5   8  1   
 10   5   9  1   
 11   5  29  1   
 12   6  10  1   
 13   6  11  1   
 14   6  30  1   
 15   7   9  1   
 16   8  12  ar  
 17   8  13  ar  
 18   9  14  1   
 19   9  31  1   
 20  10  11  1   
 21  10  32  1   
 22  10  33  1   
 23  11  34  1   
 24  11  35  1   
 25  12  15  ar  
 26  12  36  1   
 27  13  16  ar  
 28  13  37  1   
 29  14  17  2   
 30  14  18  am  
 31  15  19  ar  
 32  16  19  ar  
 33  16  38  1   
 34  18  20  1   
 35  18  21  1   
 36  19  39  1   
 37  20  22  1   
 38  20  40  1   
 39  20  41  1   
 40  21  42  1   
 41  21  43  1   
 42  21  44  1   
 43  22  23  2   
 44  22  24  1   
 45  23  25  1   
 46  24  26  2   
 47  24  45  1   
 48  25  26  1   
 49  26  46  1   
@<TRIPOS>SUBSTRUCTURE
  1 ****   9 GROUP 4 **** **** 0

# MOE 2024.06 (io_trps.svl 2023.06)
