@<TRIPOS>MOLECULE
NONAME
30 29 1 0 0 
SMALL
USER_CHARGES


@<TRIPOS>ATOM
  1 O       -0.2060    -1.4710    -2.5340 O.2   1 <1>  -0.5700 
  2 C        0.1080    -1.9930    -1.4920 C.2   1 <1>   0.6590 
  3 O       -0.7470    -2.0930    -0.4830 O.3   1 <1>  -0.4300 
  4 C        1.5160    -2.5760    -1.2830 C.3   1 <1>   0.2610 
  5 C       -2.0480    -1.5640    -0.5730 C.3   1 <1>   0.2580 
  6 O        2.3970    -2.0880    -2.2590 O.3   1 <1>  -0.6800 
  7 C        2.0850    -2.2810     0.1260 C.3   1 <1>   0.2000 
  8 C       -2.7260    -1.8100     0.7600 C.2   1 <1>  -0.2880 
  9 O        1.3590    -3.0170     1.0820 O.3   1 <1>  -0.6800 
 10 C        3.5970    -2.6200     0.2590 C.3   1 <1>   0.2000 
 11 C       -3.1620    -0.8590     1.5920 C.2   1 <1>  -0.3000 
 12 O        3.8610    -3.0350     1.5680 O.3   1 <1>  -0.6800 
 13 C        4.5200    -1.4330    -0.0750 C.3   1 <1>   0.2610 
 14 O        4.3540    -0.4470     0.9070 O.3   1 <1>  -0.6800 
 15 C        5.9690    -1.9010    -0.1280 C.2   1 <1>   0.4490 
 16 O        6.5510    -2.1260    -1.1490 O.2   1 <1>  -0.5700 
 17 H        1.4660    -3.6410    -1.4240 H     1 <1>   0.0800 
 18 H       -1.9770    -0.5110    -0.7850 H     1 <1>   0.0800 
 19 H       -2.5720    -2.0610    -1.3720 H     1 <1>   0.0800 
 20 H        1.8780    -1.8340    -3.0570 H     1 <1>   0.4000 
 21 H        1.9330    -1.2390     0.3520 H     1 <1>   0.0800 
 22 H       -2.8260    -2.8600     0.9780 H     1 <1>   0.1500 
 23 H        0.4180    -2.7270     1.0930 H     1 <1>   0.4000 
 24 H        3.8300    -3.4450    -0.3930 H     1 <1>   0.0800 
 25 H       -3.6410    -1.0620     2.5350 H     1 <1>   0.1500 
 26 H       -3.0780     0.1980     1.4080 H     1 <1>   0.1500 
 27 H        3.0110    -3.4090     1.9090 H     1 <1>   0.4000 
 28 H        4.2700    -0.9980    -1.0250 H     1 <1>   0.0800 
 29 H        4.3280    -0.9020     1.7770 H     1 <1>   0.4000 
 30 H        6.4450    -2.0310     0.8280 H     1 <1>   0.0600 
@<TRIPOS>BOND
  1   1   2  2   
  2   2   3  1   
  3   2   4  1   
  4   3   5  1   
  5   4   6  1   
  6   4   7  1   
  7   4  17  1   
  8   5   8  1   
  9   5  18  1   
 10   5  19  1   
 11   6  20  1   
 12   7   9  1   
 13   7  10  1   
 14   7  21  1   
 15   8  11  2   
 16   8  22  1   
 17   9  23  1   
 18  10  12  1   
 19  10  13  1   
 20  10  24  1   
 21  11  25  1   
 22  11  26  1   
 23  12  27  1   
 24  13  14  1   
 25  13  15  1   
 26  13  28  1   
 27  14  29  1   
 28  15  16  2   
 29  15  30  1   
@<TRIPOS>SUBSTRUCTURE
  1 ****   7 GROUP 4 **** **** 0

# MOE 2024.06 (io_trps.svl 2023.06)
