@<TRIPOS>MOLECULE
NONAME
46 48 1 0 0 
SMALL
USER_CHARGES


@<TRIPOS>ATOM
  1 O        1.4550     2.0280     0.0050 O.co2 1 <1>  -0.9000 
  2 C        0.8050     2.7630    -0.7470 C.2   1 <1>   0.9060 
  3 O        1.3030     3.2000    -1.7890 O.co2 1 <1>  -0.9000 
  4 C       -0.4990     3.3780    -0.2190 C.3   1 <1>   0.0380 
  5 C       -1.7060     2.4250    -0.1350 C.ar  1 <1>  -0.1440 
  6 C       -0.0870     3.8960     1.1480 C.3   1 <1>   0.3430 
  7 C       -0.8430     4.6940    -0.9350 C.3   1 <1>  -0.1600 
  8 C       -1.6510     1.1500    -0.6840 C.ar  1 <1>  -0.1500 
  9 C       -2.8820     2.8210     0.4950 C.ar  1 <1>  -0.1500 
 10 N        0.6470     5.1810     0.8970 N.4   1 <1>  -0.9590 
 11 C        0.2500     5.6480    -0.4700 C.3   1 <1>   0.3430 
 12 C       -2.7360     0.2950    -0.6060 C.ar  1 <1>  -0.1500 
 13 C       -3.9690     1.9670     0.5740 C.ar  1 <1>  -0.1500 
 14 C        2.1200     4.9340     0.9230 C.3   1 <1>   0.5240 
 15 C       -3.8970     0.7020     0.0230 C.ar  1 <1>  -0.1500 
 16 C        2.8070     6.2810     0.8950 C.2   1 <1>  -0.1810 
 17 C        2.9560     7.1510     1.9670 C.2   1 <1>   0.1390 
 18 C        3.3970     6.9120    -0.1430 C.2   1 <1>  -0.3020 
 19 N        3.5700     8.2390     1.6280 N.2   1 <1>  -0.7070 
 20 N        3.8570     8.0940     0.3160 N.pl3 1 <1>   0.3140 
 21 C        4.5910     9.1180    -0.4840 C.3   1 <1>   0.1760 
 22 C        5.9950     9.3520     0.0910 C.3   1 <1>  -0.2400 
 23 C        3.7990    10.4310    -0.5420 C.3   1 <1>  -0.2400 
 24 H        0.5210     3.1760     1.6730 H     1 <1>   0.0800 
 25 H       -0.9700     4.0930     1.7310 H     1 <1>   0.0800 
 26 H       -1.8010     5.0740    -0.6350 H     1 <1>   0.0800 
 27 H       -0.8370     4.5810    -2.0050 H     1 <1>   0.0800 
 28 H       -0.7610     0.7970    -1.1800 H     1 <1>   0.1500 
 29 H       -2.9750     3.7990     0.9300 H     1 <1>   0.1500 
 30 H        0.4260     5.8890     1.6000 H     1 <1>   0.4500 
 31 H       -0.0920     6.6700    -0.4580 H     1 <1>   0.0800 
 32 H        1.0890     5.5630    -1.1440 H     1 <1>   0.0800 
 33 H       -2.6710    -0.6890    -1.0370 H     1 <1>   0.1500 
 34 H       -4.8730     2.2860     1.0630 H     1 <1>   0.1500 
 35 H        2.4240     4.3500     0.0680 H     1 <1>   0.0800 
 36 H        2.3990     4.3950     1.8130 H     1 <1>   0.0800 
 37 H       -4.7400     0.0350     0.0830 H     1 <1>   0.1500 
 38 H        2.6110     6.9670     2.9710 H     1 <1>   0.1500 
 39 H        3.5170     6.5910    -1.1630 H     1 <1>   0.1500 
 40 H        4.6930     8.7360    -1.4840 H     1 <1>   0.0800 
 41 H        5.9280     9.7430     1.0920 H     1 <1>   0.0800 
 42 H        6.5340    10.0560    -0.5170 H     1 <1>   0.0800 
 43 H        6.5450     8.4280     0.1120 H     1 <1>   0.0800 
 44 H        3.6870    10.8440     0.4460 H     1 <1>   0.0800 
 45 H        2.8250    10.2590    -0.9630 H     1 <1>   0.0800 
 46 H        4.3140    11.1490    -1.1550 H     1 <1>   0.0800 
@<TRIPOS>BOND
  1   1   2  ar  
  2   2   3  ar  
  3   2   4  1   
  4   4   5  1   
  5   4   6  1   
  6   4   7  1   
  7   5   8  ar  
  8   5   9  ar  
  9   6  10  1   
 10   6  24  1   
 11   6  25  1   
 12   7  11  1   
 13   7  26  1   
 14   7  27  1   
 15   8  12  ar  
 16   8  28  1   
 17   9  13  ar  
 18   9  29  1   
 19  10  11  1   
 20  10  14  1   
 21  10  30  1   
 22  11  31  1   
 23  11  32  1   
 24  12  15  ar  
 25  12  33  1   
 26  13  15  ar  
 27  13  34  1   
 28  14  16  1   
 29  14  35  1   
 30  14  36  1   
 31  15  37  1   
 32  16  17  1   
 33  16  18  2   
 34  17  19  2   
 35  17  38  1   
 36  18  20  1   
 37  18  39  1   
 38  19  20  1   
 39  20  21  1   
 40  21  22  1   
 41  21  23  1   
 42  21  40  1   
 43  22  41  1   
 44  22  42  1   
 45  22  43  1   
 46  23  44  1   
 47  23  45  1   
 48  23  46  1   
@<TRIPOS>SUBSTRUCTURE
  1 ****  10 GROUP 4 **** **** 0

# MOE 2024.06 (io_trps.svl 2023.06)
