@<TRIPOS>MOLECULE
NONAME
53 57 1 0 0 
SMALL
USER_CHARGES


@<TRIPOS>ATOM
  1 N        0.6090    -0.0110     0.9740 N.ar  1 <1>  -0.6200 
  2 C       -0.6030     0.4220     1.3010 C.ar  1 <1>   0.4760 
  3 C        1.2250     0.7410     0.0920 C.ar  1 <1>   0.1660 
  4 N       -1.2280     1.5030     0.8560 N.ar  1 <1>  -0.6200 
  5 C       -1.3560    -0.4170     2.3050 C.3   1 <1>  -0.0960 
  6 C        0.6870     1.8750    -0.4360 C.ar  1 <1>  -0.1440 
  7 C        2.6090     0.4700    -0.4470 C.3   1 <1>   0.1430 
  8 C       -0.5720     2.2330    -0.0220 C.ar  1 <1>   0.1600 
  9 C        1.6300     2.5380    -1.4080 C.3   1 <1>  -0.0160 
 10 C        3.5360     0.1310     0.7330 C.3   1 <1>   0.3430 
 11 C        2.5740    -0.7040    -1.4470 C.3   1 <1>  -0.1600 
 12 C        2.9650     1.8140    -1.1390 C.3   1 <1>  -0.1600 
 13 N        4.9120    -0.2570     0.2760 N.4   1 <1>  -0.9590 
 14 C        3.9900    -1.1660    -1.8390 C.3   1 <1>  -0.1600 
 15 C        4.8650    -1.4530    -0.6150 C.3   1 <1>   0.3430 
 16 C        5.8000    -0.5040     1.4430 C.3   1 <1>   0.4860 
 17 C        7.2450    -0.2790     1.0180 C.ar  1 <1>  -0.1440 
 18 C        8.1220    -1.2950     0.5940 C.ar  1 <1>  -0.0230 
 19 C        7.6900     1.0360     1.0830 C.ar  1 <1>  -0.1500 
 20 N        7.7500    -2.6770     0.4680 N.pl3 1 <1>   0.5930 
 21 C        9.4320    -0.9320     0.2730 C.ar  1 <1>  -0.1500 
 22 C        8.9860     1.3670     0.7420 C.ar  1 <1>  -0.1500 
 23 N        6.7090    -3.2530     1.1300 N.2   1 <1>  -0.7070 
 24 C        8.3050    -3.5980    -0.3630 C.2   1 <1>  -0.3020 
 25 C        9.8590     0.3790     0.3390 C.ar  1 <1>  -0.1500 
 26 C        6.6750    -4.4900     0.7410 C.2   1 <1>   0.1390 
 27 C        7.6500    -4.7650    -0.2040 C.2   1 <1>  -0.1500 
 28 H       -1.2680    -1.4560     2.0500 H     1 <1>   0.0800 
 29 H       -2.3970    -0.1490     2.3120 H     1 <1>   0.0800 
 30 H       -0.9460    -0.2560     3.2840 H     1 <1>   0.0800 
 31 H       -1.0470     3.1190    -0.4080 H     1 <1>   0.1500 
 32 H        1.7060     3.5970    -1.2320 H     1 <1>   0.0800 
 33 H        1.2920     2.3590    -2.4150 H     1 <1>   0.0800 
 34 H        3.0960    -0.6860     1.2830 H     1 <1>   0.0800 
 35 H        3.5850     0.9810     1.3930 H     1 <1>   0.0800 
 36 H        2.0170    -0.4280    -2.3270 H     1 <1>   0.0800 
 37 H        2.0550    -1.5320    -0.9910 H     1 <1>   0.0800 
 38 H        3.5240     1.6890    -2.0490 H     1 <1>   0.0800 
 39 H        3.5410     2.4270    -0.4660 H     1 <1>   0.0800 
 40 H        5.3290     0.5170    -0.2530 H     1 <1>   0.4500 
 41 H        4.4710    -0.4280    -2.4550 H     1 <1>   0.0800 
 42 H        3.9150    -2.0660    -2.4260 H     1 <1>   0.0800 
 43 H        4.4650    -2.2950    -0.0720 H     1 <1>   0.0800 
 44 H        5.8590    -1.7100    -0.9420 H     1 <1>   0.0800 
 45 H        5.6340    -1.4830     1.8550 H     1 <1>   0.0800 
 46 H        5.5710     0.2040     2.2220 H     1 <1>   0.0800 
 47 H        7.0360     1.8270     1.4100 H     1 <1>   0.1500 
 48 H       10.1480    -1.6760    -0.0300 H     1 <1>   0.1500 
 49 H        9.3220     2.3900     0.7970 H     1 <1>   0.1500 
 50 H        9.1290    -3.3790    -1.0160 H     1 <1>   0.1500 
 51 H       10.8750     0.6310     0.0820 H     1 <1>   0.1500 
 52 H        5.9680    -5.2180     1.1090 H     1 <1>   0.1500 
 53 H        7.8200    -5.7130    -0.6860 H     1 <1>   0.1500 
@<TRIPOS>BOND
  1   1   2  ar  
  2   1   3  ar  
  3   2   4  ar  
  4   2   5  1   
  5   3   6  ar  
  6   3   7  1   
  7   4   8  ar  
  8   5  28  1   
  9   5  29  1   
 10   5  30  1   
 11   6   8  ar  
 12   6   9  1   
 13   7  10  1   
 14   7  11  1   
 15   7  12  1   
 16   8  31  1   
 17   9  12  1   
 18   9  32  1   
 19   9  33  1   
 20  10  13  1   
 21  10  34  1   
 22  10  35  1   
 23  11  14  1   
 24  11  36  1   
 25  11  37  1   
 26  12  38  1   
 27  12  39  1   
 28  13  15  1   
 29  13  16  1   
 30  13  40  1   
 31  14  15  1   
 32  14  41  1   
 33  14  42  1   
 34  15  43  1   
 35  15  44  1   
 36  16  17  1   
 37  16  45  1   
 38  16  46  1   
 39  17  18  ar  
 40  17  19  ar  
 41  18  20  1   
 42  18  21  ar  
 43  19  22  ar  
 44  19  47  1   
 45  20  23  1   
 46  20  24  1   
 47  21  25  ar  
 48  21  48  1   
 49  22  25  ar  
 50  22  49  1   
 51  23  26  2   
 52  24  27  2   
 53  24  50  1   
 54  25  51  1   
 55  26  27  1   
 56  26  52  1   
 57  27  53  1   
@<TRIPOS>SUBSTRUCTURE
  1 ****  13 GROUP 4 **** **** 0

# MOE 2024.06 (io_trps.svl 2023.06)
