@<TRIPOS>MOLECULE
NONAME
47 49 1 0 0 
SMALL
USER_CHARGES


@<TRIPOS>ATOM
  1 O       -2.2760     0.2740    -2.1020 O.2   1 <1>  -0.5700 
  2 C       -2.5190     1.3660    -1.6210 C.2   1 <1>   0.5440 
  3 N       -3.6300     2.0550    -2.0560 N.am  1 <1>  -0.6600 
  4 C       -1.6490     1.8960    -0.6040 C.ar  1 <1>   0.0860 
  5 C       -4.6010     1.4210    -2.9960 C.3   1 <1>   0.1400 
  6 C       -4.0510     3.3830    -1.5280 C.3   1 <1>   0.1400 
  7 C       -2.0220     1.8760     0.7370 C.ar  1 <1>   0.1600 
  8 C       -0.4100     2.4480    -0.9110 C.ar  1 <1>  -0.1500 
  9 C       -5.5710     0.4770    -2.2640 C.3   1 <1>   0.1400 
 10 C       -5.1260     3.2590    -0.4370 C.3   1 <1>  -0.1600 
 11 N       -1.3140     2.3540     1.7450 N.ar  1 <1>  -0.6200 
 12 C        0.3430     2.9470     0.1250 C.ar  1 <1>  -0.1500 
 13 N       -5.9660     0.9640    -0.9000 N.am  1 <1>  -0.6600 
 14 C       -6.3450     2.4030    -0.8050 C.3   1 <1>   0.1400 
 15 C       -0.1480     2.8840     1.4250 C.ar  1 <1>   0.4100 
 16 C       -5.9400     0.1670     0.2280 C.2   1 <1>   0.5440 
 17 N        0.5550     3.3630     2.4730 N.pl3 1 <1>  -0.9000 
 18 O       -6.2490     0.6510     1.3000 O.2   1 <1>  -0.5700 
 19 C       -5.5680    -1.2310     0.1800 C.ar  1 <1>   0.0860 
 20 C       -6.4960    -2.2420     0.3510 C.ar  1 <1>  -0.1500 
 21 C       -4.2660    -1.6600    -0.0340 C.ar  1 <1>  -0.1500 
 22 C       -6.1110    -3.5690     0.2850 C.ar  1 <1>   0.3930 
 23 C       -3.9750    -3.0080    -0.0850 C.ar  1 <1>   0.1600 
 24 O       -7.0790    -4.4940     0.4530 O.3   1 <1>  -0.3630 
 25 N       -4.8640    -3.9750     0.0650 N.ar  1 <1>  -0.6200 
 26 C       -6.7780    -5.8760     0.4150 C.3   1 <1>   0.0400 
 27 H       -4.0680     0.8650    -3.7480 H     1 <1>   0.0800 
 28 H       -5.1620     2.1840    -3.5050 H     1 <1>   0.0800 
 29 H       -4.4360     3.9730    -2.3420 H     1 <1>   0.0800 
 30 H       -3.2010     3.9100    -1.1310 H     1 <1>   0.0800 
 31 H       -2.9730     1.4330     0.9840 H     1 <1>   0.1500 
 32 H       -0.0650     2.4750    -1.9300 H     1 <1>   0.1500 
 33 H       -5.0970    -0.4840    -2.1980 H     1 <1>   0.0800 
 34 H       -6.4570     0.3500    -2.8620 H     1 <1>   0.0800 
 35 H       -5.4740     4.2500    -0.2090 H     1 <1>   0.0800 
 36 H       -4.6910     2.8770     0.4680 H     1 <1>   0.0800 
 37 H        1.3040     3.3910    -0.0530 H     1 <1>   0.1500 
 38 H       -6.7740     2.7350    -1.7340 H     1 <1>   0.0800 
 39 H       -7.0980     2.5180    -0.0430 H     1 <1>   0.0800 
 40 H        1.5740     3.3510     2.4490 H     1 <1>   0.4000 
 41 H        0.1480     3.1460     3.3850 H     1 <1>   0.4000 
 42 H       -7.5250    -2.0010     0.5380 H     1 <1>   0.1500 
 43 H       -3.4810    -0.9390    -0.1640 H     1 <1>   0.1500 
 44 H       -2.9550    -3.3080    -0.2590 H     1 <1>   0.1500 
 45 H       -7.6870    -6.4250     0.5730 H     1 <1>   0.0800 
 46 H       -6.0690    -6.0990     1.1930 H     1 <1>   0.0800 
 47 H       -6.3630    -6.1150    -0.5490 H     1 <1>   0.0800 
@<TRIPOS>BOND
  1   1   2  2   
  2   2   3  am  
  3   2   4  1   
  4   3   5  1   
  5   3   6  1   
  6   4   7  ar  
  7   4   8  ar  
  8   5   9  1   
  9   5  27  1   
 10   5  28  1   
 11   6  10  1   
 12   6  29  1   
 13   6  30  1   
 14   7  11  ar  
 15   7  31  1   
 16   8  12  ar  
 17   8  32  1   
 18   9  13  1   
 19   9  33  1   
 20   9  34  1   
 21  10  14  1   
 22  10  35  1   
 23  10  36  1   
 24  11  15  ar  
 25  12  15  ar  
 26  12  37  1   
 27  13  14  1   
 28  13  16  am  
 29  14  38  1   
 30  14  39  1   
 31  15  17  1   
 32  16  18  2   
 33  16  19  1   
 34  17  40  1   
 35  17  41  1   
 36  19  20  ar  
 37  19  21  ar  
 38  20  22  ar  
 39  20  42  1   
 40  21  23  ar  
 41  21  43  1   
 42  22  24  1   
 43  22  25  ar  
 44  23  25  ar  
 45  23  44  1   
 46  24  26  1   
 47  26  45  1   
 48  26  46  1   
 49  26  47  1   
@<TRIPOS>SUBSTRUCTURE
  1 ****  21 GROUP 4 **** **** 0

# MOE 2024.06 (io_trps.svl 2023.06)
