@<TRIPOS>MOLECULE
NONAME
59 61 1 0 0 
SMALL
USER_CHARGES


@<TRIPOS>ATOM
  1 F       -1.6430    -1.1860     1.4010 F     1 <1>  -0.1900 
  2 C       -2.7790    -0.7130     0.9560 C.ar  1 <1>   0.1900 
  3 C       -3.1080    -0.7420    -0.4030 C.ar  1 <1>   0.0830 
  4 C       -3.6470    -0.2010     1.9020 C.ar  1 <1>  -0.1500 
  5 O       -2.3390    -1.2260    -1.4180 O.3   1 <1>  -0.3630 
  6 C       -4.3430    -0.2420    -0.7780 C.ar  1 <1>  -0.1500 
  7 C       -4.8770     0.2820     1.4960 C.ar  1 <1>  -0.1500 
  8 C       -0.9520    -1.4450    -1.2790 C.3   1 <1>   0.0400 
  9 C       -5.2520     0.2610     0.1520 C.ar  1 <1>   0.0530 
 10 C       -6.5490     0.7100    -0.2720 C.2   1 <1>   0.0870 
 11 O       -6.6850     1.6640    -1.1560 O.3   1 <1>  -0.0190 
 12 C       -7.7940     0.2630     0.0280 C.2   1 <1>  -0.0860 
 13 N       -7.9350     1.8800    -1.4760 N.2   1 <1>  -0.4100 
 14 C       -8.6230     1.0460    -0.7780 C.2   1 <1>   0.3720 
 15 C       -8.2060    -0.8040     0.8770 C.2   1 <1>   0.7160 
 16 N      -10.0210     0.9330    -0.8280 N.pl3 1 <1>  -0.8210 
 17 O       -7.5490    -1.1570     1.8370 O.2   1 <1>  -0.5700 
 18 N       -9.3240    -1.5210     0.5690 N.am  1 <1>  -0.7300 
 19 C      -10.5900     1.1420    -2.1920 C.3   1 <1>   0.1290 
 20 C      -10.6890     1.8280     0.1580 C.3   1 <1>   0.1290 
 21 C       -9.8840    -2.6650     1.3540 C.3   1 <1>   0.1400 
 22 C       -8.8370    -3.7750     1.6130 C.3   1 <1>   0.3430 
 23 N       -7.9310    -3.9480     0.4300 N.4   1 <1>  -0.9590 
 24 C       -8.2060    -5.1130    -0.4550 C.3   1 <1>   0.4230 
 25 C       -6.5060    -3.9040     0.8770 C.3   1 <1>   0.3430 
 26 C       -7.3000    -5.0250    -1.6920 C.3   1 <1>  -0.1600 
 27 C       -9.6700    -5.1330    -0.8910 C.3   1 <1>  -0.2400 
 28 C       -5.5890    -3.7750    -0.3380 C.3   1 <1>  -0.1600 
 29 C       -5.8130    -4.9230    -1.3260 C.3   1 <1>  -0.1600 
 30 H       -3.3630    -0.1860     2.9390 H     1 <1>   0.1500 
 31 H       -4.6070    -0.2480    -1.8210 H     1 <1>   0.1500 
 32 H       -5.5620     0.6770     2.2280 H     1 <1>   0.1500 
 33 H       -0.5440    -1.6410    -2.2540 H     1 <1>   0.0800 
 34 H       -0.7930    -2.2960    -0.6420 H     1 <1>   0.0800 
 35 H       -0.4970    -0.5620    -0.8640 H     1 <1>   0.0800 
 36 H       -9.9810    -0.9980    -0.0400 H     1 <1>   0.3700 
 37 H      -10.0530     0.5470    -2.9110 H     1 <1>   0.0800 
 38 H      -10.5080     2.1780    -2.4770 H     1 <1>   0.0800 
 39 H      -11.6270     0.8530    -2.2100 H     1 <1>   0.0800 
 40 H      -10.2970     1.6510     1.1450 H     1 <1>   0.0800 
 41 H      -11.7490     1.6430     0.1690 H     1 <1>   0.0800 
 42 H      -10.5150     2.8590    -0.1020 H     1 <1>   0.0800 
 43 H      -10.7170    -3.0800     0.8160 H     1 <1>   0.0800 
 44 H      -10.2560    -2.3010     2.2970 H     1 <1>   0.0800 
 45 H       -9.3230    -4.7020     1.8650 H     1 <1>   0.0800 
 46 H       -8.2510    -3.4710     2.4660 H     1 <1>   0.0800 
 47 H       -8.0800    -3.0970    -0.1310 H     1 <1>   0.4500 
 48 H       -7.9820    -6.0250     0.0760 H     1 <1>   0.0800 
 49 H       -6.2640    -4.8030     1.4180 H     1 <1>   0.0800 
 50 H       -6.3450    -3.0620     1.5310 H     1 <1>   0.0800 
 51 H       -7.5810    -4.1710    -2.2850 H     1 <1>   0.0800 
 52 H       -7.4460    -5.8990    -2.3030 H     1 <1>   0.0800 
 53 H       -9.9470    -4.2040    -1.3580 H     1 <1>   0.0800 
 54 H      -10.3220    -5.3360    -0.0620 H     1 <1>   0.0800 
 55 H       -9.8200    -5.9220    -1.6080 H     1 <1>   0.0800 
 56 H       -4.5640    -3.7770    -0.0080 H     1 <1>   0.0800 
 57 H       -5.7670    -2.8290    -0.8200 H     1 <1>   0.0800 
 58 H       -5.2260    -4.7590    -2.2150 H     1 <1>   0.0800 
 59 H       -5.4860    -5.8490    -0.8830 H     1 <1>   0.0800 
@<TRIPOS>BOND
  1   1   2  1   
  2   2   3  ar  
  3   2   4  ar  
  4   3   5  1   
  5   3   6  ar  
  6   4   7  ar  
  7   4  30  1   
  8   5   8  1   
  9   6   9  ar  
 10   6  31  1   
 11   7   9  ar  
 12   7  32  1   
 13   8  33  1   
 14   8  34  1   
 15   8  35  1   
 16   9  10  1   
 17  10  11  1   
 18  10  12  2   
 19  11  13  1   
 20  12  14  1   
 21  12  15  1   
 22  13  14  2   
 23  14  16  1   
 24  15  17  2   
 25  15  18  am  
 26  16  19  1   
 27  16  20  1   
 28  18  21  1   
 29  18  36  1   
 30  19  37  1   
 31  19  38  1   
 32  19  39  1   
 33  20  40  1   
 34  20  41  1   
 35  20  42  1   
 36  21  22  1   
 37  21  43  1   
 38  21  44  1   
 39  22  23  1   
 40  22  45  1   
 41  22  46  1   
 42  23  24  1   
 43  23  25  1   
 44  23  47  1   
 45  24  26  1   
 46  24  27  1   
 47  24  48  1   
 48  25  28  1   
 49  25  49  1   
 50  25  50  1   
 51  26  29  1   
 52  26  51  1   
 53  26  52  1   
 54  27  53  1   
 55  27  54  1   
 56  27  55  1   
 57  28  29  1   
 58  28  56  1   
 59  28  57  1   
 60  29  58  1   
 61  29  59  1   
@<TRIPOS>SUBSTRUCTURE
  1 ****  15 GROUP 4 **** **** 0

# MOE 2024.06 (io_trps.svl 2023.06)
