@<TRIPOS>MOLECULE
NONAME
51 54 1 0 0 
SMALL
USER_CHARGES


@<TRIPOS>ATOM
  1 CL      -2.3540     1.9690     2.0020 Cl    1 <1>  -0.1770 
  2 C       -1.4810     2.4340     0.5620 C.ar  1 <1>   0.1770 
  3 C       -1.8850     1.9580    -0.6850 C.ar  1 <1>   0.0860 
  4 C       -0.4010     3.2780     0.7120 C.ar  1 <1>  -0.1500 
  5 C       -3.0310     1.0980    -0.8560 C.2   1 <1>   0.5440 
  6 C       -1.1260     2.3550    -1.7850 C.ar  1 <1>  -0.1500 
  7 C        0.3360     3.6840    -0.3950 C.ar  1 <1>   0.1170 
  8 O       -2.8440    -0.0690    -1.1450 O.2   1 <1>  -0.5700 
  9 N       -4.3230     1.5730    -0.7510 N.am  1 <1>  -0.6600 
 10 C       -0.0400     3.1990    -1.6440 C.ar  1 <1>  -0.1500 
 11 N        1.4360     4.5410    -0.2970 N.am  1 <1>  -0.5470 
 12 C       -4.6860     2.9950    -0.4450 C.3   1 <1>   0.1400 
 13 C       -5.5100     0.6930    -0.9290 C.3   1 <1>   0.1400 
 14 C        1.7100     5.5090     0.6270 C.2   1 <1>   0.5690 
 15 C       -5.7900     3.1180     0.6410 C.3   1 <1>   0.1440 
 16 C       -6.3210     0.6120     0.3740 C.3   1 <1>  -0.1600 
 17 O        0.9670     5.8070     1.5260 O.2   1 <1>  -0.5700 
 18 C        3.0150     6.2520     0.4900 C.3   1 <1>  -0.1790 
 19 C       -7.0920     3.6640     0.0650 C.ar  1 <1>   0.1670 
 20 C       -6.0500     1.7690     1.3560 C.3   1 <1>  -0.1600 
 21 C       -5.4370     4.2050     1.6920 C.3   1 <1>  -0.1600 
 22 N       -7.6730     3.2710    -1.0490 N.ar  1 <1>  -0.6200 
 23 C       -7.6140     4.6440     0.8560 C.ar  1 <1>  -0.1430 
 24 C       -6.7520     4.9090     2.0630 C.3   1 <1>  -0.0170 
 25 C       -8.8040     3.9000    -1.3340 C.ar  1 <1>   0.4770 
 26 C       -8.7930     5.2290     0.4660 C.ar  1 <1>   0.1600 
 27 N       -9.4020     4.8590    -0.6410 N.ar  1 <1>  -0.6200 
 28 C       -9.5020     3.4720    -2.6020 C.3   1 <1>  -0.0970 
 29 H       -0.1340     3.6150     1.6970 H     1 <1>   0.1500 
 30 H       -1.4030     1.9880    -2.7590 H     1 <1>   0.1500 
 31 H        0.5190     3.4890    -2.5160 H     1 <1>   0.1500 
 32 H        2.1170     4.4640    -1.0510 H     1 <1>   0.3700 
 33 H       -5.0240     3.4630    -1.3530 H     1 <1>   0.0800 
 34 H       -3.8120     3.5280    -0.1240 H     1 <1>   0.0800 
 35 H       -5.2200    -0.2950    -1.2410 H     1 <1>   0.0800 
 36 H       -6.1260     1.1120    -1.7070 H     1 <1>   0.0800 
 37 H       -6.1010    -0.3210     0.8630 H     1 <1>   0.0800 
 38 H       -7.3650     0.5950     0.1160 H     1 <1>   0.0800 
 39 H        3.8350     5.5590     0.5080 H     1 <1>   0.0800 
 40 H        3.1270     6.9400     1.3090 H     1 <1>   0.0800 
 41 H        3.0260     6.8050    -0.4300 H     1 <1>   0.0800 
 42 H       -6.8730     1.8590     2.0430 H     1 <1>   0.0800 
 43 H       -5.1760     1.5140     1.9280 H     1 <1>   0.0800 
 44 H       -4.7910     4.9410     1.2470 H     1 <1>   0.0800 
 45 H       -4.9390     3.8000     2.5560 H     1 <1>   0.0800 
 46 H       -6.6050     5.9620     2.2310 H     1 <1>   0.0800 
 47 H       -7.1960     4.4550     2.9330 H     1 <1>   0.0800 
 48 H       -9.2420     6.0060     1.0600 H     1 <1>   0.1500 
 49 H       -8.8230     2.9420    -3.2430 H     1 <1>   0.0800 
 50 H       -9.8720     4.3350    -3.1220 H     1 <1>   0.0800 
 51 H      -10.3250     2.8300    -2.3520 H     1 <1>   0.0800 
@<TRIPOS>BOND
  1   1   2  1   
  2   2   3  ar  
  3   2   4  ar  
  4   3   5  1   
  5   3   6  ar  
  6   4   7  ar  
  7   4  29  1   
  8   5   8  2   
  9   5   9  am  
 10   6  10  ar  
 11   6  30  1   
 12   7  10  ar  
 13   7  11  1   
 14   9  12  1   
 15   9  13  1   
 16  10  31  1   
 17  11  14  am  
 18  11  32  1   
 19  12  15  1   
 20  12  33  1   
 21  12  34  1   
 22  13  16  1   
 23  13  35  1   
 24  13  36  1   
 25  14  17  2   
 26  14  18  1   
 27  15  19  1   
 28  15  20  1   
 29  15  21  1   
 30  16  20  1   
 31  16  37  1   
 32  16  38  1   
 33  18  39  1   
 34  18  40  1   
 35  18  41  1   
 36  19  22  ar  
 37  19  23  ar  
 38  20  42  1   
 39  20  43  1   
 40  21  24  1   
 41  21  44  1   
 42  21  45  1   
 43  22  25  ar  
 44  23  24  1   
 45  23  26  ar  
 46  24  46  1   
 47  24  47  1   
 48  25  27  ar  
 49  25  28  1   
 50  26  27  ar  
 51  26  48  1   
 52  28  49  1   
 53  28  50  1   
 54  28  51  1   
@<TRIPOS>SUBSTRUCTURE
  1 ****  12 GROUP 4 **** **** 0

# MOE 2024.06 (io_trps.svl 2023.06)
