@<TRIPOS>MOLECULE
NONAME
47 50 1 0 0 
SMALL
USER_CHARGES


@<TRIPOS>ATOM
  1 O       -0.8330    -1.8820    -1.7830 O.3   1 <1>  -0.0190 
  2 N       -0.6680    -2.9470    -1.0600 N.2   1 <1>  -0.4100 
  3 C       -1.7810    -1.2230    -1.1640 C.2   1 <1>   0.2980 
  4 C       -1.4960    -2.8790    -0.0930 C.2   1 <1>   0.3350 
  5 N       -2.2370    -1.7740    -0.1130 N.2   1 <1>  -0.5650 
  6 C       -2.2450     0.1040    -1.7380 C.3   1 <1>   0.0200 
  7 C       -1.6330    -3.9280     1.0150 C.3   1 <1>   0.2910 
  8 C       -1.1500     1.1770    -1.6660 C.3   1 <1>  -0.2400 
  9 N       -2.7540    -4.8790     0.8150 N.3   1 <1>  -0.8100 
 10 C       -4.0930    -4.2590     0.7800 C.3   1 <1>   0.1100 
 11 C       -2.7850    -5.9770     1.7830 C.3   1 <1>   0.1100 
 12 C       -5.0150    -5.1540     1.6170 C.3   1 <1>   0.2000 
 13 C       -4.2380    -6.4590     1.7910 C.3   1 <1>  -0.0800 
 14 O       -5.1780    -4.5790     2.8680 O.3   1 <1>  -0.6800 
 15 C       -4.5150    -7.4320     0.6240 C.3   1 <1>  -0.0170 
 16 C       -3.8120    -8.7950     0.6950 C.ar  1 <1>  -0.1440 
 17 C       -3.7370    -9.6180    -0.4560 C.ar  1 <1>   0.0000 
 18 C       -3.2450    -9.2820     1.8400 C.ar  1 <1>  -0.1500 
 19 C       -3.0580   -10.8570    -0.3450 C.ar  1 <1>   0.3100 
 20 C       -4.3010    -9.2900    -1.7130 C.ar  1 <1>  -0.1500 
 21 C       -2.6050   -10.5280     1.8440 C.ar  1 <1>   0.1600 
 22 N       -2.4990   -11.2960     0.8090 N.ar  1 <1>  -0.6200 
 23 C       -2.9560   -11.6840    -1.4760 C.ar  1 <1>  -0.1500 
 24 C       -4.1860   -10.1200    -2.7950 C.ar  1 <1>  -0.1500 
 25 C       -3.5040   -11.3320    -2.6790 C.ar  1 <1>  -0.1500 
 26 H       -2.5410    -0.0460    -2.7610 H     1 <1>   0.0800 
 27 H       -3.1060     0.4370    -1.1870 H     1 <1>   0.0800 
 28 H       -1.7520    -3.4190     1.9550 H     1 <1>   0.0800 
 29 H       -0.7140    -4.4850     1.0520 H     1 <1>   0.0800 
 30 H       -0.2890     0.8720    -2.2350 H     1 <1>   0.0800 
 31 H       -0.8510     1.3310    -0.6440 H     1 <1>   0.0800 
 32 H       -1.5150     2.1060    -2.0640 H     1 <1>   0.0800 
 33 H       -4.0870    -3.2510     1.1610 H     1 <1>   0.0800 
 34 H       -4.4290    -4.2390    -0.2420 H     1 <1>   0.0800 
 35 H       -2.0960    -6.7530     1.4960 H     1 <1>   0.0800 
 36 H       -2.5220    -5.6130     2.7620 H     1 <1>   0.0800 
 37 H       -5.9890    -5.2820     1.1780 H     1 <1>   0.0800 
 38 H       -4.5070    -6.9280     2.7200 H     1 <1>   0.0800 
 39 H       -4.3070    -4.3050     3.2100 H     1 <1>   0.4000 
 40 H       -4.2140    -6.9390    -0.2840 H     1 <1>   0.0800 
 41 H       -5.5740    -7.6100     0.5630 H     1 <1>   0.0800 
 42 H       -3.2610    -8.7480     2.7690 H     1 <1>   0.1500 
 43 H       -4.8360    -8.3670    -1.8310 H     1 <1>   0.1500 
 44 H       -2.1720   -10.8670     2.7690 H     1 <1>   0.1500 
 45 H       -2.4290   -12.6130    -1.3610 H     1 <1>   0.1500 
 46 H       -4.6180    -9.8520    -3.7440 H     1 <1>   0.1500 
 47 H       -3.4170   -11.9760    -3.5370 H     1 <1>   0.1500 
@<TRIPOS>BOND
  1   1   2  1   
  2   1   3  1   
  3   2   4  2   
  4   3   5  2   
  5   3   6  1   
  6   4   5  1   
  7   4   7  1   
  8   6   8  1   
  9   6  26  1   
 10   6  27  1   
 11   7   9  1   
 12   7  28  1   
 13   7  29  1   
 14   8  30  1   
 15   8  31  1   
 16   8  32  1   
 17   9  10  1   
 18   9  11  1   
 19  10  12  1   
 20  10  33  1   
 21  10  34  1   
 22  11  13  1   
 23  11  35  1   
 24  11  36  1   
 25  12  13  1   
 26  12  14  1   
 27  12  37  1   
 28  13  15  1   
 29  13  38  1   
 30  14  39  1   
 31  15  16  1   
 32  15  40  1   
 33  15  41  1   
 34  16  17  ar  
 35  16  18  ar  
 36  17  19  ar  
 37  17  20  ar  
 38  18  21  ar  
 39  18  42  1   
 40  19  22  ar  
 41  19  23  ar  
 42  20  24  ar  
 43  20  43  1   
 44  21  22  ar  
 45  21  44  1   
 46  23  25  ar  
 47  23  45  1   
 48  24  25  ar  
 49  24  46  1   
 50  25  47  1   
@<TRIPOS>SUBSTRUCTURE
  1 ****   9 GROUP 4 **** **** 0

# MOE 2024.06 (io_trps.svl 2023.06)
