@<TRIPOS>MOLECULE
NONAME
49 52 1 0 0 
SMALL
USER_CHARGES


@<TRIPOS>ATOM
  1 O        2.1210     0.5350     0.9540 O.2   1 <1>  -0.5700 
  2 C        2.6080    -0.5240     0.5800 C.2   1 <1>   0.6160 
  3 N        1.7720    -1.6100     0.3410 N.am  1 <1>  -0.4770 
  4 C        4.0280    -0.6780     0.4150 C.2   1 <1>   0.0290 
  5 C        2.2960    -2.8890     0.0760 C.ar  1 <1>   0.1170 
  6 C        0.2890    -1.4170     0.3940 C.3   1 <1>   0.0600 
  7 C        4.8870     0.4720     0.5490 C.2   1 <1>   0.6160 
  8 C        4.5300    -1.9140     0.1390 C.2   1 <1>  -0.1780 
  9 C        3.6910    -3.0490    -0.0260 C.ar  1 <1>   0.0280 
 10 C        1.4890    -4.0220    -0.0870 C.ar  1 <1>  -0.1500 
 11 O        5.9830     0.3850     1.0760 O.2   1 <1>  -0.5700 
 12 N        4.5870     1.7000     0.0270 N.am  1 <1>  -0.6600 
 13 C        4.2240    -4.3140    -0.2880 C.ar  1 <1>  -0.1500 
 14 C        2.0320    -5.2620    -0.3460 C.ar  1 <1>  -0.1500 
 15 C        4.1820     2.7930     0.9830 C.3   1 <1>   0.2200 
 16 C        5.1350     2.0520    -1.3130 C.3   1 <1>   0.1400 
 17 C        3.4070    -5.4090    -0.4480 C.ar  1 <1>  -0.1500 
 18 C        3.3100     3.8670     0.3160 C.3   1 <1>   0.1200 
 19 C        5.4100     3.4350     1.6740 C.3   1 <1>   0.3430 
 20 C        5.7310     3.4680    -1.4090 C.3   1 <1>  -0.0800 
 21 O        4.1100     4.8560    -0.2660 O.3   1 <1>  -0.5600 
 22 N        6.6960     3.1370     0.9580 N.4   1 <1>  -0.9590 
 23 C        4.6410     4.5480    -1.5100 C.3   1 <1>   0.1200 
 24 C        6.8220     3.8180    -0.3710 C.3   1 <1>   0.3430 
 25 C        7.8760     3.3880     1.8310 C.3   1 <1>   0.2630 
 26 H       -0.1600    -1.8100    -0.5000 H     1 <1>   0.0800 
 27 H        0.0240    -0.3770     0.4650 H     1 <1>   0.0800 
 28 H       -0.1080    -1.9300     1.2520 H     1 <1>   0.0800 
 29 H        5.5910    -2.0660     0.0370 H     1 <1>   0.1500 
 30 H        0.4210    -3.9490    -0.0090 H     1 <1>   0.1500 
 31 H        5.2900    -4.4320    -0.3650 H     1 <1>   0.1500 
 32 H        1.3950    -6.1210    -0.4690 H     1 <1>   0.1500 
 33 H        3.5770     2.3500     1.7540 H     1 <1>   0.0800 
 34 H        5.9000     1.3370    -1.5720 H     1 <1>   0.0800 
 35 H        4.3470     1.9470    -2.0400 H     1 <1>   0.0800 
 36 H        3.8270    -6.3800    -0.6500 H     1 <1>   0.1500 
 37 H        2.7180     4.3570     1.0690 H     1 <1>   0.0800 
 38 H        2.6410     3.4430    -0.4130 H     1 <1>   0.0800 
 39 H        5.4650     3.0350     2.6730 H     1 <1>   0.0800 
 40 H        5.2650     4.4990     1.7590 H     1 <1>   0.0800 
 41 H        6.2220     3.5040    -2.3650 H     1 <1>   0.0800 
 42 H        6.6310     2.1090     0.7840 H     1 <1>   0.4500 
 43 H        3.8410     4.2490    -2.1680 H     1 <1>   0.0800 
 44 H        5.0650     5.4590    -1.8980 H     1 <1>   0.0800 
 45 H        6.8290     4.8860    -0.2250 H     1 <1>   0.0800 
 46 H        7.7750     3.5450    -0.7940 H     1 <1>   0.0800 
 47 H        7.9470     4.4350     2.0730 H     1 <1>   0.0800 
 48 H        8.7810     3.0830     1.3310 H     1 <1>   0.0800 
 49 H        7.7860     2.8240     2.7460 H     1 <1>   0.0800 
@<TRIPOS>BOND
  1   1   2  2   
  2   2   3  am  
  3   2   4  1   
  4   3   5  1   
  5   3   6  1   
  6   4   7  1   
  7   4   8  2   
  8   5   9  ar  
  9   5  10  ar  
 10   6  26  1   
 11   6  27  1   
 12   6  28  1   
 13   7  11  2   
 14   7  12  am  
 15   8   9  1   
 16   8  29  1   
 17   9  13  ar  
 18  10  14  ar  
 19  10  30  1   
 20  12  15  1   
 21  12  16  1   
 22  13  17  ar  
 23  13  31  1   
 24  14  17  ar  
 25  14  32  1   
 26  15  18  1   
 27  15  19  1   
 28  15  33  1   
 29  16  20  1   
 30  16  34  1   
 31  16  35  1   
 32  17  36  1   
 33  18  21  1   
 34  18  37  1   
 35  18  38  1   
 36  19  22  1   
 37  19  39  1   
 38  19  40  1   
 39  20  23  1   
 40  20  24  1   
 41  20  41  1   
 42  21  23  1   
 43  22  24  1   
 44  22  25  1   
 45  22  42  1   
 46  23  43  1   
 47  23  44  1   
 48  24  45  1   
 49  24  46  1   
 50  25  47  1   
 51  25  48  1   
 52  25  49  1   
@<TRIPOS>SUBSTRUCTURE
  1 ****   7 GROUP 4 **** **** 0

# MOE 2024.06 (io_trps.svl 2023.06)
