@<TRIPOS>MOLECULE
NONAME
55 57 1 0 0 
SMALL
USER_CHARGES


@<TRIPOS>ATOM
  1 CL       0.5510     0.1860     0.2780 Cl    1 <1>  -0.1770 
  2 C        1.9280     1.2100    -0.0280 C.ar  1 <1>   0.1770 
  3 C        2.8870     1.3710     0.9540 C.ar  1 <1>  -0.1500 
  4 C        2.0450     1.8460    -1.2490 C.ar  1 <1>  -0.1500 
  5 C        3.9770     2.1870     0.7070 C.ar  1 <1>  -0.1500 
  6 C        3.1390     2.6600    -1.4850 C.ar  1 <1>  -0.1500 
  7 C        4.1220     2.8540    -0.5120 C.ar  1 <1>   0.0860 
  8 C        5.2590     3.7170    -0.7720 C.2   1 <1>   0.5440 
  9 O        5.9900     3.4540    -1.7070 O.2   1 <1>  -0.5700 
 10 N        5.5300     4.8280     0.0050 N.am  1 <1>  -0.6600 
 11 C        6.7740     5.6250    -0.1870 C.3   1 <1>   0.1400 
 12 C        4.5560     5.4250     0.9610 C.3   1 <1>   0.1400 
 13 C        6.4130     7.0350    -0.6640 C.3   1 <1>  -0.1600 
 14 C        4.1840     6.8360     0.4980 C.3   1 <1>  -0.1600 
 15 C        5.4290     7.7260     0.2980 C.3   1 <1>  -0.0190 
 16 C        5.0800     9.1330    -0.1930 C.2   1 <1>   0.5690 
 17 O        4.0610     9.3090    -0.8180 O.2   1 <1>  -0.5700 
 18 N        5.9620    10.1370     0.1040 N.am  1 <1>  -0.4940 
 19 C        5.9030    11.5130    -0.2400 C.2   1 <1>  -0.0880 
 20 N        6.8200    12.4520     0.1200 N.pl3 1 <1>   0.3140 
 21 C        4.9710    12.1680    -0.9700 C.2   1 <1>  -0.1500 
 22 N        6.4980    13.6740    -0.3580 N.2   1 <1>  -0.7070 
 23 C        8.0320    12.2600     0.9410 C.3   1 <1>   0.0960 
 24 C        5.3930    13.4900    -1.0070 C.2   1 <1>   0.1080 
 25 C        9.1640    11.6310     0.1150 C.3   1 <1>  -0.1600 
 26 C        4.6730    14.6140    -1.7130 C.3   1 <1>  -0.0590 
 27 C       10.4150    11.4010     0.9720 C.3   1 <1>  -0.1600 
 28 C       11.5390    10.7750     0.1440 C.3   1 <1>  -0.2400 
 29 H        2.7780     0.8590     1.8940 H     1 <1>   0.1500 
 30 H        1.2900     1.7020    -2.0020 H     1 <1>   0.1500 
 31 H        4.7350     2.3130     1.4610 H     1 <1>   0.1500 
 32 H        3.2480     3.1570    -2.4340 H     1 <1>   0.1500 
 33 H        7.4230     5.1560    -0.9080 H     1 <1>   0.0800 
 34 H        7.3040     5.6740     0.7480 H     1 <1>   0.0800 
 35 H        5.0040     5.4630     1.9390 H     1 <1>   0.0800 
 36 H        3.6610     4.8320     1.0260 H     1 <1>   0.0800 
 37 H        5.9730     6.9640    -1.6440 H     1 <1>   0.0800 
 38 H        7.3140     7.6150    -0.7540 H     1 <1>   0.0800 
 39 H        3.5290     7.2880     1.2210 H     1 <1>   0.0800 
 40 H        3.6390     6.7590    -0.4280 H     1 <1>   0.0800 
 41 H        5.9080     7.8270     1.2550 H     1 <1>   0.0800 
 42 H        6.7890     9.8450     0.6200 H     1 <1>   0.3700 
 43 H        4.0870    11.7680    -1.4330 H     1 <1>   0.1500 
 44 H        7.7810    11.6400     1.7810 H     1 <1>   0.0800 
 45 H        8.3400    13.2220     1.3090 H     1 <1>   0.0800 
 46 H        9.4060    12.2930    -0.6990 H     1 <1>   0.0800 
 47 H        8.8360    10.6930    -0.2980 H     1 <1>   0.0800 
 48 H        3.7790    14.2490    -2.1840 H     1 <1>   0.0800 
 49 H        5.3190    15.0390    -2.4590 H     1 <1>   0.0800 
 50 H        4.4130    15.3750    -1.0010 H     1 <1>   0.0800 
 51 H       10.1810    10.7510     1.7980 H     1 <1>   0.0800 
 52 H       10.7560    12.3410     1.3740 H     1 <1>   0.0800 
 53 H       11.2340     9.8230    -0.2540 H     1 <1>   0.0800 
 54 H       12.4100    10.6240     0.7580 H     1 <1>   0.0800 
 55 H       11.8090    11.4210    -0.6740 H     1 <1>   0.0800 
@<TRIPOS>BOND
  1   1   2  1   
  2   2   3  ar  
  3   2   4  ar  
  4   3   5  ar  
  5   3  29  1   
  6   4   6  ar  
  7   4  30  1   
  8   5   7  ar  
  9   5  31  1   
 10   6   7  ar  
 11   6  32  1   
 12   7   8  1   
 13   8   9  2   
 14   8  10  am  
 15  10  11  1   
 16  10  12  1   
 17  11  13  1   
 18  11  33  1   
 19  11  34  1   
 20  12  14  1   
 21  12  35  1   
 22  12  36  1   
 23  13  15  1   
 24  13  37  1   
 25  13  38  1   
 26  14  15  1   
 27  14  39  1   
 28  14  40  1   
 29  15  16  1   
 30  15  41  1   
 31  16  17  2   
 32  16  18  am  
 33  18  19  1   
 34  18  42  1   
 35  19  20  1   
 36  19  21  2   
 37  20  22  1   
 38  20  23  1   
 39  21  24  1   
 40  21  43  1   
 41  22  24  2   
 42  23  25  1   
 43  23  44  1   
 44  23  45  1   
 45  24  26  1   
 46  25  27  1   
 47  25  46  1   
 48  25  47  1   
 49  26  48  1   
 50  26  49  1   
 51  26  50  1   
 52  27  28  1   
 53  27  51  1   
 54  27  52  1   
 55  28  53  1   
 56  28  54  1   
 57  28  55  1   
@<TRIPOS>SUBSTRUCTURE
  1 ****  15 GROUP 4 **** **** 0

# MOE 2024.06 (io_trps.svl 2023.06)
