@<TRIPOS>MOLECULE
NONAME
52 55 1 0 0 
SMALL
USER_CHARGES


@<TRIPOS>ATOM
  1 O       -0.9980    -0.3570     0.9790 O.2   1 <1>  -0.5700 
  2 C       -1.6630     0.6480     1.1530 C.2   1 <1>   0.7160 
  3 N       -2.6100     0.6260     2.1290 N.am  1 <1>  -0.7300 
  4 C       -1.5220     1.7980     0.3170 C.2   1 <1>  -0.0860 
  5 C       -3.1710    -0.6280     2.7190 C.3   1 <1>   0.2010 
  6 C       -2.5450     2.7090     0.0230 C.2   1 <1>   0.3720 
  7 C       -0.4630     2.2710    -0.3970 C.2   1 <1>   0.0870 
  8 C       -4.0170    -1.4070     1.7110 C.2   1 <1>   0.5690 
  9 N       -2.1330     3.6230    -0.7820 N.2   1 <1>  -0.4100 
 10 N       -3.8600     2.6170     0.5110 N.pl3 1 <1>  -0.8210 
 11 O       -0.8810     3.3420    -1.0230 O.3   1 <1>  -0.0190 
 12 C        0.9020     1.8380    -0.5570 C.ar  1 <1>   0.0530 
 13 O       -5.2050    -1.5230     1.9040 O.2   1 <1>  -0.5700 
 14 N       -3.4010    -1.9030     0.6050 N.am  1 <1>  -0.5790 
 15 C       -4.7280     1.6840    -0.2660 C.3   1 <1>   0.2090 
 16 C       -4.5970     3.9000     0.7060 C.3   1 <1>   0.2090 
 17 C        1.5730     2.0330    -1.7650 C.ar  1 <1>  -0.1500 
 18 C        1.6130     1.2230     0.4760 C.ar  1 <1>  -0.1500 
 19 C       -4.0510    -2.5610    -0.5330 C.3   1 <1>   0.0490 
 20 C       -5.9400     2.4970    -0.6970 C.3   1 <1>  -0.1600 
 21 C       -6.0450     3.5950     0.3500 C.3   1 <1>  -0.1600 
 22 C        2.8840     1.6300    -1.9360 C.ar  1 <1>  -0.1500 
 23 C        2.9240     0.8160     0.3130 C.ar  1 <1>  -0.1500 
 24 C       -3.2190    -3.4480    -1.3970 C.3   1 <1>  -0.2000 
 25 C       -3.6670    -2.1090    -1.9020 C.3   1 <1>  -0.2000 
 26 C        3.5720     1.0170    -0.9020 C.ar  1 <1>   0.0830 
 27 O        4.8520     0.6500    -1.1480 O.3   1 <1>  -0.3620 
 28 C        5.6330     0.0000    -0.1700 C.3   1 <1>   0.0400 
 29 H       -3.2880     1.4000     2.0420 H     1 <1>   0.3700 
 30 H       -3.7810    -0.3780     3.5680 H     1 <1>   0.0800 
 31 H       -2.3660    -1.2560     3.0560 H     1 <1>   0.0800 
 32 H       -2.3980    -1.7010     0.4860 H     1 <1>   0.3700 
 33 H       -5.0410     0.8770     0.3760 H     1 <1>   0.0800 
 34 H       -4.2130     1.2750    -1.1200 H     1 <1>   0.0800 
 35 H       -4.2200     4.6650     0.0490 H     1 <1>   0.0800 
 36 H       -4.5090     4.2360     1.7250 H     1 <1>   0.0800 
 37 H        1.0580     2.5060    -2.5820 H     1 <1>   0.1500 
 38 H        1.1340     1.0630     1.4240 H     1 <1>   0.1500 
 39 H       -5.0790    -2.8320    -0.3420 H     1 <1>   0.1000 
 40 H       -6.8280     1.8920    -0.7510 H     1 <1>   0.0800 
 41 H       -5.7450     2.9270    -1.6640 H     1 <1>   0.0800 
 42 H       -6.5580     4.4660    -0.0170 H     1 <1>   0.0800 
 43 H       -6.5520     3.2250     1.2240 H     1 <1>   0.0800 
 44 H        3.3850     1.7860    -2.8740 H     1 <1>   0.1500 
 45 H        3.4240     0.3450     1.1370 H     1 <1>   0.1500 
 46 H       -3.6710    -4.3280    -1.8190 H     1 <1>   0.1000 
 47 H       -2.1820    -3.5920    -1.1480 H     1 <1>   0.1000 
 48 H       -2.9380    -1.3250    -2.0080 H     1 <1>   0.1000 
 49 H       -4.4200    -2.0840    -2.6700 H     1 <1>   0.1000 
 50 H        6.6010    -0.1990    -0.5940 H     1 <1>   0.0800 
 51 H        5.1540    -0.9250     0.1000 H     1 <1>   0.0800 
 52 H        5.7340     0.6470     0.6830 H     1 <1>   0.0800 
@<TRIPOS>BOND
  1   1   2  2   
  2   2   3  am  
  3   2   4  1   
  4   3   5  1   
  5   3  29  1   
  6   4   6  1   
  7   4   7  2   
  8   5   8  1   
  9   5  30  1   
 10   5  31  1   
 11   6   9  2   
 12   6  10  1   
 13   7  11  1   
 14   7  12  1   
 15   8  13  2   
 16   8  14  am  
 17   9  11  1   
 18  10  15  1   
 19  10  16  1   
 20  12  17  ar  
 21  12  18  ar  
 22  14  19  1   
 23  14  32  1   
 24  15  20  1   
 25  15  33  1   
 26  15  34  1   
 27  16  21  1   
 28  16  35  1   
 29  16  36  1   
 30  17  22  ar  
 31  17  37  1   
 32  18  23  ar  
 33  18  38  1   
 34  19  24  1   
 35  19  25  1   
 36  19  39  1   
 37  20  21  1   
 38  20  40  1   
 39  20  41  1   
 40  21  42  1   
 41  21  43  1   
 42  22  26  ar  
 43  22  44  1   
 44  23  26  ar  
 45  23  45  1   
 46  24  25  1   
 47  24  46  1   
 48  24  47  1   
 49  25  48  1   
 50  25  49  1   
 51  26  27  1   
 52  27  28  1   
 53  28  50  1   
 54  28  51  1   
 55  28  52  1   
@<TRIPOS>SUBSTRUCTURE
  1 ****   4 GROUP 4 **** **** 0

# MOE 2024.06 (io_trps.svl 2023.06)
