@<TRIPOS>MOLECULE
NONAME
54 56 1 0 0 
SMALL
USER_CHARGES


@<TRIPOS>ATOM
  1 O       -0.2980     1.1740    -1.2720 O.2   1 <1>  -0.5700 
  2 C       -0.5340     2.3590    -1.2570 C.2   1 <1>   0.5690 
  3 N       -1.2240     2.9850    -0.2470 N.am  1 <1>  -0.6600 
  4 C       -0.0260     3.1910    -2.4320 C.3   1 <1>   0.1810 
  5 C       -1.4400     4.4720    -0.2810 C.3   1 <1>   0.3640 
  6 C       -1.6830     2.3180     1.0040 C.3   1 <1>   0.2200 
  7 O        0.3180     4.4910    -2.0340 O.3   1 <1>  -0.5600 
  8 C       -2.9350     4.7910    -0.2770 C.ar  1 <1>  -0.1440 
  9 C       -0.7610     5.2100    -1.4640 C.3   1 <1>   0.2610 
 10 C       -0.4780     1.8500     1.8200 C.3   1 <1>  -0.2400 
 11 C       -2.6530     1.1740     0.7080 C.3   1 <1>  -0.2400 
 12 C       -3.8230     4.0970    -1.0890 C.ar  1 <1>  -0.1500 
 13 C       -3.4200     5.8010     0.5410 C.ar  1 <1>  -0.1500 
 14 C       -0.3240     6.6060    -0.9990 C.2   1 <1>   0.5690 
 15 C       -5.1720     4.4030    -1.0780 C.ar  1 <1>  -0.1500 
 16 C       -4.7700     6.1080     0.5530 C.ar  1 <1>  -0.1500 
 17 O       -0.9570     7.5450    -1.4250 O.2   1 <1>  -0.5700 
 18 N        0.7180     6.8010    -0.1170 N.am  1 <1>  -0.6600 
 19 C       -5.6470     5.4090    -0.2560 C.ar  1 <1>  -0.1500 
 20 C        1.6380     5.7450     0.4120 C.3   1 <1>   0.1400 
 21 C        1.2210     8.1740     0.1990 C.3   1 <1>   0.1400 
 22 C        3.0790     6.0100    -0.0640 C.3   1 <1>   0.2000 
 23 C        2.6920     8.3220    -0.2440 C.3   1 <1>   0.2000 
 24 O        3.4720     7.2990     0.3060 O.3   1 <1>  -0.5600 
 25 C        4.0770     5.0410     0.5630 C.3   1 <1>  -0.2400 
 26 C        3.3010     9.6420     0.2200 C.3   1 <1>  -0.2400 
 27 H       -0.7790     3.2470    -3.1970 H     1 <1>   0.0800 
 28 H        0.8550     2.7300    -2.8410 H     1 <1>   0.0800 
 29 H       -1.0240     4.8640     0.6310 H     1 <1>   0.0800 
 30 H       -2.2180     3.0380     1.6020 H     1 <1>   0.0800 
 31 H       -1.4860     5.3470    -2.2470 H     1 <1>   0.0800 
 32 H        0.0590     1.0780     1.3000 H     1 <1>   0.0800 
 33 H       -0.8100     1.4510     2.7610 H     1 <1>   0.0800 
 34 H        0.1830     2.6740     2.0150 H     1 <1>   0.0800 
 35 H       -2.1630     0.3680     0.1950 H     1 <1>   0.0800 
 36 H       -3.4750     1.5270     0.1140 H     1 <1>   0.0800 
 37 H       -3.0480     0.7890     1.6300 H     1 <1>   0.0800 
 38 H       -3.4700     3.3100    -1.7330 H     1 <1>   0.1500 
 39 H       -2.7530     6.3640     1.1720 H     1 <1>   0.1500 
 40 H       -5.8530     3.8590    -1.7080 H     1 <1>   0.1500 
 41 H       -5.1370     6.8950     1.1890 H     1 <1>   0.1500 
 42 H       -6.6960     5.6490    -0.2470 H     1 <1>   0.1500 
 43 H        1.6170     5.7680     1.4880 H     1 <1>   0.0800 
 44 H        1.3400     4.7620     0.1040 H     1 <1>   0.0800 
 45 H        0.6280     8.9230    -0.2950 H     1 <1>   0.0800 
 46 H        1.1480     8.3430     1.2580 H     1 <1>   0.0800 
 47 H        3.1280     5.9340    -1.1380 H     1 <1>   0.0800 
 48 H        2.7550     8.2540    -1.3170 H     1 <1>   0.0800 
 49 H        4.0640     5.1310     1.6340 H     1 <1>   0.0800 
 50 H        5.0660     5.2550     0.2010 H     1 <1>   0.0800 
 51 H        3.8280     4.0300     0.2940 H     1 <1>   0.0800 
 52 H        3.2760     9.7090     1.2920 H     1 <1>   0.0800 
 53 H        2.7490    10.4670    -0.1930 H     1 <1>   0.0800 
 54 H        4.3190     9.7100    -0.1170 H     1 <1>   0.0800 
@<TRIPOS>BOND
  1   1   2  2   
  2   2   3  am  
  3   2   4  1   
  4   3   5  1   
  5   3   6  1   
  6   4   7  1   
  7   4  27  1   
  8   4  28  1   
  9   5   8  1   
 10   5   9  1   
 11   5  29  1   
 12   6  10  1   
 13   6  11  1   
 14   6  30  1   
 15   7   9  1   
 16   8  12  ar  
 17   8  13  ar  
 18   9  14  1   
 19   9  31  1   
 20  10  32  1   
 21  10  33  1   
 22  10  34  1   
 23  11  35  1   
 24  11  36  1   
 25  11  37  1   
 26  12  15  ar  
 27  12  38  1   
 28  13  16  ar  
 29  13  39  1   
 30  14  17  2   
 31  14  18  am  
 32  15  19  ar  
 33  15  40  1   
 34  16  19  ar  
 35  16  41  1   
 36  18  20  1   
 37  18  21  1   
 38  19  42  1   
 39  20  22  1   
 40  20  43  1   
 41  20  44  1   
 42  21  23  1   
 43  21  45  1   
 44  21  46  1   
 45  22  24  1   
 46  22  25  1   
 47  22  47  1   
 48  23  24  1   
 49  23  26  1   
 50  23  48  1   
 51  25  49  1   
 52  25  50  1   
 53  25  51  1   
 54  26  52  1   
 55  26  53  1   
 56  26  54  1   
@<TRIPOS>SUBSTRUCTURE
  1 ****   5 GROUP 4 **** **** 0

# MOE 2024.06 (io_trps.svl 2023.06)
