@<TRIPOS>MOLECULE
NONAME
49 51 1 0 0 
SMALL
USER_CHARGES


@<TRIPOS>ATOM
  1 S        0.1080    -0.0370    -0.3190 S.o2  1 <1>   1.3330 
  2 O        1.1560    -0.3570    -1.2620 O.2   1 <1>  -0.6500 
  3 O       -0.7290    -1.0900     0.2060 O.2   1 <1>  -0.6500 
  4 N        0.8170     0.7560     1.0070 N.am  1 <1>  -0.8490 
  5 C       -0.9320     1.2250    -1.0570 C.3   1 <1>  -0.0550 
  6 C        2.1400     0.2170     1.3360 C.3   1 <1>   0.1160 
  7 C       -0.0310     0.7600     2.2040 C.3   1 <1>   0.1160 
  8 C       -0.1530     2.3670    -1.7460 C.3   1 <1>  -0.0800 
  9 C       -1.0370     3.3850    -2.4620 C.3   1 <1>   0.2000 
 10 C        0.7010     3.2230    -0.8040 C.3   1 <1>   0.2090 
 11 O       -2.0710     3.7570    -1.6150 O.3   1 <1>  -0.6800 
 12 C       -0.1110     4.5860    -2.6280 C.3   1 <1>   0.2090 
 13 N        0.7180     4.5940    -1.3910 N.pl3 1 <1>  -0.8380 
 14 C        1.9220     5.2550    -1.4530 C.ar  1 <1>   0.4100 
 15 N        2.8640     4.6480    -2.1550 N.ar  1 <1>  -0.6200 
 16 C        2.1490     6.4950    -0.8370 C.ar  1 <1>   0.0000 
 17 C        4.0310     5.2670    -2.2400 C.ar  1 <1>   0.4700 
 18 C        3.4170     6.9890    -1.0410 C.ar  1 <1>   0.2970 
 19 C        1.3340     7.3880    -0.0280 C.2   1 <1>  -0.1810 
 20 N        4.3890     6.4230    -1.7240 N.ar  1 <1>  -0.5670 
 21 S        3.6190     8.5480    -0.2540 S.3   1 <1>  -0.0800 
 22 C        1.9680     8.5140     0.3590 C.2   1 <1>  -0.1400 
 23 C       -0.1050     7.0600     0.3470 C.3   1 <1>   0.0210 
 24 C        1.5680     9.7140     1.1960 C.3   1 <1>  -0.0600 
 25 C       -0.1450     6.1450     1.5720 C.3   1 <1>  -0.2400 
 26 H       -1.5530     0.7580    -1.7960 H     1 <1>   0.0800 
 27 H       -1.5820     1.6290    -0.3070 H     1 <1>   0.0800 
 28 H        2.5650     0.7480     2.1700 H     1 <1>   0.0800 
 29 H        2.8040     0.3300     0.4950 H     1 <1>   0.0800 
 30 H        2.0680    -0.8300     1.5810 H     1 <1>   0.0800 
 31 H        0.4240     1.3540     2.9780 H     1 <1>   0.0800 
 32 H       -0.1720    -0.2450     2.5700 H     1 <1>   0.0800 
 33 H       -0.9950     1.1810     1.9760 H     1 <1>   0.0800 
 34 H        0.5120     1.9380    -2.4770 H     1 <1>   0.0800 
 35 H       -1.4510     3.0290    -3.3900 H     1 <1>   0.0800 
 36 H        1.6960     2.8180    -0.7080 H     1 <1>   0.0800 
 37 H        0.2520     3.2720     0.1720 H     1 <1>   0.0800 
 38 H       -1.6790     4.3020    -0.9000 H     1 <1>   0.4000 
 39 H       -0.6610     5.5040    -2.7420 H     1 <1>   0.0800 
 40 H        0.5240     4.4430    -3.4860 H     1 <1>   0.0800 
 41 H        4.7880     4.7550    -2.8100 H     1 <1>   0.1500 
 42 H       -0.6390     7.9650     0.5720 H     1 <1>   0.0800 
 43 H       -0.6110     6.6050    -0.4830 H     1 <1>   0.0800 
 44 H        0.5730     9.6040     1.5830 H     1 <1>   0.0800 
 45 H        1.6110    10.6060     0.5960 H     1 <1>   0.0800 
 46 H        2.2460     9.8200     2.0230 H     1 <1>   0.0800 
 47 H        0.2940     6.6440     2.4170 H     1 <1>   0.0800 
 48 H        0.4110     5.2460     1.3830 H     1 <1>   0.0800 
 49 H       -1.1610     5.8850     1.8100 H     1 <1>   0.0800 
@<TRIPOS>BOND
  1   1   2  2   
  2   1   3  2   
  3   1   4  am  
  4   1   5  1   
  5   4   6  1   
  6   4   7  1   
  7   5   8  1   
  8   5  26  1   
  9   5  27  1   
 10   6  28  1   
 11   6  29  1   
 12   6  30  1   
 13   7  31  1   
 14   7  32  1   
 15   7  33  1   
 16   8   9  1   
 17   8  10  1   
 18   8  34  1   
 19   9  11  1   
 20   9  12  1   
 21   9  35  1   
 22  10  13  1   
 23  10  36  1   
 24  10  37  1   
 25  11  38  1   
 26  12  13  1   
 27  12  39  1   
 28  12  40  1   
 29  13  14  1   
 30  14  15  ar  
 31  14  16  ar  
 32  15  17  ar  
 33  16  18  ar  
 34  16  19  1   
 35  17  20  ar  
 36  17  41  1   
 37  18  20  ar  
 38  18  21  1   
 39  19  22  2   
 40  19  23  1   
 41  21  22  1   
 42  22  24  1   
 43  23  25  1   
 44  23  42  1   
 45  23  43  1   
 46  24  44  1   
 47  24  45  1   
 48  24  46  1   
 49  25  47  1   
 50  25  48  1   
 51  25  49  1   
@<TRIPOS>SUBSTRUCTURE
  1 ****  13 GROUP 4 **** **** 0

# MOE 2024.06 (io_trps.svl 2023.06)
