@<TRIPOS>MOLECULE
NONAME
47 49 1 0 0 
SMALL
USER_CHARGES


@<TRIPOS>ATOM
  1 S       -1.1770     0.2050     1.2130 S.3   1 <1>  -0.0800 
  2 C       -1.6000     1.7300     0.4660 C.2   1 <1>   0.1980 
  3 C       -2.3430    -0.5830     0.1930 C.2   1 <1>  -0.1100 
  4 N       -2.5020     1.6460    -0.4260 N.2   1 <1>  -0.5650 
  5 C       -0.8680     2.9630     0.9420 C.3   1 <1>  -0.0600 
  6 C       -2.9300     0.3370    -0.5900 C.2   1 <1>   0.0460 
  7 C       -4.0100     0.0990    -1.6310 C.3   1 <1>   0.0820 
  8 C       -4.7590    -1.2070    -1.4160 C.2   1 <1>   0.5690 
  9 O       -4.6550    -2.0520    -2.2760 O.2   1 <1>  -0.5700 
 10 N       -5.5390    -1.4250    -0.3020 N.am  1 <1>  -0.6600 
 11 C       -6.2110    -2.7470    -0.1280 C.3   1 <1>   0.1400 
 12 C       -5.7970    -0.4140     0.7680 C.3   1 <1>   0.1400 
 13 C       -7.5570    -2.7710    -0.8640 C.3   1 <1>   0.1400 
 14 C       -7.2860    -0.2650     1.1170 C.3   1 <1>  -0.1600 
 15 N       -8.5930    -1.9260    -0.1800 N.am  1 <1>  -0.6600 
 16 C       -8.2500    -0.4780    -0.0570 C.3   1 <1>   0.1400 
 17 C       -9.7830    -2.3960     0.3170 C.2   1 <1>   0.5690 
 18 O      -10.5450    -1.6830     0.9270 O.2   1 <1>  -0.5700 
 19 C      -10.1840    -3.8470     0.1200 C.3   1 <1>  -0.0990 
 20 C      -11.5960    -4.1430     0.6440 C.3   1 <1>   0.0960 
 21 N      -11.9310    -5.5610     0.4190 N.pl3 1 <1>   0.0480 
 22 C      -11.7820    -6.5940     1.2480 C.2   1 <1>   0.0370 
 23 C      -12.4250    -6.1360    -0.6780 C.2   1 <1>   0.0370 
 24 N      -12.1490    -7.7020     0.7030 N.2   1 <1>  -0.3380 
 25 N      -12.5620    -7.4080    -0.5320 N.2   1 <1>  -0.3380 
 26 H       -2.4620    -1.6470     0.2870 H     1 <1>   0.1500 
 27 H       -1.0440     3.1080     1.9920 H     1 <1>   0.0800 
 28 H       -1.2210     3.8240     0.4050 H     1 <1>   0.0800 
 29 H        0.1860     2.8490     0.7700 H     1 <1>   0.0800 
 30 H       -3.5520     0.0930    -2.6030 H     1 <1>   0.0800 
 31 H       -4.7150     0.9080    -1.6150 H     1 <1>   0.0800 
 32 H       -6.3520    -2.9640     0.9160 H     1 <1>   0.0800 
 33 H       -5.5790    -3.5170    -0.5360 H     1 <1>   0.0800 
 34 H       -5.4330     0.5490     0.4600 H     1 <1>   0.0800 
 35 H       -5.2480    -0.6910     1.6520 H     1 <1>   0.0800 
 36 H       -7.8790    -3.7930    -0.9260 H     1 <1>   0.0800 
 37 H       -7.4160    -2.4200    -1.8720 H     1 <1>   0.0800 
 38 H       -7.4280     0.7320     1.4940 H     1 <1>   0.0800 
 39 H       -7.5460    -0.9320     1.9190 H     1 <1>   0.0800 
 40 H       -7.8200    -0.1180    -0.9770 H     1 <1>   0.0800 
 41 H       -9.1470     0.0910     0.1210 H     1 <1>   0.0800 
 42 H       -9.4770    -4.4670     0.6400 H     1 <1>   0.0800 
 43 H      -10.1480    -4.0690    -0.9310 H     1 <1>   0.0800 
 44 H      -12.3180    -3.5280     0.1350 H     1 <1>   0.0800 
 45 H      -11.6540    -3.9320     1.6970 H     1 <1>   0.0800 
 46 H      -11.3980    -6.5010     2.2480 H     1 <1>   0.1500 
 47 H      -12.6720    -5.5910    -1.5710 H     1 <1>   0.1500 
@<TRIPOS>BOND
  1   1   2  1   
  2   1   3  1   
  3   2   4  2   
  4   2   5  1   
  5   3   6  2   
  6   3  26  1   
  7   4   6  1   
  8   5  27  1   
  9   5  28  1   
 10   5  29  1   
 11   6   7  1   
 12   7   8  1   
 13   7  30  1   
 14   7  31  1   
 15   8   9  2   
 16   8  10  am  
 17  10  11  1   
 18  10  12  1   
 19  11  13  1   
 20  11  32  1   
 21  11  33  1   
 22  12  14  1   
 23  12  34  1   
 24  12  35  1   
 25  13  15  1   
 26  13  36  1   
 27  13  37  1   
 28  14  16  1   
 29  14  38  1   
 30  14  39  1   
 31  15  16  1   
 32  15  17  am  
 33  16  40  1   
 34  16  41  1   
 35  17  18  2   
 36  17  19  1   
 37  19  20  1   
 38  19  42  1   
 39  19  43  1   
 40  20  21  1   
 41  20  44  1   
 42  20  45  1   
 43  21  22  1   
 44  21  23  1   
 45  22  24  2   
 46  22  46  1   
 47  23  25  2   
 48  23  47  1   
 49  24  25  1   
@<TRIPOS>SUBSTRUCTURE
  1 ****  11 GROUP 4 **** **** 0

# MOE 2024.06 (io_trps.svl 2023.06)
