@<TRIPOS>MOLECULE
NONAME
49 51 1 0 0 
SMALL
USER_CHARGES


@<TRIPOS>ATOM
  1 O        0.0180    -0.0750    -0.1030 O.2   1 <1>  -0.5700 
  2 C        1.0390    -0.7330    -0.0920 C.2   1 <1>   0.5440 
  3 N        2.2270    -0.1100     0.1710 N.am  1 <1>  -0.7300 
  4 C        0.9940    -2.1610    -0.3430 C.ar  1 <1>   0.0860 
  5 C        2.4010     1.3240     0.4300 C.3   1 <1>   0.2200 
  6 C       -0.1220    -2.9210    -0.0490 C.ar  1 <1>  -0.1500 
  7 C        2.0530    -2.8720    -0.8940 C.ar  1 <1>  -0.1500 
  8 C        3.4640     1.8540    -0.5260 C.3   1 <1>  -0.2400 
  9 C        2.8270     1.4970     1.8840 C.3   1 <1>  -0.2400 
 10 C       -0.1560    -4.2880    -0.2920 C.ar  1 <1>   0.4100 
 11 C        1.9410    -4.2320    -1.0960 C.ar  1 <1>   0.1600 
 12 N        0.8730    -4.9510    -0.8080 N.ar  1 <1>  -0.6200 
 13 N       -1.2980    -5.0110     0.0110 N.pl3 1 <1>  -0.8380 
 14 C       -2.6220    -4.5120    -0.4500 C.3   1 <1>   0.2090 
 15 C       -1.2920    -6.5000    -0.0120 C.3   1 <1>   0.2090 
 16 C       -3.4210    -5.7590    -0.8360 C.3   1 <1>   0.2000 
 17 C       -2.7610    -6.9100    -0.0850 C.3   1 <1>  -0.0800 
 18 O       -4.7560    -5.6590    -0.4710 O.3   1 <1>  -0.6800 
 19 C       -2.9860    -8.2720    -0.7580 C.3   1 <1>   0.0200 
 20 C       -2.2380    -9.3710    -0.0280 C.2   1 <1>  -0.0400 
 21 O       -2.5510    -9.6690     1.2050 O.3   1 <1>  -0.0190 
 22 C       -1.2290   -10.1720    -0.4030 C.2   1 <1>  -0.1500 
 23 N       -1.8040   -10.6240     1.6760 N.2   1 <1>  -0.4100 
 24 C       -0.9980   -10.9480     0.7290 C.2   1 <1>   0.1080 
 25 C        0.0570   -12.0250     0.8410 C.3   1 <1>  -0.0590 
 26 H        3.0650    -0.6700     0.3140 H     1 <1>   0.3700 
 27 H        1.4720     1.8470     0.2610 H     1 <1>   0.0800 
 28 H       -0.9810    -2.4460     0.3840 H     1 <1>   0.1500 
 29 H        2.9590    -2.3670    -1.1710 H     1 <1>   0.1500 
 30 H        4.4020     1.3530    -0.3750 H     1 <1>   0.0800 
 31 H        3.6060     2.9070    -0.3630 H     1 <1>   0.0800 
 32 H        3.1410     1.7130    -1.5430 H     1 <1>   0.0800 
 33 H        3.7540     0.9890     2.0770 H     1 <1>   0.0800 
 34 H        2.0630     1.1080     2.5340 H     1 <1>   0.0800 
 35 H        2.9540     2.5410     2.1040 H     1 <1>   0.0800 
 36 H        2.7760    -4.7630    -1.5220 H     1 <1>   0.1500 
 37 H       -3.0990    -3.9870     0.3600 H     1 <1>   0.0800 
 38 H       -2.5100    -3.8590    -1.2980 H     1 <1>   0.0800 
 39 H       -0.7640    -6.8510    -0.8830 H     1 <1>   0.0800 
 40 H       -0.8160    -6.8910     0.8720 H     1 <1>   0.0800 
 41 H       -3.3690    -5.9020    -1.9010 H     1 <1>   0.0800 
 42 H       -3.1290    -6.9420     0.9250 H     1 <1>   0.0800 
 43 H       -4.8330    -5.5750     0.5000 H     1 <1>   0.4000 
 44 H       -2.6510    -8.2370    -1.7790 H     1 <1>   0.0800 
 45 H       -4.0370    -8.5050    -0.7600 H     1 <1>   0.0800 
 46 H       -0.7020   -10.2280    -1.3370 H     1 <1>   0.1500 
 47 H       -0.1190   -12.7860     0.1040 H     1 <1>   0.0800 
 48 H        0.0230   -12.4720     1.8180 H     1 <1>   0.0800 
 49 H        1.0310   -11.5990     0.6860 H     1 <1>   0.0800 
@<TRIPOS>BOND
  1   1   2  2   
  2   2   3  am  
  3   2   4  1   
  4   3   5  1   
  5   3  26  1   
  6   4   6  ar  
  7   4   7  ar  
  8   5   8  1   
  9   5   9  1   
 10   5  27  1   
 11   6  10  ar  
 12   6  28  1   
 13   7  11  ar  
 14   7  29  1   
 15   8  30  1   
 16   8  31  1   
 17   8  32  1   
 18   9  33  1   
 19   9  34  1   
 20   9  35  1   
 21  10  12  ar  
 22  10  13  1   
 23  11  12  ar  
 24  11  36  1   
 25  13  14  1   
 26  13  15  1   
 27  14  16  1   
 28  14  37  1   
 29  14  38  1   
 30  15  17  1   
 31  15  39  1   
 32  15  40  1   
 33  16  17  1   
 34  16  18  1   
 35  16  41  1   
 36  17  19  1   
 37  17  42  1   
 38  18  43  1   
 39  19  20  1   
 40  19  44  1   
 41  19  45  1   
 42  20  21  1   
 43  20  22  2   
 44  21  23  1   
 45  22  24  1   
 46  22  46  1   
 47  23  24  2   
 48  24  25  1   
 49  25  47  1   
 50  25  48  1   
 51  25  49  1   
@<TRIPOS>SUBSTRUCTURE
  1 ****  10 GROUP 4 **** **** 0

# MOE 2024.06 (io_trps.svl 2023.06)
