@<TRIPOS>MOLECULE
NONAME
48 50 1 0 0 
SMALL
USER_CHARGES


@<TRIPOS>ATOM
  1 F       -0.8080    -0.6460     0.3920 F     1 <1>  -0.1900 
  2 C       -2.0560    -0.2630     0.2940 C.ar  1 <1>   0.1900 
  3 C       -2.5370     0.4250    -0.8250 C.ar  1 <1>   0.0830 
  4 C       -2.8790    -0.5750     1.3590 C.ar  1 <1>  -0.1500 
  5 O       -1.8270     0.7930    -1.9310 O.3   1 <1>  -0.3630 
  6 C       -3.8760     0.7830    -0.8320 C.ar  1 <1>  -0.1500 
  7 C       -4.2090    -0.2000     1.3210 C.ar  1 <1>  -0.1500 
  8 C       -0.4480     0.5410    -2.0790 C.3   1 <1>   0.0400 
  9 C       -4.7400     0.4840     0.2240 C.ar  1 <1>   0.0530 
 10 C       -6.1240     0.8880     0.1760 C.2   1 <1>   0.0870 
 11 O       -6.4520     1.9940    -0.4450 O.3   1 <1>  -0.0190 
 12 C       -7.2770     0.3620     0.6730 C.2   1 <1>  -0.0860 
 13 N       -7.7320     2.2500    -0.3980 N.2   1 <1>  -0.4100 
 14 C       -8.2530     1.2810     0.2680 C.2   1 <1>   0.3720 
 15 C       -7.5400    -0.8340     1.4090 C.2   1 <1>   0.7160 
 16 N       -9.6300     1.1660     0.5280 N.pl3 1 <1>  -0.8210 
 17 O       -6.8460    -1.8280     1.2910 O.2   1 <1>  -0.5700 
 18 N       -8.6320    -0.9080     2.2160 N.am  1 <1>  -0.7300 
 19 C      -10.3540     2.4630     0.6650 C.3   1 <1>   0.1290 
 20 C      -10.3400     0.2390    -0.4020 C.3   1 <1>   0.1290 
 21 C       -9.2770    -2.1880     2.6400 C.3   1 <1>   0.2010 
 22 C       -9.9390    -2.9130     1.4680 C.2   1 <1>   0.5690 
 23 O      -11.1440    -3.0060     1.4370 O.2   1 <1>  -0.5700 
 24 N       -9.1380    -3.3900     0.4780 N.am  1 <1>  -0.5790 
 25 C       -9.5790    -4.0260    -0.7680 C.3   1 <1>   0.0490 
 26 C       -8.6240    -4.9390    -1.4630 C.3   1 <1>  -0.2000 
 27 C       -8.9270    -3.5870    -2.0370 C.3   1 <1>  -0.2000 
 28 H       -2.4810    -1.1050     2.2060 H     1 <1>   0.1500 
 29 H       -4.2550     1.3110    -1.6890 H     1 <1>   0.1500 
 30 H       -4.8420    -0.4390     2.1570 H     1 <1>   0.1500 
 31 H       -0.1340     0.9440    -3.0250 H     1 <1>   0.0800 
 32 H       -0.2810    -0.5220    -2.0650 H     1 <1>   0.0800 
 33 H        0.0860     1.0260    -1.2820 H     1 <1>   0.0800 
 34 H       -9.2930    -0.1290     2.0600 H     1 <1>   0.3700 
 35 H       -9.8120     3.1160     1.3280 H     1 <1>   0.0800 
 36 H      -11.3370     2.2960     1.0710 H     1 <1>   0.0800 
 37 H      -10.4430     2.9430    -0.2950 H     1 <1>   0.0800 
 38 H       -9.7390    -0.6330    -0.5970 H     1 <1>   0.0800 
 39 H      -10.5390     0.7330    -1.3380 H     1 <1>   0.0800 
 40 H      -11.2700    -0.0810     0.0350 H     1 <1>   0.0800 
 41 H      -10.0220    -1.9790     3.3870 H     1 <1>   0.0800 
 42 H       -8.5360    -2.8340     3.0760 H     1 <1>   0.0800 
 43 H       -8.1290    -3.1950     0.5430 H     1 <1>   0.3700 
 44 H      -10.6310    -4.2660    -0.7780 H     1 <1>   0.1000 
 45 H       -9.0140    -5.8050    -1.9680 H     1 <1>   0.1000 
 46 H       -7.6590    -5.1150    -1.0220 H     1 <1>   0.1000 
 47 H       -8.1680    -2.8250    -1.9980 H     1 <1>   0.1000 
 48 H       -9.5190    -3.5390    -2.9330 H     1 <1>   0.1000 
@<TRIPOS>BOND
  1   1   2  1   
  2   2   3  ar  
  3   2   4  ar  
  4   3   5  1   
  5   3   6  ar  
  6   4   7  ar  
  7   4  28  1   
  8   5   8  1   
  9   6   9  ar  
 10   6  29  1   
 11   7   9  ar  
 12   7  30  1   
 13   8  31  1   
 14   8  32  1   
 15   8  33  1   
 16   9  10  1   
 17  10  11  1   
 18  10  12  2   
 19  11  13  1   
 20  12  14  1   
 21  12  15  1   
 22  13  14  2   
 23  14  16  1   
 24  15  17  2   
 25  15  18  am  
 26  16  19  1   
 27  16  20  1   
 28  18  21  1   
 29  18  34  1   
 30  19  35  1   
 31  19  36  1   
 32  19  37  1   
 33  20  38  1   
 34  20  39  1   
 35  20  40  1   
 36  21  22  1   
 37  21  41  1   
 38  21  42  1   
 39  22  23  2   
 40  22  24  am  
 41  24  25  1   
 42  24  43  1   
 43  25  26  1   
 44  25  27  1   
 45  25  44  1   
 46  26  27  1   
 47  26  45  1   
 48  26  46  1   
 49  27  47  1   
 50  27  48  1   
@<TRIPOS>SUBSTRUCTURE
  1 ****  12 GROUP 4 **** **** 0

# MOE 2024.06 (io_trps.svl 2023.06)
