@<TRIPOS>MOLECULE
NONAME
39 40 1 0 0 
SMALL
USER_CHARGES


@<TRIPOS>ATOM
  1 O        0.1730     0.0750     0.3150 O.2   1 <1>  -0.5700 
  2 C        0.1100    -1.0410    -0.1520 C.2   1 <1>   0.7800 
  3 O        1.2070    -1.7910    -0.1850 O.3   1 <1>  -0.4300 
  4 N       -1.0300    -1.6400    -0.6370 N.am  1 <1>  -0.6600 
  5 C        2.4360    -1.3260     0.3200 C.3   1 <1>   0.2640 
  6 C       -2.4030    -1.4770    -0.0680 C.3   1 <1>   0.2200 
  7 C       -0.9030    -2.9040    -1.4120 C.3   1 <1>   0.1400 
  8 C        3.3880    -2.5080     0.2950 C.ar  1 <1>  -0.1440 
  9 C       -2.6500    -2.6460     0.9070 C.3   1 <1>  -0.1600 
 10 C       -2.6650    -0.1310     0.6090 C.3   1 <1>  -0.2400 
 11 C       -1.0090    -4.0740    -0.4160 C.3   1 <1>   0.4230 
 12 C        3.5760    -3.2810     1.4310 C.ar  1 <1>  -0.1500 
 13 C        4.0670    -2.8330    -0.8700 C.ar  1 <1>  -0.1500 
 14 C       -2.3810    -4.0320     0.2760 C.3   1 <1>  -0.1600 
 15 N       -0.8180    -5.3860    -1.0720 N.4   1 <1>  -0.8530 
 16 C        4.4330    -4.3680     1.4030 C.ar  1 <1>  -0.1500 
 17 C        4.9240    -3.9200    -0.8990 C.ar  1 <1>  -0.1500 
 18 C        5.1060    -4.6890     0.2370 C.ar  1 <1>  -0.1500 
 19 H        2.7850    -0.5220    -0.3060 H     1 <1>   0.0800 
 20 H        2.2880    -0.9650     1.3240 H     1 <1>   0.0800 
 21 H       -3.1050    -1.5540    -0.8820 H     1 <1>   0.0800 
 22 H       -1.6920    -2.9480    -2.1420 H     1 <1>   0.0800 
 23 H        0.0400    -2.9270    -1.9310 H     1 <1>   0.0800 
 24 H       -2.0170    -2.5130     1.7680 H     1 <1>   0.0800 
 25 H       -3.6690    -2.6050     1.2540 H     1 <1>   0.0800 
 26 H       -2.0800    -0.0240     1.5050 H     1 <1>   0.0800 
 27 H       -3.7020    -0.0530     0.8790 H     1 <1>   0.0800 
 28 H       -2.4340     0.6740    -0.0650 H     1 <1>   0.0800 
 29 H       -0.2380    -3.9400     0.3280 H     1 <1>   0.0800 
 30 H        3.0610    -3.0390     2.3450 H     1 <1>   0.1500 
 31 H        3.9340    -2.2390    -1.7580 H     1 <1>   0.1500 
 32 H       -3.1580    -4.2320    -0.4420 H     1 <1>   0.0800 
 33 H       -2.4290    -4.7780     1.0510 H     1 <1>   0.0800 
 34 H       -1.5170    -5.5460    -1.8040 H     1 <1>   0.4500 
 35 H       -0.8950    -6.1400    -0.3800 H     1 <1>   0.4500 
 36 H        0.1200    -5.4430    -1.4880 H     1 <1>   0.4500 
 37 H        4.5810    -4.9620     2.2880 H     1 <1>   0.1500 
 38 H        5.4530    -4.1650    -1.8040 H     1 <1>   0.1500 
 39 H        5.7760    -5.5310     0.2160 H     1 <1>   0.1500 
@<TRIPOS>BOND
  1   1   2  2   
  2   2   3  1   
  3   2   4  am  
  4   3   5  1   
  5   4   6  1   
  6   4   7  1   
  7   5   8  1   
  8   5  19  1   
  9   5  20  1   
 10   6   9  1   
 11   6  10  1   
 12   6  21  1   
 13   7  11  1   
 14   7  22  1   
 15   7  23  1   
 16   8  12  ar  
 17   8  13  ar  
 18   9  14  1   
 19   9  24  1   
 20   9  25  1   
 21  10  26  1   
 22  10  27  1   
 23  10  28  1   
 24  11  14  1   
 25  11  15  1   
 26  11  29  1   
 27  12  16  ar  
 28  12  30  1   
 29  13  17  ar  
 30  13  31  1   
 31  14  32  1   
 32  14  33  1   
 33  15  34  1   
 34  15  35  1   
 35  15  36  1   
 36  16  18  ar  
 37  16  37  1   
 38  17  18  ar  
 39  17  38  1   
 40  18  39  1   
@<TRIPOS>SUBSTRUCTURE
  1 ****   3 GROUP 4 **** **** 0

# MOE 2024.06 (io_trps.svl 2023.06)
