@<TRIPOS>MOLECULE
NONAME
47 50 1 0 0 
SMALL
USER_CHARGES


@<TRIPOS>ATOM
  1 O        2.1010    -1.9970    -2.9030 O.2   1 <1>  -0.5700 
  2 C        1.6480    -2.2140    -1.7910 C.2   1 <1>   0.5440 
  3 N        1.2310    -1.1180    -1.0550 N.am  1 <1>  -0.6600 
  4 C        1.6060    -3.5960    -1.3050 C.ar  1 <1>   0.3960 
  5 C        0.7860    -1.1350     0.3580 C.3   1 <1>   0.1400 
  6 C        1.3730     0.2720    -1.5430 C.3   1 <1>   0.1400 
  7 N        0.6430    -4.0140    -0.4650 N.ar  1 <1>  -0.6200 
  8 C        2.6040    -4.4680    -1.7530 C.ar  1 <1>   0.1600 
  9 C        0.5340     0.3270     0.7160 C.3   1 <1>  -0.1600 
 10 C        1.3640     1.1270    -0.2820 C.3   1 <1>  -0.1600 
 11 C        0.7450    -5.2850    -0.1160 C.ar  1 <1>   0.4100 
 12 N        2.7270    -5.7450    -1.4160 N.ar  1 <1>  -0.6200 
 13 N       -0.2170    -5.7610     0.7600 N.pl3 1 <1>  -0.8380 
 14 C        1.7680    -6.1180    -0.5940 C.ar  1 <1>   0.1600 
 15 C       -1.5780    -5.1220     0.7700 C.3   1 <1>   0.3890 
 16 C        0.1990    -6.3980     2.0430 C.3   1 <1>   0.1290 
 17 C       -2.6700    -6.0690     1.2580 C.2   1 <1>   0.2980 
 18 O       -2.9810    -7.1090     0.5390 O.3   1 <1>  -0.2800 
 19 N       -3.3290    -5.9470     2.3430 N.2   1 <1>  -0.3380 
 20 C       -3.9110    -7.6470     1.2930 C.2   1 <1>   0.4250 
 21 N       -4.1420    -6.9760     2.3710 N.2   1 <1>  -0.3380 
 22 C       -4.5570    -8.8760     0.8780 C.ar  1 <1>   0.0530 
 23 C       -4.2080    -9.5260    -0.3090 C.ar  1 <1>  -0.1500 
 24 C       -5.5600    -9.4620     1.6540 C.ar  1 <1>  -0.1500 
 25 C       -4.8250   -10.7000    -0.7000 C.ar  1 <1>  -0.1500 
 26 C       -6.1810   -10.6360     1.2680 C.ar  1 <1>  -0.1500 
 27 C       -5.8140   -11.2580     0.0890 C.ar  1 <1>  -0.1500 
 28 H        1.5690    -1.5470     0.9730 H     1 <1>   0.0800 
 29 H       -0.1120    -1.7160     0.4720 H     1 <1>   0.0800 
 30 H        0.5290     0.5100    -2.1690 H     1 <1>   0.0800 
 31 H        2.2840     0.4000    -2.1020 H     1 <1>   0.0800 
 32 H        3.3440    -4.0790    -2.4310 H     1 <1>   0.1500 
 33 H        0.8000     0.5400     1.7360 H     1 <1>   0.0800 
 34 H       -0.5110     0.5430     0.5760 H     1 <1>   0.0800 
 35 H        0.9580     2.1060    -0.4660 H     1 <1>   0.0800 
 36 H        2.3740     1.2270     0.0770 H     1 <1>   0.0800 
 37 H        1.7650    -7.1420    -0.2680 H     1 <1>   0.1500 
 38 H       -1.8320    -4.7970    -0.2240 H     1 <1>   0.0800 
 39 H       -1.5530    -4.2560     1.4070 H     1 <1>   0.0800 
 40 H        1.2690    -6.5030     2.0880 H     1 <1>   0.0800 
 41 H       -0.2510    -7.3730     2.1270 H     1 <1>   0.0800 
 42 H       -0.1210    -5.7950     2.8760 H     1 <1>   0.0800 
 43 H       -3.4400    -9.1100    -0.9370 H     1 <1>   0.1500 
 44 H       -5.8570    -8.9910     2.5750 H     1 <1>   0.1500 
 45 H       -4.5370   -11.1810    -1.6190 H     1 <1>   0.1500 
 46 H       -6.9500   -11.0660     1.8860 H     1 <1>   0.1500 
 47 H       -6.2960   -12.1720    -0.2130 H     1 <1>   0.1500 
@<TRIPOS>BOND
  1   1   2  2   
  2   2   3  am  
  3   2   4  1   
  4   3   5  1   
  5   3   6  1   
  6   4   7  ar  
  7   4   8  ar  
  8   5   9  1   
  9   5  28  1   
 10   5  29  1   
 11   6  10  1   
 12   6  30  1   
 13   6  31  1   
 14   7  11  ar  
 15   8  12  ar  
 16   8  32  1   
 17   9  10  1   
 18   9  33  1   
 19   9  34  1   
 20  10  35  1   
 21  10  36  1   
 22  11  13  1   
 23  11  14  ar  
 24  12  14  ar  
 25  13  15  1   
 26  13  16  1   
 27  14  37  1   
 28  15  17  1   
 29  15  38  1   
 30  15  39  1   
 31  16  40  1   
 32  16  41  1   
 33  16  42  1   
 34  17  18  1   
 35  17  19  2   
 36  18  20  1   
 37  19  21  1   
 38  20  21  2   
 39  20  22  1   
 40  22  23  ar  
 41  22  24  ar  
 42  23  25  ar  
 43  23  43  1   
 44  24  26  ar  
 45  24  44  1   
 46  25  27  ar  
 47  25  45  1   
 48  26  27  ar  
 49  26  46  1   
 50  27  47  1   
@<TRIPOS>SUBSTRUCTURE
  1 ****  15 GROUP 4 **** **** 0

# MOE 2024.06 (io_trps.svl 2023.06)
