@<TRIPOS>MOLECULE
NONAME
54 56 1 0 0 
SMALL
USER_CHARGES


@<TRIPOS>ATOM
  1 O       -1.0210    -0.0360    -1.0310 O.2   1 <1>  -0.5700 
  2 C       -1.8560     0.8410    -1.1760 C.2   1 <1>   0.5440 
  3 N       -3.1420     0.4650    -1.5110 N.am  1 <1>  -0.6600 
  4 C       -1.5070     2.2240    -0.9600 C.ar  1 <1>   0.0860 
  5 C       -3.4680    -0.9720    -1.6810 C.3   1 <1>   0.1400 
  6 C       -4.3190     1.2930    -1.1320 C.3   1 <1>   0.1400 
  7 C       -1.3770     2.7450     0.3300 C.ar  1 <1>   0.0830 
  8 C       -1.3120     3.0910    -2.0340 C.ar  1 <1>  -0.1500 
  9 C       -3.9330    -1.5150    -0.3130 C.3   1 <1>   0.4230 
 10 C       -4.8350     0.7860     0.2220 C.3   1 <1>  -0.1600 
 11 O       -1.5660     1.9490     1.4010 O.3   1 <1>  -0.3630 
 12 C       -1.0810     4.0820     0.5400 C.ar  1 <1>  -0.1500 
 13 C       -1.0100     4.4240    -1.8290 C.ar  1 <1>  -0.1500 
 14 N       -4.0760    -3.0300    -0.2650 N.4   1 <1>  -0.9590 
 15 C       -5.1700    -0.7370     0.2350 C.3   1 <1>   0.0000 
 16 C       -0.4010     1.4120     1.9870 C.3   1 <1>   0.0400 
 17 C       -0.8940     4.9310    -0.5440 C.ar  1 <1>   0.0830 
 18 C       -4.8980    -3.5280     0.8860 C.3   1 <1>   0.3430 
 19 C       -4.5270    -3.6760    -1.5400 C.3   1 <1>   0.2630 
 20 C       -5.4380    -1.1770     1.7050 C.3   1 <1>  -0.1600 
 21 C       -6.4160    -1.0200    -0.6530 C.3   1 <1>   0.1200 
 22 O       -0.6040     6.2460    -0.4300 O.3   1 <1>  -0.3630 
 23 C       -4.8440    -2.5540     2.0620 C.3   1 <1>  -0.1600 
 24 O       -7.4830    -0.2040    -0.3180 O.3   1 <1>  -0.6800 
 25 C       -0.4640     6.8680     0.8280 C.3   1 <1>   0.0400 
 26 H       -4.2290    -1.0690    -2.4330 H     1 <1>   0.0800 
 27 H       -2.5950    -1.5070    -2.0140 H     1 <1>   0.0800 
 28 H       -4.0510     2.3330    -1.0540 H     1 <1>   0.0800 
 29 H       -5.0830     1.2100    -1.8860 H     1 <1>   0.0800 
 30 H       -1.4000     2.7100    -3.0370 H     1 <1>   0.1500 
 31 H       -3.1280    -1.2700     0.3610 H     1 <1>   0.0800 
 32 H       -4.0720     0.9970     0.9510 H     1 <1>   0.0800 
 33 H       -5.6930     1.3700     0.5060 H     1 <1>   0.0800 
 34 H       -1.0050     4.4350     1.5500 H     1 <1>   0.1500 
 35 H       -0.8610     5.0860    -2.6640 H     1 <1>   0.1500 
 36 H       -3.1150    -3.3600    -0.0900 H     1 <1>   0.4500 
 37 H       -0.6930     0.7980     2.8200 H     1 <1>   0.0800 
 38 H        0.2260     2.2170     2.3250 H     1 <1>   0.0800 
 39 H        0.1160     0.8170     1.2540 H     1 <1>   0.0800 
 40 H       -5.9260    -3.6360     0.5800 H     1 <1>   0.0800 
 41 H       -4.5420    -4.4970     1.1970 H     1 <1>   0.0800 
 42 H       -5.5120    -3.3340    -1.8110 H     1 <1>   0.0800 
 43 H       -4.5560    -4.7480    -1.4240 H     1 <1>   0.0800 
 44 H       -3.8460    -3.4440    -2.3430 H     1 <1>   0.0800 
 45 H       -5.0220    -0.4620     2.3960 H     1 <1>   0.0800 
 46 H       -6.4970    -1.1930     1.8990 H     1 <1>   0.0800 
 47 H       -6.7480    -2.0370    -0.5530 H     1 <1>   0.0800 
 48 H       -6.2090    -0.8320    -1.6910 H     1 <1>   0.0800 
 49 H       -5.3910    -2.9690     2.8910 H     1 <1>   0.0800 
 50 H       -3.8220    -2.4450     2.3820 H     1 <1>   0.0800 
 51 H       -7.7680    -0.3270     0.6090 H     1 <1>   0.4000 
 52 H       -0.2350     7.9060     0.6630 H     1 <1>   0.0800 
 53 H        0.3420     6.3970     1.3630 H     1 <1>   0.0800 
 54 H       -1.3900     6.7800     1.3670 H     1 <1>   0.0800 
@<TRIPOS>BOND
  1   1   2  2   
  2   2   3  am  
  3   2   4  1   
  4   3   5  1   
  5   3   6  1   
  6   4   7  ar  
  7   4   8  ar  
  8   5   9  1   
  9   5  26  1   
 10   5  27  1   
 11   6  10  1   
 12   6  28  1   
 13   6  29  1   
 14   7  11  1   
 15   7  12  ar  
 16   8  13  ar  
 17   8  30  1   
 18   9  14  1   
 19   9  15  1   
 20   9  31  1   
 21  10  15  1   
 22  10  32  1   
 23  10  33  1   
 24  11  16  1   
 25  12  17  ar  
 26  12  34  1   
 27  13  17  ar  
 28  13  35  1   
 29  14  18  1   
 30  14  19  1   
 31  14  36  1   
 32  15  20  1   
 33  15  21  1   
 34  16  37  1   
 35  16  38  1   
 36  16  39  1   
 37  17  22  1   
 38  18  23  1   
 39  18  40  1   
 40  18  41  1   
 41  19  42  1   
 42  19  43  1   
 43  19  44  1   
 44  20  23  1   
 45  20  45  1   
 46  20  46  1   
 47  21  24  1   
 48  21  47  1   
 49  21  48  1   
 50  22  25  1   
 51  23  49  1   
 52  23  50  1   
 53  24  51  1   
 54  25  52  1   
 55  25  53  1   
 56  25  54  1   
@<TRIPOS>SUBSTRUCTURE
  1 ****   3 GROUP 4 **** **** 0

# MOE 2024.06 (io_trps.svl 2023.06)
