@<TRIPOS>MOLECULE
NONAME
39 40 1 0 0 
SMALL
USER_CHARGES


@<TRIPOS>ATOM
  1 O        0.2870    -0.3520    -0.9380 O.2   1 <1>  -0.5700 
  2 C        1.2780    -0.8430    -0.4320 C.2   1 <1>   0.5440 
  3 N        2.3560    -0.0470    -0.1350 N.am  1 <1>  -0.4930 
  4 C        1.3260    -2.2610    -0.1620 C.ar  1 <1>   0.0860 
  5 C        2.5010     1.3570    -0.2660 C.2   1 <1>   0.0630 
  6 C        0.5410    -3.1470    -0.8980 C.ar  1 <1>   0.1600 
  7 C        2.1350    -2.8210     0.8250 C.ar  1 <1>  -0.1500 
  8 C        1.5730     2.3160    -0.6750 C.2   1 <1>   0.1390 
  9 C        3.6190     2.0640    -0.0010 C.2   1 <1>  -0.3020 
 10 N        0.5120    -4.4610    -0.7620 N.ar  1 <1>  -0.6200 
 11 C        2.1140    -4.1850     0.9810 C.ar  1 <1>  -0.1500 
 12 N        2.0680     3.5180    -0.6660 N.2   1 <1>  -0.7070 
 13 N        3.3420     3.3650    -0.2480 N.pl3 1 <1>   0.3140 
 14 C        1.3040    -4.9790     0.1710 C.ar  1 <1>   0.4100 
 15 C        4.2920     4.5040    -0.0910 C.3   1 <1>   0.1760 
 16 N        1.2970    -6.3500     0.3210 N.pl3 1 <1>  -0.8380 
 17 C        3.7760     5.5000     0.9570 C.3   1 <1>  -0.2400 
 18 C        4.5290     5.2030    -1.4370 C.3   1 <1>  -0.2400 
 19 C        2.5680    -7.1200     0.3580 C.3   1 <1>   0.1290 
 20 C        0.0980    -7.1390    -0.0770 C.3   1 <1>   0.1290 
 21 H        3.1960    -0.5260     0.1800 H     1 <1>   0.3700 
 22 H       -0.1050    -2.7310    -1.6530 H     1 <1>   0.1500 
 23 H        2.7500    -2.2100     1.4610 H     1 <1>   0.1500 
 24 H        0.5610     2.0930    -0.9660 H     1 <1>   0.1500 
 25 H        4.5780     1.7260     0.3410 H     1 <1>   0.1500 
 26 H        2.7100    -4.6620     1.7350 H     1 <1>   0.1500 
 27 H        5.2270     4.1010     0.2540 H     1 <1>   0.0800 
 28 H        2.8410     5.9270     0.6370 H     1 <1>   0.0800 
 29 H        4.4850     6.2960     1.0970 H     1 <1>   0.0800 
 30 H        3.6280     5.0040     1.8990 H     1 <1>   0.0800 
 31 H        3.6100     5.6230    -1.8060 H     1 <1>   0.0800 
 32 H        4.9050     4.4990    -2.1580 H     1 <1>   0.0800 
 33 H        5.2480     5.9940    -1.3250 H     1 <1>   0.0800 
 34 H        3.4150    -6.4580     0.3070 H     1 <1>   0.0800 
 35 H        2.6120    -7.7930    -0.4810 H     1 <1>   0.0800 
 36 H        2.6200    -7.6890     1.2700 H     1 <1>   0.0800 
 37 H       -0.7960    -6.5660     0.1000 H     1 <1>   0.0800 
 38 H        0.0450    -8.0460     0.4980 H     1 <1>   0.0800 
 39 H        0.1530    -7.3790    -1.1250 H     1 <1>   0.0800 
@<TRIPOS>BOND
  1   1   2  2   
  2   2   3  am  
  3   2   4  1   
  4   3   5  1   
  5   3  21  1   
  6   4   6  ar  
  7   4   7  ar  
  8   5   8  1   
  9   5   9  2   
 10   6  10  ar  
 11   6  22  1   
 12   7  11  ar  
 13   7  23  1   
 14   8  12  2   
 15   8  24  1   
 16   9  13  1   
 17   9  25  1   
 18  10  14  ar  
 19  11  14  ar  
 20  11  26  1   
 21  12  13  1   
 22  13  15  1   
 23  14  16  1   
 24  15  17  1   
 25  15  18  1   
 26  15  27  1   
 27  16  19  1   
 28  16  20  1   
 29  17  28  1   
 30  17  29  1   
 31  17  30  1   
 32  18  31  1   
 33  18  32  1   
 34  18  33  1   
 35  19  34  1   
 36  19  35  1   
 37  19  36  1   
 38  20  37  1   
 39  20  38  1   
 40  20  39  1   
@<TRIPOS>SUBSTRUCTURE
  1 ****   3 GROUP 4 **** **** 0

# MOE 2024.06 (io_trps.svl 2023.06)
