@<TRIPOS>MOLECULE
NONAME
42 43 1 0 0 
SMALL
USER_CHARGES


@<TRIPOS>ATOM
  1 CL       0.8330    -1.6860     3.3570 Cl    1 <1>  -0.1230 
  2 C        1.0850    -2.5020     1.8260 C.2   1 <1>   0.1230 
  3 C        1.3920    -1.9250     0.6410 C.2   1 <1>  -0.3020 
  4 C        0.9960    -3.8730     1.6410 C.2   1 <1>  -0.1500 
  5 N        1.5000    -2.9010    -0.2960 N.pl3 1 <1>   0.0480 
  6 C        1.2550    -4.1200     0.3120 C.2   1 <1>  -0.2370 
  7 C        1.8290    -2.6470    -1.7140 C.3   1 <1>   0.0160 
  8 C        1.2760    -5.3940    -0.3590 C.2   1 <1>   0.7150 
  9 O        1.5040    -5.5080    -1.5480 O.2   1 <1>  -0.5700 
 10 N        1.0050    -6.5190     0.3510 N.am  1 <1>  -0.7300 
 11 C        1.0350    -7.9080    -0.1650 C.3   1 <1>   0.2200 
 12 C       -0.3750    -8.4180    -0.4250 C.3   1 <1>  -0.0800 
 13 C        1.4620    -8.8370     0.9620 C.3   1 <1>   0.1200 
 14 C       -0.8280    -8.8830     0.9640 C.3   1 <1>   0.1200 
 15 C       -1.3140    -7.4070    -1.1200 C.3   1 <1>  -0.0550 
 16 O        0.3230    -8.9820     1.7530 O.3   1 <1>  -0.5600 
 17 S       -2.8980    -8.0900    -1.6140 S.o2  1 <1>   1.3330 
 18 O       -2.6540    -9.3640    -2.2540 O.2   1 <1>  -0.6500 
 19 O       -3.6580    -7.0740    -2.3060 O.2   1 <1>  -0.6500 
 20 N       -3.6870    -8.3920    -0.1400 N.am  1 <1>  -0.8490 
 21 C       -4.6800    -9.4650    -0.2570 C.3   1 <1>   0.1160 
 22 C       -4.3150    -7.1980     0.4370 C.3   1 <1>   0.1160 
 23 H        1.5360    -0.8810     0.4310 H     1 <1>   0.1500 
 24 H        0.7650    -4.5710     2.4250 H     1 <1>   0.1500 
 25 H        1.9780    -1.5950    -1.8720 H     1 <1>   0.0800 
 26 H        1.0210    -2.9920    -2.3330 H     1 <1>   0.0800 
 27 H        2.7260    -3.1790    -1.9710 H     1 <1>   0.0800 
 28 H        0.7890    -6.4420     1.3450 H     1 <1>   0.3700 
 29 H        1.6760    -7.9840    -1.0280 H     1 <1>   0.0800 
 30 H       -0.2960    -9.2920    -1.0500 H     1 <1>   0.0800 
 31 H        2.2690    -8.4390     1.5510 H     1 <1>   0.0800 
 32 H        1.7260    -9.8070     0.5800 H     1 <1>   0.0800 
 33 H       -1.3120    -9.8450     0.9260 H     1 <1>   0.0800 
 34 H       -1.4810    -8.1680     1.4340 H     1 <1>   0.0800 
 35 H       -0.8170    -7.0480    -2.0010 H     1 <1>   0.0800 
 36 H       -1.4770    -6.5620    -0.4820 H     1 <1>   0.0800 
 37 H       -5.1550    -9.6400     0.6930 H     1 <1>   0.0800 
 38 H       -4.2020   -10.3790    -0.5670 H     1 <1>   0.0800 
 39 H       -5.4300    -9.2020    -0.9860 H     1 <1>   0.0800 
 40 H       -4.7220    -7.4260     1.4070 H     1 <1>   0.0800 
 41 H       -5.1090    -6.8440    -0.2010 H     1 <1>   0.0800 
 42 H       -3.5890    -6.4120     0.5500 H     1 <1>   0.0800 
@<TRIPOS>BOND
  1   1   2  1   
  2   2   3  2   
  3   2   4  1   
  4   3   5  1   
  5   3  23  1   
  6   4   6  2   
  7   4  24  1   
  8   5   6  1   
  9   5   7  1   
 10   6   8  1   
 11   7  25  1   
 12   7  26  1   
 13   7  27  1   
 14   8   9  2   
 15   8  10  am  
 16  10  11  1   
 17  10  28  1   
 18  11  12  1   
 19  11  13  1   
 20  11  29  1   
 21  12  14  1   
 22  12  15  1   
 23  12  30  1   
 24  13  16  1   
 25  13  31  1   
 26  13  32  1   
 27  14  16  1   
 28  14  33  1   
 29  14  34  1   
 30  15  17  1   
 31  15  35  1   
 32  15  36  1   
 33  17  18  2   
 34  17  19  2   
 35  17  20  am  
 36  20  21  1   
 37  20  22  1   
 38  21  37  1   
 39  21  38  1   
 40  21  39  1   
 41  22  40  1   
 42  22  41  1   
 43  22  42  1   
@<TRIPOS>SUBSTRUCTURE
  1 ****  10 GROUP 4 **** **** 0

# MOE 2024.06 (io_trps.svl 2023.06)
