@<TRIPOS>MOLECULE
NONAME
44 45 1 0 0 
SMALL
USER_CHARGES


@<TRIPOS>ATOM
  1 O        1.1420     1.0140    -0.6160 O.3   1 <1>  -0.5600 
  2 C       -0.1120     1.0910    -1.2420 C.3   1 <1>   0.1200 
  3 C        1.1030     1.2570     0.7640 C.3   1 <1>   0.1200 
  4 C       -0.7500     2.4830    -1.0160 C.3   1 <1>   0.3430 
  5 C        0.5670     2.6800     1.0470 C.3   1 <1>   0.3430 
  6 N        0.1920     3.3780    -0.2430 N.4   1 <1>  -0.9590 
  7 C       -0.2710     4.8070    -0.1440 C.3   1 <1>   0.4230 
  8 C        0.8690     5.7820     0.3100 C.3   1 <1>   0.3430 
  9 C       -1.4900     4.8950     0.7840 C.3   1 <1>  -0.2400 
 10 N        0.9110     7.1410    -0.3680 N.4   1 <1>  -0.9590 
 11 C        2.1710     7.8590     0.0480 C.3   1 <1>   0.3430 
 12 C       -0.2950     7.9930    -0.0710 C.3   1 <1>   0.2630 
 13 C        2.4740     9.0930    -0.8100 C.3   1 <1>   0.0210 
 14 C        3.8060     9.6600    -0.3720 C.2   1 <1>  -0.1810 
 15 C        5.0690     9.2400    -0.7830 C.2   1 <1>   0.1390 
 16 C        4.0450    10.6670     0.4950 C.2   1 <1>  -0.3020 
 17 N        6.0150     9.9130    -0.2110 N.2   1 <1>  -0.7070 
 18 N        5.3850    10.8060     0.5740 N.pl3 1 <1>   0.3000 
 19 H       -0.7440     0.3090    -0.8550 H     1 <1>   0.0800 
 20 H        0.0340     0.9120    -2.2940 H     1 <1>   0.0800 
 21 H        2.1030     1.1480     1.1470 H     1 <1>   0.0800 
 22 H        0.4820     0.5100     1.2310 H     1 <1>   0.0800 
 23 H       -1.6760     2.3590    -0.4790 H     1 <1>   0.0800 
 24 H       -0.9840     2.9170    -1.9750 H     1 <1>   0.0800 
 25 H        1.3250     3.2360     1.5720 H     1 <1>   0.0800 
 26 H       -0.2910     2.6040     1.6950 H     1 <1>   0.0800 
 27 H        1.0540     3.3100    -0.8100 H     1 <1>   0.4500 
 28 H       -0.5760     5.1140    -1.1310 H     1 <1>   0.0800 
 29 H        1.8080     5.2910     0.1200 H     1 <1>   0.0800 
 30 H        0.7920     5.9250     1.3760 H     1 <1>   0.0800 
 31 H       -1.2340     4.6520     1.8000 H     1 <1>   0.0800 
 32 H       -2.2780     4.2420     0.4550 H     1 <1>   0.0800 
 33 H       -1.8940     5.8900     0.7830 H     1 <1>   0.0800 
 34 H        0.9750     7.0180    -1.3920 H     1 <1>   0.4500 
 35 H        3.0120     7.1890    -0.0350 H     1 <1>   0.0800 
 36 H        2.1000     8.1630     1.0800 H     1 <1>   0.0800 
 37 H       -0.3860     8.1620     0.9910 H     1 <1>   0.0800 
 38 H       -1.1950     7.5200    -0.4270 H     1 <1>   0.0800 
 39 H       -0.2110     8.9510    -0.5600 H     1 <1>   0.0800 
 40 H        1.7230     9.8500    -0.6750 H     1 <1>   0.0800 
 41 H        2.5310     8.8330    -1.8520 H     1 <1>   0.0800 
 42 H        5.2660     8.4520    -1.4910 H     1 <1>   0.1500 
 43 H        3.3660    11.2890     1.0510 H     1 <1>   0.1500 
 44 H        5.8980    11.4910     1.1430 H     1 <1>   0.2700 
@<TRIPOS>BOND
  1   1   2  1   
  2   1   3  1   
  3   2   4  1   
  4   2  19  1   
  5   2  20  1   
  6   3   5  1   
  7   3  21  1   
  8   3  22  1   
  9   4   6  1   
 10   4  23  1   
 11   4  24  1   
 12   5   6  1   
 13   5  25  1   
 14   5  26  1   
 15   6   7  1   
 16   6  27  1   
 17   7   8  1   
 18   7   9  1   
 19   7  28  1   
 20   8  10  1   
 21   8  29  1   
 22   8  30  1   
 23   9  31  1   
 24   9  32  1   
 25   9  33  1   
 26  10  11  1   
 27  10  12  1   
 28  10  34  1   
 29  11  13  1   
 30  11  35  1   
 31  11  36  1   
 32  12  37  1   
 33  12  38  1   
 34  12  39  1   
 35  13  14  1   
 36  13  40  1   
 37  13  41  1   
 38  14  15  1   
 39  14  16  2   
 40  15  17  2   
 41  15  42  1   
 42  16  18  1   
 43  16  43  1   
 44  17  18  1   
 45  18  44  1   
@<TRIPOS>SUBSTRUCTURE
  1 ****   8 GROUP 4 **** **** 0

# MOE 2024.06 (io_trps.svl 2023.06)
