@<TRIPOS>MOLECULE
NONAME
45 47 1 0 0 
SMALL
USER_CHARGES


@<TRIPOS>ATOM
  1 S        0.5340     0.3930     0.4830 S.3   1 <1>  -0.3320 
  2 C       -1.1080    -0.2800     0.7640 C.ar  1 <1>   0.1020 
  3 C        1.5560    -0.9780    -0.2370 C.3   1 <1>   0.2500 
  4 C       -1.4620    -1.5810     0.4720 C.ar  1 <1>  -0.1500 
  5 C       -2.0650     0.5490     1.3010 C.ar  1 <1>  -0.1500 
  6 C        2.9760    -0.5240    -0.5380 C.2   1 <1>   0.2980 
  7 C       -2.7610    -1.9800     0.7350 C.ar  1 <1>   0.1600 
  8 C       -3.3320     0.0420     1.5220 C.ar  1 <1>   0.1600 
  9 O        3.8480    -1.4240    -0.8830 O.3   1 <1>  -0.2800 
 10 N        3.4760     0.6500    -0.5120 N.2   1 <1>  -0.3380 
 11 N       -3.7000    -1.2010     1.2510 N.ar  1 <1>  -0.6200 
 12 C        4.9370    -0.7440    -1.0800 C.2   1 <1>   0.5620 
 13 N        4.7560     0.5140    -0.8670 N.2   1 <1>  -0.3380 
 14 N        6.1050    -1.3840    -1.4650 N.pl3 1 <1>  -0.8220 
 15 C        7.3720    -0.5970    -1.5850 C.3   1 <1>   0.2090 
 16 C        6.3090    -2.8310    -1.2070 C.3   1 <1>   0.2090 
 17 C        8.2180    -0.7460    -0.3100 C.3   1 <1>   0.2000 
 18 C        7.1200    -3.0020     0.0830 C.3   1 <1>  -0.1600 
 19 O        9.4550    -0.1410    -0.5370 O.3   1 <1>  -0.5600 
 20 C        8.4490    -2.2260     0.0390 C.3   1 <1>  -0.1600 
 21 C       10.0790     0.3710     0.5960 C.3   1 <1>   0.1200 
 22 C       11.4110     0.9780     0.1600 C.3   1 <1>  -0.1600 
 23 C       12.1730     1.5710     1.3510 C.3   1 <1>  -0.2400 
 24 H        1.0710    -1.2960    -1.1410 H     1 <1>   0.0800 
 25 H        1.5660    -1.7730     0.4840 H     1 <1>   0.0800 
 26 H       -0.7710    -2.2820     0.0520 H     1 <1>   0.1500 
 27 H       -1.8270     1.5690     1.5420 H     1 <1>   0.1500 
 28 H       -3.0470    -2.9930     0.5100 H     1 <1>   0.1500 
 29 H       -4.0820     0.6900     1.9430 H     1 <1>   0.1500 
 30 H        7.1550     0.4440    -1.7510 H     1 <1>   0.0800 
 31 H        7.9310    -0.9650    -2.4270 H     1 <1>   0.0800 
 32 H        6.8430    -3.2630    -2.0370 H     1 <1>   0.0800 
 33 H        5.3650    -3.3400    -1.1200 H     1 <1>   0.0800 
 34 H        7.7120    -0.2340     0.4920 H     1 <1>   0.0800 
 35 H        7.3200    -4.0480     0.2380 H     1 <1>   0.0800 
 36 H        6.5260    -2.6560     0.9110 H     1 <1>   0.0800 
 37 H        8.9370    -2.3070     0.9930 H     1 <1>   0.0800 
 38 H        9.0850    -2.6640    -0.7110 H     1 <1>   0.0800 
 39 H       10.2410    -0.4270     1.3010 H     1 <1>   0.0800 
 40 H        9.4440     1.1240     1.0310 H     1 <1>   0.0800 
 41 H       11.2240     1.7530    -0.5630 H     1 <1>   0.0800 
 42 H       12.0110     0.2140    -0.3030 H     1 <1>   0.0800 
 43 H       11.5940     2.3480     1.8190 H     1 <1>   0.0800 
 44 H       13.1040     1.9930     1.0160 H     1 <1>   0.0800 
 45 H       12.3860     0.8080     2.0790 H     1 <1>   0.0800 
@<TRIPOS>BOND
  1   1   2  1   
  2   1   3  1   
  3   2   4  ar  
  4   2   5  ar  
  5   3   6  1   
  6   3  24  1   
  7   3  25  1   
  8   4   7  ar  
  9   4  26  1   
 10   5   8  ar  
 11   5  27  1   
 12   6   9  1   
 13   6  10  2   
 14   7  11  ar  
 15   7  28  1   
 16   8  11  ar  
 17   8  29  1   
 18   9  12  1   
 19  10  13  1   
 20  12  13  2   
 21  12  14  1   
 22  14  15  1   
 23  14  16  1   
 24  15  17  1   
 25  15  30  1   
 26  15  31  1   
 27  16  18  1   
 28  16  32  1   
 29  16  33  1   
 30  17  19  1   
 31  17  20  1   
 32  17  34  1   
 33  18  20  1   
 34  18  35  1   
 35  18  36  1   
 36  19  21  1   
 37  20  37  1   
 38  20  38  1   
 39  21  22  1   
 40  21  39  1   
 41  21  40  1   
 42  22  23  1   
 43  22  41  1   
 44  22  42  1   
 45  23  43  1   
 46  23  44  1   
 47  23  45  1   
@<TRIPOS>SUBSTRUCTURE
  1 ****   9 GROUP 4 **** **** 0

# MOE 2024.06 (io_trps.svl 2023.06)
