@<TRIPOS>MOLECULE
NONAME
47 48 1 0 0 
SMALL
USER_CHARGES


@<TRIPOS>ATOM
  1 S        0.0760     0.1790     0.6790 S.o2  1 <1>   1.3330 
  2 O        1.2840     0.1220     1.4720 O.2   1 <1>  -0.6500 
  3 O       -1.1910     0.4520     1.3200 O.2   1 <1>  -0.6500 
  4 N       -0.0570    -1.2850    -0.1700 N.am  1 <1>  -0.8490 
  5 C        0.2960     1.3780    -0.6330 C.3   1 <1>  -0.0550 
  6 C       -0.8960    -2.2610     0.5320 C.3   1 <1>   0.1160 
  7 C        1.2380    -1.8880    -0.5030 C.3   1 <1>   0.1160 
  8 C        0.3340     2.8310    -0.1310 C.3   1 <1>  -0.0800 
  9 C        0.4410     3.8330    -1.2770 C.3   1 <1>   0.2000 
 10 C        1.5310     3.1630     0.7640 C.3   1 <1>   0.1400 
 11 O       -0.8150     4.0820    -1.8050 O.3   1 <1>  -0.6800 
 12 C        1.0660     5.0860    -0.6690 C.3   1 <1>   0.1400 
 13 N        1.7910     4.6030     0.5310 N.am  1 <1>  -0.6600 
 14 C        2.6000     5.3720     1.3520 C.2   1 <1>   0.7160 
 15 O        3.1620     4.7920     2.2690 O.2   1 <1>  -0.5700 
 16 C        2.8090     6.8110     1.1750 C.2   1 <1>   0.2030 
 17 N        2.2640     7.6120     0.2700 N.2   1 <1>  -0.7070 
 18 C        3.6670     7.5550     1.9970 C.2   1 <1>  -0.1500 
 19 N        2.7600     8.8360     0.5070 N.pl3 1 <1>   0.3140 
 20 C        3.6120     8.8230     1.5500 C.2   1 <1>  -0.3020 
 21 C        2.3720    10.0130    -0.3180 C.3   1 <1>   0.1760 
 22 C        3.5950    10.6050    -1.0320 C.3   1 <1>  -0.2400 
 23 C        1.6690    11.0740     0.5410 C.3   1 <1>  -0.2400 
 24 H        1.2000     1.1620    -1.1670 H     1 <1>   0.0800 
 25 H       -0.5220     1.2810    -1.3210 H     1 <1>   0.0800 
 26 H       -0.9720    -3.1690    -0.0410 H     1 <1>   0.0800 
 27 H       -1.8890    -1.8660     0.6670 H     1 <1>   0.0800 
 28 H       -0.4790    -2.4850     1.5000 H     1 <1>   0.0800 
 29 H        1.0930    -2.7590    -1.1180 H     1 <1>   0.0800 
 30 H        1.7610    -2.1750     0.3950 H     1 <1>   0.0800 
 31 H        1.8460    -1.1860    -1.0470 H     1 <1>   0.0800 
 32 H       -0.5560     3.0360     0.4400 H     1 <1>   0.0800 
 33 H        1.0720     3.4620    -2.0670 H     1 <1>   0.0800 
 34 H        2.4030     2.6000     0.4770 H     1 <1>   0.0800 
 35 H        1.3150     2.9740     1.8030 H     1 <1>   0.0800 
 36 H       -1.4100     4.4360    -1.1150 H     1 <1>   0.4000 
 37 H        0.3110     5.7920    -0.3660 H     1 <1>   0.0800 
 38 H        1.7490     5.5490    -1.3600 H     1 <1>   0.0800 
 39 H        4.2380     7.1510     2.8150 H     1 <1>   0.1500 
 40 H        4.1200     9.6990     1.9060 H     1 <1>   0.1500 
 41 H        1.6790     9.6630    -1.0620 H     1 <1>   0.0800 
 42 H        4.3070    10.9860    -0.3210 H     1 <1>   0.0800 
 43 H        3.2910    11.4110    -1.6760 H     1 <1>   0.0800 
 44 H        4.0670     9.8500    -1.6360 H     1 <1>   0.0800 
 45 H        2.3360    11.4650     1.2890 H     1 <1>   0.0800 
 46 H        0.8100    10.6420     1.0250 H     1 <1>   0.0800 
 47 H        1.3350    11.8870    -0.0780 H     1 <1>   0.0800 
@<TRIPOS>BOND
  1   1   2  2   
  2   1   3  2   
  3   1   4  am  
  4   1   5  1   
  5   4   6  1   
  6   4   7  1   
  7   5   8  1   
  8   5  24  1   
  9   5  25  1   
 10   6  26  1   
 11   6  27  1   
 12   6  28  1   
 13   7  29  1   
 14   7  30  1   
 15   7  31  1   
 16   8   9  1   
 17   8  10  1   
 18   8  32  1   
 19   9  11  1   
 20   9  12  1   
 21   9  33  1   
 22  10  13  1   
 23  10  34  1   
 24  10  35  1   
 25  11  36  1   
 26  12  13  1   
 27  12  37  1   
 28  12  38  1   
 29  13  14  am  
 30  14  15  2   
 31  14  16  1   
 32  16  17  2   
 33  16  18  1   
 34  17  19  1   
 35  18  20  2   
 36  18  39  1   
 37  19  20  1   
 38  19  21  1   
 39  20  40  1   
 40  21  22  1   
 41  21  23  1   
 42  21  41  1   
 43  22  42  1   
 44  22  43  1   
 45  22  44  1   
 46  23  45  1   
 47  23  46  1   
 48  23  47  1   
@<TRIPOS>SUBSTRUCTURE
  1 ****  13 GROUP 4 **** **** 0

# MOE 2024.06 (io_trps.svl 2023.06)
