@<TRIPOS>MOLECULE
NONAME
48 50 1 0 0 
SMALL
USER_CHARGES


@<TRIPOS>ATOM
  1 CL       0.4810    -1.0010    -0.0680 Cl    1 <1>  -0.1770 
  2 C       -0.7260    -2.2600    -0.0430 C.ar  1 <1>   0.1770 
  3 C       -0.4940    -3.4380    -0.7260 C.ar  1 <1>  -0.1500 
  4 C       -1.9000    -2.0630     0.6590 C.ar  1 <1>  -0.1500 
  5 C       -1.4550    -4.4340    -0.7030 C.ar  1 <1>  -0.1500 
  6 C       -2.8530    -3.0660     0.6760 C.ar  1 <1>  -0.1500 
  7 C       -2.6480    -4.2680     0.0010 C.ar  1 <1>   0.0530 
  8 C       -3.6500    -5.3040     0.0340 C.2   1 <1>  -0.2050 
  9 N       -3.3570    -6.6320     0.1570 N.pl3 1 <1>   0.0330 
 10 C       -5.0110    -5.1900    -0.0320 C.2   1 <1>  -0.1500 
 11 C       -4.5160    -7.3410     0.1630 C.2   1 <1>  -0.3320 
 12 C       -5.5560    -6.4710     0.0480 C.2   1 <1>  -0.1500 
 13 C       -4.5160    -8.8580     0.2890 C.3   1 <1>   0.0200 
 14 C       -5.9300    -9.4450     0.2840 C.3   1 <1>  -0.0990 
 15 C       -5.8790   -10.9530     0.3490 C.2   1 <1>   0.5690 
 16 O       -5.7060   -11.4860     1.4180 O.2   1 <1>  -0.5700 
 17 N       -6.0270   -11.6540    -0.8020 N.am  1 <1>  -0.7300 
 18 C       -6.1380   -13.1380    -0.9190 C.3   1 <1>   0.2200 
 19 C       -7.3980   -13.6710    -0.2160 C.3   1 <1>   0.2000 
 20 C       -4.8930   -13.8570    -0.3740 C.3   1 <1>   0.1200 
 21 O       -8.5350   -13.1580    -0.8540 O.3   1 <1>  -0.5600 
 22 C       -7.4350   -15.2020    -0.2740 C.3   1 <1>  -0.1600 
 23 O       -5.0520   -15.2420    -0.5110 O.3   1 <1>  -0.5600 
 24 C       -9.6400   -12.9820    -0.0250 C.3   1 <1>   0.0400 
 25 C       -6.1070   -15.7830     0.2270 C.3   1 <1>   0.1200 
 26 H        0.4250    -3.5670    -1.2690 H     1 <1>   0.1500 
 27 H       -2.0610    -1.1380     1.1820 H     1 <1>   0.1500 
 28 H       -1.2840    -5.3470    -1.2430 H     1 <1>   0.1500 
 29 H       -3.7690    -2.9250     1.2220 H     1 <1>   0.1500 
 30 H       -2.4120    -7.0150     0.2550 H     1 <1>   0.2700 
 31 H       -5.5810    -4.2830    -0.1320 H     1 <1>   0.1500 
 32 H       -6.6100    -6.6860     0.0220 H     1 <1>   0.1500 
 33 H       -3.9570    -9.2770    -0.5300 H     1 <1>   0.0800 
 34 H       -4.0250    -9.1380     1.2060 H     1 <1>   0.0800 
 35 H       -6.4500    -9.1390    -0.6040 H     1 <1>   0.0800 
 36 H       -6.4730    -9.0810     1.1370 H     1 <1>   0.0800 
 37 H       -6.3410   -11.1600    -1.6370 H     1 <1>   0.3700 
 38 H       -6.2100   -13.3840    -1.9640 H     1 <1>   0.0800 
 39 H       -7.3840   -13.3470     0.8120 H     1 <1>   0.0800 
 40 H       -4.7310   -13.6370     0.6660 H     1 <1>   0.0800 
 41 H       -4.0230   -13.5720    -0.9390 H     1 <1>   0.0800 
 42 H       -8.2340   -15.5760     0.3380 H     1 <1>   0.0800 
 43 H       -7.5950   -15.5260    -1.2870 H     1 <1>   0.0800 
 44 H      -10.4450   -12.5900    -0.6210 H     1 <1>   0.0800 
 45 H       -9.3900   -12.2810     0.7530 H     1 <1>   0.0800 
 46 H       -9.9290   -13.9290     0.3950 H     1 <1>   0.0800 
 47 H       -6.0870   -16.8500     0.0920 H     1 <1>   0.0800 
 48 H       -5.9480   -15.5580     1.2680 H     1 <1>   0.0800 
@<TRIPOS>BOND
  1   1   2  1   
  2   2   3  ar  
  3   2   4  ar  
  4   3   5  ar  
  5   3  26  1   
  6   4   6  ar  
  7   4  27  1   
  8   5   7  ar  
  9   5  28  1   
 10   6   7  ar  
 11   6  29  1   
 12   7   8  1   
 13   8   9  1   
 14   8  10  2   
 15   9  11  1   
 16   9  30  1   
 17  10  12  1   
 18  10  31  1   
 19  11  12  2   
 20  11  13  1   
 21  12  32  1   
 22  13  14  1   
 23  13  33  1   
 24  13  34  1   
 25  14  15  1   
 26  14  35  1   
 27  14  36  1   
 28  15  16  2   
 29  15  17  am  
 30  17  18  1   
 31  17  37  1   
 32  18  19  1   
 33  18  20  1   
 34  18  38  1   
 35  19  21  1   
 36  19  22  1   
 37  19  39  1   
 38  20  23  1   
 39  20  40  1   
 40  20  41  1   
 41  21  24  1   
 42  22  25  1   
 43  22  42  1   
 44  22  43  1   
 45  23  25  1   
 46  24  44  1   
 47  24  45  1   
 48  24  46  1   
 49  25  47  1   
 50  25  48  1   
@<TRIPOS>SUBSTRUCTURE
  1 ****  13 GROUP 4 **** **** 0

# MOE 2024.06 (io_trps.svl 2023.06)
