@<TRIPOS>MOLECULE
NONAME
56 59 1 0 0 
SMALL
USER_CHARGES


@<TRIPOS>ATOM
  1 O       -0.7100     1.4910     2.1420 O.2   1 <1>  -0.5700 
  2 C       -0.6840     2.1720     1.1330 C.2   1 <1>   0.7150 
  3 N       -1.8720     2.5830     0.5680 N.am  1 <1>  -0.6600 
  4 C        0.5780     2.5350     0.5560 C.2   1 <1>  -0.2370 
  5 C       -3.1570     2.4910     1.3110 C.3   1 <1>   0.1400 
  6 C       -1.9930     3.0230    -0.8460 C.3   1 <1>   0.1400 
  7 N        1.5450     1.6160     0.2570 N.pl3 1 <1>   0.2940 
  8 C        1.0540     3.7760     0.2130 C.2   1 <1>  -0.1500 
  9 C       -3.9040     3.8250     1.2140 C.3   1 <1>  -0.1600 
 10 C       -2.7160     4.3720    -0.8990 C.3   1 <1>  -0.1600 
 11 C        2.6050     2.2830    -0.2640 C.2   1 <1>  -0.3020 
 12 C        1.4540     0.1460     0.4290 C.3   1 <1>  -0.0910 
 13 C        2.3350     3.6150    -0.3060 C.2   1 <1>  -0.1500 
 14 C       -4.1130     4.2990    -0.2400 C.3   1 <1>   0.2800 
 15 C        1.9560    -0.7810    -0.6400 C.3   1 <1>  -0.2000 
 16 C        0.4850    -0.6250    -0.4170 C.3   1 <1>  -0.2000 
 17 O       -4.5830     5.6210    -0.1210 O.3   1 <1>  -0.5600 
 18 C       -5.1630     3.4000    -1.0000 C.3   1 <1>   0.2000 
 19 C       -5.2180     6.1870    -1.2230 C.3   1 <1>   0.1200 
 20 O       -4.7880     3.1840    -2.3370 O.3   1 <1>  -0.6800 
 21 C       -6.5960     4.0140    -0.9670 C.3   1 <1>   0.3000 
 22 C       -6.5350     5.4530    -1.5230 C.3   1 <1>  -0.1600 
 23 N       -7.0800     4.1300     0.4290 N.am  1 <1>  -0.7300 
 24 C       -7.6190     3.2120    -1.7910 C.3   1 <1>  -0.2400 
 25 C       -7.5340     3.2560     1.3570 C.2   1 <1>   0.5690 
 26 O       -7.7070     3.6420     2.4820 O.2   1 <1>  -0.5700 
 27 C       -7.8020     1.8010     1.0620 C.3   1 <1>  -0.1790 
 28 H       -3.7440     1.6890     0.9000 H     1 <1>   0.0800 
 29 H       -2.9750     2.2670     2.3490 H     1 <1>   0.0800 
 30 H       -1.0270     3.1120    -1.3100 H     1 <1>   0.0800 
 31 H       -2.5470     2.2800    -1.3950 H     1 <1>   0.0800 
 32 H        0.5420     4.7170     0.3260 H     1 <1>   0.1500 
 33 H       -3.3270     4.5620     1.7440 H     1 <1>   0.0800 
 34 H       -4.8410     3.7310     1.7250 H     1 <1>   0.0800 
 35 H       -2.7850     4.6870    -1.9230 H     1 <1>   0.0800 
 36 H       -2.1140     5.0950    -0.3780 H     1 <1>   0.0800 
 37 H        3.4970     1.7740    -0.5790 H     1 <1>   0.1500 
 38 H        1.5550    -0.1380     1.4620 H     1 <1>   0.1000 
 39 H        2.9720     4.4070    -0.6620 H     1 <1>   0.1500 
 40 H        2.3840    -0.3700    -1.5380 H     1 <1>   0.1000 
 41 H        2.4160    -1.7090    -0.3490 H     1 <1>   0.1000 
 42 H       -0.0560    -1.4370     0.0360 H     1 <1>   0.1000 
 43 H       -0.1000    -0.0960    -1.1500 H     1 <1>   0.1000 
 44 H       -5.1920     2.4230    -0.5560 H     1 <1>   0.0800 
 45 H       -5.4100     7.2220    -0.9940 H     1 <1>   0.0800 
 46 H       -4.5470     6.1450    -2.0620 H     1 <1>   0.0800 
 47 H       -4.7660     4.0320    -2.8190 H     1 <1>   0.4000 
 48 H       -7.3640     6.0270    -1.1460 H     1 <1>   0.0800 
 49 H       -6.6450     5.4410    -2.5920 H     1 <1>   0.0800 
 50 H       -6.8330     5.0400     0.8300 H     1 <1>   0.3700 
 51 H       -7.4170     3.3090    -2.8430 H     1 <1>   0.0800 
 52 H       -8.6170     3.5690    -1.6070 H     1 <1>   0.0800 
 53 H       -7.5620     2.1650    -1.5690 H     1 <1>   0.0800 
 54 H       -6.9670     1.3590     0.5560 H     1 <1>   0.0800 
 55 H       -8.6890     1.7110     0.4650 H     1 <1>   0.0800 
 56 H       -7.9590     1.2730     1.9840 H     1 <1>   0.0800 
@<TRIPOS>BOND
  1   1   2  2   
  2   2   3  am  
  3   2   4  1   
  4   3   5  1   
  5   3   6  1   
  6   4   7  1   
  7   4   8  2   
  8   5   9  1   
  9   5  28  1   
 10   5  29  1   
 11   6  10  1   
 12   6  30  1   
 13   6  31  1   
 14   7  11  1   
 15   7  12  1   
 16   8  13  1   
 17   8  32  1   
 18   9  14  1   
 19   9  33  1   
 20   9  34  1   
 21  10  14  1   
 22  10  35  1   
 23  10  36  1   
 24  11  13  2   
 25  11  37  1   
 26  12  15  1   
 27  12  16  1   
 28  12  38  1   
 29  13  39  1   
 30  14  17  1   
 31  14  18  1   
 32  15  16  1   
 33  15  40  1   
 34  15  41  1   
 35  16  42  1   
 36  16  43  1   
 37  17  19  1   
 38  18  20  1   
 39  18  21  1   
 40  18  44  1   
 41  19  22  1   
 42  19  45  1   
 43  19  46  1   
 44  20  47  1   
 45  21  22  1   
 46  21  23  1   
 47  21  24  1   
 48  22  48  1   
 49  22  49  1   
 50  23  25  am  
 51  23  50  1   
 52  24  51  1   
 53  24  52  1   
 54  24  53  1   
 55  25  26  2   
 56  25  27  1   
 57  27  54  1   
 58  27  55  1   
 59  27  56  1   
@<TRIPOS>SUBSTRUCTURE
  1 ****   3 GROUP 4 **** **** 0

# MOE 2024.06 (io_trps.svl 2023.06)
