@<TRIPOS>MOLECULE
NONAME
50 52 1 0 0 
SMALL
USER_CHARGES


@<TRIPOS>ATOM
  1 CL       1.2380     0.4680    -1.6980 Cl    1 <1>  -0.1770 
  2 C        2.4630    -0.0680    -0.5710 C.ar  1 <1>   0.1770 
  3 C        2.9860     0.8070     0.3710 C.ar  1 <1>  -0.1440 
  4 C        2.8950    -1.3790    -0.6560 C.ar  1 <1>  -0.1500 
  5 C        3.9720     0.3430     1.2300 C.ar  1 <1>  -0.1500 
  6 C        2.5170     2.2460     0.4830 C.3   1 <1>   0.2840 
  7 C        3.8750    -1.8310     0.2110 C.ar  1 <1>  -0.1500 
  8 C        4.4130    -0.9680     1.1510 C.ar  1 <1>  -0.1500 
  9 N        3.4500     3.0970    -0.2790 N.am  1 <1>  -0.7300 
 10 C        4.3120     3.9790     0.2830 C.2   1 <1>   0.5690 
 11 O        4.3150     4.1890     1.4720 O.2   1 <1>  -0.5700 
 12 C        5.3100     4.6940    -0.6250 C.3   1 <1>  -0.0190 
 13 C        6.6720     3.9760    -0.6110 C.3   1 <1>  -0.1600 
 14 C        5.4910     6.1770    -0.2460 C.3   1 <1>  -0.1600 
 15 C        7.6990     4.6870    -1.4970 C.3   1 <1>   0.2090 
 16 C        6.5220     6.8630    -1.1440 C.3   1 <1>   0.2090 
 17 N        7.8080     6.1120    -1.0750 N.pl3 1 <1>  -0.8380 
 18 C        8.9650     6.6530    -0.5670 C.ar  1 <1>   0.7200 
 19 N        8.8840     7.8410     0.0330 N.ar  1 <1>  -0.6200 
 20 N       10.0890     5.9520    -0.7020 N.ar  1 <1>  -0.6200 
 21 C        9.9820     8.3570     0.5200 C.ar  1 <1>   0.1670 
 22 C       11.1780     6.4910    -0.2190 C.ar  1 <1>   0.1600 
 23 C       11.2190     7.7300     0.3960 C.ar  1 <1>   0.0860 
 24 C        9.7950     9.6750     1.2530 C.3   1 <1>  -0.0970 
 25 C       12.4850     8.2470     0.8360 C.2   1 <1>   0.4230 
 26 O       13.3060     7.5630     1.3890 O.2   1 <1>  -0.5700 
 27 C       12.8800     9.6840     0.5550 C.3   1 <1>  -0.1790 
 28 H        2.4690    -2.0360    -1.3930 H     1 <1>   0.1500 
 29 H        4.4020     1.0090     1.9620 H     1 <1>   0.1500 
 30 H        2.5040     2.5430     1.5190 H     1 <1>   0.0800 
 31 H        1.5200     2.3660     0.0970 H     1 <1>   0.0800 
 32 H        4.2190    -2.8500     0.1550 H     1 <1>   0.1500 
 33 H        5.1780    -1.3160     1.8240 H     1 <1>   0.1500 
 34 H        3.5150     2.8730    -1.2710 H     1 <1>   0.3700 
 35 H        4.9250     4.6600    -1.6290 H     1 <1>   0.0800 
 36 H        6.5550     2.9620    -0.9490 H     1 <1>   0.0800 
 37 H        7.0520     3.9440     0.3960 H     1 <1>   0.0800 
 38 H        5.8220     6.2580     0.7750 H     1 <1>   0.0800 
 39 H        4.5500     6.6900    -0.3260 H     1 <1>   0.0800 
 40 H        7.3890     4.6500    -2.5270 H     1 <1>   0.0800 
 41 H        8.6420     4.1740    -1.4200 H     1 <1>   0.0800 
 42 H        6.6400     7.8870    -0.8370 H     1 <1>   0.0800 
 43 H        6.1760     6.8680    -2.1630 H     1 <1>   0.0800 
 44 H       12.0960     5.9350    -0.3150 H     1 <1>   0.1500 
 45 H        8.7900     9.7440     1.6290 H     1 <1>   0.0800 
 46 H        9.9600    10.4970     0.5810 H     1 <1>   0.0800 
 47 H       10.4630     9.7480     2.0910 H     1 <1>   0.0800 
 48 H       12.2830    10.0990    -0.2360 H     1 <1>   0.0800 
 49 H       13.9120     9.7160     0.2550 H     1 <1>   0.0800 
 50 H       12.7670    10.2740     1.4450 H     1 <1>   0.0800 
@<TRIPOS>BOND
  1   1   2  1   
  2   2   3  ar  
  3   2   4  ar  
  4   3   5  ar  
  5   3   6  1   
  6   4   7  ar  
  7   4  28  1   
  8   5   8  ar  
  9   5  29  1   
 10   6   9  1   
 11   6  30  1   
 12   6  31  1   
 13   7   8  ar  
 14   7  32  1   
 15   8  33  1   
 16   9  10  am  
 17   9  34  1   
 18  10  11  2   
 19  10  12  1   
 20  12  13  1   
 21  12  14  1   
 22  12  35  1   
 23  13  15  1   
 24  13  36  1   
 25  13  37  1   
 26  14  16  1   
 27  14  38  1   
 28  14  39  1   
 29  15  17  1   
 30  15  40  1   
 31  15  41  1   
 32  16  17  1   
 33  16  42  1   
 34  16  43  1   
 35  17  18  1   
 36  18  19  ar  
 37  18  20  ar  
 38  19  21  ar  
 39  20  22  ar  
 40  21  23  ar  
 41  21  24  1   
 42  22  23  ar  
 43  22  44  1   
 44  23  25  1   
 45  24  45  1   
 46  24  46  1   
 47  24  47  1   
 48  25  26  2   
 49  25  27  1   
 50  27  48  1   
 51  27  49  1   
 52  27  50  1   
@<TRIPOS>SUBSTRUCTURE
  1 ****  13 GROUP 4 **** **** 0

# MOE 2024.06 (io_trps.svl 2023.06)
