@<TRIPOS>MOLECULE
NONAME
49 51 1 0 0 
SMALL
USER_CHARGES


@<TRIPOS>ATOM
  1 F       -1.4260    -0.3310    -0.9300 F     1 <1>  -0.1900 
  2 C       -1.8790    -1.0800     0.0400 C.ar  1 <1>   0.1900 
  3 C       -2.0560    -2.4420    -0.1670 C.ar  1 <1>  -0.1440 
  4 C       -2.1620    -0.4560     1.2390 C.ar  1 <1>  -0.1500 
  5 C       -2.5680    -3.2140     0.8860 C.ar  1 <1>   0.0860 
  6 C       -1.6880    -3.0740    -1.5100 C.3   1 <1>  -0.0970 
  7 C       -2.6440    -1.2210     2.2830 C.ar  1 <1>  -0.1500 
  8 C       -2.8380    -4.6380     0.7720 C.2   1 <1>   0.5440 
  9 C       -2.8380    -2.5790     2.1010 C.ar  1 <1>  -0.1500 
 10 O       -2.3460    -5.4190     1.5660 O.2   1 <1>  -0.5700 
 11 N       -3.7020    -5.1520    -0.1720 N.am  1 <1>  -0.6600 
 12 C       -3.7990    -6.6220    -0.3580 C.3   1 <1>   0.1400 
 13 C       -4.9300    -4.4170    -0.5750 C.3   1 <1>   0.1400 
 14 C       -4.9270    -7.1500     0.5540 C.3   1 <1>   0.4230 
 15 C       -6.0880    -4.9180     0.3010 C.3   1 <1>  -0.1600 
 16 N       -4.9960    -8.6680     0.6410 N.4   1 <1>  -0.9590 
 17 C       -6.2950    -6.4630     0.2490 C.3   1 <1>   0.0000 
 18 C       -6.2970    -9.1910     1.1700 C.3   1 <1>   0.3430 
 19 C       -4.6130    -9.4070    -0.6060 C.3   1 <1>   0.2630 
 20 C       -7.3250    -6.8670     1.3450 C.3   1 <1>  -0.1600 
 21 C       -6.8040    -6.8900    -1.1580 C.3   1 <1>   0.1200 
 22 C       -6.9670    -8.1690     2.0870 C.3   1 <1>  -0.1600 
 23 O       -7.9140    -6.1590    -1.5470 O.3   1 <1>  -0.6800 
 24 H       -2.0040     0.6020     1.3480 H     1 <1>   0.1500 
 25 H       -1.2890    -4.0620    -1.3710 H     1 <1>   0.0800 
 26 H       -0.9390    -2.4950    -2.0210 H     1 <1>   0.0800 
 27 H       -2.5580    -3.1340    -2.1390 H     1 <1>   0.0800 
 28 H       -2.8650    -0.7630     3.2330 H     1 <1>   0.1500 
 29 H       -3.2070    -3.1700     2.9220 H     1 <1>   0.1500 
 30 H       -3.9920    -6.8290    -1.3940 H     1 <1>   0.0800 
 31 H       -2.8640    -7.0810    -0.0890 H     1 <1>   0.0800 
 32 H       -4.8030    -3.3560    -0.4390 H     1 <1>   0.0800 
 33 H       -5.1360    -4.5930    -1.6180 H     1 <1>   0.0800 
 34 H       -4.6570    -6.8090     1.5410 H     1 <1>   0.0800 
 35 H       -5.8740    -4.6130     1.3110 H     1 <1>   0.0800 
 36 H       -6.9870    -4.4030     0.0130 H     1 <1>   0.0800 
 37 H       -4.2870    -8.9050     1.3530 H     1 <1>   0.4500 
 38 H       -6.9650    -9.4030     0.3510 H     1 <1>   0.0800 
 39 H       -6.1300   -10.1110     1.7080 H     1 <1>   0.0800 
 40 H       -5.2890    -9.1690    -1.4100 H     1 <1>   0.0800 
 41 H       -4.6460   -10.4710    -0.4340 H     1 <1>   0.0800 
 42 H       -3.6110    -9.1460    -0.9080 H     1 <1>   0.0800 
 43 H       -7.4130    -6.0910     2.0870 H     1 <1>   0.0800 
 44 H       -8.3050    -6.9720     0.9110 H     1 <1>   0.0800 
 45 H       -7.0800    -7.9280    -1.1810 H     1 <1>   0.0800 
 46 H       -6.0570    -6.7220    -1.9130 H     1 <1>   0.0800 
 47 H       -7.8650    -8.5980     2.4990 H     1 <1>   0.0800 
 48 H       -6.3130    -7.9570     2.9150 H     1 <1>   0.0800 
 49 H       -8.6790    -6.3030    -0.9550 H     1 <1>   0.4000 
@<TRIPOS>BOND
  1   1   2  1   
  2   2   3  ar  
  3   2   4  ar  
  4   3   5  ar  
  5   3   6  1   
  6   4   7  ar  
  7   4  24  1   
  8   5   8  1   
  9   5   9  ar  
 10   6  25  1   
 11   6  26  1   
 12   6  27  1   
 13   7   9  ar  
 14   7  28  1   
 15   8  10  2   
 16   8  11  am  
 17   9  29  1   
 18  11  12  1   
 19  11  13  1   
 20  12  14  1   
 21  12  30  1   
 22  12  31  1   
 23  13  15  1   
 24  13  32  1   
 25  13  33  1   
 26  14  16  1   
 27  14  17  1   
 28  14  34  1   
 29  15  17  1   
 30  15  35  1   
 31  15  36  1   
 32  16  18  1   
 33  16  19  1   
 34  16  37  1   
 35  17  20  1   
 36  17  21  1   
 37  18  22  1   
 38  18  38  1   
 39  18  39  1   
 40  19  40  1   
 41  19  41  1   
 42  19  42  1   
 43  20  22  1   
 44  20  43  1   
 45  20  44  1   
 46  21  23  1   
 47  21  45  1   
 48  21  46  1   
 49  22  47  1   
 50  22  48  1   
 51  23  49  1   
@<TRIPOS>SUBSTRUCTURE
  1 ****  11 GROUP 4 **** **** 0

# MOE 2024.06 (io_trps.svl 2023.06)
