@<TRIPOS>MOLECULE
NONAME
40 42 1 0 0 
SMALL
USER_CHARGES


@<TRIPOS>ATOM
  1 S        2.3180     0.1790    -1.8500 S.3   1 <1>  -0.0800 
  2 C        1.5720    -0.2160    -0.3090 C.2   1 <1>   0.3250 
  3 C        1.7660    -1.3210    -2.5070 C.2   1 <1>  -0.1100 
  4 N        0.9810    -1.3590    -0.3360 N.2   1 <1>  -0.5650 
  5 C        1.6800     0.7110     0.7990 C.ar  1 <1>   0.0530 
  6 C        1.0700    -2.0090    -1.5770 C.2   1 <1>   0.1410 
  7 C        1.3080     0.3060     2.0830 C.ar  1 <1>  -0.1500 
  8 C        2.1420     2.0240     0.6590 C.ar  1 <1>  -0.1500 
  9 C        0.4830    -3.3290    -1.8130 C.2   1 <1>   0.7160 
 10 C        1.3920     1.1560     3.1700 C.ar  1 <1>  -0.1500 
 11 C        2.2290     2.8800     1.7420 C.ar  1 <1>  -0.1500 
 12 O        0.9980    -4.0530    -2.6470 O.2   1 <1>  -0.5700 
 13 N       -0.6350    -3.8050    -1.1510 N.am  1 <1>  -0.6600 
 14 C        1.8540     2.4480     3.0010 C.ar  1 <1>  -0.1500 
 15 C       -0.9030    -5.2670    -1.0190 C.3   1 <1>   0.1400 
 16 C       -1.6530    -2.9440    -0.4950 C.3   1 <1>   0.1400 
 17 C       -0.9970    -5.6450     0.4690 C.3   1 <1>   0.2000 
 18 C       -1.7070    -3.2740     1.0000 C.3   1 <1>  -0.1600 
 19 O       -1.3690    -6.9770     0.5780 O.3   1 <1>  -0.6800 
 20 C       -2.0070    -4.7710     1.2430 C.3   1 <1>  -0.0800 
 21 C       -1.9880    -5.1300     2.7380 C.3   1 <1>   0.1200 
 22 O       -2.9300    -4.3730     3.4160 O.3   1 <1>  -0.6800 
 23 H        2.0130    -1.5600    -3.5250 H     1 <1>   0.1500 
 24 H        0.9490    -0.6980     2.2290 H     1 <1>   0.1500 
 25 H        2.4380     2.3950    -0.3050 H     1 <1>   0.1500 
 26 H        1.1000     0.8140     4.1470 H     1 <1>   0.1500 
 27 H        2.5890     3.8850     1.6070 H     1 <1>   0.1500 
 28 H        1.9220     3.1140     3.8450 H     1 <1>   0.1500 
 29 H       -1.8270    -5.4950    -1.5190 H     1 <1>   0.0800 
 30 H       -0.1130    -5.8380    -1.4740 H     1 <1>   0.0800 
 31 H       -1.4360    -1.9010    -0.6420 H     1 <1>   0.0800 
 32 H       -2.6130    -3.1380    -0.9430 H     1 <1>   0.0800 
 33 H       -0.0180    -5.5520     0.9080 H     1 <1>   0.0800 
 34 H       -0.7650    -3.0050     1.4460 H     1 <1>   0.0800 
 35 H       -2.4720    -2.6660     1.4500 H     1 <1>   0.0800 
 36 H       -2.2810    -7.1080     0.2540 H     1 <1>   0.4000 
 37 H       -2.9900    -4.9810     0.8580 H     1 <1>   0.0800 
 38 H       -1.0210    -4.9410     3.1740 H     1 <1>   0.0800 
 39 H       -2.2390    -6.1680     2.8850 H     1 <1>   0.0800 
 40 H       -2.6790    -3.4300     3.4080 H     1 <1>   0.4000 
@<TRIPOS>BOND
  1   1   2  1   
  2   1   3  1   
  3   2   4  2   
  4   2   5  1   
  5   3   6  2   
  6   3  23  1   
  7   4   6  1   
  8   5   7  ar  
  9   5   8  ar  
 10   6   9  1   
 11   7  10  ar  
 12   7  24  1   
 13   8  11  ar  
 14   8  25  1   
 15   9  12  2   
 16   9  13  am  
 17  10  14  ar  
 18  10  26  1   
 19  11  14  ar  
 20  11  27  1   
 21  13  15  1   
 22  13  16  1   
 23  14  28  1   
 24  15  17  1   
 25  15  29  1   
 26  15  30  1   
 27  16  18  1   
 28  16  31  1   
 29  16  32  1   
 30  17  19  1   
 31  17  20  1   
 32  17  33  1   
 33  18  20  1   
 34  18  34  1   
 35  18  35  1   
 36  19  36  1   
 37  20  21  1   
 38  20  37  1   
 39  21  22  1   
 40  21  38  1   
 41  21  39  1   
 42  22  40  1   
@<TRIPOS>SUBSTRUCTURE
  1 ****   4 GROUP 4 **** **** 0

# MOE 2024.06 (io_trps.svl 2023.06)
