@<TRIPOS>MOLECULE
NONAME
52 55 1 0 0 
SMALL
USER_CHARGES


@<TRIPOS>ATOM
  1 O       -0.0130     0.8300    -0.3390 O.2   1 <1>  -0.5700 
  2 C       -0.5560     1.7620     0.2260 C.2   1 <1>   0.6900 
  3 N       -1.8490     1.6650     0.6670 N.am  1 <1>  -0.6600 
  4 N        0.1300     2.9110     0.4360 N.am  1 <1>  -0.7300 
  5 C       -2.7430     2.8440     0.8870 C.3   1 <1>   0.1400 
  6 C       -2.5520     0.3520     0.7110 C.3   1 <1>   0.1400 
  7 C        1.5320     3.1420     0.0180 C.3   1 <1>   0.1400 
  8 C       -3.8850     2.8700    -0.1480 C.3   1 <1>   0.1430 
  9 C       -3.6970     0.3340    -0.3090 C.3   1 <1>  -0.1600 
 10 C        2.4910     2.6780     1.1140 C.3   1 <1>  -0.0170 
 11 C       -4.7800     4.0560     0.1620 C.ar  1 <1>   0.1670 
 12 C       -4.6490     1.5290    -0.1180 C.3   1 <1>  -0.1600 
 13 C       -3.3630     3.2090    -1.5720 C.3   1 <1>  -0.1600 
 14 C        3.9280     2.9520     0.7030 C.ar  1 <1>  -0.1440 
 15 N       -5.6050     4.1420     1.1820 N.ar  1 <1>  -0.6200 
 16 C       -4.6180     5.0600    -0.7440 C.ar  1 <1>  -0.1440 
 17 C       -3.5940     4.7130    -1.7960 C.3   1 <1>  -0.0170 
 18 C        4.5860     4.0910     1.1420 C.ar  1 <1>  -0.1500 
 19 C        4.5930     2.0600    -0.1250 C.ar  1 <1>  -0.1500 
 20 C       -6.2800     5.2810     1.2470 C.ar  1 <1>   0.4770 
 21 C       -5.3660     6.1990    -0.5790 C.ar  1 <1>   0.1600 
 22 C        5.8930     4.3350     0.7580 C.ar  1 <1>  -0.1500 
 23 C        5.9000     2.3030    -0.5100 C.ar  1 <1>  -0.1500 
 24 N       -6.2100     6.3200     0.4250 N.ar  1 <1>  -0.6200 
 25 C       -7.2480     5.4220     2.3960 C.3   1 <1>  -0.0970 
 26 C        6.5510     3.4420    -0.0680 C.ar  1 <1>  -0.1500 
 27 H       -0.2510     3.5500     1.1280 H     1 <1>   0.3700 
 28 H       -2.1940     3.7650     0.8260 H     1 <1>   0.0800 
 29 H       -3.1650     2.7770     1.8750 H     1 <1>   0.0800 
 30 H       -2.9450     0.2030     1.7020 H     1 <1>   0.0800 
 31 H       -1.8680    -0.4530     0.5040 H     1 <1>   0.0800 
 32 H        1.6790     4.1900    -0.1810 H     1 <1>   0.0800 
 33 H        1.7330     2.5960    -0.8890 H     1 <1>   0.0800 
 34 H       -4.2470    -0.5840    -0.2050 H     1 <1>   0.0800 
 35 H       -3.2760     0.3480    -1.3000 H     1 <1>   0.0800 
 36 H        2.3610     1.6230     1.2770 H     1 <1>   0.0800 
 37 H        2.2720     3.1920     2.0330 H     1 <1>   0.0800 
 38 H       -5.4130     1.5210    -0.8760 H     1 <1>   0.0800 
 39 H       -5.1410     1.4300     0.8340 H     1 <1>   0.0800 
 40 H       -3.9420     2.6720    -2.3030 H     1 <1>   0.0800 
 41 H       -2.3290     2.9430    -1.7090 H     1 <1>   0.0800 
 42 H       -3.9580     4.9130    -2.7880 H     1 <1>   0.0800 
 43 H       -2.6890     5.2670    -1.6180 H     1 <1>   0.0800 
 44 H        4.0850     4.7930     1.7850 H     1 <1>   0.1500 
 45 H        4.0930     1.1720    -0.4730 H     1 <1>   0.1500 
 46 H       -5.2750     7.0190    -1.2710 H     1 <1>   0.1500 
 47 H        6.3990     5.2210     1.1020 H     1 <1>   0.1500 
 48 H        6.4080     1.6060    -1.1520 H     1 <1>   0.1500 
 49 H       -7.1750     4.5790     3.0580 H     1 <1>   0.0800 
 50 H       -8.2490     5.4820     2.0120 H     1 <1>   0.0800 
 51 H       -7.0260     6.3180     2.9440 H     1 <1>   0.0800 
 52 H        7.5670     3.6310    -0.3670 H     1 <1>   0.1500 
@<TRIPOS>BOND
  1   1   2  2   
  2   2   3  am  
  3   2   4  am  
  4   3   5  1   
  5   3   6  1   
  6   4   7  1   
  7   4  27  1   
  8   5   8  1   
  9   5  28  1   
 10   5  29  1   
 11   6   9  1   
 12   6  30  1   
 13   6  31  1   
 14   7  10  1   
 15   7  32  1   
 16   7  33  1   
 17   8  11  1   
 18   8  12  1   
 19   8  13  1   
 20   9  12  1   
 21   9  34  1   
 22   9  35  1   
 23  10  14  1   
 24  10  36  1   
 25  10  37  1   
 26  11  15  ar  
 27  11  16  ar  
 28  12  38  1   
 29  12  39  1   
 30  13  17  1   
 31  13  40  1   
 32  13  41  1   
 33  14  18  ar  
 34  14  19  ar  
 35  15  20  ar  
 36  16  17  1   
 37  16  21  ar  
 38  17  42  1   
 39  17  43  1   
 40  18  22  ar  
 41  18  44  1   
 42  19  23  ar  
 43  19  45  1   
 44  20  24  ar  
 45  20  25  1   
 46  21  24  ar  
 47  21  46  1   
 48  22  26  ar  
 49  22  47  1   
 50  23  26  ar  
 51  23  48  1   
 52  25  49  1   
 53  25  50  1   
 54  25  51  1   
 55  26  52  1   
@<TRIPOS>SUBSTRUCTURE
  1 ****   4 GROUP 4 **** **** 0

# MOE 2024.06 (io_trps.svl 2023.06)
