@<TRIPOS>MOLECULE
NONAME
52 54 1 0 0 
SMALL
USER_CHARGES


@<TRIPOS>ATOM
  1 S        0.3010     1.4140    -1.4780 S.o2  1 <1>   1.3330 
  2 O       -0.3600     0.8000    -2.6010 O.2   1 <1>  -0.6500 
  3 O        1.1280     2.5900    -1.6660 O.2   1 <1>  -0.6500 
  4 N        1.2530     0.2410    -0.7070 N.am  1 <1>  -0.8490 
  5 C       -0.9220     1.8550    -0.2330 C.3   1 <1>  -0.0550 
  6 C        2.5240     0.0360    -1.4180 C.3   1 <1>   0.1160 
  7 C        0.5770    -1.0620    -0.5970 C.3   1 <1>   0.1160 
  8 C       -0.4160     2.3670     1.1520 C.3   1 <1>  -0.0800 
  9 C       -1.0320     3.7330     1.4740 C.3   1 <1>   0.2000 
 10 C        1.0850     2.6710     1.2670 C.3   1 <1>   0.3430 
 11 O       -1.1070     3.8660     2.8550 O.3   1 <1>  -0.6800 
 12 C       -0.0440     4.7640     0.9030 C.3   1 <1>   0.3430 
 13 N        1.2400     4.0230     0.6760 N.4   1 <1>  -0.9590 
 14 C        2.4680     4.7540     1.0830 C.3   1 <1>   0.4860 
 15 C        2.4590     6.1250     0.4360 C.ar  1 <1>  -0.1440 
 16 C        2.2980     7.2600     1.2170 C.ar  1 <1>  -0.1500 
 17 C        2.5960     6.2650    -0.9380 C.ar  1 <1>  -0.1500 
 18 C        2.2660     8.5100     0.6290 C.ar  1 <1>  -0.1500 
 19 C        2.5610     7.5210    -1.5170 C.ar  1 <1>  -0.1500 
 20 C        2.3970     8.6720    -0.7480 C.ar  1 <1>   0.0000 
 21 C        2.3580     9.9920    -1.3470 C.ar  1 <1>   0.3100 
 22 N        1.3720    10.8120    -0.9770 N.ar  1 <1>  -0.6200 
 23 C        3.3300    10.3700    -2.2710 C.ar  1 <1>  -0.1500 
 24 C        1.3530    12.0080    -1.5390 C.ar  1 <1>   0.1600 
 25 C        3.3000    11.6190    -2.8510 C.ar  1 <1>  -0.1500 
 26 C        2.2760    12.4560    -2.4670 C.ar  1 <1>  -0.1500 
 27 H       -1.5630     2.5960    -0.6720 H     1 <1>   0.0800 
 28 H       -1.5490     1.0020    -0.0580 H     1 <1>   0.0800 
 29 H        3.1240    -0.6990    -0.9090 H     1 <1>   0.0800 
 30 H        3.0820     0.9560    -1.4610 H     1 <1>   0.0800 
 31 H        2.3400    -0.2990    -2.4270 H     1 <1>   0.0800 
 32 H        1.2040    -1.7630    -0.0710 H     1 <1>   0.0800 
 33 H        0.3570    -1.4610    -1.5750 H     1 <1>   0.0800 
 34 H       -0.3460    -0.9660    -0.0510 H     1 <1>   0.0800 
 35 H       -0.6940     1.6370     1.8920 H     1 <1>   0.0800 
 36 H       -2.0280     3.8640     1.0860 H     1 <1>   0.0800 
 37 H        1.7060     1.9450     0.7710 H     1 <1>   0.0800 
 38 H        1.3580     2.6990     2.3090 H     1 <1>   0.0800 
 39 H       -0.2410     3.8220     3.3040 H     1 <1>   0.4000 
 40 H        0.0800     5.5840     1.5920 H     1 <1>   0.0800 
 41 H       -0.4060     5.1490    -0.0360 H     1 <1>   0.0800 
 42 H        1.3260     3.8720    -0.3520 H     1 <1>   0.4500 
 43 H        2.4990     4.8610     2.1550 H     1 <1>   0.0800 
 44 H        3.3440     4.2120     0.7660 H     1 <1>   0.0800 
 45 H        2.1950     7.1900     2.2860 H     1 <1>   0.1500 
 46 H        2.7270     5.4030    -1.5720 H     1 <1>   0.1500 
 47 H        2.1360     9.3890     1.2390 H     1 <1>   0.1500 
 48 H        2.6560     7.6130    -2.5850 H     1 <1>   0.1500 
 49 H        4.1120     9.6810    -2.5290 H     1 <1>   0.1500 
 50 H        0.5570    12.6700    -1.2440 H     1 <1>   0.1500 
 51 H        4.0420    11.9290    -3.5670 H     1 <1>   0.1500 
 52 H        2.1910    13.4440    -2.8790 H     1 <1>   0.1500 
@<TRIPOS>BOND
  1   1   2  2   
  2   1   3  2   
  3   1   4  am  
  4   1   5  1   
  5   4   6  1   
  6   4   7  1   
  7   5   8  1   
  8   5  27  1   
  9   5  28  1   
 10   6  29  1   
 11   6  30  1   
 12   6  31  1   
 13   7  32  1   
 14   7  33  1   
 15   7  34  1   
 16   8   9  1   
 17   8  10  1   
 18   8  35  1   
 19   9  11  1   
 20   9  12  1   
 21   9  36  1   
 22  10  13  1   
 23  10  37  1   
 24  10  38  1   
 25  11  39  1   
 26  12  13  1   
 27  12  40  1   
 28  12  41  1   
 29  13  14  1   
 30  13  42  1   
 31  14  15  1   
 32  14  43  1   
 33  14  44  1   
 34  15  16  ar  
 35  15  17  ar  
 36  16  18  ar  
 37  16  45  1   
 38  17  19  ar  
 39  17  46  1   
 40  18  20  ar  
 41  18  47  1   
 42  19  20  ar  
 43  19  48  1   
 44  20  21  1   
 45  21  22  ar  
 46  21  23  ar  
 47  22  24  ar  
 48  23  25  ar  
 49  23  49  1   
 50  24  26  ar  
 51  24  50  1   
 52  25  26  ar  
 53  25  51  1   
 54  26  52  1   
@<TRIPOS>SUBSTRUCTURE
  1 ****  17 GROUP 4 **** **** 0

# MOE 2024.06 (io_trps.svl 2023.06)
