@<TRIPOS>MOLECULE
NONAME
40 41 1 0 0 
SMALL
USER_CHARGES


@<TRIPOS>ATOM
  1 O        1.8230     2.1870    -0.2220 O.2   1 <1>  -0.5700 
  2 C        1.6860     0.9980     0.0050 C.2   1 <1>   0.5440 
  3 N        0.6120     0.6200     0.7610 N.am  1 <1>  -0.7300 
  4 C        2.6470     0.0360    -0.5010 C.ar  1 <1>   0.0860 
  5 C       -0.4260     1.5000     1.3480 C.3   1 <1>   0.0600 
  6 C        2.3930    -1.3520    -0.6100 C.ar  1 <1>   0.4100 
  7 C        3.9020     0.4800    -0.9040 C.ar  1 <1>  -0.1500 
  8 N        3.2850    -2.2350    -1.0610 N.ar  1 <1>  -0.6200 
  9 N        1.1640    -1.9080    -0.2890 N.pl3 1 <1>  -0.8380 
 10 C        4.8170    -0.4350    -1.3700 C.ar  1 <1>  -0.1500 
 11 C        4.4600    -1.7670    -1.4250 C.ar  1 <1>   0.1600 
 12 C        1.0900    -3.1660     0.5050 C.3   1 <1>   0.2090 
 13 C        0.1580    -1.9460    -1.3750 C.3   1 <1>   0.2090 
 14 C        0.0140    -4.0180    -0.1670 C.3   1 <1>  -0.0800 
 15 C       -0.8330    -3.0150    -0.9480 C.3   1 <1>  -0.1600 
 16 C       -0.7950    -4.8650     0.8300 C.3   1 <1>  -0.0990 
 17 C       -1.8580    -5.6900     0.1360 C.2   1 <1>   0.5690 
 18 O       -1.5260    -6.6890    -0.4520 O.2   1 <1>  -0.5700 
 19 N       -3.1500    -5.2730     0.1960 N.am  1 <1>  -0.7300 
 20 C       -4.2980    -5.9710    -0.4370 C.3   1 <1>   0.0600 
 21 H        0.4590    -0.4000     0.8020 H     1 <1>   0.3700 
 22 H       -0.1470     2.5340     1.2350 H     1 <1>   0.0800 
 23 H       -0.5350     1.2830     2.3960 H     1 <1>   0.0800 
 24 H       -1.3650     1.3370     0.8490 H     1 <1>   0.0800 
 25 H        4.1530     1.5260    -0.8490 H     1 <1>   0.1500 
 26 H        5.7950    -0.1220    -1.6870 H     1 <1>   0.1500 
 27 H        5.1790    -2.4820    -1.7890 H     1 <1>   0.1500 
 28 H        0.8050    -2.9170     1.5130 H     1 <1>   0.0800 
 29 H        2.0320    -3.6880     0.5300 H     1 <1>   0.0800 
 30 H        0.6390    -2.2300    -2.2970 H     1 <1>   0.0800 
 31 H       -0.3180    -0.9870    -1.4970 H     1 <1>   0.0800 
 32 H        0.5060    -4.6730    -0.8670 H     1 <1>   0.0800 
 33 H       -1.3200    -3.4650    -1.7960 H     1 <1>   0.0800 
 34 H       -1.5740    -2.5640    -0.3120 H     1 <1>   0.0800 
 35 H       -1.2540    -4.2340     1.5680 H     1 <1>   0.0800 
 36 H       -0.1330    -5.5410     1.3400 H     1 <1>   0.0800 
 37 H       -3.3760    -4.4200     0.7090 H     1 <1>   0.3700 
 38 H       -3.9610    -6.8540    -0.9530 H     1 <1>   0.0800 
 39 H       -4.7760    -5.3170    -1.1450 H     1 <1>   0.0800 
 40 H       -5.0090    -6.2610     0.3170 H     1 <1>   0.0800 
@<TRIPOS>BOND
  1   1   2  2   
  2   2   3  am  
  3   2   4  1   
  4   3   5  1   
  5   3  21  1   
  6   4   6  ar  
  7   4   7  ar  
  8   5  22  1   
  9   5  23  1   
 10   5  24  1   
 11   6   8  ar  
 12   6   9  1   
 13   7  10  ar  
 14   7  25  1   
 15   8  11  ar  
 16   9  12  1   
 17   9  13  1   
 18  10  11  ar  
 19  10  26  1   
 20  11  27  1   
 21  12  14  1   
 22  12  28  1   
 23  12  29  1   
 24  13  15  1   
 25  13  30  1   
 26  13  31  1   
 27  14  15  1   
 28  14  16  1   
 29  14  32  1   
 30  15  33  1   
 31  15  34  1   
 32  16  17  1   
 33  16  35  1   
 34  16  36  1   
 35  17  18  2   
 36  17  19  am  
 37  19  20  1   
 38  19  37  1   
 39  20  38  1   
 40  20  39  1   
 41  20  40  1   
@<TRIPOS>SUBSTRUCTURE
  1 ****   9 GROUP 4 **** **** 0

# MOE 2024.06 (io_trps.svl 2023.06)
