@<TRIPOS>MOLECULE
NONAME
44 45 1 0 0 
SMALL
USER_CHARGES


@<TRIPOS>ATOM
  1 CL      -1.3440    -1.0390     2.2600 Cl    1 <1>  -0.1770 
  2 C       -2.5090    -1.6220     1.0920 C.ar  1 <1>   0.1770 
  3 C       -2.3560    -2.8670     0.4930 C.ar  1 <1>  -0.1440 
  4 C       -3.5760    -0.7950     0.8030 C.ar  1 <1>  -0.1500 
  5 C       -3.3360    -3.3100    -0.4100 C.ar  1 <1>   0.0860 
  6 C       -1.1270    -3.7200     0.8160 C.3   1 <1>  -0.0970 
  7 C       -4.5270    -1.2120    -0.1080 C.ar  1 <1>  -0.1500 
  8 C       -3.3140    -4.6140    -1.0450 C.2   1 <1>   0.5440 
  9 C       -4.3990    -2.4530    -0.7020 C.ar  1 <1>  -0.1500 
 10 O       -3.4110    -4.7250    -2.2500 O.2   1 <1>  -0.5700 
 11 N       -3.2410    -5.7510    -0.2950 N.am  1 <1>  -0.7300 
 12 C       -3.1670    -7.1330    -0.8250 C.3   1 <1>   0.2200 
 13 C       -4.5110    -7.8340    -0.6950 C.3   1 <1>  -0.0800 
 14 C       -2.3230    -7.9720     0.1220 C.3   1 <1>   0.1200 
 15 C       -4.4930    -8.3320     0.7570 C.3   1 <1>   0.1200 
 16 C       -5.7310    -6.9690    -1.0810 C.3   1 <1>  -0.0550 
 17 O       -3.1670    -8.2520     1.1960 O.3   1 <1>  -0.5600 
 18 S       -7.2840    -7.8650    -1.1410 S.o2  1 <1>   1.3330 
 19 O       -8.3360    -6.9630    -1.5520 O.2   1 <1>  -0.6500 
 20 O       -7.0650    -9.0930    -1.8730 O.2   1 <1>  -0.6500 
 21 N       -7.5800    -8.2740     0.4820 N.am  1 <1>  -0.8490 
 22 C       -8.4020    -9.4810     0.6060 C.3   1 <1>   0.1160 
 23 C       -8.1850    -7.1830     1.2550 C.3   1 <1>   0.1160 
 24 H       -3.6570     0.1630     1.2840 H     1 <1>   0.1500 
 25 H       -0.8760    -4.3710    -0.0020 H     1 <1>   0.0800 
 26 H       -1.3090    -4.3140     1.6930 H     1 <1>   0.0800 
 27 H       -0.2640    -3.1030     0.9940 H     1 <1>   0.0800 
 28 H       -5.3600    -0.5750    -0.3530 H     1 <1>   0.1500 
 29 H       -5.1400    -2.7760    -1.4140 H     1 <1>   0.1500 
 30 H       -3.2290    -5.6950     0.7260 H     1 <1>   0.3700 
 31 H       -2.7870    -7.1390    -1.8330 H     1 <1>   0.0800 
 32 H       -4.4930    -8.6990    -1.3350 H     1 <1>   0.0800 
 33 H       -1.4450    -7.4580     0.4700 H     1 <1>   0.0800 
 34 H       -2.0470    -8.9060    -0.3360 H     1 <1>   0.0800 
 35 H       -4.8280    -9.3530     0.8330 H     1 <1>   0.0800 
 36 H       -5.0850    -7.7080     1.4030 H     1 <1>   0.0800 
 37 H       -5.5460    -6.5560    -2.0540 H     1 <1>   0.0800 
 38 H       -5.8240    -6.1460    -0.4000 H     1 <1>   0.0800 
 39 H       -8.5630    -9.7200     1.6430 H     1 <1>   0.0800 
 40 H       -7.9040   -10.3170     0.1430 H     1 <1>   0.0800 
 41 H       -9.3540    -9.3370     0.1220 H     1 <1>   0.0800 
 42 H       -8.2670    -7.4650     2.2910 H     1 <1>   0.0800 
 43 H       -9.1680    -6.9530     0.8760 H     1 <1>   0.0800 
 44 H       -7.5760    -6.2980     1.1910 H     1 <1>   0.0800 
@<TRIPOS>BOND
  1   1   2  1   
  2   2   3  ar  
  3   2   4  ar  
  4   3   5  ar  
  5   3   6  1   
  6   4   7  ar  
  7   4  24  1   
  8   5   8  1   
  9   5   9  ar  
 10   6  25  1   
 11   6  26  1   
 12   6  27  1   
 13   7   9  ar  
 14   7  28  1   
 15   8  10  2   
 16   8  11  am  
 17   9  29  1   
 18  11  12  1   
 19  11  30  1   
 20  12  13  1   
 21  12  14  1   
 22  12  31  1   
 23  13  15  1   
 24  13  16  1   
 25  13  32  1   
 26  14  17  1   
 27  14  33  1   
 28  14  34  1   
 29  15  17  1   
 30  15  35  1   
 31  15  36  1   
 32  16  18  1   
 33  16  37  1   
 34  16  38  1   
 35  18  19  2   
 36  18  20  2   
 37  18  21  am  
 38  21  22  1   
 39  21  23  1   
 40  22  39  1   
 41  22  40  1   
 42  22  41  1   
 43  23  42  1   
 44  23  43  1   
 45  23  44  1   
@<TRIPOS>SUBSTRUCTURE
  1 ****  11 GROUP 4 **** **** 0

# MOE 2024.06 (io_trps.svl 2023.06)
