@<TRIPOS>MOLECULE
NONAME
41 42 1 0 0 
SMALL
USER_CHARGES


@<TRIPOS>ATOM
  1 O        0.2950    -0.6010     1.3270 O.3   1 <1>  -0.6800 
  2 C        1.2010    -0.4430     0.2930 C.3   1 <1>   0.1200 
  3 C        2.6110    -0.5570     0.8930 C.3   1 <1>   0.3430 
  4 N        3.6400    -1.0070    -0.1050 N.4   1 <1>  -0.9590 
  5 C        3.9050    -2.4630     0.0130 C.3   1 <1>   0.5230 
  6 C        4.9180    -0.2390     0.0050 C.3   1 <1>   0.3430 
  7 C        2.7420    -3.1670    -0.6290 C.2   1 <1>  -0.3320 
  8 C        4.7670     1.1970    -0.5000 C.3   1 <1>  -0.0170 
  9 N        1.7460    -3.8100     0.0230 N.pl3 1 <1>   0.0480 
 10 C        2.4780    -3.2850    -1.9500 C.2   1 <1>   0.0770 
 11 C        6.1230     1.8700    -0.4310 C.ar  1 <1>  -0.1430 
 12 C        0.9310    -4.2520    -0.9610 C.2   1 <1>   0.0360 
 13 C        1.5440    -4.0270     1.4710 C.3   1 <1>   0.0160 
 14 N        1.3330    -3.9490    -2.1510 N.2   1 <1>  -0.5650 
 15 C        6.5190     2.5270     0.7250 C.ar  1 <1>  -0.1500 
 16 C        6.9840     1.8250    -1.5180 C.ar  1 <1>  -0.1500 
 17 C        7.7650     3.1250     0.7950 C.ar  1 <1>  -0.1500 
 18 C        8.2290     2.4230    -1.4470 C.ar  1 <1>  -0.1500 
 19 C        8.6220     3.0720    -0.2900 C.ar  1 <1>  -0.1500 
 20 H       -0.6290    -0.4820     1.0140 H     1 <1>   0.4000 
 21 H        1.0490     0.5280    -0.1470 H     1 <1>   0.0800 
 22 H        1.0010    -1.2100    -0.4340 H     1 <1>   0.0800 
 23 H        2.5770    -1.2580     1.7100 H     1 <1>   0.0800 
 24 H        2.8800     0.4040     1.2980 H     1 <1>   0.0800 
 25 H        3.2530    -0.8820    -1.0500 H     1 <1>   0.4500 
 26 H        4.0210    -2.7560     1.0440 H     1 <1>   0.0800 
 27 H        4.8060    -2.7190    -0.5230 H     1 <1>   0.0800 
 28 H        5.6820    -0.7190    -0.5860 H     1 <1>   0.0800 
 29 H        5.2570    -0.2240     1.0290 H     1 <1>   0.0800 
 30 H        4.0700     1.7490     0.1040 H     1 <1>   0.0800 
 31 H        4.4210     1.2010    -1.5180 H     1 <1>   0.0800 
 32 H        3.0480    -2.9230    -2.7910 H     1 <1>   0.1500 
 33 H        0.0320    -4.8070    -0.7550 H     1 <1>   0.1500 
 34 H        2.4680    -4.3290     1.9280 H     1 <1>   0.0800 
 35 H        0.8130    -4.8030     1.6180 H     1 <1>   0.0800 
 36 H        1.1870    -3.1210     1.9270 H     1 <1>   0.0800 
 37 H        5.8690     2.5860     1.5800 H     1 <1>   0.1500 
 38 H        6.6980     1.3300    -2.4300 H     1 <1>   0.1500 
 39 H        8.0710     3.6350     1.6920 H     1 <1>   0.1500 
 40 H        8.8960     2.3880    -2.2920 H     1 <1>   0.1500 
 41 H        9.5900     3.5390    -0.2360 H     1 <1>   0.1500 
@<TRIPOS>BOND
  1   1   2  1   
  2   1  20  1   
  3   2   3  1   
  4   2  21  1   
  5   2  22  1   
  6   3   4  1   
  7   3  23  1   
  8   3  24  1   
  9   4   5  1   
 10   4   6  1   
 11   4  25  1   
 12   5   7  1   
 13   5  26  1   
 14   5  27  1   
 15   6   8  1   
 16   6  28  1   
 17   6  29  1   
 18   7   9  1   
 19   7  10  2   
 20   8  11  1   
 21   8  30  1   
 22   8  31  1   
 23   9  12  1   
 24   9  13  1   
 25  10  14  1   
 26  10  32  1   
 27  11  15  ar  
 28  11  16  ar  
 29  12  14  2   
 30  12  33  1   
 31  13  34  1   
 32  13  35  1   
 33  13  36  1   
 34  15  17  ar  
 35  15  37  1   
 36  16  18  ar  
 37  16  38  1   
 38  17  19  ar  
 39  17  39  1   
 40  18  19  ar  
 41  18  40  1   
 42  19  41  1   
@<TRIPOS>SUBSTRUCTURE
  1 ****   4 GROUP 4 **** **** 0

# MOE 2024.06 (io_trps.svl 2023.06)
