@<TRIPOS>MOLECULE
NONAME
56 58 1 0 0 
SMALL
USER_CHARGES


@<TRIPOS>ATOM
  1 O        2.7170     1.0400     1.9310 O.3   1 <1>  -0.6800 
  2 C        2.0610     0.5650     0.8080 C.3   1 <1>   0.2000 
  3 C        3.0360    -0.2440    -0.1210 C.3   1 <1>   0.0000 
  4 C        1.4760     1.8090     0.1220 C.3   1 <1>  -0.1600 
  5 C        3.5640     0.6780    -1.2450 C.3   1 <1>   0.3430 
  6 C        2.2340    -1.3870    -0.7880 C.3   1 <1>   0.1200 
  7 C        4.2270    -0.9170     0.6430 C.3   1 <1>  -0.0170 
  8 C        2.5670     2.7640    -0.3860 C.3   1 <1>   0.3430 
  9 N        3.8360     2.0310    -0.6890 N.4   1 <1>  -0.9590 
 10 O        1.2490    -0.8680    -1.6140 O.3   1 <1>  -0.6800 
 11 C        5.5220    -0.1020     0.6820 C.ar  1 <1>  -0.1440 
 12 C        4.8240     2.7990    -1.4940 C.3   1 <1>   0.4860 
 13 C        5.7960     0.7530     1.7390 C.ar  1 <1>  -0.1500 
 14 C        6.4510    -0.2200    -0.3440 C.ar  1 <1>  -0.1500 
 15 C        4.9090     4.2280    -1.0010 C.ar  1 <1>  -0.1440 
 16 C        6.9590     1.5030     1.7540 C.ar  1 <1>  -0.1500 
 17 C        7.6110     0.5340    -0.3340 C.ar  1 <1>  -0.1500 
 18 C        5.5560     4.5260     0.1860 C.ar  1 <1>   0.1600 
 19 C        4.3360     5.2610    -1.7220 C.ar  1 <1>  -0.1500 
 20 C        7.8640     1.4010     0.7130 C.ar  1 <1>  -0.1500 
 21 N        5.6590     5.7310     0.7110 N.ar  1 <1>  -0.6200 
 22 C        4.4460     6.5230    -1.1880 C.ar  1 <1>  -0.1500 
 23 C        5.1050     6.7230     0.0220 C.ar  1 <1>   0.4100 
 24 N        5.1980     7.9970     0.5500 N.pl3 1 <1>  -0.8380 
 25 C        6.3730     8.3470     1.3950 C.3   1 <1>   0.1290 
 26 C        3.9520     8.7250     0.9040 C.3   1 <1>   0.1290 
 27 H        2.0730     1.2980     2.6240 H     1 <1>   0.4000 
 28 H        1.2680    -0.0760     1.1570 H     1 <1>   0.0800 
 29 H        0.8710     1.5070    -0.7140 H     1 <1>   0.0800 
 30 H        0.8190     2.3350     0.7920 H     1 <1>   0.0800 
 31 H        2.8260     0.7630    -2.0260 H     1 <1>   0.0800 
 32 H        4.4530     0.2530    -1.6760 H     1 <1>   0.0800 
 33 H        1.7600    -2.0060    -0.0440 H     1 <1>   0.0800 
 34 H        2.8730    -2.0050    -1.3970 H     1 <1>   0.0800 
 35 H        3.9310    -1.1730     1.6460 H     1 <1>   0.0800 
 36 H        4.4760    -1.8540     0.1750 H     1 <1>   0.0800 
 37 H        2.7680     3.5060     0.3720 H     1 <1>   0.0800 
 38 H        2.2110     3.2750    -1.2650 H     1 <1>   0.0800 
 39 H        4.2740     1.8450     0.2330 H     1 <1>   0.4500 
 40 H        0.6930    -1.5850    -1.9910 H     1 <1>   0.4000 
 41 H        5.7940     2.3330    -1.4210 H     1 <1>   0.0800 
 42 H        4.5260     2.8020    -2.5300 H     1 <1>   0.0800 
 43 H        5.1160     0.8360     2.5690 H     1 <1>   0.1500 
 44 H        6.2860    -0.9070    -1.1560 H     1 <1>   0.1500 
 45 H        7.1650     2.1610     2.5830 H     1 <1>   0.1500 
 46 H        8.3280     0.4370    -1.1320 H     1 <1>   0.1500 
 47 H        6.0140     3.7320     0.7470 H     1 <1>   0.1500 
 48 H        3.8290     5.1040    -2.6590 H     1 <1>   0.1500 
 49 H        8.7700     1.9840     0.7280 H     1 <1>   0.1500 
 50 H        4.0380     7.3770    -1.6950 H     1 <1>   0.1500 
 51 H        6.5340     9.4100     1.3820 H     1 <1>   0.0800 
 52 H        7.2550     7.8590     1.0160 H     1 <1>   0.0800 
 53 H        6.2050     8.0200     2.4070 H     1 <1>   0.0800 
 54 H        4.0230     9.7460     0.5720 H     1 <1>   0.0800 
 55 H        3.8100     8.7080     1.9710 H     1 <1>   0.0800 
 56 H        3.0990     8.2650     0.4370 H     1 <1>   0.0800 
@<TRIPOS>BOND
  1   1   2  1   
  2   1  27  1   
  3   2   3  1   
  4   2   4  1   
  5   2  28  1   
  6   3   5  1   
  7   3   6  1   
  8   3   7  1   
  9   4   8  1   
 10   4  29  1   
 11   4  30  1   
 12   5   9  1   
 13   5  31  1   
 14   5  32  1   
 15   6  10  1   
 16   6  33  1   
 17   6  34  1   
 18   7  11  1   
 19   7  35  1   
 20   7  36  1   
 21   8   9  1   
 22   8  37  1   
 23   8  38  1   
 24   9  12  1   
 25   9  39  1   
 26  10  40  1   
 27  11  13  ar  
 28  11  14  ar  
 29  12  15  1   
 30  12  41  1   
 31  12  42  1   
 32  13  16  ar  
 33  13  43  1   
 34  14  17  ar  
 35  14  44  1   
 36  15  18  ar  
 37  15  19  ar  
 38  16  20  ar  
 39  16  45  1   
 40  17  20  ar  
 41  17  46  1   
 42  18  21  ar  
 43  18  47  1   
 44  19  22  ar  
 45  19  48  1   
 46  20  49  1   
 47  21  23  ar  
 48  22  23  ar  
 49  22  50  1   
 50  23  24  1   
 51  24  25  1   
 52  24  26  1   
 53  25  51  1   
 54  25  52  1   
 55  25  53  1   
 56  26  54  1   
 57  26  55  1   
 58  26  56  1   
@<TRIPOS>SUBSTRUCTURE
  1 ****   9 GROUP 4 **** **** 0

# MOE 2024.06 (io_trps.svl 2023.06)
