@<TRIPOS>MOLECULE
NONAME
45 47 1 0 0 
SMALL
USER_CHARGES


@<TRIPOS>ATOM
  1 O       -0.2320     0.7650    -0.3900 O.2   1 <1>  -0.5700 
  2 C       -0.3170     1.9550    -0.1990 C.2   1 <1>   0.5690 
  3 N       -1.4710     2.5760     0.2160 N.am  1 <1>  -0.6600 
  4 C        0.9430     2.7840    -0.4580 C.3   1 <1>   0.1810 
  5 C       -1.4930     4.0610     0.4520 C.3   1 <1>   0.3640 
  6 C       -2.6790     1.8500     0.7070 C.3   1 <1>   0.2200 
  7 O        0.9490     4.0130     0.2250 O.3   1 <1>  -0.5600 
  8 C       -2.6890     4.6980    -0.2590 C.ar  1 <1>  -0.1440 
  9 C       -0.2070     4.7890    -0.0120 C.3   1 <1>   0.2610 
 10 C       -2.3340     1.0270     1.9480 C.3   1 <1>  -0.2400 
 11 C       -3.3040     0.9910    -0.3930 C.3   1 <1>  -0.2400 
 12 C       -2.9940     4.3850    -1.5780 C.ar  1 <1>  -0.1500 
 13 C       -3.4820     5.6160     0.4150 C.ar  1 <1>  -0.1500 
 14 C       -0.0540     6.1600     0.6560 C.2   1 <1>   0.5690 
 15 C       -4.0740     4.9770    -2.2090 C.ar  1 <1>  -0.1500 
 16 C       -4.5620     6.2090    -0.2160 C.ar  1 <1>  -0.1500 
 17 O       -0.5730     6.3750     1.7290 O.2   1 <1>  -0.5700 
 18 N        0.7030     7.1150     0.0430 N.am  1 <1>  -0.5100 
 19 C       -4.8590     5.8890    -1.5280 C.ar  1 <1>  -0.1500 
 20 C        1.4580     8.2230     0.7230 C.3   1 <1>   0.2250 
 21 C        1.8240     6.9750    -0.9500 C.3   1 <1>   0.2250 
 22 C        2.7530     7.6240     0.1100 C.3   1 <1>   0.2580 
 23 O        3.3470     6.6690     0.9380 O.3   1 <1>  -0.6580 
 24 H        1.0370     2.9750    -1.5120 H     1 <1>   0.0800 
 25 H        1.8030     2.2280    -0.1310 H     1 <1>   0.0800 
 26 H       -1.6020     4.2050     1.5130 H     1 <1>   0.0800 
 27 H       -3.4230     2.5730     1.0030 H     1 <1>   0.0800 
 28 H       -0.2700     4.9510    -1.0730 H     1 <1>   0.0800 
 29 H       -1.6540     0.2310     1.7040 H     1 <1>   0.0800 
 30 H       -3.2270     0.5900     2.3540 H     1 <1>   0.0800 
 31 H       -1.8900     1.6550     2.6990 H     1 <1>   0.0800 
 32 H       -2.6550     0.1820    -0.6720 H     1 <1>   0.0800 
 33 H       -3.5170     1.5900    -1.2580 H     1 <1>   0.0800 
 34 H       -4.2270     0.5690    -0.0410 H     1 <1>   0.0800 
 35 H       -2.3950     3.6730    -2.1190 H     1 <1>   0.1500 
 36 H       -3.2610     5.8820     1.4360 H     1 <1>   0.1500 
 37 H       -4.3050     4.7260    -3.2300 H     1 <1>   0.1500 
 38 H       -5.1690     6.9210     0.3160 H     1 <1>   0.1500 
 39 H       -5.7000     6.3500    -2.0180 H     1 <1>   0.1500 
 40 H        1.1870     9.1800     0.3130 H     1 <1>   0.0000 
 41 H        1.4120     8.1710     1.7960 H     1 <1>   0.0000 
 42 H        2.0660     5.9540    -1.1840 H     1 <1>   0.0000 
 43 H        1.6520     7.5960    -1.8110 H     1 <1>   0.0000 
 44 H        3.4770     8.3280    -0.2590 H     1 <1>   0.0000 
 45 H        2.6690     6.0360     1.2530 H     1 <1>   0.4000 
@<TRIPOS>BOND
  1   1   2  2   
  2   2   3  am  
  3   2   4  1   
  4   3   5  1   
  5   3   6  1   
  6   4   7  1   
  7   4  24  1   
  8   4  25  1   
  9   5   8  1   
 10   5   9  1   
 11   5  26  1   
 12   6  10  1   
 13   6  11  1   
 14   6  27  1   
 15   7   9  1   
 16   8  12  ar  
 17   8  13  ar  
 18   9  14  1   
 19   9  28  1   
 20  10  29  1   
 21  10  30  1   
 22  10  31  1   
 23  11  32  1   
 24  11  33  1   
 25  11  34  1   
 26  12  15  ar  
 27  12  35  1   
 28  13  16  ar  
 29  13  36  1   
 30  14  17  2   
 31  14  18  am  
 32  15  19  ar  
 33  15  37  1   
 34  16  19  ar  
 35  16  38  1   
 36  18  20  1   
 37  18  21  1   
 38  19  39  1   
 39  20  22  1   
 40  20  40  1   
 41  20  41  1   
 42  21  22  1   
 43  21  42  1   
 44  21  43  1   
 45  22  23  1   
 46  22  44  1   
 47  23  45  1   
@<TRIPOS>SUBSTRUCTURE
  1 ****   9 GROUP 4 **** **** 0

# MOE 2024.06 (io_trps.svl 2023.06)
