@<TRIPOS>MOLECULE
NONAME
34 36 1 0 0 
SMALL
USER_CHARGES


@<TRIPOS>ATOM
  1 O       -8.8100     2.4380     1.5500 O.2   1 <1>  -0.5700 
  2 C       -9.1680     1.6370     0.7110 C.2   1 <1>   0.7800 
  3 O       -8.4130     0.5860     0.4170 O.3   1 <1>  -0.4300 
  4 N      -10.3530     1.7560     0.0500 N.am  1 <1>  -0.6600 
  5 C       -7.1690     0.4030     1.0540 C.3   1 <1>   0.2640 
  6 C      -11.3090     2.8540     0.3030 C.3   1 <1>   0.2350 
  7 C      -10.8790     0.7580    -0.9060 C.3   1 <1>   0.2350 
  8 C       -6.5770    -0.9090     0.5700 C.ar  1 <1>  -0.1440 
  9 C      -12.6490     2.2480    -0.1020 C.3   1 <1>  -0.1950 
 10 C      -12.3870     0.9730    -0.8360 C.3   1 <1>  -0.1950 
 11 C       -6.5360    -2.0150     1.4060 C.ar  1 <1>  -0.1500 
 12 C       -6.0740    -1.0120    -0.7180 C.ar  1 <1>  -0.1500 
 13 C      -13.1080     0.9500     0.4690 C.3   1 <1>   0.2960 
 14 C       -5.9950    -3.2090     0.9590 C.ar  1 <1>  -0.1500 
 15 C       -5.5330    -2.2050    -1.1660 C.ar  1 <1>  -0.1500 
 16 N      -14.5460     0.6590     0.4670 N.4   1 <1>  -0.7460 
 17 C       -5.4930    -3.3040    -0.3270 C.ar  1 <1>  -0.1500 
 18 H       -6.5280     1.2290     0.7980 H     1 <1>   0.0800 
 19 H       -7.3270     0.3880     2.1190 H     1 <1>   0.0800 
 20 H      -11.2950     3.1530     1.3390 H     1 <1>   0.0800 
 21 H      -11.0590     3.6960    -0.3210 H     1 <1>   0.0800 
 22 H      -10.5020     0.9740    -1.8920 H     1 <1>   0.0800 
 23 H      -10.6000    -0.2440    -0.6210 H     1 <1>   0.0800 
 24 H      -13.3680     2.9550    -0.4790 H     1 <1>   0.1000 
 25 H      -12.9170     0.7510    -1.7460 H     1 <1>   0.1000 
 26 H       -6.9230    -1.9550     2.4070 H     1 <1>   0.1500 
 27 H       -6.1050    -0.1620    -1.3770 H     1 <1>   0.1500 
 28 H      -12.5850     0.5610     1.3320 H     1 <1>   0.1000 
 29 H       -5.9650    -4.0640     1.6120 H     1 <1>   0.1500 
 30 H       -5.1440    -2.2770    -2.1660 H     1 <1>   0.1500 
 31 H      -14.9850     1.0520    -0.3710 H     1 <1>   0.4500 
 32 H      -14.9980     1.0690     1.2910 H     1 <1>   0.4500 
 33 H      -14.7100    -0.3530     0.4750 H     1 <1>   0.4500 
 34 H       -5.0730    -4.2320    -0.6740 H     1 <1>   0.1500 
@<TRIPOS>BOND
  1   1   2  2   
  2   2   3  1   
  3   2   4  am  
  4   3   5  1   
  5   4   6  1   
  6   4   7  1   
  7   5   8  1   
  8   5  18  1   
  9   5  19  1   
 10   6   9  1   
 11   6  20  1   
 12   6  21  1   
 13   7  10  1   
 14   7  22  1   
 15   7  23  1   
 16   8  11  ar  
 17   8  12  ar  
 18   9  10  1   
 19   9  13  1   
 20   9  24  1   
 21  10  13  1   
 22  10  25  1   
 23  11  14  ar  
 24  11  26  1   
 25  12  15  ar  
 26  12  27  1   
 27  13  16  1   
 28  13  28  1   
 29  14  17  ar  
 30  14  29  1   
 31  15  17  ar  
 32  15  30  1   
 33  16  31  1   
 34  16  32  1   
 35  16  33  1   
 36  17  34  1   
@<TRIPOS>SUBSTRUCTURE
  1 ****   3 GROUP 4 **** **** 0

# MOE 2024.06 (io_trps.svl 2023.06)
