@<TRIPOS>MOLECULE
NONAME
49 51 1 0 0 
SMALL
USER_CHARGES


@<TRIPOS>ATOM
  1 S       -0.6300    -1.1510     2.9210 S.3   1 <1>  -0.0800 
  2 C        0.4400    -1.5890     1.6150 C.2   1 <1>   0.1980 
  3 C       -1.9010    -2.0390     2.1340 C.2   1 <1>  -0.1100 
  4 N       -0.1040    -2.3060     0.7210 N.2   1 <1>  -0.5650 
  5 C        1.8850    -1.1080     1.6430 C.3   1 <1>   0.5230 
  6 C       -1.4520    -2.5960     0.9870 C.2   1 <1>   0.1410 
  7 N        2.5430    -1.4020     0.3210 N.4   1 <1>  -0.9590 
  8 C       -2.2450    -3.4060     0.0620 C.2   1 <1>   0.7160 
  9 C        4.0290    -1.4650     0.4070 C.3   1 <1>   0.2630 
 10 C        2.0800    -0.4640    -0.7450 C.3   1 <1>   0.2630 
 11 O       -3.4470    -3.2200     0.0140 O.2   1 <1>  -0.5700 
 12 N       -1.7020    -4.3650    -0.7720 N.am  1 <1>  -0.6600 
 13 C       -0.3910    -5.0440    -0.4800 C.3   1 <1>   0.3640 
 14 C       -2.5280    -4.9540    -1.8730 C.3   1 <1>   0.1400 
 15 C        0.7850    -4.4260    -1.2600 C.ar  1 <1>  -0.1430 
 16 C       -0.4380    -6.5930    -0.6910 C.3   1 <1>   0.2000 
 17 C       -1.8310    -6.1350    -2.5600 C.3   1 <1>   0.1200 
 18 C        0.6260    -3.5570    -2.3340 C.ar  1 <1>  -0.1500 
 19 C        2.0760    -4.7540    -0.8620 C.ar  1 <1>  -0.1500 
 20 O       -1.4250    -7.0470    -1.5900 O.3   1 <1>  -0.5600 
 21 C       -0.6760    -7.3410     0.6260 C.3   1 <1>   0.1200 
 22 C        1.7260    -3.0480    -3.0030 C.ar  1 <1>  -0.1500 
 23 C        3.1780    -4.2490    -1.5290 C.ar  1 <1>  -0.1500 
 24 O        0.3450    -7.0570     1.5330 O.3   1 <1>  -0.6800 
 25 C        3.0040    -3.3960    -2.6030 C.ar  1 <1>  -0.1500 
 26 H       -2.8730    -2.0640     2.5950 H     1 <1>   0.1500 
 27 H        2.3990    -1.6280     2.4330 H     1 <1>   0.0800 
 28 H        1.9140    -0.0520     1.8480 H     1 <1>   0.0800 
 29 H        2.1730    -2.3350     0.0390 H     1 <1>   0.4500 
 30 H        4.4320    -0.5070     0.6910 H     1 <1>   0.0800 
 31 H        4.4420    -1.7440    -0.5490 H     1 <1>   0.0800 
 32 H        4.3320    -2.2010     1.1350 H     1 <1>   0.0800 
 33 H        2.3730     0.5470    -0.5170 H     1 <1>   0.0800 
 34 H        1.0060    -0.5060    -0.8350 H     1 <1>   0.0800 
 35 H        2.5070    -0.7450    -1.6950 H     1 <1>   0.0800 
 36 H       -0.1640    -4.8780     0.5570 H     1 <1>   0.0800 
 37 H       -3.4640    -5.2980    -1.4670 H     1 <1>   0.0800 
 38 H       -2.7460    -4.1920    -2.6000 H     1 <1>   0.0800 
 39 H        0.5040    -6.9270    -1.0870 H     1 <1>   0.0800 
 40 H       -0.9740    -5.8170    -3.1270 H     1 <1>   0.0800 
 41 H       -2.5160    -6.6380    -3.2190 H     1 <1>   0.0800 
 42 H       -0.3570    -3.2720    -2.6670 H     1 <1>   0.1500 
 43 H        2.2260    -5.4260    -0.0310 H     1 <1>   0.1500 
 44 H       -0.6780    -8.4030     0.4470 H     1 <1>   0.0800 
 45 H       -1.6130    -7.0410     1.0630 H     1 <1>   0.0800 
 46 H        1.5840    -2.3920    -3.8450 H     1 <1>   0.1500 
 47 H        4.1700    -4.5380    -1.2240 H     1 <1>   0.1500 
 48 H        0.2450    -7.6100     2.3360 H     1 <1>   0.4000 
 49 H        3.8580    -3.0170    -3.1390 H     1 <1>   0.1500 
@<TRIPOS>BOND
  1   1   2  1   
  2   1   3  1   
  3   2   4  2   
  4   2   5  1   
  5   3   6  2   
  6   3  26  1   
  7   4   6  1   
  8   5   7  1   
  9   5  27  1   
 10   5  28  1   
 11   6   8  1   
 12   7   9  1   
 13   7  10  1   
 14   7  29  1   
 15   8  11  2   
 16   8  12  am  
 17   9  30  1   
 18   9  31  1   
 19   9  32  1   
 20  10  33  1   
 21  10  34  1   
 22  10  35  1   
 23  12  13  1   
 24  12  14  1   
 25  13  15  1   
 26  13  16  1   
 27  13  36  1   
 28  14  17  1   
 29  14  37  1   
 30  14  38  1   
 31  15  18  ar  
 32  15  19  ar  
 33  16  20  1   
 34  16  21  1   
 35  16  39  1   
 36  17  20  1   
 37  17  40  1   
 38  17  41  1   
 39  18  22  ar  
 40  18  42  1   
 41  19  23  ar  
 42  19  43  1   
 43  21  24  1   
 44  21  44  1   
 45  21  45  1   
 46  22  25  ar  
 47  22  46  1   
 48  23  25  ar  
 49  23  47  1   
 50  24  48  1   
 51  25  49  1   
@<TRIPOS>SUBSTRUCTURE
  1 ****  15 GROUP 4 **** **** 0

# MOE 2024.06 (io_trps.svl 2023.06)
