@<TRIPOS>MOLECULE
NONAME
52 55 1 0 0 
SMALL
USER_CHARGES


@<TRIPOS>ATOM
  1 O       -1.8630    -2.5590     1.4820 O.2   1 <1>  -0.5700 
  2 C       -2.2770    -2.1320     0.4090 C.2   1 <1>   0.5650 
  3 N       -2.6450    -0.7670     0.2620 N.pl3 1 <1>   0.5610 
  4 C       -2.4500    -2.9870    -0.7340 C.2   1 <1>   0.0290 
  5 N       -2.5200     0.2790     1.1450 N.2   1 <1>  -0.7070 
  6 C       -3.2310    -0.3160    -0.8930 C.2   1 <1>  -0.0680 
  7 C       -1.9960    -4.3480    -0.6900 C.2   1 <1>   0.6160 
  8 C       -3.0600    -2.4920    -1.8630 C.2   1 <1>  -0.0500 
  9 C       -3.0180     1.3060     0.5370 C.2   1 <1>   0.1080 
 10 N       -3.4600    -1.1930    -1.9590 N.pl3 1 <1>  -0.5840 
 11 C       -3.4800     1.0030    -0.7380 C.2   1 <1>  -0.1500 
 12 O       -2.5800    -5.2310    -1.2970 O.2   1 <1>  -0.5700 
 13 N       -0.8540    -4.7490    -0.0500 N.am  1 <1>  -0.6600 
 14 C       -3.0730     2.6720     1.1810 C.3   1 <1>  -0.0590 
 15 C       -0.9960    -5.4680     1.2690 C.3   1 <1>   0.2200 
 16 C        0.3880    -4.9200    -0.8560 C.3   1 <1>   0.1400 
 17 C        0.2430    -5.3140     2.1630 C.3   1 <1>   0.1200 
 18 C       -1.3500    -6.9620     1.0730 C.3   1 <1>   0.3430 
 19 C        1.1850    -6.2000    -0.5440 C.3   1 <1>  -0.0800 
 20 O        1.1800    -6.3110     1.8730 O.3   1 <1>  -0.5600 
 21 N       -1.0600    -7.4460    -0.3210 N.4   1 <1>  -0.9590 
 22 C        1.9830    -6.0800     0.7650 C.3   1 <1>   0.1200 
 23 C        0.4020    -7.5290    -0.6440 C.3   1 <1>   0.3430 
 24 C       -1.8100    -8.6870    -0.6640 C.3   1 <1>   0.3430 
 25 C       -1.3670    -9.8900     0.1790 C.3   1 <1>  -0.1600 
 26 C       -2.1740   -11.1390    -0.1910 C.3   1 <1>  -0.2400 
 27 H       -3.2350    -3.1290    -2.7180 H     1 <1>   0.1500 
 28 H       -3.9240    -0.8280    -2.8060 H     1 <1>   0.4000 
 29 H       -3.9320     1.6880    -1.4310 H     1 <1>   0.1500 
 30 H       -3.5210     3.3870     0.5170 H     1 <1>   0.0800 
 31 H       -2.0770     2.9940     1.4250 H     1 <1>   0.0800 
 32 H       -3.6510     2.6200     2.0850 H     1 <1>   0.0800 
 33 H       -1.8110    -5.0150     1.8060 H     1 <1>   0.0800 
 34 H        0.1250    -4.9240    -1.9010 H     1 <1>   0.0800 
 35 H        1.0190    -4.0620    -0.6930 H     1 <1>   0.0800 
 36 H       -0.0440    -5.4540     3.1900 H     1 <1>   0.0800 
 37 H        0.6860    -4.3370     2.0690 H     1 <1>   0.0800 
 38 H       -2.4020    -7.0770     1.2710 H     1 <1>   0.0800 
 39 H       -0.8170    -7.5590     1.7950 H     1 <1>   0.0800 
 40 H        1.9420    -6.2550    -1.3060 H     1 <1>   0.0800 
 41 H       -1.4570    -6.6830    -0.9100 H     1 <1>   0.4500 
 42 H        2.4490    -5.1140     0.8640 H     1 <1>   0.0800 
 43 H        2.7600    -6.8260     0.7870 H     1 <1>   0.0800 
 44 H        0.8710    -8.2520     0.0020 H     1 <1>   0.0800 
 45 H        0.4990    -7.8920    -1.6550 H     1 <1>   0.0800 
 46 H       -2.8640    -8.5180    -0.5110 H     1 <1>   0.0800 
 47 H       -1.6660    -8.9160    -1.7080 H     1 <1>   0.0800 
 48 H       -0.3250   -10.1010     0.0130 H     1 <1>   0.0800 
 49 H       -1.5150    -9.6900     1.2250 H     1 <1>   0.0800 
 50 H       -2.0330   -11.3940    -1.2270 H     1 <1>   0.0800 
 51 H       -3.2250   -10.9830    -0.0130 H     1 <1>   0.0800 
 52 H       -1.8530   -11.9750     0.4080 H     1 <1>   0.0800 
@<TRIPOS>BOND
  1   1   2  2   
  2   2   3  1   
  3   2   4  1   
  4   3   5  1   
  5   3   6  1   
  6   4   7  1   
  7   4   8  2   
  8   5   9  2   
  9   6  10  1   
 10   6  11  2   
 11   7  12  2   
 12   7  13  am  
 13   8  10  1   
 14   8  27  1   
 15   9  11  1   
 16   9  14  1   
 17  10  28  1   
 18  11  29  1   
 19  13  15  1   
 20  13  16  1   
 21  14  30  1   
 22  14  31  1   
 23  14  32  1   
 24  15  17  1   
 25  15  18  1   
 26  15  33  1   
 27  16  19  1   
 28  16  34  1   
 29  16  35  1   
 30  17  20  1   
 31  17  36  1   
 32  17  37  1   
 33  18  21  1   
 34  18  38  1   
 35  18  39  1   
 36  19  22  1   
 37  19  23  1   
 38  19  40  1   
 39  20  22  1   
 40  21  23  1   
 41  21  24  1   
 42  21  41  1   
 43  22  42  1   
 44  22  43  1   
 45  23  44  1   
 46  23  45  1   
 47  24  25  1   
 48  24  46  1   
 49  24  47  1   
 50  25  26  1   
 51  25  48  1   
 52  25  49  1   
 53  26  50  1   
 54  26  51  1   
 55  26  52  1   
@<TRIPOS>SUBSTRUCTURE
  1 ****   7 GROUP 4 **** **** 0

# MOE 2024.06 (io_trps.svl 2023.06)
