@<TRIPOS>MOLECULE
NONAME
36 37 1 0 0 
SMALL
USER_CHARGES


@<TRIPOS>ATOM
  1 O        1.0740     0.0980    -1.4270 O.2   1 <1>  -0.5700 
  2 C        1.6790    -0.4600    -0.5310 C.2   1 <1>   0.7160 
  3 N        2.4510     0.2720     0.3290 N.am  1 <1>  -0.4930 
  4 C        1.5970    -1.8910    -0.3470 C.2   1 <1>  -0.0860 
  5 C        2.7180     1.6640     0.3460 C.2   1 <1>   0.0630 
  6 C        0.6560    -2.7830    -0.7720 C.2   1 <1>  -0.0400 
  7 C        2.5310    -2.6930     0.3490 C.2   1 <1>  -0.1500 
  8 C        2.2980     2.6650    -0.5320 C.2   1 <1>   0.1390 
  9 C        3.4710     2.3120     1.2590 C.2   1 <1>  -0.3020 
 10 O        0.9520    -4.0000    -0.3880 O.3   1 <1>  -0.2800 
 11 C       -0.6180    -2.5980    -1.5720 C.3   1 <1>  -0.0600 
 12 C        2.0780    -3.9590     0.2850 C.2   1 <1>  -0.0400 
 13 N        2.7520     3.8380    -0.1990 N.2   1 <1>  -0.7070 
 14 N        3.4780     3.6190     0.9160 N.pl3 1 <1>   0.3140 
 15 C        2.6390    -5.2520     0.8330 C.3   1 <1>  -0.0600 
 16 C        4.1720     4.7120     1.6120 C.3   1 <1>   0.1570 
 17 C        5.4640     5.0420     0.9000 C.2   1 <1>   0.5690 
 18 O        6.4620     5.1870     1.5650 O.2   1 <1>  -0.5700 
 19 N        5.4690     5.1790    -0.4540 N.am  1 <1>  -0.7300 
 20 C        6.6450     5.5030    -1.2960 C.3   1 <1>   0.0600 
 21 H        2.8630    -0.2580     1.0910 H     1 <1>   0.3700 
 22 H        3.4320    -2.3470     0.8220 H     1 <1>   0.1500 
 23 H        1.6700     2.4930    -1.3900 H     1 <1>   0.1500 
 24 H        3.9960     1.9280     2.1140 H     1 <1>   0.1500 
 25 H       -0.7930    -1.5620    -1.7960 H     1 <1>   0.0800 
 26 H       -1.4540    -2.9740    -1.0120 H     1 <1>   0.0800 
 27 H       -0.5450    -3.1430    -2.4950 H     1 <1>   0.0800 
 28 H        3.5600    -5.0690     1.3560 H     1 <1>   0.0800 
 29 H        2.8240    -5.9370     0.0260 H     1 <1>   0.0800 
 30 H        1.9330    -5.6950     1.5110 H     1 <1>   0.0800 
 31 H        4.3790     4.4150     2.6220 H     1 <1>   0.0800 
 32 H        3.5380     5.5770     1.6190 H     1 <1>   0.0800 
 33 H        4.5950     4.9480    -0.9530 H     1 <1>   0.3700 
 34 H        7.5060     5.6960    -0.6770 H     1 <1>   0.0800 
 35 H        6.4390     6.3790    -1.8870 H     1 <1>   0.0800 
 36 H        6.8630     4.6770    -1.9490 H     1 <1>   0.0800 
@<TRIPOS>BOND
  1   1   2  2   
  2   2   3  am  
  3   2   4  1   
  4   3   5  1   
  5   3  21  1   
  6   4   6  2   
  7   4   7  1   
  8   5   8  1   
  9   5   9  2   
 10   6  10  1   
 11   6  11  1   
 12   7  12  2   
 13   7  22  1   
 14   8  13  2   
 15   8  23  1   
 16   9  14  1   
 17   9  24  1   
 18  10  12  1   
 19  11  25  1   
 20  11  26  1   
 21  11  27  1   
 22  12  15  1   
 23  13  14  1   
 24  14  16  1   
 25  15  28  1   
 26  15  29  1   
 27  15  30  1   
 28  16  17  1   
 29  16  31  1   
 30  16  32  1   
 31  17  18  2   
 32  17  19  am  
 33  19  20  1   
 34  19  33  1   
 35  20  34  1   
 36  20  35  1   
 37  20  36  1   
@<TRIPOS>SUBSTRUCTURE
  1 ****   3 GROUP 4 **** **** 0

# MOE 2024.06 (io_trps.svl 2023.06)
