@<TRIPOS>MOLECULE
NONAME
51 53 1 0 0 
SMALL
USER_CHARGES


@<TRIPOS>ATOM
  1 O        0.6330    -0.7290     1.4690 O.3   1 <1>  -0.5600 
  2 C        0.5720    -1.6960     0.4630 C.3   1 <1>   0.2000 
  3 C       -0.5710    -0.4840     2.1230 C.3   1 <1>   0.0400 
  4 C        1.8150    -1.6610    -0.4420 C.3   1 <1>   0.0000 
  5 C        0.5250    -3.1110     1.0510 C.3   1 <1>  -0.1600 
  6 C        3.1070    -1.4400     0.3900 C.3   1 <1>   0.2090 
  7 C        1.7000    -0.5670    -1.5250 C.3   1 <1>  -0.1600 
  8 C        1.7860    -3.0750    -1.0480 C.3   1 <1>  -0.1600 
  9 C        1.3190    -3.9970     0.0820 C.3   1 <1>  -0.1600 
 10 N        4.3180    -1.2740    -0.4700 N.pl3 1 <1>  -0.8380 
 11 C        2.9640    -0.5130    -2.4000 C.3   1 <1>  -0.1600 
 12 C        5.4090    -2.1060    -0.3270 C.ar  1 <1>   0.4100 
 13 C        4.2270    -0.2810    -1.5670 C.3   1 <1>   0.2090 
 14 N        5.1720    -3.3960    -0.4430 N.ar  1 <1>  -0.6200 
 15 C        6.6940    -1.6290    -0.0760 C.ar  1 <1>  -0.1430 
 16 C        6.2120    -4.1920    -0.3520 C.ar  1 <1>   0.4770 
 17 C        7.6920    -2.5710    -0.0120 C.ar  1 <1>   0.1600 
 18 C        6.9650    -0.1340     0.1250 C.3   1 <1>  -0.0170 
 19 N        7.4720    -3.8620    -0.1500 N.ar  1 <1>  -0.6200 
 20 C        5.9170    -5.6650    -0.4980 C.3   1 <1>  -0.0970 
 21 C        8.1850     0.1850     1.0050 C.3   1 <1>  -0.1600 
 22 C        8.2870     1.6870     1.2910 C.3   1 <1>  -0.2400 
 23 H       -0.3050    -1.5220    -0.1390 H     1 <1>   0.0800 
 24 H       -0.4030     0.2860     2.8560 H     1 <1>   0.0800 
 25 H       -0.9040    -1.3820     2.6140 H     1 <1>   0.0800 
 26 H       -1.3020    -0.1480     1.4080 H     1 <1>   0.0800 
 27 H        0.9950    -3.1270     2.0190 H     1 <1>   0.0800 
 28 H       -0.4920    -3.4500     1.1350 H     1 <1>   0.0800 
 29 H        3.2560    -2.2590     1.0700 H     1 <1>   0.0800 
 30 H        3.0040    -0.5470     0.9800 H     1 <1>   0.0800 
 31 H        0.8390    -0.7450    -2.1460 H     1 <1>   0.0800 
 32 H        1.5650     0.3860    -1.0430 H     1 <1>   0.0800 
 33 H        1.0650    -3.1130    -1.8460 H     1 <1>   0.0800 
 34 H        2.7400    -3.3760    -1.4410 H     1 <1>   0.0800 
 35 H        2.1780    -4.4070     0.5870 H     1 <1>   0.0800 
 36 H        0.7220    -4.8060    -0.3010 H     1 <1>   0.0800 
 37 H        2.8690     0.2800    -3.1200 H     1 <1>   0.0800 
 38 H        3.0760    -1.4340    -2.9440 H     1 <1>   0.0800 
 39 H        4.2020     0.7070    -1.1390 H     1 <1>   0.0800 
 40 H        5.0940    -0.3580    -2.2000 H     1 <1>   0.0800 
 41 H        8.7110    -2.2800     0.1620 H     1 <1>   0.1500 
 42 H        7.0890     0.3290    -0.8380 H     1 <1>   0.0800 
 43 H        6.1020     0.3080     0.5930 H     1 <1>   0.0800 
 44 H        6.8200    -6.2420    -0.4200 H     1 <1>   0.0800 
 45 H        5.4670    -5.8430    -1.4560 H     1 <1>   0.0800 
 46 H        5.2360    -5.9690     0.2740 H     1 <1>   0.0800 
 47 H        8.1000    -0.3470     1.9380 H     1 <1>   0.0800 
 48 H        9.0870    -0.1320     0.5120 H     1 <1>   0.0800 
 49 H        7.4120     2.0310     1.8150 H     1 <1>   0.0800 
 50 H        8.3840     2.2410     0.3740 H     1 <1>   0.0800 
 51 H        9.1490     1.8860     1.9030 H     1 <1>   0.0800 
@<TRIPOS>BOND
  1   1   2  1   
  2   1   3  1   
  3   2   4  1   
  4   2   5  1   
  5   2  23  1   
  6   3  24  1   
  7   3  25  1   
  8   3  26  1   
  9   4   6  1   
 10   4   7  1   
 11   4   8  1   
 12   5   9  1   
 13   5  27  1   
 14   5  28  1   
 15   6  10  1   
 16   6  29  1   
 17   6  30  1   
 18   7  11  1   
 19   7  31  1   
 20   7  32  1   
 21   8   9  1   
 22   8  33  1   
 23   8  34  1   
 24   9  35  1   
 25   9  36  1   
 26  10  12  1   
 27  10  13  1   
 28  11  13  1   
 29  11  37  1   
 30  11  38  1   
 31  12  14  ar  
 32  12  15  ar  
 33  13  39  1   
 34  13  40  1   
 35  14  16  ar  
 36  15  17  ar  
 37  15  18  1   
 38  16  19  ar  
 39  16  20  1   
 40  17  19  ar  
 41  17  41  1   
 42  18  21  1   
 43  18  42  1   
 44  18  43  1   
 45  20  44  1   
 46  20  45  1   
 47  20  46  1   
 48  21  22  1   
 49  21  47  1   
 50  21  48  1   
 51  22  49  1   
 52  22  50  1   
 53  22  51  1   
@<TRIPOS>SUBSTRUCTURE
  1 ****  10 GROUP 4 **** **** 0

# MOE 2024.06 (io_trps.svl 2023.06)
