@<TRIPOS>MOLECULE
NONAME
43 45 1 0 0 
SMALL
USER_CHARGES


@<TRIPOS>ATOM
  1 O       -0.7230     0.5030     0.2660 O.2   1 <1>  -0.5700 
  2 C       -1.7230     1.1480    -0.0190 C.2   1 <1>   0.7160 
  3 N       -2.8640     0.4250    -0.3520 N.am  1 <1>  -0.6600 
  4 C       -1.6450     2.6120     0.0240 C.2   1 <1>   0.2030 
  5 C       -4.2210     1.0410    -0.3080 C.3   1 <1>   0.2200 
  6 C       -2.7610    -1.0220    -0.7100 C.3   1 <1>   0.0600 
  7 N       -2.4440     3.4980    -0.5540 N.2   1 <1>  -0.7070 
  8 C       -0.6330     3.2880     0.7190 C.2   1 <1>  -0.1500 
  9 C       -5.3040     0.1900     0.3540 C.3   1 <1>  -0.1600 
 10 C       -4.7790     1.3290    -1.6970 C.3   1 <1>  -0.1600 
 11 N       -1.9550     4.7000    -0.2380 N.pl3 1 <1>   0.3140 
 12 C       -0.8560     4.6030     0.5370 C.2   1 <1>  -0.3320 
 13 C       -6.6170     0.8080    -0.1440 C.3   1 <1>  -0.0800 
 14 C       -6.2810     1.5320    -1.4620 C.3   1 <1>  -0.0800 
 15 C       -2.5880     5.9330    -0.7220 C.3   1 <1>   0.0160 
 16 C       -0.0570     5.7800     1.0720 C.3   1 <1>  -0.0600 
 17 C       -7.1830     1.8750     0.8050 C.3   1 <1>  -0.1600 
 18 C       -6.6600     3.0060    -1.2580 C.3   1 <1>  -0.1600 
 19 C       -7.6520     2.9980    -0.1070 C.3   1 <1>   0.2000 
 20 O       -7.6060     4.2000     0.5630 O.3   1 <1>  -0.6800 
 21 H       -4.1830     1.9640     0.2430 H     1 <1>   0.0800 
 22 H       -3.4550    -1.2670    -1.4940 H     1 <1>   0.0800 
 23 H       -2.9720    -1.6240     0.1560 H     1 <1>   0.0800 
 24 H       -1.7690    -1.2550    -1.0570 H     1 <1>   0.0800 
 25 H        0.1520     2.8060     1.2740 H     1 <1>   0.1500 
 26 H       -5.2630    -0.8250     0.0060 H     1 <1>   0.0800 
 27 H       -5.2200     0.2020     1.4260 H     1 <1>   0.0800 
 28 H       -4.3100     2.1870    -2.1440 H     1 <1>   0.0800 
 29 H       -4.6360     0.4770    -2.3360 H     1 <1>   0.0800 
 30 H       -7.3570     0.0450    -0.3160 H     1 <1>   0.0800 
 31 H       -6.8540     1.1170    -2.2750 H     1 <1>   0.0800 
 32 H       -1.8830     6.4790    -1.3200 H     1 <1>   0.0800 
 33 H       -2.8960     6.5250     0.1190 H     1 <1>   0.0800 
 34 H       -3.4450     5.6790    -1.3180 H     1 <1>   0.0800 
 35 H        0.7700     5.4260     1.6610 H     1 <1>   0.0800 
 36 H       -0.6780     6.4010     1.6920 H     1 <1>   0.0800 
 37 H        0.3300     6.3670     0.2580 H     1 <1>   0.0800 
 38 H       -6.4100     2.2390     1.4590 H     1 <1>   0.0800 
 39 H       -7.9960     1.4860     1.3910 H     1 <1>   0.0800 
 40 H       -7.0960     3.4250    -2.1470 H     1 <1>   0.0800 
 41 H       -5.7880     3.5760    -0.9830 H     1 <1>   0.0800 
 42 H       -8.6560     2.8240    -0.4580 H     1 <1>   0.0800 
 43 H       -6.7000     4.3580     0.8840 H     1 <1>   0.4000 
@<TRIPOS>BOND
  1   1   2  2   
  2   2   3  am  
  3   2   4  1   
  4   3   5  1   
  5   3   6  1   
  6   4   7  2   
  7   4   8  1   
  8   5   9  1   
  9   5  10  1   
 10   5  21  1   
 11   6  22  1   
 12   6  23  1   
 13   6  24  1   
 14   7  11  1   
 15   8  12  2   
 16   8  25  1   
 17   9  13  1   
 18   9  26  1   
 19   9  27  1   
 20  10  14  1   
 21  10  28  1   
 22  10  29  1   
 23  11  12  1   
 24  11  15  1   
 25  12  16  1   
 26  13  14  1   
 27  13  17  1   
 28  13  30  1   
 29  14  18  1   
 30  14  31  1   
 31  15  32  1   
 32  15  33  1   
 33  15  34  1   
 34  16  35  1   
 35  16  36  1   
 36  16  37  1   
 37  17  19  1   
 38  17  38  1   
 39  17  39  1   
 40  18  19  1   
 41  18  40  1   
 42  18  41  1   
 43  19  20  1   
 44  19  42  1   
 45  20  43  1   
@<TRIPOS>SUBSTRUCTURE
  1 ****   5 GROUP 4 **** **** 0

# MOE 2024.06 (io_trps.svl 2023.06)
