@<TRIPOS>MOLECULE
NONAME
65 67 1 0 0 
SMALL
USER_CHARGES


@<TRIPOS>ATOM
  1 O        0.4300    -0.1050    -0.2050 O.3   1 <1>  -0.3630 
  2 C        0.2430    -1.4490    -0.1920 C.ar  1 <1>   0.0830 
  3 C        1.7050     0.4590    -0.0210 C.3   1 <1>   0.1200 
  4 C       -1.0540    -1.8980    -0.3870 C.ar  1 <1>  -0.1500 
  5 C        1.2660    -2.3740     0.0020 C.ar  1 <1>  -0.1500 
  6 C        1.5470     1.9790    -0.0960 C.3   1 <1>  -0.1600 
  7 C       -1.3350    -3.2520    -0.3890 C.ar  1 <1>  -0.1500 
  8 C        0.9820    -3.7290     0.0000 C.ar  1 <1>  -0.1500 
  9 C        2.8870     2.7060     0.0860 C.3   1 <1>  -0.1600 
 10 C       -0.3160    -4.1690    -0.1950 C.ar  1 <1>  -0.1500 
 11 C        2.6820     4.2220     0.0110 C.3   1 <1>   0.3430 
 12 N        3.9590     4.9440     0.2880 N.4   1 <1>  -0.9590 
 13 C        3.6820     6.3720     0.6020 C.3   1 <1>   0.3430 
 14 C        4.9270     4.8160    -0.8370 C.3   1 <1>   0.3430 
 15 C        4.9830     7.0870     0.9900 C.3   1 <1>  -0.1600 
 16 C        6.2460     5.5010    -0.4690 C.3   1 <1>  -0.1600 
 17 C        6.0790     6.9990    -0.1020 C.3   1 <1>  -0.0800 
 18 C        7.4040     7.7000     0.3600 C.3   1 <1>   0.4230 
 19 N        7.4350     9.1760     0.1130 N.4   1 <1>  -0.9590 
 20 C        8.6540     7.1410    -0.3340 C.3   1 <1>  -0.2400 
 21 C        8.4410     9.9050     0.9670 C.3   1 <1>   0.3430 
 22 C        6.1690     9.9890     0.0800 C.3   1 <1>   0.3430 
 23 C        8.7250    11.3170     0.3970 C.3   1 <1>   0.1100 
 24 C        6.4450    11.4220    -0.4430 C.3   1 <1>   0.1100 
 25 N        7.8730    11.6190    -0.7770 N.3   1 <1>  -0.8100 
 26 C        8.1240    12.9760    -1.2840 C.3   1 <1>   0.0300 
 27 H        2.3500     0.0960    -0.8030 H     1 <1>   0.0800 
 28 H        2.0730     0.1530     0.9430 H     1 <1>   0.0800 
 29 H       -1.8400    -1.1800    -0.5360 H     1 <1>   0.1500 
 30 H        2.2810    -2.0650     0.1560 H     1 <1>   0.1500 
 31 H        0.8580     2.2860     0.6730 H     1 <1>   0.0800 
 32 H        1.1240     2.2300    -1.0540 H     1 <1>   0.0800 
 33 H       -2.3450    -3.5920    -0.5410 H     1 <1>   0.1500 
 34 H        1.7720    -4.4450     0.1500 H     1 <1>   0.1500 
 35 H        3.5610     2.3790    -0.6870 H     1 <1>   0.0800 
 36 H        3.2970     2.4420     1.0460 H     1 <1>   0.0800 
 37 H       -0.5340    -5.2230    -0.1970 H     1 <1>   0.1500 
 38 H        1.9430     4.5010     0.7450 H     1 <1>   0.0800 
 39 H        2.3030     4.4930    -0.9620 H     1 <1>   0.0800 
 40 H        4.3780     4.5110     1.1230 H     1 <1>   0.4500 
 41 H        2.9800     6.4380     1.4180 H     1 <1>   0.0800 
 42 H        3.2450     6.8540    -0.2580 H     1 <1>   0.0800 
 43 H        4.5170     5.2700    -1.7260 H     1 <1>   0.0800 
 44 H        5.1160     3.7750    -1.0490 H     1 <1>   0.0800 
 45 H        5.3470     6.6560     1.9080 H     1 <1>   0.0800 
 46 H        4.7360     8.1080     1.2060 H     1 <1>   0.0800 
 47 H        6.8950     5.4000    -1.3220 H     1 <1>   0.0800 
 48 H        6.6980     4.9620     0.3470 H     1 <1>   0.0800 
 49 H        5.7340     7.4880    -0.9980 H     1 <1>   0.0800 
 50 H        7.5120     7.5270     1.4190 H     1 <1>   0.0800 
 51 H        7.8150     9.3360    -0.8370 H     1 <1>   0.4500 
 52 H        8.5640     7.2130    -1.4030 H     1 <1>   0.0800 
 53 H        8.8010     6.1080    -0.0740 H     1 <1>   0.0800 
 54 H        9.5480     7.6510    -0.0290 H     1 <1>   0.0800 
 55 H        9.3710     9.3630     1.0110 H     1 <1>   0.0800 
 56 H        8.0720     9.9970     1.9750 H     1 <1>   0.0800 
 57 H        5.7430    10.0510     1.0670 H     1 <1>   0.0800 
 58 H        5.4460     9.5290    -0.5700 H     1 <1>   0.0800 
 59 H        9.7600    11.3740     0.1050 H     1 <1>   0.0800 
 60 H        8.5660    12.0500     1.1690 H     1 <1>   0.0800 
 61 H        6.1380    12.1390     0.3010 H     1 <1>   0.0800 
 62 H        5.8470    11.5950    -1.3230 H     1 <1>   0.0800 
 63 H        9.1610    13.0810    -1.5570 H     1 <1>   0.0800 
 64 H        7.8840    13.7150    -0.5380 H     1 <1>   0.0800 
 65 H        7.5270    13.1590    -2.1610 H     1 <1>   0.0800 
@<TRIPOS>BOND
  1   1   2  1   
  2   1   3  1   
  3   2   4  ar  
  4   2   5  ar  
  5   3   6  1   
  6   3  27  1   
  7   3  28  1   
  8   4   7  ar  
  9   4  29  1   
 10   5   8  ar  
 11   5  30  1   
 12   6   9  1   
 13   6  31  1   
 14   6  32  1   
 15   7  10  ar  
 16   7  33  1   
 17   8  10  ar  
 18   8  34  1   
 19   9  11  1   
 20   9  35  1   
 21   9  36  1   
 22  10  37  1   
 23  11  12  1   
 24  11  38  1   
 25  11  39  1   
 26  12  13  1   
 27  12  14  1   
 28  12  40  1   
 29  13  15  1   
 30  13  41  1   
 31  13  42  1   
 32  14  16  1   
 33  14  43  1   
 34  14  44  1   
 35  15  17  1   
 36  15  45  1   
 37  15  46  1   
 38  16  17  1   
 39  16  47  1   
 40  16  48  1   
 41  17  18  1   
 42  17  49  1   
 43  18  19  1   
 44  18  20  1   
 45  18  50  1   
 46  19  21  1   
 47  19  22  1   
 48  19  51  1   
 49  20  52  1   
 50  20  53  1   
 51  20  54  1   
 52  21  23  1   
 53  21  55  1   
 54  21  56  1   
 55  22  24  1   
 56  22  57  1   
 57  22  58  1   
 58  23  25  1   
 59  23  59  1   
 60  23  60  1   
 61  24  25  1   
 62  24  61  1   
 63  24  62  1   
 64  25  26  1   
 65  26  63  1   
 66  26  64  1   
 67  26  65  1   
@<TRIPOS>SUBSTRUCTURE
  1 ****  12 GROUP 4 **** **** 0

# MOE 2024.06 (io_trps.svl 2023.06)
