@<TRIPOS>MOLECULE
NONAME
56 58 1 0 0 
SMALL
USER_CHARGES


@<TRIPOS>ATOM
  1 O       -0.8690     1.0960     1.9030 O.2   1 <1>  -0.5700 
  2 C       -1.5840     1.8660     1.2960 C.2   1 <1>   0.7060 
  3 O       -2.7580     1.5000     0.7980 O.3   1 <1>  -0.2270 
  4 C       -1.3910     3.2390     1.0270 C.2   1 <1>  -0.1240 
  5 C       -3.4080     2.5760     0.2730 C.2   1 <1>   0.0770 
  6 C       -2.4790     3.6830     0.3710 C.2   1 <1>  -0.1380 
  7 C       -0.1150     3.9190     1.4740 C.3   1 <1>   0.2580 
  8 C       -4.6830     2.3640    -0.1230 C.2   1 <1>  -0.2880 
  9 C       -2.7120     5.0830    -0.2030 C.3   1 <1>   0.3380 
 10 O        0.9000     3.6150     0.5490 O.3   1 <1>  -0.4300 
 11 C       -5.8080     3.2500    -0.6380 C.3   1 <1>   0.4180 
 12 O       -1.4650     5.6740    -0.5070 O.3   1 <1>  -0.4300 
 13 C       -3.4080     6.0580     0.7680 C.3   1 <1>  -0.1600 
 14 C        2.0910     4.1760     0.6540 C.2   1 <1>   0.6590 
 15 O       -5.3860     4.5510    -0.8010 O.3   1 <1>  -0.5600 
 16 C       -6.9730     3.2950     0.3560 C.3   1 <1>  -0.1600 
 17 C       -6.2470     2.7800    -2.0210 C.3   1 <1>  -0.2400 
 18 C       -0.8010     5.3970    -1.6300 C.2   1 <1>   0.7060 
 19 C       -4.8190     5.7050     1.3050 C.3   1 <1>   0.2800 
 20 O        2.3490     4.9860     1.5040 O.2   1 <1>  -0.5700 
 21 C        3.1130     3.7350    -0.3600 C.3   1 <1>  -0.1790 
 22 C       -5.8820     5.4060     0.1610 C.3   1 <1>   0.5600 
 23 C       -7.2030     4.7760     0.6000 C.3   1 <1>  -0.1600 
 24 O       -1.2580     4.5960    -2.4160 O.2   1 <1>  -0.5700 
 25 C        0.4550     6.0930    -1.8500 C.2   1 <1>  -0.1240 
 26 O       -4.6900     4.6280     2.1720 O.3   1 <1>  -0.6800 
 27 C       -5.2770     6.8550     2.2220 C.3   1 <1>  -0.2400 
 28 O       -6.1630     6.5560    -0.5440 O.3   1 <1>  -0.6800 
 29 C        1.0610     6.9180    -0.9730 C.2   1 <1>  -0.3000 
 30 C        1.1120     5.8460    -3.2040 C.3   1 <1>  -0.1020 
 31 H        0.1910     3.5620     2.4430 H     1 <1>   0.0800 
 32 H       -0.2340     4.9870     1.5150 H     1 <1>   0.0800 
 33 H       -5.0540     1.3590    -0.0540 H     1 <1>   0.1500 
 34 H       -3.2390     5.0240    -1.1360 H     1 <1>   0.0800 
 35 H       -3.4980     6.9890     0.2380 H     1 <1>   0.0800 
 36 H       -2.7520     6.2280     1.6010 H     1 <1>   0.0800 
 37 H       -7.8530     2.8050    -0.0200 H     1 <1>   0.0800 
 38 H       -6.6840     2.8160     1.2760 H     1 <1>   0.0800 
 39 H       -6.6240     1.7750    -1.9710 H     1 <1>   0.0800 
 40 H       -5.4070     2.7970    -2.6920 H     1 <1>   0.0800 
 41 H       -7.0180     3.4230    -2.4040 H     1 <1>   0.0800 
 42 H        2.7470     3.9330    -1.3490 H     1 <1>   0.0800 
 43 H        3.2910     2.6820    -0.2510 H     1 <1>   0.0800 
 44 H        4.0330     4.2680    -0.2070 H     1 <1>   0.0800 
 45 H       -7.4360     4.9700     1.6300 H     1 <1>   0.0800 
 46 H       -8.0080     5.1200    -0.0250 H     1 <1>   0.0800 
 47 H       -4.0090     4.8180     2.8420 H     1 <1>   0.4000 
 48 H       -5.3620     7.7700     1.6640 H     1 <1>   0.0800 
 49 H       -4.5650     7.0220     3.0110 H     1 <1>   0.0800 
 50 H       -6.2330     6.6390     2.6630 H     1 <1>   0.0800 
 51 H       -6.7190     7.1310     0.0060 H     1 <1>   0.4000 
 52 H        0.6710     7.1470     0.0040 H     1 <1>   0.1500 
 53 H        1.9920     7.4260    -1.1560 H     1 <1>   0.1500 
 54 H        0.4550     6.1670    -3.9930 H     1 <1>   0.0800 
 55 H        1.3090     4.7970    -3.3320 H     1 <1>   0.0800 
 56 H        2.0400     6.3830    -3.2930 H     1 <1>   0.0800 
@<TRIPOS>BOND
  1   1   2  2   
  2   2   3  1   
  3   2   4  1   
  4   3   5  1   
  5   4   6  2   
  6   4   7  1   
  7   5   6  1   
  8   5   8  2   
  9   6   9  1   
 10   7  10  1   
 11   7  31  1   
 12   7  32  1   
 13   8  11  1   
 14   8  33  1   
 15   9  12  1   
 16   9  13  1   
 17   9  34  1   
 18  10  14  1   
 19  11  15  1   
 20  11  16  1   
 21  11  17  1   
 22  12  18  1   
 23  13  19  1   
 24  13  35  1   
 25  13  36  1   
 26  14  20  2   
 27  14  21  1   
 28  15  22  1   
 29  16  23  1   
 30  16  37  1   
 31  16  38  1   
 32  17  39  1   
 33  17  40  1   
 34  17  41  1   
 35  18  24  2   
 36  18  25  1   
 37  19  22  1   
 38  19  26  1   
 39  19  27  1   
 40  21  42  1   
 41  21  43  1   
 42  21  44  1   
 43  22  23  1   
 44  22  28  1   
 45  23  45  1   
 46  23  46  1   
 47  25  29  2   
 48  25  30  1   
 49  26  47  1   
 50  27  48  1   
 51  27  49  1   
 52  27  50  1   
 53  28  51  1   
 54  29  52  1   
 55  29  53  1   
 56  30  54  1   
 57  30  55  1   
 58  30  56  1   
@<TRIPOS>SUBSTRUCTURE
  1 ****   6 GROUP 4 **** **** 0

# MOE 2024.06 (io_trps.svl 2023.06)
