@<TRIPOS>MOLECULE
NONAME
33 33 1 0 0 
SMALL
USER_CHARGES


@<TRIPOS>ATOM
  1 N        0.8550     0.1300     0.9400 N.4   1 <1>  -0.8530 
  2 C        1.1870    -0.7530    -0.1720 C.3   1 <1>   0.5660 
  3 C        1.0750    -2.1700     0.3570 C.ar  1 <1>  -0.1430 
  4 C        2.5780    -0.4020    -0.6880 C.3   1 <1>  -0.2400 
  5 C        0.0080    -2.9540    -0.0630 C.ar  1 <1>  -0.1500 
  6 C        1.9910    -2.6960     1.2580 C.ar  1 <1>  -0.1500 
  7 C       -0.1720    -4.2530     0.4020 C.ar  1 <1>  -0.1430 
  8 C        1.8290    -3.9830     1.7300 C.ar  1 <1>  -0.1500 
  9 C        0.7590    -4.7480     1.3070 C.ar  1 <1>  -0.1500 
 10 C       -1.3450    -5.1580    -0.0420 C.3   1 <1>   0.1430 
 11 C       -2.1790    -5.5590     1.1840 C.3   1 <1>  -0.2400 
 12 C       -2.2950    -4.4800    -1.0450 C.3   1 <1>  -0.2400 
 13 C       -0.7910    -6.4220    -0.7170 C.3   1 <1>  -0.2400 
 14 H        0.8510     1.1120     0.6560 H     1 <1>   0.4500 
 15 H        1.5360    -0.0160     1.6890 H     1 <1>   0.4500 
 16 H       -0.0630    -0.1390     1.3060 H     1 <1>   0.4500 
 17 H        0.4730    -0.6210    -0.9700 H     1 <1>   0.0800 
 18 H        3.3210    -0.4500     0.0870 H     1 <1>   0.0800 
 19 H        2.5820     0.5800    -1.1270 H     1 <1>   0.0800 
 20 H        2.8540    -1.1040    -1.4560 H     1 <1>   0.0800 
 21 H       -0.6890    -2.5380    -0.7680 H     1 <1>   0.1500 
 22 H        2.8390    -2.1340     1.6060 H     1 <1>   0.1500 
 23 H        2.5360    -4.3990     2.4280 H     1 <1>   0.1500 
 24 H        0.6640    -5.7470     1.6940 H     1 <1>   0.1500 
 25 H       -3.0190    -6.1640     0.8900 H     1 <1>   0.0800 
 26 H       -2.5480    -4.6820     1.6840 H     1 <1>   0.0800 
 27 H       -1.5940    -6.1270     1.8840 H     1 <1>   0.0800 
 28 H       -3.0900    -5.1500    -1.3210 H     1 <1>   0.0800 
 29 H       -1.7680    -4.2080    -1.9420 H     1 <1>   0.0800 
 30 H       -2.7400    -3.6020    -0.6130 H     1 <1>   0.0800 
 31 H       -1.5910    -7.0500    -1.0650 H     1 <1>   0.0800 
 32 H       -0.1930    -6.9980    -0.0350 H     1 <1>   0.0800 
 33 H       -0.1770    -6.1540    -1.5580 H     1 <1>   0.0800 
@<TRIPOS>BOND
  1   1   2  1   
  2   1  14  1   
  3   1  15  1   
  4   1  16  1   
  5   2   3  1   
  6   2   4  1   
  7   2  17  1   
  8   3   5  ar  
  9   3   6  ar  
 10   4  18  1   
 11   4  19  1   
 12   4  20  1   
 13   5   7  ar  
 14   5  21  1   
 15   6   8  ar  
 16   6  22  1   
 17   7   9  ar  
 18   7  10  1   
 19   8   9  ar  
 20   8  23  1   
 21   9  24  1   
 22  10  11  1   
 23  10  12  1   
 24  10  13  1   
 25  11  25  1   
 26  11  26  1   
 27  11  27  1   
 28  12  28  1   
 29  12  29  1   
 30  12  30  1   
 31  13  31  1   
 32  13  32  1   
 33  13  33  1   
@<TRIPOS>SUBSTRUCTURE
  1 ****   5 GROUP 4 **** **** 0

# MOE 2024.06 (io_trps.svl 2023.06)
