@<TRIPOS>MOLECULE
NONAME
51 53 1 0 0 
SMALL
USER_CHARGES


@<TRIPOS>ATOM
  1 O       -1.3070    -1.6400    -0.4740 O.co2 1 <1>  -0.9000 
  2 C       -0.9280    -2.7530    -0.8550 C.2   1 <1>   1.0330 
  3 O       -1.8000    -3.6260    -1.0760 O.co2 1 <1>  -0.9000 
  4 C        0.4570    -3.0780    -1.0260 C.2   1 <1>  -0.2330 
  5 C        0.8990    -4.1450    -1.8060 C.2   1 <1>   0.3720 
  6 C        1.6150    -2.5490    -0.5430 C.2   1 <1>   0.0870 
  7 N        2.1750    -4.2670    -1.7790 N.2   1 <1>  -0.4100 
  8 N        0.0560    -4.9820    -2.5200 N.pl3 1 <1>  -0.8520 
  9 O        2.5920    -3.2890    -1.0190 O.3   1 <1>  -0.0190 
 10 C        1.9450    -1.4450     0.3300 C.ar  1 <1>   0.0530 
 11 C        0.0380    -6.3830    -2.0510 C.3   1 <1>   0.2090 
 12 C        1.0900    -1.0040     1.3400 C.ar  1 <1>  -0.1500 
 13 C        3.1670    -0.7800     0.2000 C.ar  1 <1>  -0.1500 
 14 C       -1.3710    -6.7800    -1.5750 C.3   1 <1>   0.2000 
 15 C        1.4320     0.0430     2.1750 C.ar  1 <1>  -0.1500 
 16 C        3.5190     0.2670     1.0330 C.ar  1 <1>  -0.1500 
 17 O       -1.7270    -6.0750    -0.4200 O.3   1 <1>  -0.6800 
 18 C       -1.4690    -8.2840    -1.2560 C.3   1 <1>   0.3430 
 19 C        2.6490     0.6820     2.0260 C.ar  1 <1>  -0.1500 
 20 N       -2.6070    -8.5320    -0.3170 N.4   1 <1>  -0.9590 
 21 C       -2.3630    -9.6990     0.5660 C.3   1 <1>   0.3430 
 22 C       -3.9250    -8.4940    -1.0080 C.3   1 <1>   0.3430 
 23 C       -3.3490    -9.7580     1.7350 C.3   1 <1>  -0.1600 
 24 C       -4.9830    -7.9300    -0.0620 C.3   1 <1>  -0.1600 
 25 C       -4.7730   -10.1430     1.3100 C.3   1 <1>  -0.1600 
 26 C       -5.6450    -8.9590     0.8700 C.3   1 <1>  -0.1600 
 27 H       -0.8900    -4.5700    -2.3820 H     1 <1>   0.4000 
 28 H        0.7470    -6.5230    -1.2510 H     1 <1>   0.0800 
 29 H        0.3370    -7.0080    -2.8740 H     1 <1>   0.0800 
 30 H        0.1380    -1.4870     1.4720 H     1 <1>   0.1500 
 31 H        3.8500    -1.0900    -0.5700 H     1 <1>   0.1500 
 32 H       -2.0830    -6.5300    -2.3420 H     1 <1>   0.0800 
 33 H        0.7430     0.3590     2.9390 H     1 <1>   0.1500 
 34 H        4.4670     0.7590     0.9080 H     1 <1>   0.1500 
 35 H       -1.7800    -5.0750    -0.6270 H     1 <1>   0.4000 
 36 H       -0.5470    -8.5810    -0.7850 H     1 <1>   0.0800 
 37 H       -1.5810    -8.8560    -2.1620 H     1 <1>   0.0800 
 38 H        2.9160     1.4970     2.6750 H     1 <1>   0.1500 
 39 H       -2.5790    -7.6670     0.2650 H     1 <1>   0.4500 
 40 H       -1.3650    -9.6290     0.9700 H     1 <1>   0.0800 
 41 H       -2.4280   -10.6110    -0.0050 H     1 <1>   0.0800 
 42 H       -4.2070    -9.4740    -1.3570 H     1 <1>   0.0800 
 43 H       -3.8580    -7.8350    -1.8580 H     1 <1>   0.0800 
 44 H       -3.3440    -8.8330     2.2860 H     1 <1>   0.0800 
 45 H       -2.9930   -10.5220     2.4050 H     1 <1>   0.0800 
 46 H       -5.7610    -7.4860    -0.6600 H     1 <1>   0.0800 
 47 H       -4.5550    -7.1280     0.5160 H     1 <1>   0.0800 
 48 H       -5.2650   -10.6130     2.1470 H     1 <1>   0.0800 
 49 H       -4.7330   -10.8800     0.5260 H     1 <1>   0.0800 
 50 H       -6.5190    -9.3580     0.3830 H     1 <1>   0.0800 
 51 H       -5.9940    -8.4380     1.7470 H     1 <1>   0.0800 
@<TRIPOS>BOND
  1   1   2  ar  
  2   2   3  ar  
  3   2   4  1   
  4   4   5  1   
  5   4   6  2   
  6   5   7  2   
  7   5   8  1   
  8   6   9  1   
  9   6  10  1   
 10   7   9  1   
 11   8  11  1   
 12   8  27  1   
 13  10  12  ar  
 14  10  13  ar  
 15  11  14  1   
 16  11  28  1   
 17  11  29  1   
 18  12  15  ar  
 19  12  30  1   
 20  13  16  ar  
 21  13  31  1   
 22  14  17  1   
 23  14  18  1   
 24  14  32  1   
 25  15  19  ar  
 26  15  33  1   
 27  16  19  ar  
 28  16  34  1   
 29  17  35  1   
 30  18  20  1   
 31  18  36  1   
 32  18  37  1   
 33  19  38  1   
 34  20  21  1   
 35  20  22  1   
 36  20  39  1   
 37  21  23  1   
 38  21  40  1   
 39  21  41  1   
 40  22  24  1   
 41  22  42  1   
 42  22  43  1   
 43  23  25  1   
 44  23  44  1   
 45  23  45  1   
 46  24  26  1   
 47  24  46  1   
 48  24  47  1   
 49  25  26  1   
 50  25  48  1   
 51  25  49  1   
 52  26  50  1   
 53  26  51  1   
@<TRIPOS>SUBSTRUCTURE
  1 ****  17 GROUP 4 **** **** 0

# MOE 2024.06 (io_trps.svl 2023.06)
