@<TRIPOS>MOLECULE
NONAME
45 47 1 0 0 
SMALL
USER_CHARGES


@<TRIPOS>ATOM
  1 S       -0.5280     0.4620     0.8610 S.3   1 <1>  -0.0800 
  2 C       -1.4080     1.9640     0.7050 C.2   1 <1>   0.4620 
  3 C       -1.7240    -0.3390    -0.1400 C.2   1 <1>  -0.0450 
  4 N       -2.4660     1.8840    -0.0140 N.2   1 <1>  -0.5650 
  5 N       -0.9410     3.0660     1.3250 N.pl3 1 <1>  -0.8840 
  6 C       -1.5910    -1.7390    -0.4270 C.2   1 <1>   0.7150 
  7 C       -2.6260     0.6090    -0.4850 C.2   1 <1>   0.0770 
  8 O       -0.4820    -2.2330    -0.5150 O.2   1 <1>  -0.5700 
  9 N       -2.6930    -2.5530    -0.6130 N.am  1 <1>  -0.6600 
 10 C       -2.6040    -3.8260    -1.4090 C.3   1 <1>   0.1400 
 11 C       -4.0290    -2.2460    -0.0340 C.3   1 <1>   0.1400 
 12 C       -3.1050    -5.0630    -0.6210 C.3   1 <1>   0.0000 
 13 C       -4.5190    -3.4310     0.7940 C.3   1 <1>  -0.1600 
 14 C       -4.5040    -4.7000    -0.0570 C.3   1 <1>   0.2000 
 15 C       -3.3200    -6.2410    -1.6070 C.3   1 <1>   0.1200 
 16 C       -2.0970    -5.4260     0.5180 C.3   1 <1>  -0.0170 
 17 O       -5.0320    -5.7310     0.7010 O.3   1 <1>  -0.6800 
 18 O       -2.2270    -6.4190    -2.4450 O.3   1 <1>  -0.6800 
 19 C       -0.8830    -6.2430     0.0850 C.ar  1 <1>  -0.1430 
 20 C       -0.9180    -7.6290     0.1570 C.ar  1 <1>  -0.1500 
 21 C        0.2630    -5.6230    -0.3880 C.ar  1 <1>  -0.1500 
 22 C        0.1680    -8.3820    -0.2550 C.ar  1 <1>  -0.1500 
 23 C        1.3490    -6.3730    -0.8000 C.ar  1 <1>  -0.1500 
 24 C        1.3030    -7.7540    -0.7360 C.ar  1 <1>  -0.1500 
 25 H       -0.0750     3.0750     1.8630 H     1 <1>   0.4000 
 26 H       -1.4330     3.9560     1.2280 H     1 <1>   0.4000 
 27 H       -3.4760     0.4220    -1.1200 H     1 <1>   0.1500 
 28 H       -3.2040    -3.7080    -2.2960 H     1 <1>   0.0800 
 29 H       -1.5930    -3.9920    -1.7410 H     1 <1>   0.0800 
 30 H       -3.9840    -1.3800     0.6040 H     1 <1>   0.0800 
 31 H       -4.7220    -2.0430    -0.8340 H     1 <1>   0.0800 
 32 H       -5.5240    -3.2310     1.1210 H     1 <1>   0.0800 
 33 H       -3.8920    -3.5390     1.6600 H     1 <1>   0.0800 
 34 H       -5.1820    -4.5560    -0.8830 H     1 <1>   0.0800 
 35 H       -4.1690    -6.0540    -2.2420 H     1 <1>   0.0800 
 36 H       -3.4940    -7.1610    -1.0750 H     1 <1>   0.0800 
 37 H       -1.7490    -4.5280     0.9970 H     1 <1>   0.0800 
 38 H       -2.5950    -5.9960     1.2790 H     1 <1>   0.0800 
 39 H       -4.5670    -5.8020     1.5560 H     1 <1>   0.4000 
 40 H       -1.4260    -6.6110    -1.9030 H     1 <1>   0.4000 
 41 H       -1.7930    -8.1330     0.5290 H     1 <1>   0.1500 
 42 H        0.3210    -4.5500    -0.4390 H     1 <1>   0.1500 
 43 H        0.1310    -9.4560    -0.2000 H     1 <1>   0.1500 
 44 H        2.2310    -5.8790    -1.1690 H     1 <1>   0.1500 
 45 H        2.1480    -8.3370    -1.0580 H     1 <1>   0.1500 
@<TRIPOS>BOND
  1   1   2  1   
  2   1   3  1   
  3   2   4  2   
  4   2   5  1   
  5   3   6  1   
  6   3   7  2   
  7   4   7  1   
  8   5  25  1   
  9   5  26  1   
 10   6   8  2   
 11   6   9  am  
 12   7  27  1   
 13   9  10  1   
 14   9  11  1   
 15  10  12  1   
 16  10  28  1   
 17  10  29  1   
 18  11  13  1   
 19  11  30  1   
 20  11  31  1   
 21  12  14  1   
 22  12  15  1   
 23  12  16  1   
 24  13  14  1   
 25  13  32  1   
 26  13  33  1   
 27  14  17  1   
 28  14  34  1   
 29  15  18  1   
 30  15  35  1   
 31  15  36  1   
 32  16  19  1   
 33  16  37  1   
 34  16  38  1   
 35  17  39  1   
 36  18  40  1   
 37  19  20  ar  
 38  19  21  ar  
 39  20  22  ar  
 40  20  41  1   
 41  21  23  ar  
 42  21  42  1   
 43  22  24  ar  
 44  22  43  1   
 45  23  24  ar  
 46  23  44  1   
 47  24  45  1   
@<TRIPOS>SUBSTRUCTURE
  1 ****   9 GROUP 4 **** **** 0

# MOE 2024.06 (io_trps.svl 2023.06)
