@<TRIPOS>MOLECULE
NONAME
40 41 1 0 0 
SMALL
USER_CHARGES


@<TRIPOS>ATOM
  1 F        2.9630     1.7300    -3.0680 F     1 <1>  -0.3400 
  2 C        2.9580     2.3720    -1.9040 C.3   1 <1>   1.1640 
  3 F        1.7800     2.9730    -1.8340 F     1 <1>  -0.3400 
  4 F        3.8750     3.3230    -2.0260 F     1 <1>  -0.3400 
  5 C        3.2210     1.4270    -0.7160 C.ar  1 <1>  -0.1440 
  6 C        3.5450     1.9470     0.5450 C.ar  1 <1>   0.0860 
  7 C        3.1470     0.0450    -0.8860 C.ar  1 <1>  -0.1500 
  8 C        3.6380     3.3640     0.8280 C.2   1 <1>   0.5440 
  9 C        3.7950     1.0500     1.5820 C.ar  1 <1>  -0.1500 
 10 C        3.3940    -0.8410     0.1560 C.ar  1 <1>  -0.1440 
 11 O        2.6660     4.0830     0.7290 O.2   1 <1>  -0.5700 
 12 N        4.8280     3.9040     1.1940 N.am  1 <1>  -0.7300 
 13 C        3.7250    -0.3160     1.3980 C.ar  1 <1>  -0.1500 
 14 C        3.3110    -2.3610    -0.0760 C.3   1 <1>   1.1640 
 15 C        5.1100     5.3410     1.2400 C.3   1 <1>   0.4000 
 16 F        2.2650    -2.6990    -0.8200 F     1 <1>  -0.3400 
 17 F        3.2080    -3.0570     1.0490 F     1 <1>  -0.3400 
 18 F        4.3830    -2.8220    -0.7050 F     1 <1>  -0.3400 
 19 C        6.1540     5.6360     0.1710 C.2   1 <1>   0.0060 
 20 C        5.6290     5.6790     2.6340 C.3   1 <1>  -0.2400 
 21 N        7.2910     5.0340     0.0660 N.2   1 <1>  -0.5650 
 22 N        5.9980     6.5510    -0.7970 N.pl3 1 <1>   0.3140 
 23 C        7.8150     5.6410    -1.0060 C.2   1 <1>   0.3660 
 24 N        7.0870     6.5550    -1.5530 N.2   1 <1>  -0.7070 
 25 C        4.8580     7.4540    -1.0770 C.3   1 <1>   0.0960 
 26 C        3.7290     6.7220    -1.8150 C.3   1 <1>  -0.2400 
 27 H        2.8920    -0.3630    -1.8530 H     1 <1>   0.1500 
 28 H        4.0460     1.4390     2.5550 H     1 <1>   0.1500 
 29 H        5.6900     3.3670     1.0670 H     1 <1>   0.3700 
 30 H        3.9290    -0.9660     2.2340 H     1 <1>   0.1500 
 31 H        4.2090     5.9000     1.0560 H     1 <1>   0.0800 
 32 H        6.5250     5.1220     2.8460 H     1 <1>   0.0800 
 33 H        4.8810     5.4510     3.3710 H     1 <1>   0.0800 
 34 H        5.8590     6.7270     2.6900 H     1 <1>   0.0800 
 35 H        8.7920     5.3660    -1.3720 H     1 <1>   0.1500 
 36 H        5.2190     8.2640    -1.6860 H     1 <1>   0.0800 
 37 H        4.4990     7.8620    -0.1510 H     1 <1>   0.0800 
 38 H        4.0990     6.3020    -2.7340 H     1 <1>   0.0800 
 39 H        2.9390     7.4110    -2.0490 H     1 <1>   0.0800 
 40 H        3.3200     5.9350    -1.2070 H     1 <1>   0.0800 
@<TRIPOS>BOND
  1   1   2  1   
  2   2   3  1   
  3   2   4  1   
  4   2   5  1   
  5   5   6  ar  
  6   5   7  ar  
  7   6   8  1   
  8   6   9  ar  
  9   7  10  ar  
 10   7  27  1   
 11   8  11  2   
 12   8  12  am  
 13   9  13  ar  
 14   9  28  1   
 15  10  13  ar  
 16  10  14  1   
 17  12  15  1   
 18  12  29  1   
 19  13  30  1   
 20  14  16  1   
 21  14  17  1   
 22  14  18  1   
 23  15  19  1   
 24  15  20  1   
 25  15  31  1   
 26  19  21  2   
 27  19  22  1   
 28  20  32  1   
 29  20  33  1   
 30  20  34  1   
 31  21  23  1   
 32  22  24  1   
 33  22  25  1   
 34  23  24  2   
 35  23  35  1   
 36  25  26  1   
 37  25  36  1   
 38  25  37  1   
 39  26  38  1   
 40  26  39  1   
 41  26  40  1   
@<TRIPOS>SUBSTRUCTURE
  1 ****   6 GROUP 4 **** **** 0

# MOE 2024.06 (io_trps.svl 2023.06)
