@<TRIPOS>MOLECULE
NONAME
50 53 1 0 0 
SMALL
USER_CHARGES


@<TRIPOS>ATOM
  1 O        2.2230     0.6660     2.0630 O.3   1 <1>  -0.6800 
  2 C        1.8800    -0.0570     0.9230 C.3   1 <1>   0.2000 
  3 C        2.6010    -1.4030     0.9760 C.3   1 <1>  -0.0800 
  4 C        2.5090     0.6220    -0.2960 C.3   1 <1>   0.3430 
  5 C        4.0250    -1.0740     0.4900 C.3   1 <1>   0.3430 
  6 C        1.9090    -2.4470     0.0750 C.3   1 <1>  -0.0160 
  7 N        3.9390     0.2020    -0.2770 N.4   1 <1>  -0.9590 
  8 C        2.6520    -3.7720     0.0860 C.ar  1 <1>   0.1670 
  9 C        4.7830     1.2780     0.3050 C.3   1 <1>   0.5230 
 10 N        3.6410    -3.8980    -0.7430 N.ar  1 <1>  -0.6200 
 11 C        2.2510    -4.7770     0.9810 C.ar  1 <1>  -0.1500 
 12 C        4.9390     2.3750    -0.7390 C.2   1 <1>   0.0060 
 13 C        4.3160    -5.0780    -0.7490 C.ar  1 <1>   0.3100 
 14 C        2.9170    -5.9650     1.0050 C.ar  1 <1>  -0.1500 
 15 N        4.7840     2.1650    -2.0120 N.2   1 <1>  -0.5650 
 16 N        5.2550     3.6580    -0.4310 N.pl3 1 <1>   0.0480 
 17 C        3.9920    -6.1430     0.1200 C.ar  1 <1>   0.0000 
 18 C        5.3810    -5.2490    -1.6480 C.ar  1 <1>  -0.1500 
 19 C        5.0130     3.3700    -2.5660 C.2   1 <1>   0.0770 
 20 C        5.2990     4.2880    -1.6180 C.2   1 <1>  -0.3020 
 21 C        5.4990     4.2890     0.8870 C.3   1 <1>   0.0960 
 22 C        4.7520    -7.3290     0.0620 C.ar  1 <1>  -0.1500 
 23 C        6.1060    -6.4100    -1.6890 C.ar  1 <1>  -0.1500 
 24 C        6.9300     4.0180     1.3610 C.3   1 <1>  -0.2400 
 25 C        5.7870    -7.4600    -0.8230 C.ar  1 <1>  -0.1500 
 26 H        1.7010     0.3680     2.8390 H     1 <1>   0.4000 
 27 H        0.8060    -0.1240     0.8580 H     1 <1>   0.0800 
 28 H        2.6320    -1.7920     1.9780 H     1 <1>   0.0800 
 29 H        2.3950     1.6930    -0.2600 H     1 <1>   0.0800 
 30 H        2.0420     0.2500    -1.1920 H     1 <1>   0.0800 
 31 H        4.4310    -1.8590    -0.1240 H     1 <1>   0.0800 
 32 H        4.6670    -0.9440     1.3450 H     1 <1>   0.0800 
 33 H        1.8540    -2.0980    -0.9420 H     1 <1>   0.0800 
 34 H        0.9000    -2.6080     0.4130 H     1 <1>   0.0800 
 35 H        4.2720     0.1230    -1.2540 H     1 <1>   0.4500 
 36 H        4.3240     1.6670     1.1990 H     1 <1>   0.0800 
 37 H        5.7580     0.8910     0.5490 H     1 <1>   0.0800 
 38 H        1.4200    -4.6040     1.6400 H     1 <1>   0.1500 
 39 H        2.6410    -6.7600     1.6750 H     1 <1>   0.1500 
 40 H        5.6110    -4.4350    -2.3090 H     1 <1>   0.1500 
 41 H        4.9620     3.5200    -3.6330 H     1 <1>   0.1500 
 42 H        5.5290     5.3320    -1.7300 H     1 <1>   0.1500 
 43 H        5.3450     5.3500     0.7930 H     1 <1>   0.0800 
 44 H        4.7890     3.9100     1.6000 H     1 <1>   0.0800 
 45 H        4.5010    -8.1350     0.7290 H     1 <1>   0.1500 
 46 H        6.9210    -6.5300    -2.3830 H     1 <1>   0.1500 
 47 H        7.6380     4.4120     0.6510 H     1 <1>   0.0800 
 48 H        7.1050     2.9650     1.4880 H     1 <1>   0.0800 
 49 H        7.0980     4.5050     2.3050 H     1 <1>   0.0800 
 50 H        6.3660    -8.3680    -0.8650 H     1 <1>   0.1500 
@<TRIPOS>BOND
  1   1   2  1   
  2   1  26  1   
  3   2   3  1   
  4   2   4  1   
  5   2  27  1   
  6   3   5  1   
  7   3   6  1   
  8   3  28  1   
  9   4   7  1   
 10   4  29  1   
 11   4  30  1   
 12   5   7  1   
 13   5  31  1   
 14   5  32  1   
 15   6   8  1   
 16   6  33  1   
 17   6  34  1   
 18   7   9  1   
 19   7  35  1   
 20   8  10  ar  
 21   8  11  ar  
 22   9  12  1   
 23   9  36  1   
 24   9  37  1   
 25  10  13  ar  
 26  11  14  ar  
 27  11  38  1   
 28  12  15  2   
 29  12  16  1   
 30  13  17  ar  
 31  13  18  ar  
 32  14  17  ar  
 33  14  39  1   
 34  15  19  1   
 35  16  20  1   
 36  16  21  1   
 37  17  22  ar  
 38  18  23  ar  
 39  18  40  1   
 40  19  20  2   
 41  19  41  1   
 42  20  42  1   
 43  21  24  1   
 44  21  43  1   
 45  21  44  1   
 46  22  25  ar  
 47  22  45  1   
 48  23  25  ar  
 49  23  46  1   
 50  24  47  1   
 51  24  48  1   
 52  24  49  1   
 53  25  50  1   
@<TRIPOS>SUBSTRUCTURE
  1 ****   5 GROUP 4 **** **** 0

# MOE 2024.06 (io_trps.svl 2023.06)
