@<TRIPOS>MOLECULE
NONAME
49 52 1 0 0 
SMALL
USER_CHARGES


@<TRIPOS>ATOM
  1 S       -0.9230     0.3230     1.0160 S.o2  1 <1>   1.0900 
  2 O       -1.4700     1.6580     1.0370 O.2   1 <1>  -0.6500 
  3 O        0.1990    -0.0580     1.8420 O.2   1 <1>  -0.6500 
  4 C       -2.1960    -0.8800     1.2650 C.3   1 <1>  -0.0550 
  5 C       -0.5700    -0.1890    -0.6590 C.3   1 <1>  -0.0550 
  6 C       -1.7230    -2.0920     0.4660 C.3   1 <1>   0.1760 
  7 C       -1.2090    -1.5710    -0.8920 C.3   1 <1>  -0.1600 
  8 N       -2.8050    -3.0940     0.2920 N.pl3 1 <1>   0.3140 
  9 N       -4.0330    -2.7230    -0.1140 N.2   1 <1>  -0.7070 
 10 C       -2.7210    -4.4400     0.4530 C.2   1 <1>  -0.3320 
 11 C       -4.7040    -3.8280    -0.2120 C.2   1 <1>   0.1080 
 12 C       -3.9330    -4.9440     0.1290 C.2   1 <1>   0.0630 
 13 C       -1.4650    -5.1790     0.8940 C.3   1 <1>  -0.0600 
 14 C       -6.1550    -3.8370    -0.6400 C.3   1 <1>  -0.0590 
 15 N       -4.3010    -6.3110     0.1630 N.am  1 <1>  -0.4930 
 16 C       -4.9870    -7.0500    -0.7520 C.2   1 <1>   0.7150 
 17 O       -5.3540    -6.5560    -1.8020 O.2   1 <1>  -0.5700 
 18 C       -5.2300    -8.4440    -0.4940 C.2   1 <1>  -0.2370 
 19 N       -5.5300    -9.2720    -1.5480 N.pl3 1 <1>   0.0330 
 20 C       -5.2300    -9.2090     0.6440 C.2   1 <1>  -0.1810 
 21 C       -5.6890   -10.5520    -1.0970 C.ar  1 <1>  -0.1520 
 22 C       -5.5020   -10.5440     0.2830 C.ar  1 <1>   0.0000 
 23 C       -5.0170    -8.7920     2.0910 C.3   1 <1>  -0.0590 
 24 C       -5.9870   -11.7290    -1.7950 C.ar  1 <1>  -0.1500 
 25 C       -5.6090   -11.7450     0.9950 C.ar  1 <1>  -0.1500 
 26 C       -6.0920   -12.9060    -1.0910 C.ar  1 <1>  -0.1500 
 27 C       -5.9000   -12.8880     0.2940 C.ar  1 <1>   0.1900 
 28 F       -6.0050   -14.0220     0.9400 F     1 <1>  -0.1900 
 29 H       -3.1210    -0.5130     0.8620 H     1 <1>   0.0800 
 30 H       -2.3200    -1.1150     2.3040 H     1 <1>   0.0800 
 31 H        0.4920    -0.2340    -0.8110 H     1 <1>   0.0800 
 32 H       -0.9830     0.5170    -1.3550 H     1 <1>   0.0800 
 33 H       -0.9070    -2.5490     0.9980 H     1 <1>   0.0800 
 34 H       -0.5010    -2.2570    -1.3220 H     1 <1>   0.0800 
 35 H       -2.0390    -1.4550    -1.5700 H     1 <1>   0.0800 
 36 H       -0.6550    -4.9720     0.2170 H     1 <1>   0.0800 
 37 H       -1.6300    -6.2410     0.9000 H     1 <1>   0.0800 
 38 H       -1.1800    -4.8730     1.8860 H     1 <1>   0.0800 
 39 H       -6.6190    -2.9050    -0.3770 H     1 <1>   0.0800 
 40 H       -6.6820    -4.6390    -0.1580 H     1 <1>   0.0800 
 41 H       -6.2110    -3.9670    -1.7050 H     1 <1>   0.0800 
 42 H       -3.8690    -6.8610     0.8980 H     1 <1>   0.3700 
 43 H       -5.6310    -8.9490    -2.5180 H     1 <1>   0.2700 
 44 H       -5.2040    -7.7430     2.2270 H     1 <1>   0.0800 
 45 H       -4.0120    -9.0210     2.3950 H     1 <1>   0.0800 
 46 H       -5.6990    -9.3290     2.7260 H     1 <1>   0.0800 
 47 H       -6.1280   -11.7030    -2.8610 H     1 <1>   0.1500 
 48 H       -5.4670   -11.7660     2.0590 H     1 <1>   0.1500 
 49 H       -6.3180   -13.8370    -1.5780 H     1 <1>   0.1500 
@<TRIPOS>BOND
  1   1   2  2   
  2   1   3  2   
  3   1   4  1   
  4   1   5  1   
  5   4   6  1   
  6   4  29  1   
  7   4  30  1   
  8   5   7  1   
  9   5  31  1   
 10   5  32  1   
 11   6   7  1   
 12   6   8  1   
 13   6  33  1   
 14   7  34  1   
 15   7  35  1   
 16   8   9  1   
 17   8  10  1   
 18   9  11  2   
 19  10  12  2   
 20  10  13  1   
 21  11  12  1   
 22  11  14  1   
 23  12  15  1   
 24  13  36  1   
 25  13  37  1   
 26  13  38  1   
 27  14  39  1   
 28  14  40  1   
 29  14  41  1   
 30  15  16  am  
 31  15  42  1   
 32  16  17  2   
 33  16  18  1   
 34  18  19  1   
 35  18  20  2   
 36  19  21  1   
 37  19  43  1   
 38  20  22  1   
 39  20  23  1   
 40  21  22  ar  
 41  21  24  ar  
 42  22  25  ar  
 43  23  44  1   
 44  23  45  1   
 45  23  46  1   
 46  24  26  ar  
 47  24  47  1   
 48  25  27  ar  
 49  25  48  1   
 50  26  27  ar  
 51  26  49  1   
 52  27  28  1   
@<TRIPOS>SUBSTRUCTURE
  1 ****  15 GROUP 4 **** **** 0

# MOE 2024.06 (io_trps.svl 2023.06)
