@<TRIPOS>MOLECULE
NONAME
52 55 1 0 0 
SMALL
USER_CHARGES


@<TRIPOS>ATOM
  1 F       -6.2580    -0.9110    -2.5270 F     1 <1>  -0.1900 
  2 C       -5.5980     0.1190    -2.0750 C.ar  1 <1>   0.1900 
  3 C       -5.8860     0.6250    -0.8380 C.ar  1 <1>  -0.1500 
  4 C       -4.6100     0.6610    -2.8950 C.ar  1 <1>  -0.1500 
  5 C       -5.1740     1.7460    -0.3560 C.ar  1 <1>   0.0000 
  6 C       -3.9030     1.7380    -2.4340 C.ar  1 <1>  -0.1500 
  7 C       -4.1550     2.3000    -1.1680 C.ar  1 <1>   0.3100 
  8 C       -5.4180     2.3530     0.8990 C.ar  1 <1>   0.0860 
  9 N       -3.3960     3.3530    -0.7850 N.ar  1 <1>  -0.6200 
 10 C       -6.4750     1.9100     1.7750 C.2   1 <1>   0.5440 
 11 C       -4.6070     3.3990     1.2520 C.ar  1 <1>  -0.1500 
 12 C       -3.6160     3.8630     0.3850 C.ar  1 <1>   0.1660 
 13 O       -6.1950     1.2330     2.7460 O.2   1 <1>  -0.5700 
 14 N       -7.7920     2.2610     1.5600 N.am  1 <1>  -0.6600 
 15 C       -2.7390     5.0250     0.8020 C.3   1 <1>  -0.0970 
 16 C       -8.8760     1.7050     2.4200 C.3   1 <1>   0.1400 
 17 C       -8.2480     3.1840     0.4860 C.3   1 <1>   0.1400 
 18 C       -9.3620     0.3450     1.8960 C.3   1 <1>   0.1400 
 19 C       -8.9820     2.4470    -0.6420 C.3   1 <1>  -0.1600 
 20 N       -9.7050     0.3190     0.4330 N.am  1 <1>  -0.6600 
 21 C      -10.1710     1.5910    -0.1910 C.3   1 <1>   0.1400 
 22 C       -9.5840    -0.8220    -0.3350 C.2   1 <1>   0.5690 
 23 O       -9.7280    -0.7690    -1.5390 O.2   1 <1>  -0.5700 
 24 C       -9.3240    -2.2010     0.3270 C.3   1 <1>   0.2610 
 25 O       -8.0000    -2.3180     0.7860 O.3   1 <1>  -0.5600 
 26 C       -9.5140    -3.4170    -0.5820 C.3   1 <1>  -0.1600 
 27 C       -7.2090    -3.0720    -0.0820 C.3   1 <1>   0.1200 
 28 C       -8.1310    -3.6160    -1.1670 C.3   1 <1>  -0.1600 
 29 H       -6.6570     0.1700    -0.2390 H     1 <1>   0.1500 
 30 H       -4.4260     0.2250    -3.8610 H     1 <1>   0.1500 
 31 H       -3.1280     2.1870    -3.0290 H     1 <1>   0.1500 
 32 H       -4.7380     3.8720     2.2090 H     1 <1>   0.1500 
 33 H       -2.9790     5.3610     1.7940 H     1 <1>   0.0800 
 34 H       -2.8730     5.8400     0.1150 H     1 <1>   0.0800 
 35 H       -1.7080     4.7220     0.7800 H     1 <1>   0.0800 
 36 H       -8.5100     1.5780     3.4240 H     1 <1>   0.0800 
 37 H       -9.6980     2.3950     2.4710 H     1 <1>   0.0800 
 38 H       -8.9060     3.9180     0.9200 H     1 <1>   0.0800 
 39 H       -7.4110     3.7170     0.0700 H     1 <1>   0.0800 
 40 H      -10.2260     0.0450     2.4620 H     1 <1>   0.0800 
 41 H       -8.5780    -0.3620     2.0980 H     1 <1>   0.0800 
 42 H       -8.2970     1.8370    -1.2000 H     1 <1>   0.0800 
 43 H       -9.3530     3.1910    -1.3230 H     1 <1>   0.0800 
 44 H      -10.7730     1.3590    -1.0540 H     1 <1>   0.0800 
 45 H      -10.7980     2.1350     0.4930 H     1 <1>   0.0800 
 46 H       -9.9720    -2.2880     1.1790 H     1 <1>   0.0800 
 47 H       -9.7870    -4.2640     0.0210 H     1 <1>   0.0800 
 48 H      -10.2680    -3.2630    -1.3340 H     1 <1>   0.0800 
 49 H       -6.4370    -2.4420    -0.4860 H     1 <1>   0.0800 
 50 H       -6.7670    -3.8690     0.4900 H     1 <1>   0.0800 
 51 H       -8.0160    -3.0230    -2.0580 H     1 <1>   0.0800 
 52 H       -7.9200    -4.6450    -1.3980 H     1 <1>   0.0800 
@<TRIPOS>BOND
  1   1   2  1   
  2   2   3  ar  
  3   2   4  ar  
  4   3   5  ar  
  5   3  29  1   
  6   4   6  ar  
  7   4  30  1   
  8   5   7  ar  
  9   5   8  ar  
 10   6   7  ar  
 11   6  31  1   
 12   7   9  ar  
 13   8  10  1   
 14   8  11  ar  
 15   9  12  ar  
 16  10  13  2   
 17  10  14  am  
 18  11  12  ar  
 19  11  32  1   
 20  12  15  1   
 21  14  16  1   
 22  14  17  1   
 23  15  33  1   
 24  15  34  1   
 25  15  35  1   
 26  16  18  1   
 27  16  36  1   
 28  16  37  1   
 29  17  19  1   
 30  17  38  1   
 31  17  39  1   
 32  18  20  1   
 33  18  40  1   
 34  18  41  1   
 35  19  21  1   
 36  19  42  1   
 37  19  43  1   
 38  20  21  1   
 39  20  22  am  
 40  21  44  1   
 41  21  45  1   
 42  22  23  2   
 43  22  24  1   
 44  24  25  1   
 45  24  26  1   
 46  24  46  1   
 47  25  27  1   
 48  26  28  1   
 49  26  47  1   
 50  26  48  1   
 51  27  28  1   
 52  27  49  1   
 53  27  50  1   
 54  28  51  1   
 55  28  52  1   
@<TRIPOS>SUBSTRUCTURE
  1 ****   3 GROUP 4 **** **** 0

# MOE 2024.06 (io_trps.svl 2023.06)
