@<TRIPOS>MOLECULE
NONAME
37 37 1 0 0 
SMALL
USER_CHARGES


@<TRIPOS>ATOM
  1 S        0.6450     0.8820    -0.1330 S.3   1 <1>  -0.4600 
  2 C        0.9730     2.6300    -0.4750 C.3   1 <1>   0.0700 
  3 C       -0.7240     0.4940    -1.2510 C.3   1 <1>   0.0700 
  4 C        2.1850     3.0450     0.3570 C.3   1 <1>  -0.0990 
  5 C       -1.0920    -0.9710    -1.0350 C.3   1 <1>  -0.2400 
  6 C        2.4560     4.5210     0.1930 C.2   1 <1>   0.5690 
  7 O        2.7140     4.9570    -0.9030 O.2   1 <1>  -0.5700 
  8 N        2.4080     5.3230     1.2870 N.am  1 <1>  -0.7300 
  9 C        2.6140     6.7900     1.2420 C.3   1 <1>   0.1400 
 10 C        4.1080     7.1150     1.2310 C.3   1 <1>   0.0200 
 11 C        4.3160     8.5430     0.7680 C.2   1 <1>   0.0070 
 12 N        4.4370     9.5470     1.5660 N.2   1 <1>  -0.3380 
 13 N        4.3840     8.9200    -0.5150 N.pl3 1 <1>   0.0480 
 14 N        4.5920    10.6330     0.8070 N.2   1 <1>  -0.3380 
 15 C        4.5590    10.2390    -0.4180 C.2   1 <1>   0.0360 
 16 C        4.2850     8.1120    -1.7510 C.3   1 <1>   0.0960 
 17 C        5.6700     7.6430    -2.2030 C.3   1 <1>  -0.2400 
 18 H        0.0930     3.1840    -0.2020 H     1 <1>   0.0800 
 19 H        1.1660     2.7290    -1.5290 H     1 <1>   0.0800 
 20 H       -0.3830     0.6740    -2.2560 H     1 <1>   0.0800 
 21 H       -1.5410     1.1500    -1.0070 H     1 <1>   0.0800 
 22 H        3.0490     2.4970     0.0290 H     1 <1>   0.0800 
 23 H        2.0060     2.8160     1.3910 H     1 <1>   0.0800 
 24 H       -0.2470    -1.6000    -1.2520 H     1 <1>   0.0800 
 25 H       -1.9040    -1.2450    -1.6830 H     1 <1>   0.0800 
 26 H       -1.3940    -1.1290    -0.0150 H     1 <1>   0.0800 
 27 H        2.2170     4.9230     2.2080 H     1 <1>   0.3700 
 28 H        2.1400     7.2600     2.0870 H     1 <1>   0.0800 
 29 H        2.1540     7.1760     0.3470 H     1 <1>   0.0800 
 30 H        4.6320     6.4490     0.5710 H     1 <1>   0.0800 
 31 H        4.5090     7.0000     2.2220 H     1 <1>   0.0800 
 32 H        4.6580    10.8840    -1.2720 H     1 <1>   0.1500 
 33 H        3.8310     8.7110    -2.5200 H     1 <1>   0.0800 
 34 H        3.6500     7.2630    -1.5700 H     1 <1>   0.0800 
 35 H        6.3060     8.4860    -2.4090 H     1 <1>   0.0800 
 36 H        5.5790     7.0560    -3.0990 H     1 <1>   0.0800 
 37 H        6.1250     7.0300    -1.4440 H     1 <1>   0.0800 
@<TRIPOS>BOND
  1   1   2  1   
  2   1   3  1   
  3   2   4  1   
  4   2  18  1   
  5   2  19  1   
  6   3   5  1   
  7   3  20  1   
  8   3  21  1   
  9   4   6  1   
 10   4  22  1   
 11   4  23  1   
 12   5  24  1   
 13   5  25  1   
 14   5  26  1   
 15   6   7  2   
 16   6   8  am  
 17   8   9  1   
 18   8  27  1   
 19   9  10  1   
 20   9  28  1   
 21   9  29  1   
 22  10  11  1   
 23  10  30  1   
 24  10  31  1   
 25  11  12  2   
 26  11  13  1   
 27  12  14  1   
 28  13  15  1   
 29  13  16  1   
 30  14  15  2   
 31  15  32  1   
 32  16  17  1   
 33  16  33  1   
 34  16  34  1   
 35  17  35  1   
 36  17  36  1   
 37  17  37  1   
@<TRIPOS>SUBSTRUCTURE
  1 ****   7 GROUP 4 **** **** 0

# MOE 2024.06 (io_trps.svl 2023.06)
