@<TRIPOS>MOLECULE
NONAME
41 43 1 0 0 
SMALL
USER_CHARGES


@<TRIPOS>ATOM
  1 S       -0.6690     0.4940     0.5570 S.o2  1 <1>   1.0900 
  2 O        0.7120     0.1030     0.3940 O.2   1 <1>  -0.6500 
  3 O       -1.0550     1.6110     1.3840 O.2   1 <1>  -0.6500 
  4 C       -1.5840    -0.9570     0.9940 C.3   1 <1>  -0.0550 
  5 C       -1.3940     0.6350    -1.0710 C.3   1 <1>  -0.0550 
  6 C       -1.7220    -1.7190    -0.3210 C.3   1 <1>   0.1760 
  7 C       -2.1020    -0.6900    -1.4080 C.3   1 <1>  -0.1600 
  8 N       -2.7270    -2.8060    -0.2110 N.pl3 1 <1>   0.3140 
  9 N       -3.9710    -2.5540     0.2340 N.2   1 <1>  -0.7070 
 10 C       -2.5630    -4.1220    -0.5050 C.2   1 <1>  -0.3320 
 11 C       -4.5700    -3.7030     0.2310 C.2   1 <1>   0.1080 
 12 C       -3.7360    -4.7300    -0.2230 C.2   1 <1>   0.0630 
 13 C       -1.2700    -4.7320    -1.0330 C.3   1 <1>  -0.0600 
 14 C       -6.0120    -3.8410     0.6670 C.3   1 <1>  -0.0590 
 15 N       -4.0170    -6.1090    -0.3960 N.am  1 <1>  -0.4930 
 16 C       -4.6200    -6.9820     0.4720 C.2   1 <1>   0.5440 
 17 O       -5.0560    -6.5870     1.5350 O.2   1 <1>  -0.5700 
 18 C       -4.7490    -8.3790     0.1230 C.ar  1 <1>   0.0860 
 19 C       -3.7140    -9.0650    -0.5190 C.ar  1 <1>   0.1600 
 20 C       -5.9030    -9.0950     0.4160 C.ar  1 <1>  -0.1500 
 21 N       -3.7360   -10.3330    -0.9070 N.ar  1 <1>  -0.6200 
 22 C       -5.9290   -10.4120     0.0250 C.ar  1 <1>   0.1900 
 23 C       -4.8540   -10.9920    -0.6250 C.ar  1 <1>   0.1600 
 24 F       -6.9940   -11.1280     0.2710 F     1 <1>  -0.1900 
 25 H       -2.5540    -0.6750     1.3580 H     1 <1>   0.0800 
 26 H       -1.0720    -1.5380     1.7360 H     1 <1>   0.0800 
 27 H       -0.6290     0.8480    -1.7930 H     1 <1>   0.0800 
 28 H       -2.1090     1.4370    -1.0880 H     1 <1>   0.0800 
 29 H       -0.7670    -2.1480    -0.5650 H     1 <1>   0.0800 
 30 H       -1.8190    -1.0420    -2.3840 H     1 <1>   0.0800 
 31 H       -3.1660    -0.5230    -1.3920 H     1 <1>   0.0800 
 32 H       -1.0050    -4.2850    -1.9740 H     1 <1>   0.0800 
 33 H       -1.3800    -5.7910    -1.1770 H     1 <1>   0.0800 
 34 H       -0.4710    -4.5720    -0.3300 H     1 <1>   0.0800 
 35 H       -6.5380    -2.9220     0.4870 H     1 <1>   0.0800 
 36 H       -6.0470    -4.0630     1.7180 H     1 <1>   0.0800 
 37 H       -6.4930    -4.6310     0.1240 H     1 <1>   0.0800 
 38 H       -3.7000    -6.4800    -1.2890 H     1 <1>   0.3700 
 39 H       -2.8020    -8.5290    -0.7210 H     1 <1>   0.1500 
 40 H       -6.7350    -8.6410     0.9260 H     1 <1>   0.1500 
 41 H       -4.9180   -12.0260    -0.9160 H     1 <1>   0.1500 
@<TRIPOS>BOND
  1   1   2  2   
  2   1   3  2   
  3   1   4  1   
  4   1   5  1   
  5   4   6  1   
  6   4  25  1   
  7   4  26  1   
  8   5   7  1   
  9   5  27  1   
 10   5  28  1   
 11   6   7  1   
 12   6   8  1   
 13   6  29  1   
 14   7  30  1   
 15   7  31  1   
 16   8   9  1   
 17   8  10  1   
 18   9  11  2   
 19  10  12  2   
 20  10  13  1   
 21  11  12  1   
 22  11  14  1   
 23  12  15  1   
 24  13  32  1   
 25  13  33  1   
 26  13  34  1   
 27  14  35  1   
 28  14  36  1   
 29  14  37  1   
 30  15  16  am  
 31  15  38  1   
 32  16  17  2   
 33  16  18  1   
 34  18  19  ar  
 35  18  20  ar  
 36  19  21  ar  
 37  19  39  1   
 38  20  22  ar  
 39  20  40  1   
 40  21  23  ar  
 41  22  23  ar  
 42  22  24  1   
 43  23  41  1   
@<TRIPOS>SUBSTRUCTURE
  1 ****  12 GROUP 4 **** **** 0

# MOE 2024.06 (io_trps.svl 2023.06)
