@<TRIPOS>MOLECULE
NONAME
62 65 1 0 0 
SMALL
USER_CHARGES


@<TRIPOS>ATOM
  1 O       -0.1870    -3.2540     3.5900 O.3   1 <1>  -0.5320 
  2 C        0.1310    -3.1830     2.2890 C.ar  1 <1>   0.0830 
  3 C        1.3140    -3.7310     1.8200 C.ar  1 <1>  -0.1500 
  4 C       -0.7430    -2.5500     1.4250 C.ar  1 <1>  -0.1500 
  5 C        1.6240    -3.6490     0.4680 C.ar  1 <1>  -0.1430 
  6 C       -0.4340    -2.4610     0.0800 C.ar  1 <1>  -0.1500 
  7 C        0.7460    -3.0070    -0.3960 C.ar  1 <1>  -0.1500 
  8 C        2.9020    -4.2620    -0.0750 C.3   1 <1>   0.4860 
  9 N        2.8260    -5.7460     0.0200 N.4   1 <1>  -0.9590 
 10 C        4.0540    -6.4780    -0.4320 C.3   1 <1>   0.4230 
 11 C        1.6090    -6.3020    -0.6380 C.3   1 <1>   0.3430 
 12 C        3.9970    -7.9570     0.0330 C.3   1 <1>   0.0000 
 13 C        5.3930    -5.8430    -0.0070 C.3   1 <1>   0.1100 
 14 C        1.4460    -7.7800    -0.2730 C.3   1 <1>  -0.1600 
 15 C        5.2270    -8.6760    -0.5770 C.3   1 <1>  -0.1600 
 16 C        2.7160    -8.6060    -0.5490 C.3   1 <1>  -0.1600 
 17 C        4.0580    -8.1330     1.5840 C.3   1 <1>   0.1200 
 18 N        6.5150    -6.5660    -0.6420 N.3   1 <1>  -0.8100 
 19 C        6.5650    -7.9850    -0.2580 C.3   1 <1>   0.1100 
 20 O        3.1990    -7.2790     2.2740 O.3   1 <1>  -0.6800 
 21 C        7.8140    -5.9010    -0.3650 C.3   1 <1>   0.2530 
 22 C        7.8640    -4.4750    -0.9110 C.ar  1 <1>   0.1670 
 23 N        7.6560    -3.4760    -0.0740 N.ar  1 <1>  -0.6200 
 24 C        8.1090    -4.2520    -2.2460 C.ar  1 <1>  -0.1500 
 25 C        7.7170    -2.2610    -0.5980 C.ar  1 <1>   0.4770 
 26 C        8.1330    -2.9490    -2.6800 C.ar  1 <1>   0.1600 
 27 N        7.9340    -1.9400    -1.8630 N.ar  1 <1>  -0.6200 
 28 C        7.5130    -1.1000     0.3630 C.3   1 <1>  -0.0170 
 29 C        8.8330    -0.6360     0.9970 C.3   1 <1>  -0.2400 
 30 H        0.4930    -3.6680     4.1490 H     1 <1>   0.4500 
 31 H        1.9820    -4.2170     2.5080 H     1 <1>   0.1500 
 32 H       -1.6570    -2.1310     1.8090 H     1 <1>   0.1500 
 33 H       -1.1130    -1.9630    -0.5920 H     1 <1>   0.1500 
 34 H        0.9670    -2.9210    -1.4470 H     1 <1>   0.1500 
 35 H        3.7360    -3.8940     0.5000 H     1 <1>   0.0800 
 36 H        3.0400    -3.9650    -1.1020 H     1 <1>   0.0800 
 37 H        2.7400    -6.0040     1.0220 H     1 <1>   0.4500 
 38 H        4.0550    -6.4750    -1.5090 H     1 <1>   0.0800 
 39 H        0.7310    -5.7650    -0.3160 H     1 <1>   0.0800 
 40 H        1.6950    -6.1990    -1.7080 H     1 <1>   0.0800 
 41 H        5.5040    -5.8520     1.0640 H     1 <1>   0.0800 
 42 H        5.4130    -4.8250    -0.3480 H     1 <1>   0.0800 
 43 H        1.1690    -7.8580     0.7630 H     1 <1>   0.0800 
 44 H        0.6290    -8.1880    -0.8420 H     1 <1>   0.0800 
 45 H        5.1370    -8.7150    -1.6490 H     1 <1>   0.0800 
 46 H        5.2700    -9.6940    -0.2300 H     1 <1>   0.0800 
 47 H        2.8180    -8.6990    -1.6170 H     1 <1>   0.0800 
 48 H        2.5900    -9.6020    -0.1570 H     1 <1>   0.0800 
 49 H        5.0470    -7.9430     1.9610 H     1 <1>   0.0800 
 50 H        3.7960    -9.1450     1.8450 H     1 <1>   0.0800 
 51 H        7.3480    -8.4740    -0.8140 H     1 <1>   0.0800 
 52 H        6.8040    -8.0750     0.7880 H     1 <1>   0.0800 
 53 H        3.1560    -7.5460     3.2200 H     1 <1>   0.4000 
 54 H        7.9990    -5.8790     0.6950 H     1 <1>   0.0800 
 55 H        8.6060    -6.4650    -0.8260 H     1 <1>   0.0800 
 56 H        8.2720    -5.0660    -2.9260 H     1 <1>   0.1500 
 57 H        8.3210    -2.7290    -3.7170 H     1 <1>   0.1500 
 58 H        7.0650    -0.2800    -0.1690 H     1 <1>   0.0800 
 59 H        6.8310    -1.4010     1.1370 H     1 <1>   0.0800 
 60 H        9.5160    -0.3170     0.2300 H     1 <1>   0.0800 
 61 H        9.2830    -1.4440     1.5460 H     1 <1>   0.0800 
 62 H        8.6550     0.1850     1.6680 H     1 <1>   0.0800 
@<TRIPOS>BOND
  1   1   2  1   
  2   1  30  1   
  3   2   3  ar  
  4   2   4  ar  
  5   3   5  ar  
  6   3  31  1   
  7   4   6  ar  
  8   4  32  1   
  9   5   7  ar  
 10   5   8  1   
 11   6   7  ar  
 12   6  33  1   
 13   7  34  1   
 14   8   9  1   
 15   8  35  1   
 16   8  36  1   
 17   9  10  1   
 18   9  11  1   
 19   9  37  1   
 20  10  12  1   
 21  10  13  1   
 22  10  38  1   
 23  11  14  1   
 24  11  39  1   
 25  11  40  1   
 26  12  15  1   
 27  12  16  1   
 28  12  17  1   
 29  13  18  1   
 30  13  41  1   
 31  13  42  1   
 32  14  16  1   
 33  14  43  1   
 34  14  44  1   
 35  15  19  1   
 36  15  45  1   
 37  15  46  1   
 38  16  47  1   
 39  16  48  1   
 40  17  20  1   
 41  17  49  1   
 42  17  50  1   
 43  18  19  1   
 44  18  21  1   
 45  19  51  1   
 46  19  52  1   
 47  20  53  1   
 48  21  22  1   
 49  21  54  1   
 50  21  55  1   
 51  22  23  ar  
 52  22  24  ar  
 53  23  25  ar  
 54  24  26  ar  
 55  24  56  1   
 56  25  27  ar  
 57  25  28  1   
 58  26  27  ar  
 59  26  57  1   
 60  28  29  1   
 61  28  58  1   
 62  28  59  1   
 63  29  60  1   
 64  29  61  1   
 65  29  62  1   
@<TRIPOS>SUBSTRUCTURE
  1 ****  13 GROUP 4 **** **** 0

# MOE 2024.06 (io_trps.svl 2023.06)
