@<TRIPOS>MOLECULE
NONAME
54 57 1 0 0 
SMALL
USER_CHARGES


@<TRIPOS>ATOM
  1 O       -1.9530     3.5570    -1.4410 O.co2 1 <1>  -0.9000 
  2 C       -0.7370     3.3420    -1.4840 C.2   1 <1>   0.9060 
  3 O       -0.0570     3.7570    -2.4290 O.co2 1 <1>  -0.9000 
  4 C       -0.0170     2.7770    -0.2580 C.3   1 <1>  -0.1060 
  5 C       -0.8840     2.6810     1.0310 C.3   1 <1>   0.2000 
  6 C        1.0960     3.7900     0.0160 C.3   1 <1>   0.3430 
  7 C        0.5640     1.3710    -0.5690 C.3   1 <1>  -0.0650 
  8 O       -2.1350     2.2020     0.7220 O.3   1 <1>  -0.6800 
  9 C       -1.0450     3.9970     1.8100 C.3   1 <1>  -0.1600 
 10 N        0.5810     5.1650     0.3640 N.4   1 <1>  -0.9590 
 11 C        1.7780     1.3680    -1.5110 C.3   1 <1>  -0.1950 
 12 C       -0.8080     5.2070     0.9200 C.3   1 <1>   0.3430 
 13 C        0.6370     6.0330    -0.8480 C.3   1 <1>   0.4860 
 14 C        2.7110     0.2010    -1.5260 C.3   1 <1>  -0.2000 
 15 C        3.1740     1.5270    -0.9950 C.3   1 <1>  -0.2000 
 16 C        0.6060     7.4920    -0.4200 C.ar  1 <1>  -0.1440 
 17 C        1.6040     8.0230     0.4040 C.ar  1 <1>   0.0000 
 18 C       -0.4330     8.2950    -0.8630 C.ar  1 <1>  -0.1500 
 19 C        2.6850     7.2050     0.9050 C.ar  1 <1>   0.0000 
 20 C        1.5260     9.3660     0.7570 C.ar  1 <1>  -0.1500 
 21 C       -0.4950     9.6270    -0.4980 C.ar  1 <1>  -0.1500 
 22 C        2.7330     6.8520     2.2500 C.ar  1 <1>  -0.1500 
 23 C        3.6700     6.7100     0.0570 C.ar  1 <1>  -0.1500 
 24 C        0.4880    10.1630     0.3130 C.ar  1 <1>  -0.1500 
 25 C        3.7170     6.0050     2.7280 C.ar  1 <1>  -0.1500 
 26 C        4.6550     5.8620     0.5300 C.ar  1 <1>  -0.1500 
 27 C        4.6760     5.5040     1.8670 C.ar  1 <1>  -0.1500 
 28 H       -0.4570     1.9640     1.7110 H     1 <1>   0.0800 
 29 H        1.7330     3.8510    -0.8530 H     1 <1>   0.0800 
 30 H        1.6930     3.4210     0.8320 H     1 <1>   0.0800 
 31 H        0.8560     0.8850     0.3450 H     1 <1>   0.0800 
 32 H       -0.2140     0.7690    -1.0080 H     1 <1>   0.0800 
 33 H       -2.4080     2.6440    -0.1400 H     1 <1>   0.4000 
 34 H       -2.0260     4.0520     2.2470 H     1 <1>   0.0800 
 35 H       -0.3330     4.0240     2.6150 H     1 <1>   0.0800 
 36 H        1.2380     5.5920     1.0290 H     1 <1>   0.4500 
 37 H        1.5490     1.7910    -2.4770 H     1 <1>   0.1000 
 38 H       -0.9560     6.1190     1.4740 H     1 <1>   0.0800 
 39 H       -1.5260     5.1860     0.1150 H     1 <1>   0.0800 
 40 H        1.5400     5.8380    -1.4020 H     1 <1>   0.0800 
 41 H       -0.1980     5.8190    -1.4990 H     1 <1>   0.0800 
 42 H        2.5480    -0.6080    -0.8350 H     1 <1>   0.1000 
 43 H        3.0860    -0.1400    -2.4750 H     1 <1>   0.1000 
 44 H        3.8770     2.0960    -1.5790 H     1 <1>   0.1000 
 45 H        3.3560     1.6040     0.0630 H     1 <1>   0.1000 
 46 H       -1.2030     7.8890    -1.5010 H     1 <1>   0.1500 
 47 H        2.2900     9.7900     1.3870 H     1 <1>   0.1500 
 48 H       -1.3040    10.2470    -0.8460 H     1 <1>   0.1500 
 49 H        1.9950     7.2460     2.9280 H     1 <1>   0.1500 
 50 H        3.6660     6.9920    -0.9820 H     1 <1>   0.1500 
 51 H        0.4450    11.2010     0.5960 H     1 <1>   0.1500 
 52 H        3.7430     5.7400     3.7720 H     1 <1>   0.1500 
 53 H        5.4100     5.4840    -0.1390 H     1 <1>   0.1500 
 54 H        5.4450     4.8470     2.2370 H     1 <1>   0.1500 
@<TRIPOS>BOND
  1   1   2  ar  
  2   2   3  ar  
  3   2   4  1   
  4   4   5  1   
  5   4   6  1   
  6   4   7  1   
  7   5   8  1   
  8   5   9  1   
  9   5  28  1   
 10   6  10  1   
 11   6  29  1   
 12   6  30  1   
 13   7  11  1   
 14   7  31  1   
 15   7  32  1   
 16   8  33  1   
 17   9  12  1   
 18   9  34  1   
 19   9  35  1   
 20  10  12  1   
 21  10  13  1   
 22  10  36  1   
 23  11  14  1   
 24  11  15  1   
 25  11  37  1   
 26  12  38  1   
 27  12  39  1   
 28  13  16  1   
 29  13  40  1   
 30  13  41  1   
 31  14  15  1   
 32  14  42  1   
 33  14  43  1   
 34  15  44  1   
 35  15  45  1   
 36  16  17  ar  
 37  16  18  ar  
 38  17  19  1   
 39  17  20  ar  
 40  18  21  ar  
 41  18  46  1   
 42  19  22  ar  
 43  19  23  ar  
 44  20  24  ar  
 45  20  47  1   
 46  21  24  ar  
 47  21  48  1   
 48  22  25  ar  
 49  22  49  1   
 50  23  26  ar  
 51  23  50  1   
 52  24  51  1   
 53  25  27  ar  
 54  25  52  1   
 55  26  27  ar  
 56  26  53  1   
 57  27  54  1   
@<TRIPOS>SUBSTRUCTURE
  1 ****  10 GROUP 4 **** **** 0

# MOE 2024.06 (io_trps.svl 2023.06)
