@<TRIPOS>MOLECULE
NONAME
47 49 1 0 0 
SMALL
USER_CHARGES


@<TRIPOS>ATOM
  1 S       -0.2640    -0.5250    -1.0520 S.o2  1 <1>   1.4550 
  2 O       -1.0440    -1.7340    -1.2250 O.2   1 <1>  -0.6500 
  3 O       -0.1990     0.3870    -2.1720 O.2   1 <1>  -0.6500 
  4 N       -0.8950     0.2780     0.3100 N.am  1 <1>  -0.8490 
  5 C        1.3520    -1.0920    -0.5330 C.2   1 <1>  -0.0030 
  6 C       -2.2490    -0.1100     0.7600 C.3   1 <1>   0.1960 
  7 C       -0.6700     1.7280     0.3800 C.3   1 <1>   0.1960 
  8 C        2.4310    -0.1660    -0.5440 C.2   1 <1>   0.6160 
  9 C        1.5750    -2.3620    -0.1210 C.2   1 <1>  -0.0410 
 10 C       -3.4000     0.6230     0.0280 C.3   1 <1>   0.0000 
 11 C       -1.7440     2.5240    -0.3730 C.3   1 <1>  -0.1600 
 12 O        2.2840     1.0090    -0.8220 O.2   1 <1>  -0.5700 
 13 N        3.7030    -0.6070    -0.2010 N.am  1 <1>  -0.4200 
 14 N        2.8350    -2.7780     0.2710 N.am  1 <1>  -0.4690 
 15 C       -4.7540     0.2030     0.6370 C.3   1 <1>   0.2000 
 16 C       -3.1580     2.1550     0.0970 C.3   1 <1>  -0.1600 
 17 C       -3.6020     0.1720    -1.4310 C.3   1 <1>  -0.1600 
 18 C        3.9120    -1.9030     0.2350 C.2   1 <1>   0.6900 
 19 C        4.8570     0.3400    -0.2600 C.3   1 <1>   0.0600 
 20 C        3.0480    -4.1780     0.7240 C.3   1 <1>   0.0600 
 21 O       -5.0590     0.8750     1.8060 O.3   1 <1>  -0.6800 
 22 C       -5.8150     0.4800    -0.4270 C.3   1 <1>  -0.1600 
 23 C       -5.0680     0.4690    -1.7660 C.3   1 <1>  -0.1600 
 24 O        5.0160    -2.2760     0.5860 O.2   1 <1>  -0.5700 
 25 H       -2.3790    -1.1760     0.6830 H     1 <1>   0.0800 
 26 H       -2.3250     0.1300     1.8070 H     1 <1>   0.0800 
 27 H       -0.6860     2.0240     1.4150 H     1 <1>   0.0800 
 28 H        0.2970     1.9850    -0.0100 H     1 <1>   0.0800 
 29 H        0.7800    -3.0920    -0.0890 H     1 <1>   0.1500 
 30 H       -1.5770     3.5730    -0.2020 H     1 <1>   0.0800 
 31 H       -1.6400     2.3630    -1.4300 H     1 <1>   0.0800 
 32 H       -4.7430    -0.8520     0.8570 H     1 <1>   0.0800 
 33 H       -3.8830     2.6870    -0.4920 H     1 <1>   0.0800 
 34 H       -3.2510     2.4910     1.1140 H     1 <1>   0.0800 
 35 H       -2.9340     0.6470    -2.1270 H     1 <1>   0.0800 
 36 H       -3.4560    -0.8920    -1.5010 H     1 <1>   0.0800 
 37 H        4.7310     1.0340    -1.0730 H     1 <1>   0.0800 
 38 H        5.7790    -0.1930    -0.4150 H     1 <1>   0.0800 
 39 H        4.9180     0.8870     0.6640 H     1 <1>   0.0800 
 40 H        2.1250    -4.7310     0.7030 H     1 <1>   0.0800 
 41 H        3.4350    -4.1760     1.7280 H     1 <1>   0.0800 
 42 H        3.7620    -4.6600     0.0780 H     1 <1>   0.0800 
 43 H       -5.1730     1.8240     1.6140 H     1 <1>   0.4000 
 44 H       -6.5720    -0.2850    -0.4040 H     1 <1>   0.0800 
 45 H       -6.2730     1.4420    -0.2780 H     1 <1>   0.0800 
 46 H       -5.4660    -0.2740    -2.4360 H     1 <1>   0.0800 
 47 H       -5.1480     1.4350    -2.2360 H     1 <1>   0.0800 
@<TRIPOS>BOND
  1   1   2  2   
  2   1   3  2   
  3   1   4  am  
  4   1   5  1   
  5   4   6  1   
  6   4   7  1   
  7   5   8  1   
  8   5   9  2   
  9   6  10  1   
 10   6  25  1   
 11   6  26  1   
 12   7  11  1   
 13   7  27  1   
 14   7  28  1   
 15   8  12  2   
 16   8  13  am  
 17   9  14  1   
 18   9  29  1   
 19  10  15  1   
 20  10  16  1   
 21  10  17  1   
 22  11  16  1   
 23  11  30  1   
 24  11  31  1   
 25  13  18  am  
 26  13  19  1   
 27  14  18  am  
 28  14  20  1   
 29  15  21  1   
 30  15  22  1   
 31  15  32  1   
 32  16  33  1   
 33  16  34  1   
 34  17  23  1   
 35  17  35  1   
 36  17  36  1   
 37  18  24  2   
 38  19  37  1   
 39  19  38  1   
 40  19  39  1   
 41  20  40  1   
 42  20  41  1   
 43  20  42  1   
 44  21  43  1   
 45  22  23  1   
 46  22  44  1   
 47  22  45  1   
 48  23  46  1   
 49  23  47  1   
@<TRIPOS>SUBSTRUCTURE
  1 ****   1 GROUP 4 **** **** 0

# MOE 2024.06 (io_trps.svl 2023.06)
