@<TRIPOS>MOLECULE
NONAME
49 51 1 0 0 
SMALL
USER_CHARGES


@<TRIPOS>ATOM
  1 S        0.1940    -0.1090    -0.2380 S.o2  1 <1>   1.4470 
  2 O        0.1270    -0.9000    -1.4380 O.2   1 <1>  -0.6500 
  3 O        1.3350     0.7300     0.0580 O.2   1 <1>  -0.6500 
  4 N        0.0370    -1.1740     1.0340 N.am  1 <1>  -0.9780 
  5 C       -1.2510     0.9850    -0.1430 C.ar  1 <1>  -0.0090 
  6 C       -1.1650     2.2230    -0.7570 C.ar  1 <1>  -0.1500 
  7 C       -2.4340     0.6800     0.5220 C.ar  1 <1>  -0.1500 
  8 C       -2.1630     3.1870    -0.6680 C.ar  1 <1>   0.0860 
  9 C       -3.4580     1.6080     0.6130 C.ar  1 <1>  -0.1500 
 10 C       -3.3220     2.8700     0.0400 C.ar  1 <1>   0.0830 
 11 C       -1.9260     4.4760    -1.2760 C.2   1 <1>   0.5440 
 12 O       -4.2650     3.8300     0.1560 O.3   1 <1>  -0.3630 
 13 O       -2.2110     4.6510    -2.4420 O.2   1 <1>  -0.5700 
 14 N       -1.2320     5.4660    -0.6060 N.am  1 <1>  -0.6600 
 15 C       -5.5810     3.5530     0.5850 C.3   1 <1>   0.0400 
 16 C       -0.8760     5.3310     0.8560 C.3   1 <1>   0.2200 
 17 C       -0.7220     6.6580    -1.3620 C.3   1 <1>   0.1400 
 18 C       -1.0350     6.6450     1.6400 C.3   1 <1>   0.1200 
 19 C        0.5570     4.7630     1.0080 C.3   1 <1>   0.3430 
 20 C        0.5710     7.2820    -0.7940 C.3   1 <1>  -0.0800 
 21 O        0.1340     7.4060     1.5750 O.3   1 <1>  -0.5600 
 22 N        1.3560     4.8990    -0.2610 N.4   1 <1>  -0.9590 
 23 C        0.2900     8.1700     0.4270 C.3   1 <1>   0.1200 
 24 C        1.7540     6.3150    -0.5530 C.3   1 <1>   0.3430 
 25 C        2.5210     3.9630    -0.2780 C.3   1 <1>   0.2630 
 26 H       -0.7130    -1.8220     0.8140 H     1 <1>   0.4200 
 27 H       -0.1430    -0.6630     1.8900 H     1 <1>   0.4200 
 28 H       -0.2810     2.4560    -1.3260 H     1 <1>   0.1500 
 29 H       -2.5680    -0.2850     0.9810 H     1 <1>   0.1500 
 30 H       -4.3540     1.3370     1.1410 H     1 <1>   0.1500 
 31 H       -6.1630     4.4510     0.4770 H     1 <1>   0.0800 
 32 H       -5.5610     3.2550     1.6180 H     1 <1>   0.0800 
 33 H       -5.9950     2.7760    -0.0330 H     1 <1>   0.0800 
 34 H       -1.5610     4.6420     1.3160 H     1 <1>   0.0800 
 35 H       -0.5330     6.3690    -2.3830 H     1 <1>   0.0800 
 36 H       -1.5020     7.4000    -1.3910 H     1 <1>   0.0800 
 37 H       -1.1910     6.4170     2.6800 H     1 <1>   0.0800 
 38 H       -1.8790     7.2190     1.2930 H     1 <1>   0.0800 
 39 H        0.4740     3.7190     1.2610 H     1 <1>   0.0800 
 40 H        1.0610     5.2550     1.8240 H     1 <1>   0.0800 
 41 H        0.9060     7.9730    -1.5470 H     1 <1>   0.0800 
 42 H        0.6910     4.6500    -1.0120 H     1 <1>   0.4500 
 43 H       -0.5880     8.7800     0.2880 H     1 <1>   0.0800 
 44 H        1.1250     8.8260     0.6030 H     1 <1>   0.0800 
 45 H        2.3580     6.6940     0.2560 H     1 <1>   0.0800 
 46 H        2.3650     6.3160    -1.4400 H     1 <1>   0.0800 
 47 H        3.2180     4.2180     0.5040 H     1 <1>   0.0800 
 48 H        3.0310     4.0150    -1.2260 H     1 <1>   0.0800 
 49 H        2.1910     2.9470    -0.1250 H     1 <1>   0.0800 
@<TRIPOS>BOND
  1   1   2  2   
  2   1   3  2   
  3   1   4  am  
  4   1   5  1   
  5   4  26  1   
  6   4  27  1   
  7   5   6  ar  
  8   5   7  ar  
  9   6   8  ar  
 10   6  28  1   
 11   7   9  ar  
 12   7  29  1   
 13   8  10  ar  
 14   8  11  1   
 15   9  10  ar  
 16   9  30  1   
 17  10  12  1   
 18  11  13  2   
 19  11  14  am  
 20  12  15  1   
 21  14  16  1   
 22  14  17  1   
 23  15  31  1   
 24  15  32  1   
 25  15  33  1   
 26  16  18  1   
 27  16  19  1   
 28  16  34  1   
 29  17  20  1   
 30  17  35  1   
 31  17  36  1   
 32  18  21  1   
 33  18  37  1   
 34  18  38  1   
 35  19  22  1   
 36  19  39  1   
 37  19  40  1   
 38  20  23  1   
 39  20  24  1   
 40  20  41  1   
 41  21  23  1   
 42  22  24  1   
 43  22  25  1   
 44  22  42  1   
 45  23  43  1   
 46  23  44  1   
 47  24  45  1   
 48  24  46  1   
 49  25  47  1   
 50  25  48  1   
 51  25  49  1   
@<TRIPOS>SUBSTRUCTURE
  1 ****   8 GROUP 4 **** **** 0

# MOE 2024.06 (io_trps.svl 2023.06)
