@<TRIPOS>MOLECULE
NONAME
48 49 1 0 0 
SMALL
USER_CHARGES


@<TRIPOS>ATOM
  1 O       -0.7850    -0.1180    -0.3340 O.2   1 <1>  -0.5700 
  2 C       -1.5410     0.6170     0.2760 C.2   1 <1>   0.5440 
  3 N       -2.4820     0.0640     1.1170 N.am  1 <1>  -0.6600 
  4 C       -1.4260     2.0440     0.1000 C.ar  1 <1>   0.0860 
  5 C       -2.7250    -1.4110     1.1330 C.3   1 <1>   0.3210 
  6 C       -3.3840     0.8750     1.9980 C.3   1 <1>   0.1400 
  7 C       -0.8410     2.9030     1.0440 C.ar  1 <1>   0.0820 
  8 C       -1.9610     2.6190    -1.0510 C.ar  1 <1>  -0.1500 
  9 C       -4.0310    -1.7440     0.4180 C.2   1 <1>   0.0460 
 10 C       -4.4000     1.7610     1.2460 C.3   1 <1>   0.1200 
 11 O       -0.2650     2.4680     2.1910 O.3   1 <1>  -0.3630 
 12 C       -0.8390     4.2760     0.8510 C.ar  1 <1>  -0.1500 
 13 C       -1.9580     3.9850    -1.2460 C.ar  1 <1>   0.0820 
 14 N       -5.2140    -1.6900     1.0670 N.2   1 <1>  -0.5650 
 15 C       -4.2110    -2.0910    -0.8780 C.2   1 <1>  -0.3320 
 16 O       -4.9280     1.1160     0.1390 O.3   1 <1>  -0.6800 
 17 C        0.6800     1.4170     2.1470 C.3   1 <1>   0.0400 
 18 C       -1.3930     4.8370    -0.2920 C.ar  1 <1>   0.0820 
 19 O       -2.5130     4.4630    -2.3860 O.3   1 <1>  -0.3620 
 20 C       -6.0800    -2.0110     0.1610 C.2   1 <1>   0.0360 
 21 N       -5.5340    -2.2670    -1.0440 N.pl3 1 <1>   0.0330 
 22 C       -3.2060    -2.2490    -2.0070 C.3   1 <1>  -0.0600 
 23 O       -1.4090     6.1770    -0.5230 O.3   1 <1>  -0.3630 
 24 C       -3.8070     5.0020    -2.2460 C.3   1 <1>   0.0400 
 25 C       -0.7170     7.0830     0.3080 C.3   1 <1>   0.0400 
 26 H       -2.7780    -1.7580     2.1490 H     1 <1>   0.0800 
 27 H       -1.9190    -1.9350     0.6550 H     1 <1>   0.0800 
 28 H       -2.7840     1.5000     2.6360 H     1 <1>   0.0800 
 29 H       -3.9350     0.2130     2.6440 H     1 <1>   0.0800 
 30 H       -2.4040     1.9830    -1.7960 H     1 <1>   0.1500 
 31 H       -3.9420     2.6750     0.9100 H     1 <1>   0.0800 
 32 H       -5.2140     2.0140     1.9020 H     1 <1>   0.0800 
 33 H       -0.3930     4.8840     1.6130 H     1 <1>   0.1500 
 34 H       -4.9500     0.1400     0.3130 H     1 <1>   0.4000 
 35 H        1.3650     1.5480     2.9640 H     1 <1>   0.0800 
 36 H        1.2130     1.4540     1.2120 H     1 <1>   0.0800 
 37 H        0.1670     0.4780     2.2520 H     1 <1>   0.0800 
 38 H       -7.1410    -2.0700     0.3310 H     1 <1>   0.1500 
 39 H       -6.0260    -2.5260    -1.9040 H     1 <1>   0.2700 
 40 H       -2.2100    -2.0330    -1.6630 H     1 <1>   0.0800 
 41 H       -3.4380    -1.5660    -2.8050 H     1 <1>   0.0800 
 42 H       -3.2260    -3.2550    -2.3870 H     1 <1>   0.0800 
 43 H       -4.1510     5.3040    -3.2190 H     1 <1>   0.0800 
 44 H       -3.7630     5.8540    -1.5910 H     1 <1>   0.0800 
 45 H       -4.4560     4.2470    -1.8400 H     1 <1>   0.0800 
 46 H       -0.8220     8.0670    -0.1120 H     1 <1>   0.0800 
 47 H        0.3220     6.8070     0.3360 H     1 <1>   0.0800 
 48 H       -1.1520     7.0570     1.2910 H     1 <1>   0.0800 
@<TRIPOS>BOND
  1   1   2  2   
  2   2   3  am  
  3   2   4  1   
  4   3   5  1   
  5   3   6  1   
  6   4   7  ar  
  7   4   8  ar  
  8   5   9  1   
  9   5  26  1   
 10   5  27  1   
 11   6  10  1   
 12   6  28  1   
 13   6  29  1   
 14   7  11  1   
 15   7  12  ar  
 16   8  13  ar  
 17   8  30  1   
 18   9  14  1   
 19   9  15  2   
 20  10  16  1   
 21  10  31  1   
 22  10  32  1   
 23  11  17  1   
 24  12  18  ar  
 25  12  33  1   
 26  13  18  ar  
 27  13  19  1   
 28  14  20  2   
 29  15  21  1   
 30  15  22  1   
 31  16  34  1   
 32  17  35  1   
 33  17  36  1   
 34  17  37  1   
 35  18  23  1   
 36  19  24  1   
 37  20  21  1   
 38  20  38  1   
 39  21  39  1   
 40  22  40  1   
 41  22  41  1   
 42  22  42  1   
 43  23  25  1   
 44  24  43  1   
 45  24  44  1   
 46  24  45  1   
 47  25  46  1   
 48  25  47  1   
 49  25  48  1   
@<TRIPOS>SUBSTRUCTURE
  1 ****   4 GROUP 4 **** **** 0

# MOE 2024.06 (io_trps.svl 2023.06)
