@<TRIPOS>MOLECULE
NONAME
55 58 1 0 0 
SMALL
USER_CHARGES


@<TRIPOS>ATOM
  1 O       -1.2220    -1.7090    -1.7060 O.2   1 <1>  -0.5700 
  2 C       -1.7090    -1.1200    -0.7560 C.2   1 <1>   0.5440 
  3 N       -1.1820    -1.3460     0.4950 N.am  1 <1>  -0.6600 
  4 C       -2.8400    -0.2530    -0.9620 C.ar  1 <1>   0.0860 
  5 C       -1.5980    -0.6440     1.7270 C.3   1 <1>   0.1400 
  6 C       -0.0150    -2.2170     0.7410 C.3   1 <1>   0.1400 
  7 C       -2.7500     1.1490    -0.8430 C.ar  1 <1>   0.4100 
  8 C       -4.0710    -0.8050    -1.2870 C.ar  1 <1>  -0.1500 
  9 C       -0.8200    -1.3340     2.8410 C.3   1 <1>  -0.1600 
 10 C        0.4350    -1.8720     2.1570 C.3   1 <1>  -0.1600 
 11 N       -3.7990     1.9600    -0.9970 N.ar  1 <1>  -0.6200 
 12 N       -1.5430     1.7760    -0.5750 N.pl3 1 <1>  -0.8380 
 13 C       -5.1430     0.0400    -1.4540 C.ar  1 <1>  -0.1500 
 14 C       -4.9520     1.4000    -1.2940 C.ar  1 <1>   0.1600 
 15 C       -1.4580     3.1110     0.0930 C.3   1 <1>   0.2090 
 16 C       -0.4460     1.6510    -1.5630 C.3   1 <1>   0.2090 
 17 C       -0.4590     3.9200    -0.7340 C.3   1 <1>   0.0630 
 18 C        0.4680     2.8380    -1.2920 C.3   1 <1>  -0.1600 
 19 C        0.1960     5.0680     0.0540 C.ar  1 <1>  -0.1430 
 20 C       -0.6000     6.1010     0.5490 C.ar  1 <1>   0.0820 
 21 C        1.5670     5.1240     0.2830 C.ar  1 <1>  -0.1500 
 22 O       -1.9360     6.0670     0.3110 O.3   1 <1>  -0.3620 
 23 C       -0.0450     7.1490     1.2920 C.ar  1 <1>   0.0820 
 24 C        2.1260     6.1650     1.0020 C.ar  1 <1>  -0.1500 
 25 C       -2.4330     6.9890    -0.6310 C.3   1 <1>   0.0400 
 26 O       -0.8770     8.1120     1.7870 O.3   1 <1>  -0.3630 
 27 C        1.3280     7.1730     1.5090 C.ar  1 <1>  -0.1500 
 28 C       -0.4340     9.0450     2.7470 C.3   1 <1>   0.0400 
 29 H       -2.6620    -0.7170     1.8770 H     1 <1>   0.0800 
 30 H       -1.3100     0.3910     1.6590 H     1 <1>   0.0800 
 31 H        0.7610    -2.0310     0.0170 H     1 <1>   0.0800 
 32 H       -0.3280    -3.2450     0.6780 H     1 <1>   0.0800 
 33 H       -4.1700    -1.8700    -1.4030 H     1 <1>   0.1500 
 34 H       -1.4070    -2.1510     3.2230 H     1 <1>   0.0800 
 35 H       -0.5920    -0.6580     3.6460 H     1 <1>   0.0800 
 36 H        1.1810    -1.0990     2.1040 H     1 <1>   0.0800 
 37 H        0.8470    -2.7260     2.6640 H     1 <1>   0.0800 
 38 H       -6.1150    -0.3450    -1.7040 H     1 <1>   0.1500 
 39 H       -5.7950     2.0590    -1.4200 H     1 <1>   0.1500 
 40 H       -1.0810     2.9770     1.0920 H     1 <1>   0.0800 
 41 H       -2.4090     3.6090     0.1470 H     1 <1>   0.0800 
 42 H       -0.8540     1.7050    -2.5580 H     1 <1>   0.0800 
 43 H        0.0840     0.7220    -1.4390 H     1 <1>   0.0800 
 44 H       -1.0050     4.3470    -1.5570 H     1 <1>   0.0800 
 45 H        0.9850     3.1570    -2.1790 H     1 <1>   0.0800 
 46 H        1.1790     2.5250    -0.5500 H     1 <1>   0.0800 
 47 H        2.2290     4.3670    -0.0910 H     1 <1>   0.1500 
 48 H        3.1890     6.1890     1.1690 H     1 <1>   0.1500 
 49 H       -3.4710     6.7670    -0.8010 H     1 <1>   0.0800 
 50 H       -1.8770     6.8850    -1.5460 H     1 <1>   0.0800 
 51 H       -2.3300     7.9850    -0.2400 H     1 <1>   0.0800 
 52 H        1.7940     7.9640     2.0630 H     1 <1>   0.1500 
 53 H       -1.2820     9.6250     3.0620 H     1 <1>   0.0800 
 54 H        0.3010     9.6870     2.2970 H     1 <1>   0.0800 
 55 H       -0.0240     8.5130     3.5870 H     1 <1>   0.0800 
@<TRIPOS>BOND
  1   1   2  2   
  2   2   3  am  
  3   2   4  1   
  4   3   5  1   
  5   3   6  1   
  6   4   7  ar  
  7   4   8  ar  
  8   5   9  1   
  9   5  29  1   
 10   5  30  1   
 11   6  10  1   
 12   6  31  1   
 13   6  32  1   
 14   7  11  ar  
 15   7  12  1   
 16   8  13  ar  
 17   8  33  1   
 18   9  10  1   
 19   9  34  1   
 20   9  35  1   
 21  10  36  1   
 22  10  37  1   
 23  11  14  ar  
 24  12  15  1   
 25  12  16  1   
 26  13  14  ar  
 27  13  38  1   
 28  14  39  1   
 29  15  17  1   
 30  15  40  1   
 31  15  41  1   
 32  16  18  1   
 33  16  42  1   
 34  16  43  1   
 35  17  18  1   
 36  17  19  1   
 37  17  44  1   
 38  18  45  1   
 39  18  46  1   
 40  19  20  ar  
 41  19  21  ar  
 42  20  22  1   
 43  20  23  ar  
 44  21  24  ar  
 45  21  47  1   
 46  22  25  1   
 47  23  26  1   
 48  23  27  ar  
 49  24  27  ar  
 50  24  48  1   
 51  25  49  1   
 52  25  50  1   
 53  25  51  1   
 54  26  28  1   
 55  27  52  1   
 56  28  53  1   
 57  28  54  1   
 58  28  55  1   
@<TRIPOS>SUBSTRUCTURE
  1 ****  15 GROUP 4 **** **** 0

# MOE 2024.06 (io_trps.svl 2023.06)
