@<TRIPOS>MOLECULE
NONAME
43 45 1 0 0 
SMALL
USER_CHARGES


@<TRIPOS>ATOM
  1 S        0.5470     0.1270     2.0240 S.o2  1 <1>   1.4470 
  2 O        1.2730    -0.9300     2.6920 O.2   1 <1>  -0.6500 
  3 O        0.1230     1.2960     2.7630 O.2   1 <1>  -0.6500 
  4 N        1.6180     0.7300     0.8510 N.am  1 <1>  -0.8490 
  5 C       -0.8200    -0.5170     1.0250 C.ar  1 <1>  -0.0090 
  6 C        2.7310     1.4630     1.4960 C.3   1 <1>   0.1960 
  7 C        2.1300    -0.3240    -0.0410 C.3   1 <1>   0.1960 
  8 C       -0.9760    -1.8790     0.8060 C.ar  1 <1>  -0.1500 
  9 C       -1.7130     0.3440     0.3990 C.ar  1 <1>  -0.1500 
 10 C        3.5890     2.3460     0.5420 C.3   1 <1>   0.4230 
 11 C        2.7850     0.2620    -1.3100 C.3   1 <1>  -0.0800 
 12 C       -1.9640    -2.3590    -0.0340 C.ar  1 <1>  -0.1500 
 13 C       -2.7010    -0.1360    -0.4390 C.ar  1 <1>  -0.1500 
 14 N        2.8830     2.7870    -0.7310 N.4   1 <1>  -0.9590 
 15 C        4.9650     1.7120     0.2490 C.3   1 <1>   0.1200 
 16 C        4.3100     0.0900    -1.3550 C.3   1 <1>   0.1200 
 17 C        2.3170     1.6950    -1.6060 C.3   1 <1>   0.3430 
 18 C       -2.8450    -1.5000    -0.6900 C.ar  1 <1>  -0.1790 
 19 C        1.7720     3.7280    -0.3830 C.3   1 <1>   0.2630 
 20 O        4.8770     0.3720    -0.1200 O.3   1 <1>  -0.5600 
 21 C       -3.8660    -2.0050    -1.6010 C.2   1 <1>   0.9790 
 22 O       -3.9410    -3.2210    -1.8500 O.co2 1 <1>  -0.9000 
 23 O       -4.6600    -1.2260    -2.1550 O.co2 1 <1>  -0.9000 
 24 H        2.3260     2.1290     2.2390 H     1 <1>   0.0800 
 25 H        3.3640     0.7710     2.0290 H     1 <1>   0.0800 
 26 H        2.8130    -0.9700     0.4890 H     1 <1>   0.0800 
 27 H        1.3080    -0.9400    -0.3660 H     1 <1>   0.0800 
 28 H       -0.3170    -2.5800     1.2890 H     1 <1>   0.1500 
 29 H       -1.6360     1.4040     0.5660 H     1 <1>   0.1500 
 30 H        3.8170     3.2400     1.0970 H     1 <1>   0.0800 
 31 H        2.4150    -0.3300    -2.1270 H     1 <1>   0.0800 
 32 H       -2.0690    -3.4200    -0.1980 H     1 <1>   0.1500 
 33 H       -3.3860     0.5450    -0.9190 H     1 <1>   0.1500 
 34 H        3.5730     3.3010    -1.2930 H     1 <1>   0.4500 
 35 H        5.5540     1.7350     1.1490 H     1 <1>   0.0800 
 36 H        5.5010     2.2540    -0.5100 H     1 <1>   0.0800 
 37 H        4.7720     0.7010    -2.1120 H     1 <1>   0.0800 
 38 H        4.5460    -0.9400    -1.5670 H     1 <1>   0.0800 
 39 H        1.2420     1.6970    -1.5130 H     1 <1>   0.0800 
 40 H        2.5430     1.9240    -2.6350 H     1 <1>   0.0800 
 41 H        1.0240     3.2160     0.2040 H     1 <1>   0.0800 
 42 H        1.3040     4.1070    -1.2780 H     1 <1>   0.0800 
 43 H        2.1460     4.5620     0.1880 H     1 <1>   0.0800 
@<TRIPOS>BOND
  1   1   2  2   
  2   1   3  2   
  3   1   4  am  
  4   1   5  1   
  5   4   6  1   
  6   4   7  1   
  7   5   8  ar  
  8   5   9  ar  
  9   6  10  1   
 10   6  24  1   
 11   6  25  1   
 12   7  11  1   
 13   7  26  1   
 14   7  27  1   
 15   8  12  ar  
 16   8  28  1   
 17   9  13  ar  
 18   9  29  1   
 19  10  14  1   
 20  10  15  1   
 21  10  30  1   
 22  11  16  1   
 23  11  17  1   
 24  11  31  1   
 25  12  18  ar  
 26  12  32  1   
 27  13  18  ar  
 28  13  33  1   
 29  14  17  1   
 30  14  19  1   
 31  14  34  1   
 32  15  20  1   
 33  15  35  1   
 34  15  36  1   
 35  16  20  1   
 36  16  37  1   
 37  16  38  1   
 38  17  39  1   
 39  17  40  1   
 40  18  21  1   
 41  19  41  1   
 42  19  42  1   
 43  19  43  1   
 44  21  22  ar  
 45  21  23  ar  
@<TRIPOS>SUBSTRUCTURE
  1 ****   4 GROUP 4 **** **** 0

# MOE 2024.06 (io_trps.svl 2023.06)
