@<TRIPOS>MOLECULE
NONAME
37 39 1 0 0 
SMALL
USER_CHARGES


@<TRIPOS>ATOM
  1 CL       1.1060     0.7390    -2.1720 Cl    1 <1>  -0.1770 
  2 C        2.1200     1.3400    -0.8820 C.ar  1 <1>   0.1770 
  3 C        2.9190     0.4880    -0.1400 C.ar  1 <1>   0.1900 
  4 C        2.1220     2.6970    -0.6070 C.ar  1 <1>  -0.1500 
  5 F        2.9260    -0.7930    -0.3980 F     1 <1>  -0.1900 
  6 C        3.7220     0.9630     0.8790 C.ar  1 <1>  -0.1500 
  7 C        2.9280     3.1950     0.4110 C.ar  1 <1>  -0.1440 
  8 C        3.7220     2.3230     1.1530 C.ar  1 <1>  -0.1500 
  9 C        2.9440     4.6860     0.7070 C.3   1 <1>   0.4870 
 10 N        4.2860     5.2280     0.3670 N.4   1 <1>  -0.9590 
 11 C        4.5280     6.5940     0.9620 C.3   1 <1>   0.3430 
 12 C        4.6330     5.0620    -1.0860 C.3   1 <1>   0.3430 
 13 C        6.0020     7.0890     0.9010 C.3   1 <1>   0.2200 
 14 C        6.1290     5.2230    -1.3950 C.3   1 <1>  -0.0190 
 15 N        6.3510     7.5020    -0.4780 N.am  1 <1>  -0.7300 
 16 C        7.0280     6.0530     1.4300 C.3   1 <1>   0.1200 
 17 C        6.4280     6.6900    -1.5450 C.2   1 <1>   0.5690 
 18 C        7.1200     4.5380    -0.4270 C.3   1 <1>   0.1200 
 19 O        6.8120     4.7580     0.9250 O.3   1 <1>  -0.5600 
 20 O        6.7010     7.1320    -2.6270 O.2   1 <1>  -0.5700 
 21 H        1.4880     3.3390    -1.1950 H     1 <1>   0.1500 
 22 H        4.3310     0.2770     1.4440 H     1 <1>   0.1500 
 23 H        4.3480     2.6840     1.9530 H     1 <1>   0.1500 
 24 H        2.7360     4.8390     1.7540 H     1 <1>   0.0800 
 25 H        2.1830     5.1880     0.1310 H     1 <1>   0.0800 
 26 H        4.9850     4.6210     0.8410 H     1 <1>   0.4500 
 27 H        3.9010     7.3220     0.4730 H     1 <1>   0.0800 
 28 H        4.2430     6.5670     2.0000 H     1 <1>   0.0800 
 29 H        4.3480     4.0710    -1.3990 H     1 <1>   0.0800 
 30 H        4.0700     5.7630    -1.6820 H     1 <1>   0.0800 
 31 H        6.0800     7.9680     1.5180 H     1 <1>   0.0800 
 32 H        6.2950     4.7910    -2.3650 H     1 <1>   0.0800 
 33 H        6.6240     8.4790    -0.6360 H     1 <1>   0.3700 
 34 H        6.9400     5.9840     2.5000 H     1 <1>   0.0800 
 35 H        8.0360     6.3580     1.2020 H     1 <1>   0.0800 
 36 H        8.1290     4.8680    -0.6120 H     1 <1>   0.0800 
 37 H        7.0890     3.4720    -0.5820 H     1 <1>   0.0800 
@<TRIPOS>BOND
  1   1   2  1   
  2   2   3  ar  
  3   2   4  ar  
  4   3   5  1   
  5   3   6  ar  
  6   4   7  ar  
  7   4  21  1   
  8   6   8  ar  
  9   6  22  1   
 10   7   8  ar  
 11   7   9  1   
 12   8  23  1   
 13   9  10  1   
 14   9  24  1   
 15   9  25  1   
 16  10  11  1   
 17  10  12  1   
 18  10  26  1   
 19  11  13  1   
 20  11  27  1   
 21  11  28  1   
 22  12  14  1   
 23  12  29  1   
 24  12  30  1   
 25  13  15  1   
 26  13  16  1   
 27  13  31  1   
 28  14  17  1   
 29  14  18  1   
 30  14  32  1   
 31  15  17  am  
 32  15  33  1   
 33  16  19  1   
 34  16  34  1   
 35  16  35  1   
 36  17  20  2   
 37  18  19  1   
 38  18  36  1   
 39  18  37  1   
@<TRIPOS>SUBSTRUCTURE
  1 ****  10 GROUP 4 **** **** 0

# MOE 2024.06 (io_trps.svl 2023.06)
