@<TRIPOS>MOLECULE
NONAME
40 42 1 0 0 
SMALL
USER_CHARGES


@<TRIPOS>ATOM
  1 F        0.2340     0.6350     0.7670 F     1 <1>  -0.1900 
  2 C        1.4000     1.2260     0.6750 C.ar  1 <1>   0.1900 
  3 C        1.5290     2.5510     0.2370 C.ar  1 <1>   0.0830 
  4 C        2.4880     0.4590     1.0370 C.ar  1 <1>  -0.1500 
  5 O        0.4970     3.3670    -0.1430 O.3   1 <1>  -0.3630 
  6 C        2.8100     3.1070     0.1740 C.ar  1 <1>  -0.1440 
  7 C        3.7500     1.0160     0.9670 C.ar  1 <1>  -0.1500 
  8 C       -0.8540     2.9630    -0.1870 C.3   1 <1>   0.0400 
  9 C        3.9030     2.3230     0.5400 C.ar  1 <1>  -0.1500 
 10 C        2.9180     4.5640    -0.3100 C.3   1 <1>   0.2540 
 11 N        4.2400     5.2190    -0.2430 N.3   1 <1>  -0.8100 
 12 C        4.7300     5.4410     1.1440 C.3   1 <1>   0.1100 
 13 C        5.1770     4.7930    -1.3100 C.3   1 <1>   0.1100 
 14 C        5.9300     6.4080     1.3120 C.3   1 <1>   0.2200 
 15 C        6.4130     5.6940    -1.4940 C.3   1 <1>  -0.0190 
 16 N        6.0040     7.4270     0.2340 N.am  1 <1>  -0.7300 
 17 C        7.2680     5.6500     1.4430 C.3   1 <1>   0.1200 
 18 C        6.1710     7.1300    -1.0710 C.2   1 <1>   0.5690 
 19 C        7.6790     5.1270    -0.8320 C.3   1 <1>   0.1200 
 20 O        7.4440     4.6660     0.4640 O.3   1 <1>  -0.5600 
 21 O        6.1590     8.0060    -1.9000 O.2   1 <1>  -0.5700 
 22 H        2.3490    -0.5550     1.3670 H     1 <1>   0.1500 
 23 H        4.6130     0.4350     1.2430 H     1 <1>   0.1500 
 24 H       -1.4390     3.7910    -0.5440 H     1 <1>   0.0800 
 25 H       -1.1720     2.6940     0.8050 H     1 <1>   0.0800 
 26 H       -0.9500     2.1310    -0.8620 H     1 <1>   0.0800 
 27 H        4.9020     2.7130     0.5030 H     1 <1>   0.1500 
 28 H        2.2320     5.1590     0.2690 H     1 <1>   0.0800 
 29 H        2.5670     4.6060    -1.3270 H     1 <1>   0.0800 
 30 H        3.9160     5.8560     1.7110 H     1 <1>   0.0800 
 31 H        4.9750     4.5050     1.6100 H     1 <1>   0.0800 
 32 H        5.4950     3.7800    -1.1590 H     1 <1>   0.0800 
 33 H        4.6330     4.8150    -2.2390 H     1 <1>   0.0800 
 34 H        5.7910     6.9340     2.2390 H     1 <1>   0.0800 
 35 H        6.6250     5.7220    -2.5460 H     1 <1>   0.0800 
 36 H        5.6990     8.3760     0.4470 H     1 <1>   0.3700 
 37 H        7.2860     5.1410     2.3900 H     1 <1>   0.0800 
 38 H        8.1000     6.3320     1.4140 H     1 <1>   0.0800 
 39 H        8.4680     5.8600    -0.8100 H     1 <1>   0.0800 
 40 H        8.0230     4.2800    -1.3990 H     1 <1>   0.0800 
@<TRIPOS>BOND
  1   1   2  1   
  2   2   3  ar  
  3   2   4  ar  
  4   3   5  1   
  5   3   6  ar  
  6   4   7  ar  
  7   4  22  1   
  8   5   8  1   
  9   6   9  ar  
 10   6  10  1   
 11   7   9  ar  
 12   7  23  1   
 13   8  24  1   
 14   8  25  1   
 15   8  26  1   
 16   9  27  1   
 17  10  11  1   
 18  10  28  1   
 19  10  29  1   
 20  11  12  1   
 21  11  13  1   
 22  12  14  1   
 23  12  30  1   
 24  12  31  1   
 25  13  15  1   
 26  13  32  1   
 27  13  33  1   
 28  14  16  1   
 29  14  17  1   
 30  14  34  1   
 31  15  18  1   
 32  15  19  1   
 33  15  35  1   
 34  16  18  am  
 35  16  36  1   
 36  17  20  1   
 37  17  37  1   
 38  17  38  1   
 39  18  21  2   
 40  19  20  1   
 41  19  39  1   
 42  19  40  1   
@<TRIPOS>SUBSTRUCTURE
  1 ****  11 GROUP 4 **** **** 0

# MOE 2024.06 (io_trps.svl 2023.06)
