@<TRIPOS>MOLECULE
NONAME
52 55 1 0 0 
SMALL
USER_CHARGES


@<TRIPOS>ATOM
  1 F       -0.8760     1.8740    -0.3770 F     1 <1>  -0.1900 
  2 C       -2.0250     1.2750    -0.5440 C.ar  1 <1>   0.1900 
  3 C       -2.8760     1.1020     0.5430 C.ar  1 <1>  -0.1440 
  4 C       -2.3410     0.8420    -1.8170 C.ar  1 <1>  -0.1500 
  5 C       -4.0890     0.4560     0.3330 C.ar  1 <1>  -0.1500 
  6 C       -2.5360     1.6100     1.9450 C.3   1 <1>   0.0450 
  7 C       -3.5580     0.2120    -1.9820 C.ar  1 <1>   0.1900 
  8 C       -4.4360     0.0080    -0.9330 C.ar  1 <1>  -0.1500 
  9 C       -3.5280     2.6730     2.4000 C.2   1 <1>   0.5690 
 10 F       -3.8950    -0.2030    -3.1720 F     1 <1>  -0.1900 
 11 O       -4.1570     2.4380     3.4050 O.2   1 <1>  -0.5700 
 12 N       -3.7170     3.8200     1.6670 N.am  1 <1>  -0.6600 
 13 C       -4.9980     4.6150     1.7580 C.3   1 <1>   0.2200 
 14 C       -2.6360     4.3900     0.8010 C.3   1 <1>   0.1400 
 15 C       -5.1020     5.7570     0.6940 C.3   1 <1>   0.1380 
 16 C       -6.2650     3.7340     1.8040 C.3   1 <1>  -0.1600 
 17 C       -2.5360     5.9210     0.9110 C.3   1 <1>  -0.1600 
 18 C       -5.0950     5.3050    -0.8010 C.2   1 <1>  -0.2760 
 19 C       -6.4170     6.5480     0.9730 C.3   1 <1>   0.1200 
 20 C       -3.8850     6.6680     0.9750 C.3   1 <1>  -0.1600 
 21 C       -7.5020     4.4900     1.3140 C.3   1 <1>   0.1200 
 22 C       -5.1490     4.0450    -1.2600 C.2   1 <1>  -0.2880 
 23 C       -4.9860     6.4230    -1.8470 C.3   1 <1>  -0.0220 
 24 O       -7.3740     5.8210     1.6950 O.3   1 <1>  -0.5600 
 25 C       -5.1070     3.6540    -2.7320 C.3   1 <1>   0.2580 
 26 C       -5.3820     5.9250    -3.2430 C.3   1 <1>   0.1200 
 27 O       -4.7090     4.7370    -3.5180 O.3   1 <1>  -0.5600 
 28 H       -1.6720     0.9910    -2.6430 H     1 <1>   0.1500 
 29 H       -4.7700     0.3060     1.1560 H     1 <1>   0.1500 
 30 H       -1.5390     2.0010     2.0050 H     1 <1>   0.0800 
 31 H       -2.5860     0.7820     2.6290 H     1 <1>   0.0800 
 32 H       -5.3730    -0.4920    -1.1060 H     1 <1>   0.1500 
 33 H       -4.9680     5.1090     2.7140 H     1 <1>   0.0800 
 34 H       -1.6810     3.9770     1.0710 H     1 <1>   0.0800 
 35 H       -2.8210     4.1150    -0.2210 H     1 <1>   0.0800 
 36 H       -6.4420     3.4450     2.8240 H     1 <1>   0.0800 
 37 H       -6.1520     2.8320     1.2360 H     1 <1>   0.0800 
 38 H       -1.9620     6.1620     1.7890 H     1 <1>   0.0800 
 39 H       -1.9760     6.2750     0.0640 H     1 <1>   0.0800 
 40 H       -6.8880     6.8570     0.0590 H     1 <1>   0.0800 
 41 H       -6.2120     7.4310     1.5520 H     1 <1>   0.0800 
 42 H       -3.8680     7.5160     0.3160 H     1 <1>   0.0800 
 43 H       -3.9840     7.0650     1.9710 H     1 <1>   0.0800 
 44 H       -8.3950     4.0940     1.7640 H     1 <1>   0.0800 
 45 H       -7.5970     4.4450     0.2420 H     1 <1>   0.0800 
 46 H       -5.2100     3.1760    -0.6380 H     1 <1>   0.1500 
 47 H       -3.9710     6.7740    -1.8920 H     1 <1>   0.0800 
 48 H       -5.6120     7.2600    -1.6050 H     1 <1>   0.0800 
 49 H       -6.0740     3.3220    -3.0680 H     1 <1>   0.0800 
 50 H       -4.3910     2.8670    -2.8900 H     1 <1>   0.0800 
 51 H       -5.1050     6.6440    -3.9940 H     1 <1>   0.0800 
 52 H       -6.4410     5.7410    -3.3020 H     1 <1>   0.0800 
@<TRIPOS>BOND
  1   1   2  1   
  2   2   3  ar  
  3   2   4  ar  
  4   3   5  ar  
  5   3   6  1   
  6   4   7  ar  
  7   4  28  1   
  8   5   8  ar  
  9   5  29  1   
 10   6   9  1   
 11   6  30  1   
 12   6  31  1   
 13   7   8  ar  
 14   7  10  1   
 15   8  32  1   
 16   9  11  2   
 17   9  12  am  
 18  12  13  1   
 19  12  14  1   
 20  13  15  1   
 21  13  16  1   
 22  13  33  1   
 23  14  17  1   
 24  14  34  1   
 25  14  35  1   
 26  15  18  1   
 27  15  19  1   
 28  15  20  1   
 29  16  21  1   
 30  16  36  1   
 31  16  37  1   
 32  17  20  1   
 33  17  38  1   
 34  17  39  1   
 35  18  22  2   
 36  18  23  1   
 37  19  24  1   
 38  19  40  1   
 39  19  41  1   
 40  20  42  1   
 41  20  43  1   
 42  21  24  1   
 43  21  44  1   
 44  21  45  1   
 45  22  25  1   
 46  22  46  1   
 47  23  26  1   
 48  23  47  1   
 49  23  48  1   
 50  25  27  1   
 51  25  49  1   
 52  25  50  1   
 53  26  27  1   
 54  26  51  1   
 55  26  52  1   
@<TRIPOS>SUBSTRUCTURE
  1 ****  22 GROUP 4 **** **** 0

# MOE 2024.06 (io_trps.svl 2023.06)
