@<TRIPOS>MOLECULE
NONAME
46 48 1 0 0 
SMALL
USER_CHARGES


@<TRIPOS>ATOM
  1 F       -1.1640    -0.4440    -0.6630 F     1 <1>  -0.1900 
  2 C       -1.8520     0.4220     0.0420 C.ar  1 <1>   0.1900 
  3 C       -1.5750     1.7800    -0.1190 C.ar  1 <1>   0.0820 
  4 C       -2.8150    -0.0530     0.9200 C.ar  1 <1>  -0.1440 
  5 O       -0.6100     2.1480    -1.0090 O.3   1 <1>  -0.3630 
  6 C       -2.2970     2.7020     0.6400 C.ar  1 <1>  -0.1500 
  7 C       -3.5010     0.9020     1.6540 C.ar  1 <1>   0.1900 
  8 C       -3.0960    -1.5420     1.0710 C.3   1 <1>   0.2540 
  9 C       -0.2660     3.5000    -1.2150 C.3   1 <1>   0.0400 
 10 C       -3.2620     2.2590     1.5300 C.ar  1 <1>  -0.1500 
 11 F       -4.4200     0.5230     2.5050 F     1 <1>  -0.1900 
 12 N       -3.9300    -2.0420    -0.0420 N.3   1 <1>  -0.8100 
 13 C       -4.0630    -3.5220    -0.0210 C.3   1 <1>   0.3330 
 14 C       -5.2700    -1.4160    -0.0490 C.3   1 <1>   0.1100 
 15 C       -2.6930    -4.1990    -0.1010 C.ar  1 <1>  -0.1440 
 16 C       -4.9860    -4.0080    -1.1740 C.3   1 <1>   0.2000 
 17 C       -6.1520    -1.9810    -1.1750 C.3   1 <1>   0.1200 
 18 C       -1.7790    -3.8330    -1.0790 C.ar  1 <1>  -0.1500 
 19 C       -2.3570    -5.2020     0.7970 C.ar  1 <1>  -0.1500 
 20 O       -6.2350    -3.3730    -1.0780 O.3   1 <1>  -0.5600 
 21 C       -5.2430    -5.5240    -1.1640 C.3   1 <1>   0.1200 
 22 C       -0.5520    -4.4660    -1.1650 C.ar  1 <1>  -0.1500 
 23 C       -1.1300    -5.8380     0.7110 C.ar  1 <1>  -0.1500 
 24 O       -4.1340    -6.2280    -1.6310 O.3   1 <1>  -0.6800 
 25 C       -0.2270    -5.4710    -0.2710 C.ar  1 <1>  -0.1500 
 26 H       -2.1230     3.7580     0.5530 H     1 <1>   0.1500 
 27 H       -3.5820    -1.7450     2.0100 H     1 <1>   0.0800 
 28 H       -2.1490    -2.0540     1.0810 H     1 <1>   0.0800 
 29 H        0.5150     3.5350    -1.9530 H     1 <1>   0.0800 
 30 H        0.0880     3.9160    -0.2890 H     1 <1>   0.0800 
 31 H       -1.1300     4.0310    -1.5740 H     1 <1>   0.0800 
 32 H       -3.8250     2.9560     2.1250 H     1 <1>   0.1500 
 33 H       -4.5290    -3.8080     0.9070 H     1 <1>   0.0800 
 34 H       -5.7600    -1.5780     0.8960 H     1 <1>   0.0800 
 35 H       -5.1740    -0.3550    -0.1990 H     1 <1>   0.0800 
 36 H       -4.5570    -3.7400    -2.1230 H     1 <1>   0.0800 
 37 H       -5.7450    -1.7230    -2.1380 H     1 <1>   0.0800 
 38 H       -7.1490    -1.5850    -1.1020 H     1 <1>   0.0800 
 39 H       -2.0230    -3.0460    -1.7730 H     1 <1>   0.1500 
 40 H       -3.0480    -5.5000     1.5670 H     1 <1>   0.1500 
 41 H       -6.0650    -5.7600    -1.8170 H     1 <1>   0.0800 
 42 H       -5.4660    -5.8670    -0.1700 H     1 <1>   0.0800 
 43 H        0.1500    -4.1720    -1.9260 H     1 <1>   0.1500 
 44 H       -0.8760    -6.6170     1.4080 H     1 <1>   0.1500 
 45 H       -3.3110    -5.9180    -1.1880 H     1 <1>   0.4000 
 46 H        0.7270    -5.9630    -0.3390 H     1 <1>   0.1500 
@<TRIPOS>BOND
  1   1   2  1   
  2   2   3  ar  
  3   2   4  ar  
  4   3   5  1   
  5   3   6  ar  
  6   4   7  ar  
  7   4   8  1   
  8   5   9  1   
  9   6  10  ar  
 10   6  26  1   
 11   7  10  ar  
 12   7  11  1   
 13   8  12  1   
 14   8  27  1   
 15   8  28  1   
 16   9  29  1   
 17   9  30  1   
 18   9  31  1   
 19  10  32  1   
 20  12  13  1   
 21  12  14  1   
 22  13  15  1   
 23  13  16  1   
 24  13  33  1   
 25  14  17  1   
 26  14  34  1   
 27  14  35  1   
 28  15  18  ar  
 29  15  19  ar  
 30  16  20  1   
 31  16  21  1   
 32  16  36  1   
 33  17  20  1   
 34  17  37  1   
 35  17  38  1   
 36  18  22  ar  
 37  18  39  1   
 38  19  23  ar  
 39  19  40  1   
 40  21  24  1   
 41  21  41  1   
 42  21  42  1   
 43  22  25  ar  
 44  22  43  1   
 45  23  25  ar  
 46  23  44  1   
 47  24  45  1   
 48  25  46  1   
@<TRIPOS>SUBSTRUCTURE
  1 ****  12 GROUP 4 **** **** 0

# MOE 2024.06 (io_trps.svl 2023.06)
