@<TRIPOS>MOLECULE
NONAME
40 41 1 0 0 
SMALL
USER_CHARGES


@<TRIPOS>ATOM
  1 O        1.1760     1.1230    -0.5820 O.3   1 <1>  -0.2800 
  2 C        1.0140     2.2290     0.0710 C.2   1 <1>   0.2980 
  3 C        1.0600     0.2100     0.3260 C.2   1 <1>   0.2980 
  4 N        0.8020     2.0300     1.3160 N.2   1 <1>  -0.3380 
  5 C        1.0870     3.5800    -0.6400 C.3   1 <1>   0.2900 
  6 N        0.8340     0.7080     1.4840 N.2   1 <1>  -0.3380 
  7 C        1.2010    -1.2510    -0.0690 C.3   1 <1>   0.0200 
  8 N        2.4610     4.0380    -0.9730 N.3   1 <1>  -0.8100 
  9 C        1.0610    -2.2220     1.1120 C.3   1 <1>  -0.2400 
 10 C        3.3370     4.0390     0.2210 C.3   1 <1>   0.2900 
 11 C        3.0590     3.2490    -2.0640 C.3   1 <1>   0.0300 
 12 C        4.6330     4.7970    -0.0330 C.2   1 <1>   0.0070 
 13 N        5.8070     4.2910     0.1460 N.2   1 <1>  -0.3380 
 14 N        4.7070     6.0630    -0.4630 N.pl3 1 <1>   0.0480 
 15 N        6.6950     5.2340    -0.1710 N.2   1 <1>  -0.3380 
 16 C        6.0230     6.2710    -0.5290 C.2   1 <1>   0.0370 
 17 C        3.6380     7.0300    -0.7830 C.3   1 <1>   0.0960 
 18 C        3.0540     7.6100     0.5030 C.3   1 <1>   0.1200 
 19 O        2.0970     8.5540     0.1500 O.3   1 <1>  -0.5600 
 20 C        1.4780     9.1660     1.2360 C.3   1 <1>   0.0400 
 21 H        0.6310     4.3150     0.0000 H     1 <1>   0.0800 
 22 H        0.4980     3.5320    -1.5390 H     1 <1>   0.0800 
 23 H        2.1660    -1.3870    -0.5250 H     1 <1>   0.0800 
 24 H        0.4510    -1.4770    -0.8050 H     1 <1>   0.0800 
 25 H        1.8160    -2.0190     1.8510 H     1 <1>   0.0800 
 26 H        1.1690    -3.2380     0.7750 H     1 <1>   0.0800 
 27 H        0.0940    -2.1110     1.5710 H     1 <1>   0.0800 
 28 H        3.5740     3.0270     0.5070 H     1 <1>   0.0800 
 29 H        2.8270     4.5020     1.0470 H     1 <1>   0.0800 
 30 H        2.4060     3.2440    -2.9200 H     1 <1>   0.0800 
 31 H        3.2350     2.2340    -1.7500 H     1 <1>   0.0800 
 32 H        3.9990     3.6820    -2.3610 H     1 <1>   0.0800 
 33 H        6.4570     7.2020    -0.8460 H     1 <1>   0.1500 
 34 H        2.8690     6.5360    -1.3470 H     1 <1>   0.0800 
 35 H        4.0520     7.8210    -1.3800 H     1 <1>   0.0800 
 36 H        3.8220     8.0980     1.0790 H     1 <1>   0.0800 
 37 H        2.5780     6.8410     1.0850 H     1 <1>   0.0800 
 38 H        0.7610     9.8730     0.8580 H     1 <1>   0.0800 
 39 H        2.2180     9.6800     1.8250 H     1 <1>   0.0800 
 40 H        0.9740     8.4200     1.8270 H     1 <1>   0.0800 
@<TRIPOS>BOND
  1   1   2  1   
  2   1   3  1   
  3   2   4  2   
  4   2   5  1   
  5   3   6  2   
  6   3   7  1   
  7   4   6  1   
  8   5   8  1   
  9   5  21  1   
 10   5  22  1   
 11   7   9  1   
 12   7  23  1   
 13   7  24  1   
 14   8  10  1   
 15   8  11  1   
 16   9  25  1   
 17   9  26  1   
 18   9  27  1   
 19  10  12  1   
 20  10  28  1   
 21  10  29  1   
 22  11  30  1   
 23  11  31  1   
 24  11  32  1   
 25  12  13  2   
 26  12  14  1   
 27  13  15  1   
 28  14  16  1   
 29  14  17  1   
 30  15  16  2   
 31  16  33  1   
 32  17  18  1   
 33  17  34  1   
 34  17  35  1   
 35  18  19  1   
 36  18  36  1   
 37  18  37  1   
 38  19  20  1   
 39  20  38  1   
 40  20  39  1   
 41  20  40  1   
@<TRIPOS>SUBSTRUCTURE
  1 ****  10 GROUP 4 **** **** 0

# MOE 2024.06 (io_trps.svl 2023.06)
