@<TRIPOS>MOLECULE
NONAME
46 48 1 0 0 
SMALL
USER_CHARGES


@<TRIPOS>ATOM
  1 O       -0.4320     0.1820     0.3100 O.2   1 <1>  -0.5700 
  2 C       -1.4630     0.8190     0.2540 C.2   1 <1>   0.5440 
  3 N       -2.6600     0.1420     0.2780 N.am  1 <1>  -0.6600 
  4 C       -1.3980     2.2540     0.1470 C.ar  1 <1>   0.0860 
  5 C       -3.9870     0.6970    -0.1080 C.3   1 <1>   0.1400 
  6 C       -2.7280    -1.3430     0.3280 C.3   1 <1>   0.1400 
  7 C       -2.0800     3.1040     0.9950 C.ar  1 <1>   0.1600 
  8 C       -0.6310     2.8750    -0.8170 C.ar  1 <1>   0.1600 
  9 C       -4.9690    -0.4390     0.1720 C.3   1 <1>   0.2000 
 10 C       -4.1510    -1.7020    -0.1160 C.3   1 <1>  -0.0800 
 11 N       -2.0460     4.4130     0.8830 N.ar  1 <1>  -0.6200 
 12 N       -0.5720     4.1830    -0.9590 N.ar  1 <1>  -0.6200 
 13 O       -5.3000    -0.3970     1.5180 O.3   1 <1>  -0.6800 
 14 C       -4.6950    -2.9980     0.5150 C.3   1 <1>  -0.0170 
 15 C       -1.2870     4.8920    -0.0960 C.ar  1 <1>   0.4770 
 16 C       -3.8660    -4.2000     0.0900 C.ar  1 <1>  -0.1430 
 17 C       -1.2220     6.4170    -0.2550 C.3   1 <1>   0.0630 
 18 C       -4.0870    -4.8460    -1.1090 C.ar  1 <1>  -0.1500 
 19 C       -2.8500    -4.7060     0.8760 C.ar  1 <1>  -0.1500 
 20 C       -0.6380     7.0980     0.9950 C.3   1 <1>  -0.2400 
 21 C       -2.5970     7.0170    -0.5900 C.3   1 <1>  -0.2400 
 22 C       -3.3030    -5.9340    -1.4560 C.ar  1 <1>   0.1600 
 23 C       -2.1240    -5.8000     0.4350 C.ar  1 <1>   0.1600 
 24 N       -2.3260    -6.4260    -0.7130 N.ar  1 <1>  -0.6200 
 25 H       -4.2450     1.5800     0.4490 H     1 <1>   0.0800 
 26 H       -3.9790     0.9220    -1.1610 H     1 <1>   0.0800 
 27 H       -1.9930    -1.7870    -0.3230 H     1 <1>   0.0800 
 28 H       -2.5450    -1.6660     1.3390 H     1 <1>   0.0800 
 29 H       -2.6710     2.6850     1.7900 H     1 <1>   0.1500 
 30 H       -0.0530     2.2670    -1.4920 H     1 <1>   0.1500 
 31 H       -5.8740    -0.3700    -0.4070 H     1 <1>   0.0800 
 32 H       -4.1260    -1.8350    -1.1830 H     1 <1>   0.0800 
 33 H       -4.4760    -0.3480     2.0440 H     1 <1>   0.4000 
 34 H       -5.7160    -3.1430     0.2070 H     1 <1>   0.0800 
 35 H       -4.6930    -2.9240     1.5890 H     1 <1>   0.0800 
 36 H       -0.5640     6.6340    -1.0790 H     1 <1>   0.0800 
 37 H       -4.8620    -4.5170    -1.7770 H     1 <1>   0.1500 
 38 H       -2.6150    -4.2630     1.8260 H     1 <1>   0.1500 
 39 H       -1.2760     6.9330     1.8450 H     1 <1>   0.0800 
 40 H       -0.5390     8.1560     0.8350 H     1 <1>   0.0800 
 41 H        0.3330     6.6900     1.2120 H     1 <1>   0.0800 
 42 H       -3.2870     6.8490     0.2180 H     1 <1>   0.0800 
 43 H       -2.9910     6.5540    -1.4780 H     1 <1>   0.0800 
 44 H       -2.5140     8.0750    -0.7620 H     1 <1>   0.0800 
 45 H       -3.4900    -6.4260    -2.3960 H     1 <1>   0.1500 
 46 H       -1.3350    -6.1810     1.0610 H     1 <1>   0.1500 
@<TRIPOS>BOND
  1   1   2  2   
  2   2   3  am  
  3   2   4  1   
  4   3   5  1   
  5   3   6  1   
  6   4   7  ar  
  7   4   8  ar  
  8   5   9  1   
  9   5  25  1   
 10   5  26  1   
 11   6  10  1   
 12   6  27  1   
 13   6  28  1   
 14   7  11  ar  
 15   7  29  1   
 16   8  12  ar  
 17   8  30  1   
 18   9  10  1   
 19   9  13  1   
 20   9  31  1   
 21  10  14  1   
 22  10  32  1   
 23  11  15  ar  
 24  12  15  ar  
 25  13  33  1   
 26  14  16  1   
 27  14  34  1   
 28  14  35  1   
 29  15  17  1   
 30  16  18  ar  
 31  16  19  ar  
 32  17  20  1   
 33  17  21  1   
 34  17  36  1   
 35  18  22  ar  
 36  18  37  1   
 37  19  23  ar  
 38  19  38  1   
 39  20  39  1   
 40  20  40  1   
 41  20  41  1   
 42  21  42  1   
 43  21  43  1   
 44  21  44  1   
 45  22  24  ar  
 46  22  45  1   
 47  23  24  ar  
 48  23  46  1   
@<TRIPOS>SUBSTRUCTURE
  1 ****   3 GROUP 4 **** **** 0

# MOE 2024.06 (io_trps.svl 2023.06)
