@<TRIPOS>MOLECULE
NONAME
58 60 1 0 0 
SMALL
USER_CHARGES


@<TRIPOS>ATOM
  1 O       -2.1160    -0.9000     2.4100 O.2   1 <1>  -0.5700 
  2 C       -2.3030     0.0190     1.6520 C.2   1 <1>   0.5690 
  3 N       -2.3100    -0.1550     0.2930 N.am  1 <1>  -0.6600 
  4 C       -2.5610     1.3650     2.3050 C.3   1 <1>  -0.0990 
  5 C       -2.4140    -1.5380    -0.2910 C.3   1 <1>   0.3640 
  6 C       -2.3770     0.9680    -0.6930 C.3   1 <1>   0.1400 
  7 C       -1.2730     2.1410     2.6180 C.3   1 <1>   0.0960 
  8 C       -1.0340    -2.0580    -0.7370 C.ar  1 <1>  -0.1440 
  9 C       -3.5110    -1.5690    -1.3950 C.3   1 <1>   0.2000 
 10 C       -2.4880     0.4970    -2.1490 C.3   1 <1>   0.1200 
 11 N       -0.8240     2.9590     1.4680 N.pl3 1 <1>   0.0480 
 12 C       -0.1040    -2.3720     0.2470 C.ar  1 <1>  -0.1500 
 13 C       -0.6720    -2.2590    -2.0670 C.ar  1 <1>  -0.1500 
 14 O       -3.4660    -0.4960    -2.3190 O.3   1 <1>  -0.5600 
 15 C       -4.9220    -1.5610    -0.7890 C.3   1 <1>   0.1200 
 16 C        0.3520     2.9480     0.7860 C.2   1 <1>   0.0060 
 17 C       -1.5470     3.9320     0.8780 C.2   1 <1>  -0.3020 
 18 C        1.1580    -2.8400    -0.0730 C.ar  1 <1>   0.0830 
 19 C        0.5920    -2.7170    -2.4000 C.ar  1 <1>  -0.1500 
 20 O       -5.1790    -2.7570    -0.1250 O.3   1 <1>  -0.6800 
 21 N        0.3960     3.8080    -0.1810 N.2   1 <1>  -0.5650 
 22 C        1.5290     2.0410     1.1120 C.3   1 <1>   0.0200 
 23 C       -0.7920     4.4320    -0.1210 C.2   1 <1>   0.0770 
 24 O        1.9970    -3.1350     0.9500 O.3   1 <1>  -0.3620 
 25 C        1.5210    -2.9900    -1.4140 C.ar  1 <1>   0.0830 
 26 C        1.3010     0.6120     0.6170 C.3   1 <1>  -0.2400 
 27 C        2.2930    -4.5010     1.1300 C.3   1 <1>   0.0400 
 28 O        2.7550    -3.3920    -1.8060 O.3   1 <1>  -0.3630 
 29 C        3.8220    -2.5200    -1.5010 C.3   1 <1>   0.0400 
 30 H       -3.2510     1.9530     1.7310 H     1 <1>   0.0800 
 31 H       -3.0480     1.1590     3.2410 H     1 <1>   0.0800 
 32 H       -2.7410    -2.2120     0.4820 H     1 <1>   0.0800 
 33 H       -3.2230     1.5940    -0.4740 H     1 <1>   0.0800 
 34 H       -1.4870     1.5620    -0.6140 H     1 <1>   0.0800 
 35 H       -0.4950     1.4600     2.9130 H     1 <1>   0.0800 
 36 H       -1.4540     2.8120     3.4380 H     1 <1>   0.0800 
 37 H       -3.4100    -2.4730    -1.9680 H     1 <1>   0.0800 
 38 H       -1.5410     0.1220    -2.4890 H     1 <1>   0.0800 
 39 H       -2.7540     1.3260    -2.7800 H     1 <1>   0.0800 
 40 H       -0.3520    -2.2560     1.2860 H     1 <1>   0.1500 
 41 H       -1.3590    -2.0620    -2.8700 H     1 <1>   0.1500 
 42 H       -5.6630    -1.4440    -1.5600 H     1 <1>   0.0800 
 43 H       -5.0170    -0.7610    -0.0750 H     1 <1>   0.0800 
 44 H       -2.5330     4.2180     1.1930 H     1 <1>   0.1500 
 45 H        0.8650    -2.8590    -3.4300 H     1 <1>   0.1500 
 46 H       -5.3370    -3.4840    -0.7590 H     1 <1>   0.4000 
 47 H        2.4070     2.4380     0.6320 H     1 <1>   0.0800 
 48 H        1.7100     2.0430     2.1710 H     1 <1>   0.0800 
 49 H       -1.0400     5.2230    -0.8090 H     1 <1>   0.1500 
 50 H        1.0890     0.6120    -0.4370 H     1 <1>   0.0800 
 51 H        0.4760     0.1650     1.1360 H     1 <1>   0.0800 
 52 H        2.1760     0.0120     0.7930 H     1 <1>   0.0800 
 53 H        2.9030    -4.6010     2.0090 H     1 <1>   0.0800 
 54 H        2.8240    -4.8660     0.2690 H     1 <1>   0.0800 
 55 H        1.3710    -5.0410     1.2560 H     1 <1>   0.0800 
 56 H        4.7070    -2.8900    -1.9840 H     1 <1>   0.0800 
 57 H        3.9680    -2.4940    -0.4370 H     1 <1>   0.0800 
 58 H        3.5830    -1.5370    -1.8700 H     1 <1>   0.0800 
@<TRIPOS>BOND
  1   1   2  2   
  2   2   3  am  
  3   2   4  1   
  4   3   5  1   
  5   3   6  1   
  6   4   7  1   
  7   4  30  1   
  8   4  31  1   
  9   5   8  1   
 10   5   9  1   
 11   5  32  1   
 12   6  10  1   
 13   6  33  1   
 14   6  34  1   
 15   7  11  1   
 16   7  35  1   
 17   7  36  1   
 18   8  12  ar  
 19   8  13  ar  
 20   9  14  1   
 21   9  15  1   
 22   9  37  1   
 23  10  14  1   
 24  10  38  1   
 25  10  39  1   
 26  11  16  1   
 27  11  17  1   
 28  12  18  ar  
 29  12  40  1   
 30  13  19  ar  
 31  13  41  1   
 32  15  20  1   
 33  15  42  1   
 34  15  43  1   
 35  16  21  2   
 36  16  22  1   
 37  17  23  2   
 38  17  44  1   
 39  18  24  1   
 40  18  25  ar  
 41  19  25  ar  
 42  19  45  1   
 43  20  46  1   
 44  21  23  1   
 45  22  26  1   
 46  22  47  1   
 47  22  48  1   
 48  23  49  1   
 49  24  27  1   
 50  25  28  1   
 51  26  50  1   
 52  26  51  1   
 53  26  52  1   
 54  27  53  1   
 55  27  54  1   
 56  27  55  1   
 57  28  29  1   
 58  29  56  1   
 59  29  57  1   
 60  29  58  1   
@<TRIPOS>SUBSTRUCTURE
  1 ****   3 GROUP 4 **** **** 0

# MOE 2024.06 (io_trps.svl 2023.06)
