@<TRIPOS>MOLECULE
NONAME
57 59 1 0 0 
SMALL
USER_CHARGES


@<TRIPOS>ATOM
  1 O        1.4720     1.7860     0.4410 O.2   1 <1>  -0.5700 
  2 C        2.2660     0.8760     0.4170 C.2   1 <1>   0.5690 
  3 N        3.1440     0.7420    -0.6390 N.am  1 <1>  -0.6600 
  4 C        2.2420    -0.0920     1.5970 C.3   1 <1>   0.0820 
  5 C        4.2320    -0.2910    -0.7080 C.3   1 <1>   0.1400 
  6 C        2.9900     1.6040    -1.8470 C.3   1 <1>   0.1400 
  7 C        2.1190    -1.5520     1.1740 C.2   1 <1>  -0.1810 
  8 C        5.5730     0.2970    -1.1730 C.3   1 <1>   0.3430 
  9 C        3.8050     2.8940    -1.6860 C.3   1 <1>  -0.1600 
 10 C        2.8640    -2.6150     1.5200 C.2   1 <1>  -0.0400 
 11 C        1.1840    -2.0920     0.2890 C.2   1 <1>   0.1080 
 12 N        5.7210     1.6970    -0.6730 N.4   1 <1>  -0.9590 
 13 C        5.3270     2.7200    -1.6670 C.3   1 <1>   0.3430 
 14 O        2.4070    -3.6530     0.8750 O.3   1 <1>  -0.0190 
 15 C        4.0460    -2.7930     2.4510 C.3   1 <1>  -0.0600 
 16 N        1.3910    -3.3480     0.1230 N.2   1 <1>  -0.4100 
 17 C        0.0640    -1.3390    -0.3990 C.3   1 <1>  -0.0590 
 18 C        7.0370     1.9070    -0.0240 C.3   1 <1>   0.5230 
 19 C        7.0220     1.1230     1.2820 C.2   1 <1>   0.0060 
 20 N        5.9580     0.9970     2.0190 N.2   1 <1>  -0.5650 
 21 N        8.1090     0.4800     1.7780 N.pl3 1 <1>   0.0480 
 22 C        6.3760     0.2550     3.0600 C.2   1 <1>   0.0770 
 23 C        7.6780    -0.0740     2.9260 C.2   1 <1>  -0.3020 
 24 C        9.4820     0.3730     1.2320 C.3   1 <1>   0.0960 
 25 C        9.5820    -0.7270     0.1700 C.3   1 <1>   0.1200 
 26 O        8.7200    -0.4470    -0.8960 O.3   1 <1>  -0.5600 
 27 C        8.8480    -1.3530    -1.9490 C.3   1 <1>   0.0400 
 28 H        1.4030     0.1520     2.2240 H     1 <1>   0.0800 
 29 H        3.1310     0.0590     2.1770 H     1 <1>   0.0800 
 30 H        3.9320    -1.0930    -1.3620 H     1 <1>   0.0800 
 31 H        4.4010    -0.7150     0.2650 H     1 <1>   0.0800 
 32 H        1.9490     1.8610    -1.9690 H     1 <1>   0.0800 
 33 H        3.2900     1.0660    -2.7300 H     1 <1>   0.0800 
 34 H        5.6230     0.2810    -2.2490 H     1 <1>   0.0800 
 35 H        6.3670    -0.3260    -0.7960 H     1 <1>   0.0800 
 36 H        3.4890     3.3980    -0.7900 H     1 <1>   0.0800 
 37 H        3.5600     3.5470    -2.5050 H     1 <1>   0.0800 
 38 H        5.0550     1.7540     0.1210 H     1 <1>   0.4500 
 39 H        5.7750     3.6670    -1.4140 H     1 <1>   0.0800 
 40 H        5.6790     2.4330    -2.6450 H     1 <1>   0.0800 
 41 H        4.2950    -1.8660     2.9320 H     1 <1>   0.0800 
 42 H        4.8980    -3.1420     1.8970 H     1 <1>   0.0800 
 43 H        3.8030    -3.5190     3.2050 H     1 <1>   0.0800 
 44 H       -0.4090    -0.6640     0.2900 H     1 <1>   0.0800 
 45 H       -0.6730    -2.0320    -0.7640 H     1 <1>   0.0800 
 46 H        0.4550    -0.7810    -1.2290 H     1 <1>   0.0800 
 47 H        7.1750     2.9510     0.2030 H     1 <1>   0.0800 
 48 H        7.8330     1.5810    -0.6690 H     1 <1>   0.0800 
 49 H        5.7140    -0.0060     3.8710 H     1 <1>   0.1500 
 50 H        8.3030    -0.6550     3.5800 H     1 <1>   0.1500 
 51 H       10.1530     0.1450     2.0400 H     1 <1>   0.0800 
 52 H        9.7790     1.3160     0.8130 H     1 <1>   0.0800 
 53 H        9.3170    -1.6810     0.5930 H     1 <1>   0.0800 
 54 H       10.5910    -0.7750    -0.2060 H     1 <1>   0.0800 
 55 H        8.1650    -1.0710    -2.7300 H     1 <1>   0.0800 
 56 H        8.6120    -2.3450    -1.6010 H     1 <1>   0.0800 
 57 H        9.8560    -1.3210    -2.3290 H     1 <1>   0.0800 
@<TRIPOS>BOND
  1   1   2  2   
  2   2   3  am  
  3   2   4  1   
  4   3   5  1   
  5   3   6  1   
  6   4   7  1   
  7   4  28  1   
  8   4  29  1   
  9   5   8  1   
 10   5  30  1   
 11   5  31  1   
 12   6   9  1   
 13   6  32  1   
 14   6  33  1   
 15   7  10  2   
 16   7  11  1   
 17   8  12  1   
 18   8  34  1   
 19   8  35  1   
 20   9  13  1   
 21   9  36  1   
 22   9  37  1   
 23  10  14  1   
 24  10  15  1   
 25  11  16  2   
 26  11  17  1   
 27  12  13  1   
 28  12  18  1   
 29  12  38  1   
 30  13  39  1   
 31  13  40  1   
 32  14  16  1   
 33  15  41  1   
 34  15  42  1   
 35  15  43  1   
 36  17  44  1   
 37  17  45  1   
 38  17  46  1   
 39  18  19  1   
 40  18  47  1   
 41  18  48  1   
 42  19  20  2   
 43  19  21  1   
 44  20  22  1   
 45  21  23  1   
 46  21  24  1   
 47  22  23  2   
 48  22  49  1   
 49  23  50  1   
 50  24  25  1   
 51  24  51  1   
 52  24  52  1   
 53  25  26  1   
 54  25  53  1   
 55  25  54  1   
 56  26  27  1   
 57  27  55  1   
 58  27  56  1   
 59  27  57  1   
@<TRIPOS>SUBSTRUCTURE
  1 ****   5 GROUP 4 **** **** 0

# MOE 2024.06 (io_trps.svl 2023.06)
