@<TRIPOS>MOLECULE
NONAME
57 60 1 0 0 
SMALL
USER_CHARGES


@<TRIPOS>ATOM
  1 O       -5.1060     2.5960    -1.4730 O.2   1 <1>  -0.5700 
  2 C       -3.9600     2.4730    -1.1000 C.2   1 <1>   0.5690 
  3 N       -3.2460     1.3750    -1.4630 N.am  1 <1>  -0.7300 
  4 C       -3.3010     3.5770    -0.2010 C.3   1 <1>   0.3310 
  5 C       -3.7620     0.2230    -2.2290 C.3   1 <1>   0.2200 
  6 N       -2.1220     3.1270     0.6310 N.3   1 <1>  -0.8100 
  7 C       -2.8630     4.7470    -1.1000 C.3   1 <1>  -0.2400 
  8 C       -4.3390     4.1540     0.7810 C.3   1 <1>  -0.2400 
  9 C       -4.0760    -0.9020    -1.2600 C.3   1 <1>  -0.0800 
 10 C       -2.6450    -0.3850    -3.0730 C.3   1 <1>   0.1200 
 11 C       -2.4080     1.9910     1.5510 C.3   1 <1>   0.1100 
 12 C       -0.8230     2.9430    -0.0770 C.3   1 <1>   0.1100 
 13 C       -2.7020    -1.5540    -1.0830 C.3   1 <1>   0.1200 
 14 C       -5.1140    -1.8790    -1.8450 C.3   1 <1>  -0.0170 
 15 O       -1.9890    -1.3150    -2.2610 O.3   1 <1>  -0.5600 
 16 C       -1.1910     1.6150     2.4100 C.3   1 <1>   0.1200 
 17 C        0.3030     2.5020     0.8730 C.3   1 <1>   0.1200 
 18 C       -5.5240    -2.9340    -0.8220 C.ar  1 <1>  -0.1430 
 19 O       -0.0820     1.3740     1.5980 O.3   1 <1>  -0.5600 
 20 C       -6.4090    -2.6500     0.2450 C.ar  1 <1>   0.0000 
 21 C       -5.0360    -4.2040    -0.9160 C.ar  1 <1>  -0.1500 
 22 C       -6.7130    -3.7010     1.1440 C.ar  1 <1>   0.3100 
 23 C       -7.0140    -1.3900     0.4720 C.ar  1 <1>  -0.1500 
 24 C       -5.4030    -5.1720     0.0270 C.ar  1 <1>   0.1600 
 25 N       -6.2010    -4.9520     1.0220 N.ar  1 <1>  -0.6200 
 26 C       -7.5860    -3.4500     2.2150 C.ar  1 <1>  -0.1500 
 27 C       -7.8600    -1.1790     1.5250 C.ar  1 <1>  -0.1500 
 28 C       -8.1520    -2.2200     2.4100 C.ar  1 <1>  -0.1500 
 29 H       -2.3220     1.2460    -1.0430 H     1 <1>   0.3700 
 30 H       -4.6080     0.5230    -2.8250 H     1 <1>   0.0800 
 31 H       -3.7230     5.1890    -1.5710 H     1 <1>   0.0800 
 32 H       -2.2160     4.4060    -1.8870 H     1 <1>   0.0800 
 33 H       -2.3670     5.5040    -0.5200 H     1 <1>   0.0800 
 34 H       -5.1100     4.6770     0.2430 H     1 <1>   0.0800 
 35 H       -3.8720     4.8440     1.4610 H     1 <1>   0.0800 
 36 H       -4.8230     3.3720     1.3340 H     1 <1>   0.0800 
 37 H       -4.4390    -0.5180    -0.3230 H     1 <1>   0.0800 
 38 H       -1.9430     0.3520    -3.4200 H     1 <1>   0.0800 
 39 H       -3.0540    -0.9200    -3.9110 H     1 <1>   0.0800 
 40 H       -3.2080     2.2510     2.2200 H     1 <1>   0.0800 
 41 H       -2.7110     1.1200     1.0010 H     1 <1>   0.0800 
 42 H       -0.9090     2.2140    -0.8600 H     1 <1>   0.0800 
 43 H       -0.5150     3.8710    -0.5230 H     1 <1>   0.0800 
 44 H       -2.7530    -2.6140    -0.9090 H     1 <1>   0.0800 
 45 H       -2.1610    -1.0870    -0.2780 H     1 <1>   0.0800 
 46 H       -4.7080    -2.3610    -2.7170 H     1 <1>   0.0800 
 47 H       -5.9890    -1.3410    -2.1650 H     1 <1>   0.0800 
 48 H       -1.3920     0.7180     2.9680 H     1 <1>   0.0800 
 49 H       -0.9540     2.4070     3.0990 H     1 <1>   0.0800 
 50 H        0.5480     3.2920     1.5610 H     1 <1>   0.0800 
 51 H        1.1850     2.2470     0.3120 H     1 <1>   0.0800 
 52 H       -4.3630    -4.4940    -1.7030 H     1 <1>   0.1500 
 53 H       -6.8090    -0.5750    -0.1970 H     1 <1>   0.1500 
 54 H       -4.9940    -6.1620    -0.0840 H     1 <1>   0.1500 
 55 H       -7.7970    -4.2670     2.8800 H     1 <1>   0.1500 
 56 H       -8.3120    -0.2140     1.6850 H     1 <1>   0.1500 
 57 H       -8.8210    -2.0420     3.2350 H     1 <1>   0.1500 
@<TRIPOS>BOND
  1   1   2  2   
  2   2   3  am  
  3   2   4  1   
  4   3   5  1   
  5   3  29  1   
  6   4   6  1   
  7   4   7  1   
  8   4   8  1   
  9   5   9  1   
 10   5  10  1   
 11   5  30  1   
 12   6  11  1   
 13   6  12  1   
 14   7  31  1   
 15   7  32  1   
 16   7  33  1   
 17   8  34  1   
 18   8  35  1   
 19   8  36  1   
 20   9  13  1   
 21   9  14  1   
 22   9  37  1   
 23  10  15  1   
 24  10  38  1   
 25  10  39  1   
 26  11  16  1   
 27  11  40  1   
 28  11  41  1   
 29  12  17  1   
 30  12  42  1   
 31  12  43  1   
 32  13  15  1   
 33  13  44  1   
 34  13  45  1   
 35  14  18  1   
 36  14  46  1   
 37  14  47  1   
 38  16  19  1   
 39  16  48  1   
 40  16  49  1   
 41  17  19  1   
 42  17  50  1   
 43  17  51  1   
 44  18  20  ar  
 45  18  21  ar  
 46  20  22  ar  
 47  20  23  ar  
 48  21  24  ar  
 49  21  52  1   
 50  22  25  ar  
 51  22  26  ar  
 52  23  27  ar  
 53  23  53  1   
 54  24  25  ar  
 55  24  54  1   
 56  26  28  ar  
 57  26  55  1   
 58  27  28  ar  
 59  27  56  1   
 60  28  57  1   
@<TRIPOS>SUBSTRUCTURE
  1 ****   9 GROUP 4 **** **** 0

# MOE 2024.06 (io_trps.svl 2023.06)
