@<TRIPOS>MOLECULE
NONAME
57 58 1 0 0 
SMALL
USER_CHARGES


@<TRIPOS>ATOM
  1 O        0.4880     3.0100    -2.9880 O.2   1 <1>  -0.5700 
  2 C        0.2250     3.9770    -2.3190 C.2   1 <1>   0.5690 
  3 N       -0.4950     3.8610    -1.1840 N.am  1 <1>  -0.7300 
  4 C        0.6770     5.3670    -2.7600 C.3   1 <1>   0.1810 
  5 C       -0.9260     5.0150    -0.3540 C.3   1 <1>   0.3640 
  6 O        0.7700     6.2610    -1.6750 O.3   1 <1>  -0.5600 
  7 C       -2.4520     4.9850    -0.2710 C.ar  1 <1>  -0.1440 
  8 C       -0.4210     6.3840    -0.8950 C.3   1 <1>   0.2610 
  9 C       -3.2310     4.8090    -1.4060 C.ar  1 <1>  -0.1500 
 10 C       -3.0870     5.1420     0.9500 C.ar  1 <1>  -0.1500 
 11 C       -0.1850     7.3500     0.2740 C.2   1 <1>   0.5690 
 12 C       -4.6140     4.7860    -1.3410 C.ar  1 <1>   0.0830 
 13 C       -4.4680     5.1300     1.0360 C.ar  1 <1>  -0.1500 
 14 O       -1.0380     7.4790     1.1210 O.2   1 <1>  -0.5700 
 15 N        1.0000     8.0180     0.3210 N.am  1 <1>  -0.7300 
 16 O       -5.2380     4.5930    -2.5380 O.3   1 <1>  -0.3630 
 17 C       -5.2530     4.9630    -0.1020 C.ar  1 <1>   0.0830 
 18 C        1.5640     8.9100     1.3380 C.3   1 <1>   0.3000 
 19 C       -6.4640     3.9010    -2.6190 C.3   1 <1>   0.0400 
 20 O       -6.6160     4.9870    -0.0300 O.3   1 <1>  -0.3630 
 21 C        2.9550     9.3870     0.8470 C.3   1 <1>  -0.1600 
 22 C        0.6520    10.1350     1.4570 C.3   1 <1>  -0.2400 
 23 C        1.6190     8.1730     2.6770 C.3   1 <1>  -0.2400 
 24 C       -7.2910     5.4740     1.1090 C.3   1 <1>   0.0400 
 25 C        4.1650     8.4250     0.6920 C.3   1 <1>  -0.0800 
 26 C        3.8780     7.1390    -0.0940 C.3   1 <1>  -0.2400 
 27 C        4.8530     8.0910     2.0240 C.3   1 <1>  -0.2400 
 28 H       -0.8630     2.9430    -0.9310 H     1 <1>   0.3700 
 29 H       -0.0180     5.7650    -3.4760 H     1 <1>   0.0800 
 30 H        1.6490     5.2990    -3.2140 H     1 <1>   0.0800 
 31 H       -0.5220     4.8720     0.6340 H     1 <1>   0.0800 
 32 H       -1.1750     6.8160    -1.5280 H     1 <1>   0.0800 
 33 H       -2.7730     4.6800    -2.3700 H     1 <1>   0.1500 
 34 H       -2.5080     5.2880     1.8480 H     1 <1>   0.1500 
 35 H       -4.9090     5.2590     2.0050 H     1 <1>   0.1500 
 36 H        1.6700     7.7730    -0.4130 H     1 <1>   0.3700 
 37 H       -6.5850     3.5500    -3.6270 H     1 <1>   0.0800 
 38 H       -7.2610     4.5790    -2.3720 H     1 <1>   0.0800 
 39 H       -6.4460     3.0700    -1.9370 H     1 <1>   0.0800 
 40 H        2.8030     9.8550    -0.1100 H     1 <1>   0.0800 
 41 H        3.2720    10.1780     1.5030 H     1 <1>   0.0800 
 42 H        1.0570    10.8330     2.1680 H     1 <1>   0.0800 
 43 H       -0.3280     9.8540     1.7980 H     1 <1>   0.0800 
 44 H        0.5580    10.6300     0.5080 H     1 <1>   0.0800 
 45 H        2.1820     8.7440     3.3920 H     1 <1>   0.0800 
 46 H        2.0720     7.2070     2.5600 H     1 <1>   0.0800 
 47 H        0.6290     8.0330     3.0710 H     1 <1>   0.0800 
 48 H       -8.3400     5.5200     0.8810 H     1 <1>   0.0800 
 49 H       -6.9230     6.4590     1.3390 H     1 <1>   0.0800 
 50 H       -7.1260     4.7980     1.9290 H     1 <1>   0.0800 
 51 H        4.8960     8.9720     0.1190 H     1 <1>   0.0800 
 52 H        3.2110     6.4930     0.4480 H     1 <1>   0.0800 
 53 H        4.7940     6.6010    -0.2630 H     1 <1>   0.0800 
 54 H        3.4490     7.3700    -1.0530 H     1 <1>   0.0800 
 55 H        4.2680     7.4190     2.6200 H     1 <1>   0.0800 
 56 H        5.0360     8.9870     2.5900 H     1 <1>   0.0800 
 57 H        5.8010     7.6190     1.8350 H     1 <1>   0.0800 
@<TRIPOS>BOND
  1   1   2  2   
  2   2   3  am  
  3   2   4  1   
  4   3   5  1   
  5   3  28  1   
  6   4   6  1   
  7   4  29  1   
  8   4  30  1   
  9   5   7  1   
 10   5   8  1   
 11   5  31  1   
 12   6   8  1   
 13   7   9  ar  
 14   7  10  ar  
 15   8  11  1   
 16   8  32  1   
 17   9  12  ar  
 18   9  33  1   
 19  10  13  ar  
 20  10  34  1   
 21  11  14  2   
 22  11  15  am  
 23  12  16  1   
 24  12  17  ar  
 25  13  17  ar  
 26  13  35  1   
 27  15  18  1   
 28  15  36  1   
 29  16  19  1   
 30  17  20  1   
 31  18  21  1   
 32  18  22  1   
 33  18  23  1   
 34  19  37  1   
 35  19  38  1   
 36  19  39  1   
 37  20  24  1   
 38  21  25  1   
 39  21  40  1   
 40  21  41  1   
 41  22  42  1   
 42  22  43  1   
 43  22  44  1   
 44  23  45  1   
 45  23  46  1   
 46  23  47  1   
 47  24  48  1   
 48  24  49  1   
 49  24  50  1   
 50  25  26  1   
 51  25  27  1   
 52  25  51  1   
 53  26  52  1   
 54  26  53  1   
 55  26  54  1   
 56  27  55  1   
 57  27  56  1   
 58  27  57  1   
@<TRIPOS>SUBSTRUCTURE
  1 ****   8 GROUP 4 **** **** 0

# MOE 2024.06 (io_trps.svl 2023.06)
