@<TRIPOS>MOLECULE
NONAME
50 52 1 0 0 
SMALL
USER_CHARGES


@<TRIPOS>ATOM
  1 S       -0.7680     0.9930     1.0140 S.o2  1 <1>   1.4470 
  2 O       -0.5310     0.0070     2.0470 O.2   1 <1>  -0.6500 
  3 O       -1.5930     2.1430     1.3190 O.2   1 <1>  -0.6500 
  4 N       -1.4520     0.2210    -0.3330 N.am  1 <1>  -0.8490 
  5 C        0.8280     1.5760     0.3770 C.ar  1 <1>  -0.0090 
  6 C       -0.7290    -0.9790    -0.8130 C.3   1 <1>   0.1960 
  7 C       -2.9000     0.0360    -0.2790 C.3   1 <1>   0.1960 
  8 C        0.9180     2.2240    -0.8490 C.ar  1 <1>  -0.1500 
  9 C        2.0010     1.3900     1.0980 C.ar  1 <1>  -0.1500 
 10 C       -1.4410    -2.3390    -0.5890 C.3   1 <1>  -0.1060 
 11 C       -3.2880    -1.0740     0.7030 C.3   1 <1>  -0.1600 
 12 C        2.1300     2.6700    -1.3530 C.ar  1 <1>  -0.1440 
 13 C        3.2210     1.8280     0.6140 C.ar  1 <1>  -0.1500 
 14 C       -2.3060    -2.6450    -1.8220 C.2   1 <1>   0.9060 
 15 C       -2.2980    -2.2500     0.7000 C.3   1 <1>   0.2000 
 16 C       -0.3900    -3.4830    -0.4970 C.3   1 <1>  -0.0650 
 17 C        3.2940     2.4710    -0.6180 C.ar  1 <1>   0.0820 
 18 C        2.1740     3.3670    -2.7050 C.3   1 <1>  -0.0970 
 19 O       -3.4560    -3.0910    -1.6860 O.co2 1 <1>  -0.9000 
 20 O       -1.8240    -2.4790    -2.9480 O.co2 1 <1>  -0.9000 
 21 O       -3.0260    -3.4120     0.8630 O.3   1 <1>  -0.6800 
 22 C        0.6240    -3.3890     0.6580 C.3   1 <1>  -0.1950 
 23 O        4.4610     2.9210    -1.1470 O.3   1 <1>  -0.3620 
 24 C        1.9510    -2.7120     0.5030 C.3   1 <1>  -0.2000 
 25 C        1.8750    -4.2070     0.6060 C.3   1 <1>  -0.2000 
 26 C        5.6900     2.7730    -0.4720 C.3   1 <1>   0.0400 
 27 H       -0.5200    -0.8460    -1.8610 H     1 <1>   0.0800 
 28 H        0.2290    -1.0000    -0.3320 H     1 <1>   0.0800 
 29 H       -3.3870     0.9570    -0.0080 H     1 <1>   0.0800 
 30 H       -3.2480    -0.2290    -1.2650 H     1 <1>   0.0800 
 31 H        0.0130     2.3730    -1.4160 H     1 <1>   0.1500 
 32 H        1.9570     0.8910     2.0520 H     1 <1>   0.1500 
 33 H       -4.2730    -1.4140     0.4350 H     1 <1>   0.0800 
 34 H       -3.3380    -0.6670     1.6960 H     1 <1>   0.0800 
 35 H        4.0980     1.6590     1.2090 H     1 <1>   0.1500 
 36 H       -1.6600    -2.1550     1.5590 H     1 <1>   0.0800 
 37 H       -0.9170    -4.4170    -0.4000 H     1 <1>   0.0800 
 38 H        0.1450    -3.5320    -1.4310 H     1 <1>   0.0800 
 39 H        1.1940     3.4380    -3.1390 H     1 <1>   0.0800 
 40 H        2.8080     2.8170    -3.3760 H     1 <1>   0.0800 
 41 H        2.5730     4.3590    -2.5890 H     1 <1>   0.0800 
 42 H       -3.4540    -3.5660    -0.0300 H     1 <1>   0.4000 
 43 H        0.1480    -3.3460     1.6230 H     1 <1>   0.1000 
 44 H        2.2170    -2.2820    -0.4470 H     1 <1>   0.1000 
 45 H        2.3270    -2.1430     1.3350 H     1 <1>   0.1000 
 46 H        2.2120    -4.6850     1.5100 H     1 <1>   0.1000 
 47 H        2.0730    -4.7970    -0.2720 H     1 <1>   0.1000 
 48 H        6.4610     3.2070    -1.0840 H     1 <1>   0.0800 
 49 H        5.8850     1.7250    -0.3280 H     1 <1>   0.0800 
 50 H        5.6360     3.2900     0.4690 H     1 <1>   0.0800 
@<TRIPOS>BOND
  1   1   2  2   
  2   1   3  2   
  3   1   4  am  
  4   1   5  1   
  5   4   6  1   
  6   4   7  1   
  7   5   8  ar  
  8   5   9  ar  
  9   6  10  1   
 10   6  27  1   
 11   6  28  1   
 12   7  11  1   
 13   7  29  1   
 14   7  30  1   
 15   8  12  ar  
 16   8  31  1   
 17   9  13  ar  
 18   9  32  1   
 19  10  14  1   
 20  10  15  1   
 21  10  16  1   
 22  11  15  1   
 23  11  33  1   
 24  11  34  1   
 25  12  17  ar  
 26  12  18  1   
 27  13  17  ar  
 28  13  35  1   
 29  14  19  ar  
 30  14  20  ar  
 31  15  21  1   
 32  15  36  1   
 33  16  22  1   
 34  16  37  1   
 35  16  38  1   
 36  17  23  1   
 37  18  39  1   
 38  18  40  1   
 39  18  41  1   
 40  21  42  1   
 41  22  24  1   
 42  22  25  1   
 43  22  43  1   
 44  23  26  1   
 45  24  25  1   
 46  24  44  1   
 47  24  45  1   
 48  25  46  1   
 49  25  47  1   
 50  26  48  1   
 51  26  49  1   
 52  26  50  1   
@<TRIPOS>SUBSTRUCTURE
  1 ****   6 GROUP 4 **** **** 0

# MOE 2024.06 (io_trps.svl 2023.06)
