@<TRIPOS>MOLECULE
NONAME
51 53 1 0 0 
SMALL
USER_CHARGES


@<TRIPOS>ATOM
  1 O        0.4990     1.7750     1.3750 O.2   1 <1>  -0.5700 
  2 C        1.1590     0.7970     1.6390 C.2   1 <1>   0.5690 
  3 N        2.5170     0.8790     1.8300 N.am  1 <1>  -0.6600 
  4 C        0.4190    -0.5330     1.7120 C.3   1 <1>   0.0440 
  5 C        3.4270    -0.2690     2.1590 C.3   1 <1>   0.1400 
  6 C        3.2260     2.1750     1.6630 C.3   1 <1>   0.1400 
  7 C        0.8500    -1.4900     0.6060 C.ar  1 <1>  -0.1440 
  8 C        4.2490    -0.7470     0.9490 C.3   1 <1>   0.1400 
  9 C        3.5750     2.4310     0.1890 C.3   1 <1>  -0.1600 
 10 C        0.9560    -1.0410    -0.7040 C.ar  1 <1>   0.1600 
 11 C        1.1570    -2.8070     0.8840 C.ar  1 <1>  -0.1500 
 12 N        4.9920     0.3710     0.2900 N.am  1 <1>  -0.6600 
 13 C        4.1360     1.2250    -0.5790 C.3   1 <1>   0.1400 
 14 N        1.3590    -1.7780    -1.7260 N.ar  1 <1>  -0.6200 
 15 C        1.5670    -3.5910    -0.1730 C.ar  1 <1>  -0.1500 
 16 C        6.3270     0.5660     0.5300 C.2   1 <1>   0.5690 
 17 C        1.6520    -3.0350    -1.4380 C.ar  1 <1>   0.1600 
 18 O        6.9210    -0.1050     1.3420 O.2   1 <1>  -0.5700 
 19 C        7.0870     1.6510    -0.2270 C.3   1 <1>  -0.0990 
 20 C        8.5730     1.7750     0.1640 C.3   1 <1>  -0.1600 
 21 C        9.2890     2.8760    -0.6300 C.3   1 <1>   0.0210 
 22 C       10.7530     3.0060    -0.2400 C.2   1 <1>  -0.1810 
 23 C       11.6570     3.9110    -0.7900 C.2   1 <1>   0.1390 
 24 C       11.4750     2.3210     0.6730 C.2   1 <1>  -0.3020 
 25 N       12.8420     3.8050    -0.2710 N.2   1 <1>  -0.7070 
 26 N       12.7260     2.8170     0.6360 N.pl3 1 <1>   0.3000 
 27 H       -0.6350    -0.3470     1.6160 H     1 <1>   0.0800 
 28 H        0.5820    -0.9650     2.6810 H     1 <1>   0.0800 
 29 H        2.8630    -1.0980     2.5430 H     1 <1>   0.0800 
 30 H        4.1080     0.0320     2.9360 H     1 <1>   0.0800 
 31 H        4.1290     2.1670     2.2490 H     1 <1>   0.0800 
 32 H        2.6090     2.9780     2.0310 H     1 <1>   0.0800 
 33 H        3.6010    -1.2170     0.2320 H     1 <1>   0.0800 
 34 H        4.9430    -1.5000     1.2810 H     1 <1>   0.0800 
 35 H        4.2820     3.2380     0.1460 H     1 <1>   0.0800 
 36 H        2.6900     2.7720    -0.3170 H     1 <1>   0.0800 
 37 H        0.7030    -0.0160    -0.9240 H     1 <1>   0.1500 
 38 H        1.0820    -3.2140     1.8780 H     1 <1>   0.1500 
 39 H        4.6870     1.5600    -1.4400 H     1 <1>   0.0800 
 40 H        3.3130     0.6330    -0.9460 H     1 <1>   0.0800 
 41 H        1.8190    -4.6250    -0.0220 H     1 <1>   0.1500 
 42 H        1.9760    -3.6570    -2.2550 H     1 <1>   0.1500 
 43 H        6.6030     2.5910    -0.0450 H     1 <1>   0.0800 
 44 H        7.0210     1.4310    -1.2760 H     1 <1>   0.0800 
 45 H        9.0640     0.8330    -0.0130 H     1 <1>   0.0800 
 46 H        8.6430     1.9920     1.2160 H     1 <1>   0.0800 
 47 H        8.8020     3.8190    -0.4560 H     1 <1>   0.0800 
 48 H        9.2320     2.6560    -1.6810 H     1 <1>   0.0800 
 49 H       11.4140     4.6230    -1.5600 H     1 <1>   0.1500 
 50 H       11.1790     1.5250     1.3320 H     1 <1>   0.1500 
 51 H       13.5180     2.5070     1.2130 H     1 <1>   0.2700 
@<TRIPOS>BOND
  1   1   2  2   
  2   2   3  am  
  3   2   4  1   
  4   3   5  1   
  5   3   6  1   
  6   4   7  1   
  7   4  27  1   
  8   4  28  1   
  9   5   8  1   
 10   5  29  1   
 11   5  30  1   
 12   6   9  1   
 13   6  31  1   
 14   6  32  1   
 15   7  10  ar  
 16   7  11  ar  
 17   8  12  1   
 18   8  33  1   
 19   8  34  1   
 20   9  13  1   
 21   9  35  1   
 22   9  36  1   
 23  10  14  ar  
 24  10  37  1   
 25  11  15  ar  
 26  11  38  1   
 27  12  13  1   
 28  12  16  am  
 29  13  39  1   
 30  13  40  1   
 31  14  17  ar  
 32  15  17  ar  
 33  15  41  1   
 34  16  18  2   
 35  16  19  1   
 36  17  42  1   
 37  19  20  1   
 38  19  43  1   
 39  19  44  1   
 40  20  21  1   
 41  20  45  1   
 42  20  46  1   
 43  21  22  1   
 44  21  47  1   
 45  21  48  1   
 46  22  23  1   
 47  22  24  2   
 48  23  25  2   
 49  23  49  1   
 50  24  26  1   
 51  24  50  1   
 52  25  26  1   
 53  26  51  1   
@<TRIPOS>SUBSTRUCTURE
  1 ****  12 GROUP 4 **** **** 0

# MOE 2024.06 (io_trps.svl 2023.06)
