@<TRIPOS>MOLECULE
NONAME
48 49 1 0 0 
SMALL
USER_CHARGES


@<TRIPOS>ATOM
  1 O       -2.2420    -1.1240     0.7850 O.3   1 <1>  -0.3630 
  2 C       -2.0500     0.0890     0.2140 C.ar  1 <1>   0.3920 
  3 C       -1.7630    -1.3970     2.0910 C.3   1 <1>   0.0400 
  4 N       -1.4930     1.0450     0.9440 N.ar  1 <1>  -0.6200 
  5 C       -2.4710     0.2540    -1.1030 C.ar  1 <1>  -0.1430 
  6 C       -1.3360     2.2110     0.3400 C.ar  1 <1>   0.1600 
  7 C       -2.3000     1.4790    -1.7160 C.ar  1 <1>  -0.1500 
  8 C       -3.1070    -0.9060    -1.8400 C.3   1 <1>   0.4870 
  9 C       -1.7150     2.4760    -0.9640 C.ar  1 <1>  -0.1500 
 10 N       -4.3460    -1.3070    -1.1280 N.4   1 <1>  -0.9590 
 11 C       -4.9220    -2.6050    -1.5880 C.3   1 <1>   0.3430 
 12 C       -5.3640    -0.2090    -1.0310 C.3   1 <1>   0.3430 
 13 C       -5.9190    -3.1370    -0.5310 C.3   1 <1>   0.2000 
 14 C       -6.7790    -0.7780    -0.8560 C.3   1 <1>  -0.1600 
 15 O       -5.1710    -3.7900     0.4440 O.3   1 <1>  -0.6800 
 16 C       -6.7990    -2.0020     0.1040 C.3   1 <1>   0.0000 
 17 C       -6.2420    -1.5750     1.5010 C.3   1 <1>   0.1200 
 18 C       -8.2550    -2.5030     0.3190 C.3   1 <1>  -0.1600 
 19 O       -6.7830    -0.3630     1.9110 O.3   1 <1>  -0.6800 
 20 C       -9.0750    -2.8170    -0.9480 C.3   1 <1>  -0.1600 
 21 C      -10.4390    -3.4030    -0.5730 C.3   1 <1>  -0.2400 
 22 H       -2.0010    -2.4170     2.3370 H     1 <1>   0.0800 
 23 H       -2.2380    -0.7280     2.7870 H     1 <1>   0.0800 
 24 H       -0.6960    -1.2540     2.1080 H     1 <1>   0.0800 
 25 H       -0.8790     2.9990     0.9160 H     1 <1>   0.1500 
 26 H       -2.5980     1.6680    -2.7340 H     1 <1>   0.1500 
 27 H       -2.4130    -1.7300    -1.8590 H     1 <1>   0.0800 
 28 H       -3.3350    -0.6230    -2.8540 H     1 <1>   0.0800 
 29 H       -1.5500     3.4540    -1.3820 H     1 <1>   0.1500 
 30 H       -4.0230    -1.4960    -0.1620 H     1 <1>   0.4500 
 31 H       -5.4370    -2.4560    -2.5220 H     1 <1>   0.0800 
 32 H       -4.1470    -3.3390    -1.7360 H     1 <1>   0.0800 
 33 H       -5.1270     0.4190    -0.1850 H     1 <1>   0.0800 
 34 H       -5.3400     0.4050    -1.9160 H     1 <1>   0.0800 
 35 H       -6.5270    -3.8870    -1.0030 H     1 <1>   0.0800 
 36 H       -7.4260     0.0030    -0.4930 H     1 <1>   0.0800 
 37 H       -7.1540    -1.0500    -1.8250 H     1 <1>   0.0800 
 38 H       -5.7470    -4.3520     1.0050 H     1 <1>   0.4000 
 39 H       -5.1730    -1.4550     1.4850 H     1 <1>   0.0800 
 40 H       -6.4870    -2.3140     2.2460 H     1 <1>   0.0800 
 41 H       -8.2270    -3.3840     0.9380 H     1 <1>   0.0800 
 42 H       -8.7960    -1.7550     0.8750 H     1 <1>   0.0800 
 43 H       -6.5710    -0.1820     2.8500 H     1 <1>   0.4000 
 44 H       -9.2440    -1.9170    -1.5120 H     1 <1>   0.0800 
 45 H       -8.5670    -3.5210    -1.5810 H     1 <1>   0.0800 
 46 H      -10.9920    -2.7110     0.0380 H     1 <1>   0.0800 
 47 H      -10.3220    -4.3250    -0.0310 H     1 <1>   0.0800 
 48 H      -11.0120    -3.6030    -1.4620 H     1 <1>   0.0800 
@<TRIPOS>BOND
  1   1   2  1   
  2   1   3  1   
  3   2   4  ar  
  4   2   5  ar  
  5   3  22  1   
  6   3  23  1   
  7   3  24  1   
  8   4   6  ar  
  9   5   7  ar  
 10   5   8  1   
 11   6   9  ar  
 12   6  25  1   
 13   7   9  ar  
 14   7  26  1   
 15   8  10  1   
 16   8  27  1   
 17   8  28  1   
 18   9  29  1   
 19  10  11  1   
 20  10  12  1   
 21  10  30  1   
 22  11  13  1   
 23  11  31  1   
 24  11  32  1   
 25  12  14  1   
 26  12  33  1   
 27  12  34  1   
 28  13  15  1   
 29  13  16  1   
 30  13  35  1   
 31  14  16  1   
 32  14  36  1   
 33  14  37  1   
 34  15  38  1   
 35  16  17  1   
 36  16  18  1   
 37  17  19  1   
 38  17  39  1   
 39  17  40  1   
 40  18  20  1   
 41  18  41  1   
 42  18  42  1   
 43  19  43  1   
 44  20  21  1   
 45  20  44  1   
 46  20  45  1   
 47  21  46  1   
 48  21  47  1   
 49  21  48  1   
@<TRIPOS>SUBSTRUCTURE
  1 ****  10 GROUP 4 **** **** 0

# MOE 2024.06 (io_trps.svl 2023.06)
