@<TRIPOS>MOLECULE
NONAME
40 40 1 0 0 
SMALL
USER_CHARGES


@<TRIPOS>ATOM
  1 O       -0.0360     2.1130     0.9270 O.3   1 <1>  -0.5600 
  2 C        0.4800     2.4900    -0.3160 C.3   1 <1>   0.1200 
  3 C       -1.3850     2.4080     1.0870 C.3   1 <1>   0.0400 
  4 C        1.9550     2.0520    -0.4440 C.3   1 <1>   0.0000 
  5 C        2.7990     2.6100     0.7260 C.3   1 <1>   0.2090 
  6 C        2.5100     2.5540    -1.7910 C.3   1 <1>  -0.2400 
  7 C        2.0450     0.5140    -0.4370 C.3   1 <1>  -0.2400 
  8 N        2.6910     4.0910     0.8430 N.pl3 1 <1>  -0.8690 
  9 C        3.6660     5.0080     0.5310 C.ar  1 <1>   0.4100 
 10 N        4.7680     4.5500    -0.0260 N.ar  1 <1>  -0.6200 
 11 C        3.4900     6.3630     0.7850 C.ar  1 <1>  -0.1440 
 12 C        5.6830     5.4460    -0.3240 C.ar  1 <1>   0.4770 
 13 C        4.5260     7.1910     0.4260 C.ar  1 <1>   0.1600 
 14 C        2.1950     6.8630     1.4330 C.3   1 <1>  -0.0170 
 15 N        5.6350     6.7500    -0.1320 N.ar  1 <1>  -0.6200 
 16 C        6.9460     4.9190    -0.9610 C.3   1 <1>  -0.0970 
 17 C        2.1090     8.3800     1.6440 C.3   1 <1>  -0.2400 
 18 H        0.4000     3.5590    -0.4070 H     1 <1>   0.0800 
 19 H       -0.1090     2.0250    -1.0880 H     1 <1>   0.0800 
 20 H       -1.6810     2.0920     2.0720 H     1 <1>   0.0800 
 21 H       -1.9560     1.8720     0.3490 H     1 <1>   0.0800 
 22 H       -1.5320     3.4690     0.9860 H     1 <1>   0.0800 
 23 H        3.8280     2.3230     0.5960 H     1 <1>   0.0800 
 24 H        2.4590     2.1730     1.6490 H     1 <1>   0.0800 
 25 H        2.4450     3.6260    -1.8490 H     1 <1>   0.0800 
 26 H        1.9610     2.1340    -2.6140 H     1 <1>   0.0800 
 27 H        3.5460     2.2820    -1.8940 H     1 <1>   0.0800 
 28 H        1.6650     0.1200     0.4900 H     1 <1>   0.0800 
 29 H        3.0660     0.1940    -0.5500 H     1 <1>   0.0800 
 30 H        1.4650     0.0970    -1.2410 H     1 <1>   0.0800 
 31 H        1.8420     4.4080     1.3100 H     1 <1>   0.4000 
 32 H        4.4690     8.2520     0.5900 H     1 <1>   0.1500 
 33 H        2.0840     6.3800     2.3890 H     1 <1>   0.0800 
 34 H        1.3670     6.5600     0.8150 H     1 <1>   0.0800 
 35 H        6.7540     3.9780    -1.4430 H     1 <1>   0.0800 
 36 H        7.6920     4.7820    -0.2020 H     1 <1>   0.0800 
 37 H        7.3070     5.6180    -1.6910 H     1 <1>   0.0800 
 38 H        2.8960     8.7160     2.2960 H     1 <1>   0.0800 
 39 H        1.1660     8.6310     2.0970 H     1 <1>   0.0800 
 40 H        2.1800     8.8970     0.7030 H     1 <1>   0.0800 
@<TRIPOS>BOND
  1   1   2  1   
  2   1   3  1   
  3   2   4  1   
  4   2  18  1   
  5   2  19  1   
  6   3  20  1   
  7   3  21  1   
  8   3  22  1   
  9   4   5  1   
 10   4   6  1   
 11   4   7  1   
 12   5   8  1   
 13   5  23  1   
 14   5  24  1   
 15   6  25  1   
 16   6  26  1   
 17   6  27  1   
 18   7  28  1   
 19   7  29  1   
 20   7  30  1   
 21   8   9  1   
 22   8  31  1   
 23   9  10  ar  
 24   9  11  ar  
 25  10  12  ar  
 26  11  13  ar  
 27  11  14  1   
 28  12  15  ar  
 29  12  16  1   
 30  13  15  ar  
 31  13  32  1   
 32  14  17  1   
 33  14  33  1   
 34  14  34  1   
 35  16  35  1   
 36  16  36  1   
 37  16  37  1   
 38  17  38  1   
 39  17  39  1   
 40  17  40  1   
@<TRIPOS>SUBSTRUCTURE
  1 ****   8 GROUP 4 **** **** 0

# MOE 2024.06 (io_trps.svl 2023.06)
