@<TRIPOS>MOLECULE
NONAME
50 52 1 0 0 
SMALL
USER_CHARGES


@<TRIPOS>ATOM
  1 CL      -0.9780    -0.6380    -0.7610 Cl    1 <1>  -0.1770 
  2 C       -2.5700     0.0470    -0.5820 C.ar  1 <1>   0.1770 
  3 C       -2.9810     1.0500    -1.4390 C.ar  1 <1>  -0.1500 
  4 C       -3.4030    -0.4210     0.4160 C.ar  1 <1>  -0.1500 
  5 C       -4.2490     1.5850    -1.2950 C.ar  1 <1>  -0.1500 
  6 C       -4.6680     0.1230     0.5510 C.ar  1 <1>  -0.1500 
  7 C       -5.1210     1.1290    -0.3040 C.ar  1 <1>   0.0530 
  8 C       -6.4430     1.6850    -0.1770 C.2   1 <1>   0.0870 
  9 O       -6.6360     2.9670    -0.3490 O.3   1 <1>  -0.0190 
 10 C       -7.6540     1.1350     0.1110 C.2   1 <1>  -0.0860 
 11 N       -7.8830     3.3210    -0.1840 N.2   1 <1>  -0.4100 
 12 C       -8.5130     2.2360     0.0970 C.2   1 <1>   0.3720 
 13 C       -8.0510    -0.2200     0.3600 C.2   1 <1>   0.7160 
 14 N       -9.8800     2.1650     0.3430 N.pl3 1 <1>  -0.8520 
 15 O       -8.9780    -0.4390     1.1210 O.2   1 <1>  -0.5700 
 16 N       -7.4190    -1.2710    -0.2740 N.am  1 <1>  -0.6600 
 17 C      -10.5010     3.3250     1.0360 C.3   1 <1>   0.2090 
 18 C       -7.3340    -2.6720     0.2320 C.3   1 <1>   0.2200 
 19 C       -7.1590    -1.1900    -1.7380 C.3   1 <1>   0.1400 
 20 C      -12.0170     3.1470     1.0930 C.3   1 <1>   0.1200 
 21 C       -8.4300    -3.5050    -0.4420 C.3   1 <1>  -0.1600 
 22 C       -7.3650    -2.7950     1.7580 C.3   1 <1>  -0.2400 
 23 C       -8.2210    -2.0120    -2.4800 C.3   1 <1>  -0.1600 
 24 O      -12.5710     4.2040     1.8150 O.3   1 <1>  -0.5600 
 25 C       -8.2900    -3.4610    -1.9730 C.3   1 <1>  -0.1600 
 26 C      -13.9570     4.1550     1.9090 C.3   1 <1>   0.0400 
 27 H       -2.3140     1.4030    -2.2050 H     1 <1>   0.1500 
 28 H       -3.0610    -1.1990     1.0750 H     1 <1>   0.1500 
 29 H       -4.5720     2.3690    -1.9600 H     1 <1>   0.1500 
 30 H       -5.3150    -0.2350     1.3320 H     1 <1>   0.1500 
 31 H      -10.0940     1.2780     0.8250 H     1 <1>   0.4000 
 32 H      -10.2720     4.2310     0.4990 H     1 <1>   0.0800 
 33 H      -10.1050     3.3980     2.0340 H     1 <1>   0.0800 
 34 H       -6.3810    -3.0640    -0.0850 H     1 <1>   0.0800 
 35 H       -6.1760    -1.5780    -1.9460 H     1 <1>   0.0800 
 36 H       -7.1960    -0.1720    -2.0830 H     1 <1>   0.0800 
 37 H      -12.2650     2.2270     1.5920 H     1 <1>   0.0800 
 38 H      -12.4240     3.1570     0.0970 H     1 <1>   0.0800 
 39 H       -9.3920    -3.1220    -0.1490 H     1 <1>   0.0800 
 40 H       -8.3660    -4.5250    -0.1080 H     1 <1>   0.0800 
 41 H       -8.3480    -2.5990     2.1450 H     1 <1>   0.0800 
 42 H       -6.6600    -2.1190     2.2050 H     1 <1>   0.0800 
 43 H       -7.0980    -3.7960     2.0420 H     1 <1>   0.0800 
 44 H       -8.0030    -2.0080    -3.5330 H     1 <1>   0.0800 
 45 H       -9.1780    -1.5390    -2.3440 H     1 <1>   0.0800 
 46 H       -9.1240    -3.9670    -2.4280 H     1 <1>   0.0800 
 47 H       -7.3920    -3.9800    -2.2610 H     1 <1>   0.0800 
 48 H      -14.2840     5.0060     2.4810 H     1 <1>   0.0800 
 49 H      -14.2480     3.2480     2.4090 H     1 <1>   0.0800 
 50 H      -14.3820     4.1980     0.9210 H     1 <1>   0.0800 
@<TRIPOS>BOND
  1   1   2  1   
  2   2   3  ar  
  3   2   4  ar  
  4   3   5  ar  
  5   3  27  1   
  6   4   6  ar  
  7   4  28  1   
  8   5   7  ar  
  9   5  29  1   
 10   6   7  ar  
 11   6  30  1   
 12   7   8  1   
 13   8   9  1   
 14   8  10  2   
 15   9  11  1   
 16  10  12  1   
 17  10  13  1   
 18  11  12  2   
 19  12  14  1   
 20  13  15  2   
 21  13  16  am  
 22  14  17  1   
 23  14  31  1   
 24  16  18  1   
 25  16  19  1   
 26  17  20  1   
 27  17  32  1   
 28  17  33  1   
 29  18  21  1   
 30  18  22  1   
 31  18  34  1   
 32  19  23  1   
 33  19  35  1   
 34  19  36  1   
 35  20  24  1   
 36  20  37  1   
 37  20  38  1   
 38  21  25  1   
 39  21  39  1   
 40  21  40  1   
 41  22  41  1   
 42  22  42  1   
 43  22  43  1   
 44  23  25  1   
 45  23  44  1   
 46  23  45  1   
 47  24  26  1   
 48  25  46  1   
 49  25  47  1   
 50  26  48  1   
 51  26  49  1   
 52  26  50  1   
@<TRIPOS>SUBSTRUCTURE
  1 ****  10 GROUP 4 **** **** 0

# MOE 2024.06 (io_trps.svl 2023.06)
