@<TRIPOS>MOLECULE
NONAME
48 49 1 0 0 
SMALL
USER_CHARGES


@<TRIPOS>ATOM
  1 S       -1.0920     0.1100     0.2410 S.o2  1 <1>   1.3330 
  2 O       -0.9260     0.4580     1.6340 O.2   1 <1>  -0.6500 
  3 O       -2.2940     0.4910    -0.4640 O.2   1 <1>  -0.6500 
  4 N        0.2590     0.6600    -0.6270 N.am  1 <1>  -0.8490 
  5 C       -0.9610    -1.6740     0.0940 C.3   1 <1>  -0.0550 
  6 C        1.4710     0.7770     0.1920 C.3   1 <1>   0.1160 
  7 C        0.0020     1.9290    -1.3170 C.3   1 <1>   0.1160 
  8 C       -2.1360    -2.4050     0.7710 C.3   1 <1>  -0.1600 
  9 C       -2.0500    -3.9200     0.5840 C.3   1 <1>   0.3430 
 10 N       -3.1710    -4.5820     1.3010 N.4   1 <1>  -0.9590 
 11 C       -4.5320    -4.2980     0.7550 C.3   1 <1>   0.3430 
 12 C       -3.0330    -6.0730     1.3420 C.3   1 <1>   0.3430 
 13 C       -5.3690    -5.5170     1.1450 C.3   1 <1>   0.2000 
 14 C       -4.3940    -6.6740     0.9490 C.3   1 <1>  -0.0800 
 15 O       -5.6640    -5.4250     2.5000 O.3   1 <1>  -0.6800 
 16 C       -4.4140    -7.1760    -0.5110 C.3   1 <1>  -0.0170 
 17 C       -3.4050    -8.2870    -0.7480 C.ar  1 <1>   0.1670 
 18 N       -2.1600    -7.9020    -0.9870 N.ar  1 <1>  -0.6200 
 19 C       -3.8180    -9.6110    -0.7080 C.ar  1 <1>  -0.1500 
 20 C       -1.2930    -8.8810    -1.2090 C.ar  1 <1>   0.1600 
 21 C       -2.9020   -10.6160    -0.9310 C.ar  1 <1>  -0.1500 
 22 C       -1.6060   -10.2290    -1.1900 C.ar  1 <1>  -0.1500 
 23 H       -0.9370    -1.9260    -0.9490 H     1 <1>   0.0800 
 24 H       -0.0360    -1.9940     0.5340 H     1 <1>   0.0800 
 25 H        2.3120     1.0410    -0.4270 H     1 <1>   0.0800 
 26 H        1.6860    -0.1600     0.6750 H     1 <1>   0.0800 
 27 H        1.3430     1.5350     0.9490 H     1 <1>   0.0800 
 28 H        0.8720     2.2360    -1.8710 H     1 <1>   0.0800 
 29 H       -0.2560     2.6970    -0.6060 H     1 <1>   0.0800 
 30 H       -0.8140     1.8140    -2.0120 H     1 <1>   0.0800 
 31 H       -2.1280    -2.1670     1.8210 H     1 <1>   0.0800 
 32 H       -3.0510    -2.0340     0.3430 H     1 <1>   0.0800 
 33 H       -1.1110    -4.2740     0.9810 H     1 <1>   0.0800 
 34 H       -2.0870    -4.1680    -0.4650 H     1 <1>   0.0800 
 35 H       -3.1960    -4.2710     2.2840 H     1 <1>   0.4500 
 36 H       -4.9500    -3.3910     1.1610 H     1 <1>   0.0800 
 37 H       -4.4880    -4.2250    -0.3190 H     1 <1>   0.0800 
 38 H       -2.2510    -6.4020     0.6810 H     1 <1>   0.0800 
 39 H       -2.7810    -6.3820     2.3440 H     1 <1>   0.0800 
 40 H       -6.2870    -5.5980     0.5870 H     1 <1>   0.0800 
 41 H       -4.6340    -7.5030     1.5920 H     1 <1>   0.0800 
 42 H       -6.3250    -6.0980     2.7710 H     1 <1>   0.4000 
 43 H       -4.1980    -6.3740    -1.1950 H     1 <1>   0.0800 
 44 H       -5.3970    -7.5420    -0.7490 H     1 <1>   0.0800 
 45 H       -4.8430    -9.8640    -0.5090 H     1 <1>   0.1500 
 46 H       -0.2760    -8.5980    -1.4180 H     1 <1>   0.1500 
 47 H       -3.1850   -11.6550    -0.9090 H     1 <1>   0.1500 
 48 H       -0.8440   -10.9640    -1.3780 H     1 <1>   0.1500 
@<TRIPOS>BOND
  1   1   2  2   
  2   1   3  2   
  3   1   4  am  
  4   1   5  1   
  5   4   6  1   
  6   4   7  1   
  7   5   8  1   
  8   5  23  1   
  9   5  24  1   
 10   6  25  1   
 11   6  26  1   
 12   6  27  1   
 13   7  28  1   
 14   7  29  1   
 15   7  30  1   
 16   8   9  1   
 17   8  31  1   
 18   8  32  1   
 19   9  10  1   
 20   9  33  1   
 21   9  34  1   
 22  10  11  1   
 23  10  12  1   
 24  10  35  1   
 25  11  13  1   
 26  11  36  1   
 27  11  37  1   
 28  12  14  1   
 29  12  38  1   
 30  12  39  1   
 31  13  14  1   
 32  13  15  1   
 33  13  40  1   
 34  14  16  1   
 35  14  41  1   
 36  15  42  1   
 37  16  17  1   
 38  16  43  1   
 39  16  44  1   
 40  17  18  ar  
 41  17  19  ar  
 42  18  20  ar  
 43  19  21  ar  
 44  19  45  1   
 45  20  22  ar  
 46  20  46  1   
 47  21  22  ar  
 48  21  47  1   
 49  22  48  1   
@<TRIPOS>SUBSTRUCTURE
  1 ****   9 GROUP 4 **** **** 0

# MOE 2024.06 (io_trps.svl 2023.06)
