@<TRIPOS>MOLECULE
NONAME
52 56 1 0 0 
SMALL
USER_CHARGES


@<TRIPOS>ATOM
  1 O       -0.1760     0.2180     0.4850 O.2   1 <1>  -0.5700 
  2 C       -1.2260     0.8320     0.4560 C.2   1 <1>   0.5440 
  3 N       -2.3990     0.1220     0.3270 N.am  1 <1>  -0.6600 
  4 C       -1.2220     2.2790     0.5330 C.ar  1 <1>   0.0860 
  5 C       -3.6790     0.6980    -0.1570 C.3   1 <1>   0.1400 
  6 C       -2.4180    -1.3580     0.2190 C.3   1 <1>   0.1400 
  7 C       -0.4010     3.0340    -0.2900 C.ar  1 <1>  -0.1500 
  8 C       -2.0540     2.9620     1.4460 C.ar  1 <1>  -0.1500 
  9 C       -4.4620    -0.4930    -0.7100 C.3   1 <1>   0.2000 
 10 C       -3.8870    -1.7220    -0.0100 C.3   1 <1>  -0.0800 
 11 C       -0.4290     4.4260    -0.2270 C.ar  1 <1>  -0.1520 
 12 C       -2.0870     4.3350     1.5140 C.ar  1 <1>  -0.1500 
 13 O       -5.8180    -0.3860    -0.4400 O.3   1 <1>  -0.6800 
 14 C       -4.0990    -3.0160    -0.8150 C.3   1 <1>  -0.0170 
 15 N        0.2760     5.3700    -0.9360 N.pl3 1 <1>   0.0330 
 16 C       -1.2700     5.0850     0.6640 C.ar  1 <1>   0.0000 
 17 C       -3.5760    -4.2330    -0.0700 C.ar  1 <1>   0.1670 
 18 C       -0.1170     6.6020    -0.5000 C.2   1 <1>  -0.3320 
 19 C       -1.0550     6.4640     0.4620 C.2   1 <1>  -0.1810 
 20 N       -2.2830    -4.4890    -0.1890 N.ar  1 <1>  -0.6200 
 21 C       -4.4470    -5.0110     0.6910 C.ar  1 <1>   0.1600 
 22 C        0.4100     7.9260    -1.0180 C.3   1 <1>   0.0200 
 23 C       -1.7190     7.6270     1.1720 C.3   1 <1>   0.0210 
 24 C       -1.9220    -5.5600     0.4980 C.ar  1 <1>   0.1600 
 25 N       -4.0880    -6.0820     1.3800 N.ar  1 <1>  -0.6200 
 26 C       -0.0030     9.0620    -0.0630 C.3   1 <1>  -0.1600 
 27 C       -1.4700     8.9340     0.3960 C.3   1 <1>  -0.1600 
 28 C       -2.7950    -6.3300     1.2570 C.ar  1 <1>   0.1600 
 29 H       -4.2000     1.1470     0.6690 H     1 <1>   0.0800 
 30 H       -3.4990     1.4290    -0.9270 H     1 <1>   0.0800 
 31 H       -1.8100    -1.6570    -0.6180 H     1 <1>   0.0800 
 32 H       -2.0290    -1.8120     1.1150 H     1 <1>   0.0800 
 33 H        0.2600     2.5400    -0.9800 H     1 <1>   0.1500 
 34 H       -2.6700     2.3780     2.1050 H     1 <1>   0.1500 
 35 H       -4.3300    -0.5520    -1.7770 H     1 <1>   0.0800 
 36 H       -4.3410    -1.8250     0.9600 H     1 <1>   0.0800 
 37 H       -2.7240     4.8490     2.2110 H     1 <1>   0.1500 
 38 H       -5.9690    -0.3220     0.5230 H     1 <1>   0.4000 
 39 H       -3.6000    -2.9440    -1.7650 H     1 <1>   0.0800 
 40 H       -5.1490    -3.1410    -1.0110 H     1 <1>   0.0800 
 41 H        0.9760     5.1700    -1.6550 H     1 <1>   0.2700 
 42 H       -5.4850    -4.7360     0.7340 H     1 <1>   0.1500 
 43 H        1.4820     7.8960    -1.0990 H     1 <1>   0.0800 
 44 H       -0.0030     8.1060    -1.9950 H     1 <1>   0.0800 
 45 H       -2.7760     7.4490     1.2560 H     1 <1>   0.0800 
 46 H       -1.3060     7.7040     2.1620 H     1 <1>   0.0800 
 47 H       -0.8850    -5.8420     0.4590 H     1 <1>   0.1500 
 48 H        0.6340     9.0320     0.8050 H     1 <1>   0.0800 
 49 H        0.1480    10.0100    -0.5490 H     1 <1>   0.0800 
 50 H       -2.1060     8.9480    -0.4720 H     1 <1>   0.0800 
 51 H       -1.7350     9.7730     1.0150 H     1 <1>   0.0800 
 52 H       -2.4070    -7.1840     1.7830 H     1 <1>   0.1500 
@<TRIPOS>BOND
  1   1   2  2   
  2   2   3  am  
  3   2   4  1   
  4   3   5  1   
  5   3   6  1   
  6   4   7  ar  
  7   4   8  ar  
  8   5   9  1   
  9   5  29  1   
 10   5  30  1   
 11   6  10  1   
 12   6  31  1   
 13   6  32  1   
 14   7  11  ar  
 15   7  33  1   
 16   8  12  ar  
 17   8  34  1   
 18   9  10  1   
 19   9  13  1   
 20   9  35  1   
 21  10  14  1   
 22  10  36  1   
 23  11  15  1   
 24  11  16  ar  
 25  12  16  ar  
 26  12  37  1   
 27  13  38  1   
 28  14  17  1   
 29  14  39  1   
 30  14  40  1   
 31  15  18  1   
 32  15  41  1   
 33  16  19  1   
 34  17  20  ar  
 35  17  21  ar  
 36  18  19  2   
 37  18  22  1   
 38  19  23  1   
 39  20  24  ar  
 40  21  25  ar  
 41  21  42  1   
 42  22  26  1   
 43  22  43  1   
 44  22  44  1   
 45  23  27  1   
 46  23  45  1   
 47  23  46  1   
 48  24  28  ar  
 49  24  47  1   
 50  25  28  ar  
 51  26  27  1   
 52  26  48  1   
 53  26  49  1   
 54  27  50  1   
 55  27  51  1   
 56  28  52  1   
@<TRIPOS>SUBSTRUCTURE
  1 ****   2 GROUP 4 **** **** 0

# MOE 2024.06 (io_trps.svl 2023.06)
