@<TRIPOS>MOLECULE
NONAME
48 50 1 0 0 
SMALL
USER_CHARGES


@<TRIPOS>ATOM
  1 F       -1.9550    -1.0030    -1.3460 F     1 <1>  -0.3400 
  2 C       -2.6570    -0.2440    -0.5210 C.3   1 <1>   0.8800 
  3 F       -2.7650    -0.9400     0.6040 F     1 <1>  -0.3400 
  4 O       -3.9530    -0.1220    -1.0650 O.3   1 <1>  -0.3630 
  5 C       -4.7620     0.7720    -0.4620 C.ar  1 <1>   0.0830 
  6 C       -5.7940     0.3250     0.3560 C.ar  1 <1>  -0.1440 
  7 C       -4.5720     2.1280    -0.6840 C.ar  1 <1>  -0.1500 
  8 C       -6.6260     1.2540     0.9630 C.ar  1 <1>  -0.1500 
  9 C       -6.0140    -1.1590     0.5870 C.3   1 <1>   0.4870 
 10 C       -5.4070     3.0450    -0.0730 C.ar  1 <1>  -0.1500 
 11 C       -6.4310     2.6080     0.7500 C.ar  1 <1>  -0.1500 
 12 N       -6.3090    -1.8080    -0.7170 N.4   1 <1>  -0.9590 
 13 C       -7.6260    -1.3460    -1.2560 C.3   1 <1>   0.3430 
 14 C       -6.3970    -3.2910    -0.5630 C.3   1 <1>   0.3430 
 15 C       -8.6350    -2.4090    -0.8220 C.3   1 <1>   0.2000 
 16 C       -7.8200    -3.6940    -0.9640 C.3   1 <1>  -0.0800 
 17 O       -8.9290    -2.1970     0.5310 O.3   1 <1>  -0.5600 
 18 C       -8.3420    -4.9140    -0.1810 C.3   1 <1>   0.0200 
 19 C      -10.2900    -2.1810     0.8460 C.3   1 <1>   0.0400 
 20 C       -7.3450    -6.0520    -0.2570 C.2   1 <1>  -0.0400 
 21 O       -6.8570    -6.4130    -1.4140 O.3   1 <1>  -0.0190 
 22 C       -6.7880    -6.8280     0.6850 C.2   1 <1>  -0.1500 
 23 N       -5.9920    -7.3750    -1.2950 N.2   1 <1>  -0.4100 
 24 C       -5.9360    -7.6540    -0.0420 C.2   1 <1>   0.1080 
 25 C       -5.0580    -8.7360     0.5480 C.3   1 <1>  -0.0590 
 26 H       -2.1600     0.6950    -0.3490 H     1 <1>   0.0800 
 27 H       -3.7860     2.4720    -1.3330 H     1 <1>   0.1500 
 28 H       -7.4300     0.9380     1.6070 H     1 <1>   0.1500 
 29 H       -6.8330    -1.3110     1.2720 H     1 <1>   0.0800 
 30 H       -5.1230    -1.5850     1.0180 H     1 <1>   0.0800 
 31 H       -5.2650     4.1000    -0.2380 H     1 <1>   0.1500 
 32 H       -7.0780     3.3280     1.2250 H     1 <1>   0.1500 
 33 H       -5.5430    -1.5320    -1.3500 H     1 <1>   0.4500 
 34 H       -7.9020    -0.3700    -0.8910 H     1 <1>   0.0800 
 35 H       -7.5820    -1.3210    -2.3320 H     1 <1>   0.0800 
 36 H       -5.6740    -3.7950    -1.1860 H     1 <1>   0.0800 
 37 H       -6.2200    -3.5680     0.4640 H     1 <1>   0.0800 
 38 H       -9.5330    -2.3960    -1.4200 H     1 <1>   0.0800 
 39 H       -7.7920    -3.9560    -2.0070 H     1 <1>   0.0800 
 40 H       -9.2800    -5.2380    -0.5980 H     1 <1>   0.0800 
 41 H       -8.5030    -4.6690     0.8540 H     1 <1>   0.0800 
 42 H      -10.3890    -2.0370     1.9080 H     1 <1>   0.0800 
 43 H      -10.7360    -3.1200     0.5670 H     1 <1>   0.0800 
 44 H      -10.7680    -1.3670     0.3270 H     1 <1>   0.0800 
 45 H       -6.9330    -6.8430     1.7500 H     1 <1>   0.1500 
 46 H       -4.5030    -8.3480     1.3820 H     1 <1>   0.0800 
 47 H       -4.3670    -9.0940    -0.1940 H     1 <1>   0.0800 
 48 H       -5.6670    -9.5570     0.8790 H     1 <1>   0.0800 
@<TRIPOS>BOND
  1   1   2  1   
  2   2   3  1   
  3   2   4  1   
  4   2  26  1   
  5   4   5  1   
  6   5   6  ar  
  7   5   7  ar  
  8   6   8  ar  
  9   6   9  1   
 10   7  10  ar  
 11   7  27  1   
 12   8  11  ar  
 13   8  28  1   
 14   9  12  1   
 15   9  29  1   
 16   9  30  1   
 17  10  11  ar  
 18  10  31  1   
 19  11  32  1   
 20  12  13  1   
 21  12  14  1   
 22  12  33  1   
 23  13  15  1   
 24  13  34  1   
 25  13  35  1   
 26  14  16  1   
 27  14  36  1   
 28  14  37  1   
 29  15  16  1   
 30  15  17  1   
 31  15  38  1   
 32  16  18  1   
 33  16  39  1   
 34  17  19  1   
 35  18  20  1   
 36  18  40  1   
 37  18  41  1   
 38  19  42  1   
 39  19  43  1   
 40  19  44  1   
 41  20  21  1   
 42  20  22  2   
 43  21  23  1   
 44  22  24  1   
 45  22  45  1   
 46  23  24  2   
 47  24  25  1   
 48  25  46  1   
 49  25  47  1   
 50  25  48  1   
@<TRIPOS>SUBSTRUCTURE
  1 ****  12 GROUP 4 **** **** 0

# MOE 2024.06 (io_trps.svl 2023.06)
