@<TRIPOS>MOLECULE
NONAME
47 49 1 0 0 
SMALL
USER_CHARGES


@<TRIPOS>ATOM
  1 S       -1.8530     0.3150    -1.6040 S.3   1 <1>  -0.0800 
  2 C       -2.3980     0.6430     0.0350 C.2   1 <1>  -0.1400 
  3 C       -0.3610     1.1970    -1.3310 C.2   1 <1>  -0.1100 
  4 C       -1.4820     1.3740     0.6980 C.2   1 <1>  -0.1500 
  5 C       -3.7490     0.0950     0.4500 C.3   1 <1>   0.0200 
  6 C       -0.3220     1.6880    -0.0800 C.2   1 <1>  -0.1500 
  7 C       -3.6960    -1.4300     0.5960 C.3   1 <1>  -0.1600 
  8 C       -5.0720    -2.0210     0.9450 C.3   1 <1>  -0.0990 
  9 C       -5.0140    -3.5340     1.0870 C.2   1 <1>   0.5690 
 10 O       -4.9150    -3.9720     2.2070 O.2   1 <1>  -0.5700 
 11 N       -5.0610    -4.3480    -0.0130 N.am  1 <1>  -0.6600 
 12 C       -4.8960    -5.8350     0.1470 C.3   1 <1>   0.3640 
 13 C       -5.3200    -3.8600    -1.4060 C.3   1 <1>   0.1400 
 14 C       -3.4440    -6.2860    -0.0900 C.ar  1 <1>  -0.1430 
 15 C       -5.8850    -6.6360    -0.7620 C.3   1 <1>   0.2000 
 16 C       -5.4190    -5.0070    -2.4220 C.3   1 <1>   0.1200 
 17 C       -3.0980    -7.5810     0.2770 C.ar  1 <1>  -0.1500 
 18 C       -2.4560    -5.4710    -0.6350 C.ar  1 <1>  -0.1500 
 19 O       -6.2990    -5.9690    -1.9350 O.3   1 <1>  -0.5600 
 20 C       -7.1600    -7.0090     0.0020 C.3   1 <1>   0.1200 
 21 C       -1.8140    -8.0590     0.0850 C.ar  1 <1>  -0.1500 
 22 C       -1.1700    -5.9460    -0.8290 C.ar  1 <1>  -0.1500 
 23 O       -6.8870    -8.0100     0.9310 O.3   1 <1>  -0.6800 
 24 C       -0.8480    -7.2420    -0.4720 C.ar  1 <1>  -0.1500 
 25 H        0.3370     1.2550    -2.1480 H     1 <1>   0.1500 
 26 H       -1.5690     1.7130     1.7150 H     1 <1>   0.1500 
 27 H       -4.0350     0.5350     1.3900 H     1 <1>   0.0800 
 28 H       -4.4810     0.3740    -0.2880 H     1 <1>   0.0800 
 29 H        0.4820     2.2670     0.3400 H     1 <1>   0.1500 
 30 H       -3.3370    -1.8640    -0.3190 H     1 <1>   0.0800 
 31 H       -2.9940    -1.6860     1.3720 H     1 <1>   0.0800 
 32 H       -5.8000    -1.7490     0.2040 H     1 <1>   0.0800 
 33 H       -5.4030    -1.6120     1.8830 H     1 <1>   0.0800 
 34 H       -5.1170    -6.1000     1.1670 H     1 <1>   0.0800 
 35 H       -6.2490    -3.3180    -1.4210 H     1 <1>   0.0800 
 36 H       -4.5360    -3.1910    -1.7110 H     1 <1>   0.0800 
 37 H       -5.4130    -7.5450    -1.0870 H     1 <1>   0.0800 
 38 H       -4.4610    -5.4630    -2.6020 H     1 <1>   0.0800 
 39 H       -5.8090    -4.6440    -3.3560 H     1 <1>   0.0800 
 40 H       -3.8330    -8.2290     0.7240 H     1 <1>   0.1500 
 41 H       -2.6660    -4.4550    -0.9090 H     1 <1>   0.1500 
 42 H       -7.9150    -7.3770    -0.6720 H     1 <1>   0.0800 
 43 H       -7.5380    -6.1530     0.5350 H     1 <1>   0.0800 
 44 H       -1.5650    -9.0660     0.3730 H     1 <1>   0.1500 
 45 H       -0.4190    -5.3030    -1.2530 H     1 <1>   0.1500 
 46 H       -6.8520    -8.8850     0.4960 H     1 <1>   0.4000 
 47 H        0.1510    -7.6110    -0.6220 H     1 <1>   0.1500 
@<TRIPOS>BOND
  1   1   2  1   
  2   1   3  1   
  3   2   4  2   
  4   2   5  1   
  5   3   6  2   
  6   3  25  1   
  7   4   6  1   
  8   4  26  1   
  9   5   7  1   
 10   5  27  1   
 11   5  28  1   
 12   6  29  1   
 13   7   8  1   
 14   7  30  1   
 15   7  31  1   
 16   8   9  1   
 17   8  32  1   
 18   8  33  1   
 19   9  10  2   
 20   9  11  am  
 21  11  12  1   
 22  11  13  1   
 23  12  14  1   
 24  12  15  1   
 25  12  34  1   
 26  13  16  1   
 27  13  35  1   
 28  13  36  1   
 29  14  17  ar  
 30  14  18  ar  
 31  15  19  1   
 32  15  20  1   
 33  15  37  1   
 34  16  19  1   
 35  16  38  1   
 36  16  39  1   
 37  17  21  ar  
 38  17  40  1   
 39  18  22  ar  
 40  18  41  1   
 41  20  23  1   
 42  20  42  1   
 43  20  43  1   
 44  21  24  ar  
 45  21  44  1   
 46  22  24  ar  
 47  22  45  1   
 48  23  46  1   
 49  24  47  1   
@<TRIPOS>SUBSTRUCTURE
  1 ****  11 GROUP 4 **** **** 0

# MOE 2024.06 (io_trps.svl 2023.06)
