@<TRIPOS>MOLECULE
NONAME
54 56 1 0 0 
SMALL
USER_CHARGES


@<TRIPOS>ATOM
  1 S        0.5960    -1.4430     1.0360 S.o2  1 <1>   1.4470 
  2 O        1.4340    -2.6210     1.0330 O.2   1 <1>  -0.6500 
  3 O       -0.2950    -1.2110     2.1520 O.2   1 <1>  -0.6500 
  4 N       -0.3470    -1.5040    -0.3740 N.am  1 <1>  -0.8490 
  5 C        1.6340     0.0210     0.7550 C.ar  1 <1>  -0.0090 
  6 C       -1.3600    -0.4290    -0.4870 C.3   1 <1>   0.1960 
  7 C       -0.9890    -2.8150    -0.5920 C.3   1 <1>   0.1960 
  8 C        1.5600     1.1350     1.5830 C.ar  1 <1>  -0.1500 
  9 C        2.5210     0.0750    -0.3130 C.ar  1 <1>  -0.1500 
 10 C       -2.6730    -0.6950     0.3020 C.3   1 <1>   0.2950 
 11 C       -2.2640    -3.0080     0.2640 C.3   1 <1>   0.2000 
 12 C        2.3390     2.2550     1.3490 C.ar  1 <1>  -0.1500 
 13 C        3.3000     1.1940    -0.5470 C.ar  1 <1>  -0.1500 
 14 O       -3.1590    -1.9700    -0.0030 O.3   1 <1>  -0.5600 
 15 C       -3.8120     0.2960     0.0040 C.3   1 <1>  -0.1950 
 16 C       -3.0030    -4.3170    -0.0430 C.3   1 <1>  -0.1600 
 17 C        3.2320     2.3150     0.2810 C.ar  1 <1>   0.0860 
 18 C       -4.1720     0.7780    -1.3680 C.3   1 <1>  -0.2000 
 19 C       -3.5880     1.7330    -0.3630 C.3   1 <1>  -0.2000 
 20 C       -2.2000    -5.5670     0.3510 C.3   1 <1>  -0.1600 
 21 C        4.0420     3.5000     0.0520 C.2   1 <1>   0.5440 
 22 C       -3.0200    -6.8410     0.1200 C.3   1 <1>  -0.1600 
 23 O        3.6310     4.5960     0.3750 O.2   1 <1>  -0.5700 
 24 N        5.2830     3.4010    -0.5170 N.am  1 <1>  -0.7300 
 25 C       -2.2210    -8.0880     0.5080 C.3   1 <1>  -0.2400 
 26 C        6.1900     4.5410    -0.8120 C.3   1 <1>   0.0600 
 27 H       -0.9360     0.5060    -0.1670 H     1 <1>   0.0800 
 28 H       -1.6100    -0.3230    -1.5270 H     1 <1>   0.0800 
 29 H       -1.2650    -2.8960    -1.6290 H     1 <1>   0.0800 
 30 H       -0.2860    -3.6040    -0.3910 H     1 <1>   0.0800 
 31 H        0.8840     1.1290     2.4220 H     1 <1>   0.1500 
 32 H        2.5940    -0.7750    -0.9710 H     1 <1>   0.1500 
 33 H       -2.4810    -0.6600     1.3590 H     1 <1>   0.0800 
 34 H       -2.0200    -2.9820     1.3130 H     1 <1>   0.0800 
 35 H        2.2590     3.1070     2.0050 H     1 <1>   0.1500 
 36 H        3.9640     1.2010    -1.3940 H     1 <1>   0.1500 
 37 H       -4.6390     0.1080     0.6670 H     1 <1>   0.1000 
 38 H       -3.9270    -4.3140     0.5090 H     1 <1>   0.0800 
 39 H       -3.2400    -4.3540    -1.0920 H     1 <1>   0.0800 
 40 H       -3.5790     0.4740    -2.2120 H     1 <1>   0.1000 
 41 H       -5.2160     0.8580    -1.6170 H     1 <1>   0.1000 
 42 H       -4.2330     2.4780     0.0700 H     1 <1>   0.1000 
 43 H       -2.5990     2.1130    -0.5480 H     1 <1>   0.1000 
 44 H       -1.2960    -5.6250    -0.2310 H     1 <1>   0.0800 
 45 H       -1.9260    -5.5050     1.3910 H     1 <1>   0.0800 
 46 H       -3.9220    -6.8030     0.7070 H     1 <1>   0.0800 
 47 H       -3.3010    -6.9090    -0.9180 H     1 <1>   0.0800 
 48 H        5.6780     2.4720    -0.6760 H     1 <1>   0.3700 
 49 H       -1.9480    -8.0520     1.5480 H     1 <1>   0.0800 
 50 H       -1.3250    -8.1610    -0.0830 H     1 <1>   0.0800 
 51 H       -2.8130    -8.9710     0.3410 H     1 <1>   0.0800 
 52 H        5.6880     5.4780    -0.6360 H     1 <1>   0.0800 
 53 H        6.4990     4.5050    -1.8420 H     1 <1>   0.0800 
 54 H        7.0580     4.4900    -0.1780 H     1 <1>   0.0800 
@<TRIPOS>BOND
  1   1   2  2   
  2   1   3  2   
  3   1   4  am  
  4   1   5  1   
  5   4   6  1   
  6   4   7  1   
  7   5   8  ar  
  8   5   9  ar  
  9   6  10  1   
 10   6  27  1   
 11   6  28  1   
 12   7  11  1   
 13   7  29  1   
 14   7  30  1   
 15   8  12  ar  
 16   8  31  1   
 17   9  13  ar  
 18   9  32  1   
 19  10  14  1   
 20  10  15  1   
 21  10  33  1   
 22  11  14  1   
 23  11  16  1   
 24  11  34  1   
 25  12  17  ar  
 26  12  35  1   
 27  13  17  ar  
 28  13  36  1   
 29  15  18  1   
 30  15  19  1   
 31  15  37  1   
 32  16  20  1   
 33  16  38  1   
 34  16  39  1   
 35  17  21  1   
 36  18  19  1   
 37  18  40  1   
 38  18  41  1   
 39  19  42  1   
 40  19  43  1   
 41  20  22  1   
 42  20  44  1   
 43  20  45  1   
 44  21  23  2   
 45  21  24  am  
 46  22  25  1   
 47  22  46  1   
 48  22  47  1   
 49  24  26  1   
 50  24  48  1   
 51  25  49  1   
 52  25  50  1   
 53  25  51  1   
 54  26  52  1   
 55  26  53  1   
 56  26  54  1   
@<TRIPOS>SUBSTRUCTURE
  1 ****   4 GROUP 4 **** **** 0

# MOE 2024.06 (io_trps.svl 2023.06)
