@<TRIPOS>MOLECULE
NONAME
42 43 1 0 0 
SMALL
USER_CHARGES


@<TRIPOS>ATOM
  1 O        0.4820     0.2370     1.0560 O.2   1 <1>  -0.5700 
  2 C        1.3630    -0.4320     0.5420 C.2   1 <1>   0.5440 
  3 N        2.1570     0.1610    -0.4190 N.am  1 <1>  -0.6600 
  4 C        1.5350    -1.8130     0.9370 C.ar  1 <1>   0.0860 
  5 C        2.1300     1.6510    -0.6050 C.3   1 <1>   0.3200 
  6 C        2.9010    -0.6200    -1.4470 C.3   1 <1>   0.1400 
  7 C        0.4710    -2.7290     0.8630 C.ar  1 <1>   0.1000 
  8 C        2.7680    -2.2720     1.4010 C.ar  1 <1>  -0.1500 
  9 C        3.2740     2.3450     0.1210 C.2   1 <1>   0.2980 
 10 C        4.4080    -0.4170    -1.3040 C.3   1 <1>  -0.2400 
 11 N       -0.7900    -2.3340     0.4500 N.pl3 1 <1>  -0.9000 
 12 C        0.6740    -4.0600     1.2140 C.ar  1 <1>  -0.1500 
 13 C        2.9510    -3.5940     1.7470 C.ar  1 <1>   0.0830 
 14 O        3.4150     2.1510     1.4090 O.3   1 <1>  -0.0190 
 15 N        4.1340     3.1200    -0.4140 N.2   1 <1>  -0.5650 
 16 C        1.9060    -4.4990     1.6540 C.ar  1 <1>  -0.1500 
 17 O        4.1590    -3.9990     2.1770 O.3   1 <1>  -0.5330 
 18 N        4.4560     2.8600     1.7200 N.2   1 <1>  -0.4100 
 19 C        4.8670     3.4200     0.6510 C.2   1 <1>   0.3350 
 20 C        6.0690     4.3600     0.5310 C.3   1 <1>   0.1010 
 21 C        7.1320     4.1000     1.6100 C.3   1 <1>  -0.2400 
 22 C        5.6140     5.8260     0.5850 C.3   1 <1>  -0.2400 
 23 H        1.2040     2.0610    -0.2450 H     1 <1>   0.0800 
 24 H        2.1940     1.8800    -1.6530 H     1 <1>   0.0800 
 25 H        2.5830    -0.3110    -2.4280 H     1 <1>   0.0800 
 26 H        2.6730    -1.6680    -1.3520 H     1 <1>   0.0800 
 27 H        3.5890    -1.5850     1.4950 H     1 <1>   0.1500 
 28 H        4.6850     0.5880    -1.5650 H     1 <1>   0.0800 
 29 H        4.9240    -1.0860    -1.9680 H     1 <1>   0.0800 
 30 H        4.7280    -0.6240    -0.2990 H     1 <1>   0.0800 
 31 H       -1.5890    -2.8600     0.8120 H     1 <1>   0.4000 
 32 H       -0.9530    -1.3150     0.5220 H     1 <1>   0.4000 
 33 H       -0.1450    -4.7510     1.1380 H     1 <1>   0.1500 
 34 H        2.0490    -5.5300     1.9200 H     1 <1>   0.1500 
 35 H        4.1750    -4.9410     2.4210 H     1 <1>   0.4500 
 36 H        6.5210     4.1810    -0.4290 H     1 <1>   0.0800 
 37 H        6.7270     4.2870     2.5890 H     1 <1>   0.0800 
 38 H        7.9850     4.7370     1.4600 H     1 <1>   0.0800 
 39 H        7.4560     3.0750     1.5650 H     1 <1>   0.0800 
 40 H        5.1460     6.0350     1.5310 H     1 <1>   0.0800 
 41 H        4.9020     6.0170    -0.1980 H     1 <1>   0.0800 
 42 H        6.4530     6.4860     0.4550 H     1 <1>   0.0800 
@<TRIPOS>BOND
  1   1   2  2   
  2   2   3  am  
  3   2   4  1   
  4   3   5  1   
  5   3   6  1   
  6   4   7  ar  
  7   4   8  ar  
  8   5   9  1   
  9   5  23  1   
 10   5  24  1   
 11   6  10  1   
 12   6  25  1   
 13   6  26  1   
 14   7  11  1   
 15   7  12  ar  
 16   8  13  ar  
 17   8  27  1   
 18   9  14  1   
 19   9  15  2   
 20  10  28  1   
 21  10  29  1   
 22  10  30  1   
 23  11  31  1   
 24  11  32  1   
 25  12  16  ar  
 26  12  33  1   
 27  13  16  ar  
 28  13  17  1   
 29  14  18  1   
 30  15  19  1   
 31  16  34  1   
 32  17  35  1   
 33  18  19  2   
 34  19  20  1   
 35  20  21  1   
 36  20  22  1   
 37  20  36  1   
 38  21  37  1   
 39  21  38  1   
 40  21  39  1   
 41  22  40  1   
 42  22  41  1   
 43  22  42  1   
@<TRIPOS>SUBSTRUCTURE
  1 ****   3 GROUP 4 **** **** 0

# MOE 2024.06 (io_trps.svl 2023.06)
