@<TRIPOS>MOLECULE
NONAME
43 46 1 0 0 
SMALL
USER_CHARGES


@<TRIPOS>ATOM
  1 O       -0.0680    -1.0480    -2.5000 O.2   1 <1>  -0.5700 
  2 C       -0.1140    -1.6500    -1.4430 C.2   1 <1>   0.5440 
  3 N        1.0270    -1.7280    -0.6780 N.am  1 <1>  -0.6600 
  4 C       -1.3450    -2.2710    -1.0150 C.ar  1 <1>   0.0860 
  5 C        2.3600    -1.3420    -1.2600 C.3   1 <1>   0.3210 
  6 C        1.0290    -2.1000     0.7760 C.3   1 <1>   0.1400 
  7 C       -2.4650    -1.4920    -0.6700 C.ar  1 <1>   0.0000 
  8 C       -1.4690    -3.6470    -0.9030 C.ar  1 <1>  -0.1500 
  9 C        3.4710    -2.1930    -0.6540 C.2   1 <1>   0.0460 
 10 C        1.9620    -3.2930     1.0550 C.3   1 <1>   0.0200 
 11 C       -3.6440    -2.0800    -0.2120 C.ar  1 <1>  -0.1520 
 12 C       -2.6880    -0.1020    -0.6730 C.2   1 <1>  -0.1500 
 13 C       -2.6480    -4.2430    -0.4520 C.ar  1 <1>  -0.1500 
 14 N        4.7560    -2.1860    -1.0620 N.2   1 <1>  -0.5650 
 15 C        3.2910    -3.0590     0.3630 C.2   1 <1>  -0.3320 
 16 N       -4.5560    -1.0750     0.0600 N.pl3 1 <1>   0.0480 
 17 C       -3.7320    -3.4720    -0.1050 C.ar  1 <1>  -0.1500 
 18 C       -3.9480     0.1150    -0.2290 C.2   1 <1>  -0.3020 
 19 C        5.3220    -3.0580    -0.2890 C.2   1 <1>   0.0360 
 20 N        4.4830    -3.6310     0.6020 N.pl3 1 <1>   0.0330 
 21 C       -5.9560    -1.1770     0.5580 C.3   1 <1>   0.1760 
 22 C       -6.0020    -1.8030     1.9570 C.3   1 <1>  -0.2400 
 23 C       -6.8440    -1.9320    -0.4390 C.3   1 <1>  -0.2400 
 24 H        2.5530    -0.3040    -1.0600 H     1 <1>   0.0800 
 25 H        2.3540    -1.4890    -2.3260 H     1 <1>   0.0800 
 26 H        0.0360    -2.3270     1.1200 H     1 <1>   0.0800 
 27 H        1.3800    -1.2500     1.3350 H     1 <1>   0.0800 
 28 H       -0.6340    -4.2700    -1.1710 H     1 <1>   0.1500 
 29 H        1.5130    -4.1980     0.6860 H     1 <1>   0.0800 
 30 H        2.1040    -3.3890     2.1170 H     1 <1>   0.0800 
 31 H       -1.9570     0.6230    -0.9890 H     1 <1>   0.1500 
 32 H       -2.7020    -5.3160    -0.3820 H     1 <1>   0.1500 
 33 H       -4.6350    -3.9370     0.2420 H     1 <1>   0.1500 
 34 H       -4.4500     1.0580    -0.1060 H     1 <1>   0.1500 
 35 H        6.3660    -3.3170    -0.3380 H     1 <1>   0.1500 
 36 H        4.7150    -4.3420     1.3010 H     1 <1>   0.2700 
 37 H       -6.3360    -0.1740     0.6370 H     1 <1>   0.0800 
 38 H       -5.6710    -2.8240     1.9390 H     1 <1>   0.0800 
 39 H       -7.0080    -1.7810     2.3330 H     1 <1>   0.0800 
 40 H       -5.3770    -1.2430     2.6300 H     1 <1>   0.0800 
 41 H       -6.5410    -2.9580    -0.5330 H     1 <1>   0.0800 
 42 H       -6.7920    -1.4610    -1.4050 H     1 <1>   0.0800 
 43 H       -7.8660    -1.9100    -0.1070 H     1 <1>   0.0800 
@<TRIPOS>BOND
  1   1   2  2   
  2   2   3  am  
  3   2   4  1   
  4   3   5  1   
  5   3   6  1   
  6   4   7  ar  
  7   4   8  ar  
  8   5   9  1   
  9   5  24  1   
 10   5  25  1   
 11   6  10  1   
 12   6  26  1   
 13   6  27  1   
 14   7  11  ar  
 15   7  12  1   
 16   8  13  ar  
 17   8  28  1   
 18   9  14  1   
 19   9  15  2   
 20  10  15  1   
 21  10  29  1   
 22  10  30  1   
 23  11  16  1   
 24  11  17  ar  
 25  12  18  2   
 26  12  31  1   
 27  13  17  ar  
 28  13  32  1   
 29  14  19  2   
 30  15  20  1   
 31  16  18  1   
 32  16  21  1   
 33  17  33  1   
 34  18  34  1   
 35  19  20  1   
 36  19  35  1   
 37  20  36  1   
 38  21  22  1   
 39  21  23  1   
 40  21  37  1   
 41  22  38  1   
 42  22  39  1   
 43  22  40  1   
 44  23  41  1   
 45  23  42  1   
 46  23  43  1   
@<TRIPOS>SUBSTRUCTURE
  1 ****   4 GROUP 4 **** **** 0

# MOE 2024.06 (io_trps.svl 2023.06)
