@<TRIPOS>MOLECULE
NONAME
55 58 1 0 0 
SMALL
USER_CHARGES


@<TRIPOS>ATOM
  1 N        0.7400    -0.6660     1.0330 N.ar  1 <1>  -0.6200 
  2 C        0.4500    -1.1140    -0.2120 C.ar  1 <1>   0.3100 
  3 C        0.7930    -1.5320     1.9920 C.ar  1 <1>   0.1600 
  4 C        0.1960    -2.4770    -0.4970 C.ar  1 <1>   0.0000 
  5 C        0.3960    -0.1770    -1.2550 C.ar  1 <1>  -0.1500 
  6 C        0.5290    -2.8970     1.8240 C.ar  1 <1>  -0.1500 
  7 C        0.2010    -3.3840     0.5910 C.ar  1 <1>  -0.1440 
  8 C       -0.0480    -2.8360    -1.8450 C.ar  1 <1>  -0.1500 
  9 C        0.1300    -0.5510    -2.5440 C.ar  1 <1>  -0.1500 
 10 C       -0.1510    -4.8510     0.4000 C.3   1 <1>   0.4870 
 11 C       -0.0860    -1.8980    -2.8400 C.ar  1 <1>  -0.1500 
 12 N       -1.5970    -5.1380     0.7060 N.4   1 <1>  -0.9590 
 13 C       -2.5430    -4.2360    -0.0310 C.3   1 <1>   0.4230 
 14 C       -1.8240    -5.2210     2.1850 C.3   1 <1>   0.2630 
 15 C       -3.0050    -2.9610     0.6880 C.3   1 <1>  -0.1600 
 16 C       -3.8560    -4.9480    -0.3380 C.3   1 <1>  -0.1600 
 17 C       -4.2590    -2.5360    -0.0890 C.3   1 <1>  -0.0800 
 18 C       -4.8210    -3.8120    -0.7210 C.3   1 <1>  -0.0800 
 19 C       -5.3870    -1.9170     0.7550 C.3   1 <1>  -0.1600 
 20 C       -6.2650    -3.9590    -0.2120 C.3   1 <1>  -0.1600 
 21 C       -6.6960    -2.5910     0.3220 C.3   1 <1>   0.4230 
 22 N       -7.4580    -1.8140    -0.7090 N.4   1 <1>  -0.9590 
 23 C       -6.6840    -1.3940    -1.9210 C.3   1 <1>   0.2630 
 24 C       -8.1220    -0.6220    -0.0900 C.3   1 <1>   0.2630 
 25 H        1.0490    -1.1780     2.9780 H     1 <1>   0.1500 
 26 H        0.5770     0.8530    -1.0060 H     1 <1>   0.1500 
 27 H        0.5920    -3.5230     2.6960 H     1 <1>   0.1500 
 28 H       -0.2000    -3.8630    -2.1180 H     1 <1>   0.1500 
 29 H        0.0970     0.1790    -3.3350 H     1 <1>   0.1500 
 30 H        0.4770    -5.4450     1.0450 H     1 <1>   0.0800 
 31 H        0.0730    -5.1410    -0.6120 H     1 <1>   0.0800 
 32 H       -0.2720    -2.1770    -3.8650 H     1 <1>   0.1500 
 33 H       -1.7710    -6.0800     0.3320 H     1 <1>   0.4500 
 34 H       -2.1060    -3.9480    -0.9730 H     1 <1>   0.0800 
 35 H       -1.6280    -4.2680     2.6480 H     1 <1>   0.0800 
 36 H       -1.1720    -5.9580     2.6260 H     1 <1>   0.0800 
 37 H       -2.8450    -5.5000     2.3930 H     1 <1>   0.0800 
 38 H       -3.2720    -3.1650     1.7080 H     1 <1>   0.0800 
 39 H       -2.2670    -2.1800     0.6640 H     1 <1>   0.0800 
 40 H       -3.7490    -5.6490    -1.1470 H     1 <1>   0.0800 
 41 H       -4.2090    -5.4600     0.5390 H     1 <1>   0.0800 
 42 H       -3.9720    -1.8550    -0.8750 H     1 <1>   0.0800 
 43 H       -4.8220    -3.6960    -1.7930 H     1 <1>   0.0800 
 44 H       -5.4130    -0.8450     0.6670 H     1 <1>   0.0800 
 45 H       -5.2370    -2.1520     1.7930 H     1 <1>   0.0800 
 46 H       -6.2890    -4.6450     0.6170 H     1 <1>   0.0800 
 47 H       -6.9270    -4.3370    -0.9710 H     1 <1>   0.0800 
 48 H       -7.3310    -2.7320     1.1830 H     1 <1>   0.0800 
 49 H       -8.2130    -2.4380    -1.0330 H     1 <1>   0.4500 
 50 H       -5.8730    -0.7410    -1.6420 H     1 <1>   0.0800 
 51 H       -7.3250    -0.8670    -2.6090 H     1 <1>   0.0800 
 52 H       -6.2800    -2.2550    -2.4260 H     1 <1>   0.0800 
 53 H       -7.3840     0.0800     0.2620 H     1 <1>   0.0800 
 54 H       -8.7360    -0.9240     0.7430 H     1 <1>   0.0800 
 55 H       -8.7490    -0.1260    -0.8140 H     1 <1>   0.0800 
@<TRIPOS>BOND
  1   1   2  ar  
  2   1   3  ar  
  3   2   4  ar  
  4   2   5  ar  
  5   3   6  ar  
  6   3  25  1   
  7   4   7  ar  
  8   4   8  ar  
  9   5   9  ar  
 10   5  26  1   
 11   6   7  ar  
 12   6  27  1   
 13   7  10  1   
 14   8  11  ar  
 15   8  28  1   
 16   9  11  ar  
 17   9  29  1   
 18  10  12  1   
 19  10  30  1   
 20  10  31  1   
 21  11  32  1   
 22  12  13  1   
 23  12  14  1   
 24  12  33  1   
 25  13  15  1   
 26  13  16  1   
 27  13  34  1   
 28  14  35  1   
 29  14  36  1   
 30  14  37  1   
 31  15  17  1   
 32  15  38  1   
 33  15  39  1   
 34  16  18  1   
 35  16  40  1   
 36  16  41  1   
 37  17  18  1   
 38  17  19  1   
 39  17  42  1   
 40  18  20  1   
 41  18  43  1   
 42  19  21  1   
 43  19  44  1   
 44  19  45  1   
 45  20  21  1   
 46  20  46  1   
 47  20  47  1   
 48  21  22  1   
 49  21  48  1   
 50  22  23  1   
 51  22  24  1   
 52  22  49  1   
 53  23  50  1   
 54  23  51  1   
 55  23  52  1   
 56  24  53  1   
 57  24  54  1   
 58  24  55  1   
@<TRIPOS>SUBSTRUCTURE
  1 ****  15 GROUP 4 **** **** 0

# MOE 2024.06 (io_trps.svl 2023.06)
