@<TRIPOS>MOLECULE
NONAME
51 53 1 0 0 
SMALL
USER_CHARGES


@<TRIPOS>ATOM
  1 F       -0.7700    -0.6190    -0.1560 F     1 <1>  -0.1900 
  2 C       -1.1850    -1.8170     0.1680 C.ar  1 <1>   0.1900 
  3 C       -0.2970    -2.8470     0.4990 C.ar  1 <1>   0.0830 
  4 C       -2.5520    -2.0170     0.1610 C.ar  1 <1>  -0.1500 
  5 O        1.0660    -2.7730     0.5410 O.3   1 <1>  -0.3630 
  6 C       -0.8370    -4.0820     0.8200 C.ar  1 <1>  -0.1500 
  7 C       -3.0550    -3.2630     0.4850 C.ar  1 <1>  -0.1500 
  8 C        1.7770    -1.5730     0.3360 C.3   1 <1>   0.0400 
  9 C       -2.2130    -4.3240     0.8240 C.ar  1 <1>   0.0530 
 10 C       -2.7240    -5.6360     1.1510 C.2   1 <1>   0.0870 
 11 O       -2.0090    -6.6930     0.8330 O.3   1 <1>  -0.0190 
 12 C       -3.8650    -6.0980     1.7310 C.2   1 <1>  -0.2330 
 13 N       -2.5880    -7.8200     1.1550 N.2   1 <1>  -0.4100 
 14 C       -3.6930    -7.4800     1.7130 C.2   1 <1>   0.3720 
 15 C       -5.0400    -5.4580     2.2420 C.2   1 <1>   1.0330 
 16 N       -4.6270    -8.3760     2.2110 N.pl3 1 <1>  -0.8520 
 17 O       -5.0470    -4.2600     2.5560 O.co2 1 <1>  -0.9000 
 18 O       -6.1040    -6.1060     2.3410 O.co2 1 <1>  -0.9000 
 19 C       -4.9760    -9.5390     1.3570 C.3   1 <1>   0.2090 
 20 C       -6.1480    -9.3240     0.3430 C.3   1 <1>   0.5030 
 21 N       -6.3380   -10.5300    -0.5530 N.4   1 <1>  -0.9590 
 22 C       -7.4930    -9.0200     1.0210 C.3   1 <1>  -0.1600 
 23 C       -6.0220    -8.0880    -0.5650 C.3   1 <1>  -0.1600 
 24 C       -6.7100   -11.7890     0.1710 C.3   1 <1>   0.2630 
 25 C       -5.1710   -10.8050    -1.4560 C.3   1 <1>   0.2630 
 26 C       -8.3890    -8.4040    -0.0650 C.3   1 <1>  -0.1600 
 27 C       -7.4300    -7.8260    -1.1150 C.3   1 <1>  -0.1600 
 28 H       -3.2160    -1.2100    -0.0900 H     1 <1>   0.1500 
 29 H       -0.1660    -4.8800     1.0800 H     1 <1>   0.1500 
 30 H       -4.1200    -3.4140     0.4800 H     1 <1>   0.1500 
 31 H        2.8230    -1.7760     0.4750 H     1 <1>   0.0800 
 32 H        1.4480    -0.8430     1.0540 H     1 <1>   0.0800 
 33 H        1.6040    -1.2310    -0.6690 H     1 <1>   0.0800 
 34 H       -5.4590    -7.8000     2.4790 H     1 <1>   0.4000 
 35 H       -5.2360   -10.3440     2.0190 H     1 <1>   0.0800 
 36 H       -4.0940    -9.8360     0.8210 H     1 <1>   0.0800 
 37 H       -7.1350   -10.2500    -1.1420 H     1 <1>   0.4500 
 38 H       -7.3350    -8.2640     1.7720 H     1 <1>   0.0800 
 39 H       -7.9510    -9.8530     1.5170 H     1 <1>   0.0800 
 40 H       -5.2700    -8.1540    -1.3260 H     1 <1>   0.0800 
 41 H       -5.7710    -7.2370     0.0400 H     1 <1>   0.0800 
 42 H       -5.9290   -12.0750     0.8560 H     1 <1>   0.0800 
 43 H       -6.8590   -12.5920    -0.5330 H     1 <1>   0.0800 
 44 H       -7.6250   -11.6560     0.7240 H     1 <1>   0.0800 
 45 H       -4.2870   -11.0210    -0.8780 H     1 <1>   0.0800 
 46 H       -4.9680    -9.9580    -2.0900 H     1 <1>   0.0800 
 47 H       -5.3810   -11.6520    -2.0890 H     1 <1>   0.0800 
 48 H       -9.0030    -7.6260     0.3600 H     1 <1>   0.0800 
 49 H       -9.0290    -9.1470    -0.5070 H     1 <1>   0.0800 
 50 H       -7.5700    -8.3130    -2.0640 H     1 <1>   0.0800 
 51 H       -7.5920    -6.7670    -1.2430 H     1 <1>   0.0800 
@<TRIPOS>BOND
  1   1   2  1   
  2   2   3  ar  
  3   2   4  ar  
  4   3   5  1   
  5   3   6  ar  
  6   4   7  ar  
  7   4  28  1   
  8   5   8  1   
  9   6   9  ar  
 10   6  29  1   
 11   7   9  ar  
 12   7  30  1   
 13   8  31  1   
 14   8  32  1   
 15   8  33  1   
 16   9  10  1   
 17  10  11  1   
 18  10  12  2   
 19  11  13  1   
 20  12  14  1   
 21  12  15  1   
 22  13  14  2   
 23  14  16  1   
 24  15  17  ar  
 25  15  18  ar  
 26  16  19  1   
 27  16  34  1   
 28  19  20  1   
 29  19  35  1   
 30  19  36  1   
 31  20  21  1   
 32  20  22  1   
 33  20  23  1   
 34  21  24  1   
 35  21  25  1   
 36  21  37  1   
 37  22  26  1   
 38  22  38  1   
 39  22  39  1   
 40  23  27  1   
 41  23  40  1   
 42  23  41  1   
 43  24  42  1   
 44  24  43  1   
 45  24  44  1   
 46  25  45  1   
 47  25  46  1   
 48  25  47  1   
 49  26  27  1   
 50  26  48  1   
 51  26  49  1   
 52  27  50  1   
 53  27  51  1   
@<TRIPOS>SUBSTRUCTURE
  1 ****  12 GROUP 4 **** **** 0

# MOE 2024.06 (io_trps.svl 2023.06)
