@<TRIPOS>MOLECULE
NONAME
48 50 1 0 0 
SMALL
USER_CHARGES


@<TRIPOS>ATOM
  1 O       -0.6100    -0.1060     0.0090 O.2   1 <1>  -0.5700 
  2 C       -1.5520     0.6200     0.2950 C.2   1 <1>   0.7160 
  3 N       -2.7510     0.0090     0.6270 N.am  1 <1>  -0.6600 
  4 C       -1.3490     2.0690     0.2750 C.2   1 <1>   0.2030 
  5 C       -3.0840    -1.3850     0.2050 C.3   1 <1>   0.1400 
  6 C       -3.8710     0.6820     1.3400 C.3   1 <1>   0.1400 
  7 N       -2.2490     3.0190     0.0660 N.2   1 <1>  -0.7070 
  8 C       -0.0910     2.6560     0.4650 C.2   1 <1>  -0.1500 
  9 C       -4.3040    -1.3450    -0.7280 C.3   1 <1>   0.2000 
 10 C       -5.1050     0.7250     0.4280 C.3   1 <1>  -0.1600 
 11 N       -1.5860     4.1760     0.1300 N.pl3 1 <1>   0.3140 
 12 C       -0.2720     3.9860     0.3710 C.2   1 <1>  -0.3320 
 13 O       -4.6050    -2.6320    -1.1450 O.3   1 <1>  -0.6800 
 14 C       -5.5400    -0.6920    -0.0550 C.3   1 <1>  -0.1060 
 15 C       -2.2750     5.4590    -0.0540 C.3   1 <1>   0.0160 
 16 C        0.7620     5.0930     0.4970 C.3   1 <1>  -0.0600 
 17 C       -6.0030    -1.5820     1.1170 C.2   1 <1>   0.9060 
 18 C       -6.6840    -0.5800    -1.1000 C.3   1 <1>  -0.0170 
 19 O       -6.2350    -1.0990     2.2310 O.co2 1 <1>  -0.9000 
 20 O       -6.1290    -2.8010     0.9210 O.co2 1 <1>  -0.9000 
 21 C       -7.7930     0.4110    -0.7510 C.ar  1 <1>  -0.1430 
 22 C       -8.6640     0.1540     0.2960 C.ar  1 <1>  -0.1500 
 23 C       -7.9400     1.5820    -1.4800 C.ar  1 <1>  -0.1500 
 24 C       -9.6670     1.0540     0.6120 C.ar  1 <1>  -0.1500 
 25 C       -8.9440     2.4830    -1.1680 C.ar  1 <1>  -0.1500 
 26 C       -9.8090     2.2200    -0.1200 C.ar  1 <1>  -0.1500 
 27 H       -2.2570    -1.8320    -0.3160 H     1 <1>   0.0800 
 28 H       -3.3050    -1.9750     1.0780 H     1 <1>   0.0800 
 29 H       -4.0970     0.1270     2.2350 H     1 <1>   0.0800 
 30 H       -3.6030     1.6760     1.6450 H     1 <1>   0.0800 
 31 H        0.8150     2.1040     0.6450 H     1 <1>   0.1500 
 32 H       -4.0270    -0.7920    -1.6080 H     1 <1>   0.0800 
 33 H       -5.9080     1.1820     0.9800 H     1 <1>   0.0800 
 34 H       -4.8880     1.3580    -0.4140 H     1 <1>   0.0800 
 35 H       -5.1960    -3.0130    -0.4230 H     1 <1>   0.4000 
 36 H       -2.1440     6.0590     0.8260 H     1 <1>   0.0800 
 37 H       -3.3220     5.2750    -0.2130 H     1 <1>   0.0800 
 38 H       -1.8630     5.9600    -0.9090 H     1 <1>   0.0800 
 39 H        1.7330     4.6700     0.6860 H     1 <1>   0.0800 
 40 H        0.5100     5.7470     1.3120 H     1 <1>   0.0800 
 41 H        0.8100     5.6630    -0.4130 H     1 <1>   0.0800 
 42 H       -6.2610    -0.2940    -2.0460 H     1 <1>   0.0800 
 43 H       -7.1260    -1.5510    -1.2460 H     1 <1>   0.0800 
 44 H       -8.5570    -0.7470     0.8790 H     1 <1>   0.1500 
 45 H       -7.2700     1.7970    -2.2920 H     1 <1>   0.1500 
 46 H      -10.3280     0.8420     1.4330 H     1 <1>   0.1500 
 47 H       -9.0510     3.3870    -1.7390 H     1 <1>   0.1500 
 48 H      -10.5870     2.9180     0.1270 H     1 <1>   0.1500 
@<TRIPOS>BOND
  1   1   2  2   
  2   2   3  am  
  3   2   4  1   
  4   3   5  1   
  5   3   6  1   
  6   4   7  2   
  7   4   8  1   
  8   5   9  1   
  9   5  27  1   
 10   5  28  1   
 11   6  10  1   
 12   6  29  1   
 13   6  30  1   
 14   7  11  1   
 15   8  12  2   
 16   8  31  1   
 17   9  13  1   
 18   9  14  1   
 19   9  32  1   
 20  10  14  1   
 21  10  33  1   
 22  10  34  1   
 23  11  12  1   
 24  11  15  1   
 25  12  16  1   
 26  13  35  1   
 27  14  17  1   
 28  14  18  1   
 29  15  36  1   
 30  15  37  1   
 31  15  38  1   
 32  16  39  1   
 33  16  40  1   
 34  16  41  1   
 35  17  19  ar  
 36  17  20  ar  
 37  18  21  1   
 38  18  42  1   
 39  18  43  1   
 40  21  22  ar  
 41  21  23  ar  
 42  22  24  ar  
 43  22  44  1   
 44  23  25  ar  
 45  23  45  1   
 46  24  26  ar  
 47  24  46  1   
 48  25  26  ar  
 49  25  47  1   
 50  26  48  1   
@<TRIPOS>SUBSTRUCTURE
  1 ****  10 GROUP 4 **** **** 0

# MOE 2024.06 (io_trps.svl 2023.06)
