@<TRIPOS>MOLECULE
NONAME
53 54 1 0 0 
SMALL
USER_CHARGES


@<TRIPOS>ATOM
  1 S        0.2840     0.2370     0.8360 S.o2  1 <1>   1.3330 
  2 O        1.5410     0.4850     1.5050 O.2   1 <1>  -0.6500 
  3 O       -0.9420     0.2120     1.6010 O.2   1 <1>  -0.6500 
  4 N        0.4220    -1.2290    -0.0080 N.am  1 <1>  -0.8490 
  5 C        0.0740     1.4350    -0.4790 C.3   1 <1>  -0.0550 
  6 C        1.7830    -1.5020    -0.4840 C.3   1 <1>   0.1160 
  7 C       -0.0700    -2.3680     0.7740 C.3   1 <1>   0.1160 
  8 C       -0.1650     2.8630     0.0390 C.3   1 <1>  -0.0800 
  9 C       -0.4750     3.8450    -1.0850 C.3   1 <1>   0.2000 
 10 C        1.0420     3.4840     0.7480 C.3   1 <1>   0.1400 
 11 O       -1.8110     3.7660    -1.4370 O.3   1 <1>  -0.6800 
 12 C       -0.1160     5.2170    -0.5220 C.3   1 <1>   0.1400 
 13 N        0.9550     4.9410     0.4680 N.am  1 <1>  -0.6600 
 14 C        1.9930     5.7980     0.7480 C.2   1 <1>   0.5440 
 15 O        3.0340     5.3410     1.1790 O.2   1 <1>  -0.5700 
 16 C        1.9020     7.2280     0.5140 C.ar  1 <1>   0.0860 
 17 C        2.9810     7.9060    -0.0470 C.ar  1 <1>  -0.1500 
 18 C        0.7770     7.9790     0.8530 C.ar  1 <1>  -0.1500 
 19 C        2.9570     9.2760    -0.2580 C.ar  1 <1>  -0.1430 
 20 C        0.7310     9.3420     0.6290 C.ar  1 <1>  -0.1500 
 21 C        1.8180     9.9930     0.0740 C.ar  1 <1>  -0.1500 
 22 C        4.1780     9.9730    -0.8270 C.3   1 <1>   0.4860 
 23 N        5.2780     9.8840     0.1770 N.4   1 <1>  -0.9590 
 24 C        4.9490    10.6430     1.4250 C.3   1 <1>   0.2630 
 25 C        6.5860    10.3200    -0.3970 C.3   1 <1>   0.2630 
 26 H        0.9360     1.4250    -1.1170 H     1 <1>   0.0800 
 27 H       -0.7730     1.1430    -1.0710 H     1 <1>   0.0800 
 28 H        1.7920    -2.3940    -1.0860 H     1 <1>   0.0800 
 29 H        2.4540    -1.6340     0.3500 H     1 <1>   0.0800 
 30 H        2.1370    -0.6830    -1.0850 H     1 <1>   0.0800 
 31 H        0.0170    -3.2770     0.2060 H     1 <1>   0.0800 
 32 H       -1.1090    -2.2240     1.0210 H     1 <1>   0.0800 
 33 H        0.4920    -2.4640     1.6890 H     1 <1>   0.0800 
 34 H       -0.9810     2.8570     0.7420 H     1 <1>   0.0800 
 35 H        0.1210     3.6450    -1.9590 H     1 <1>   0.0800 
 36 H        1.9670     3.1020     0.3490 H     1 <1>   0.0800 
 37 H        1.0180     3.3000     1.8100 H     1 <1>   0.0800 
 38 H       -2.3830     3.8430    -0.6490 H     1 <1>   0.4000 
 39 H       -0.9610     5.6510    -0.0170 H     1 <1>   0.0800 
 40 H        0.2350     5.8710    -1.3020 H     1 <1>   0.0800 
 41 H        3.8480     7.3230    -0.3100 H     1 <1>   0.1500 
 42 H       -0.0660     7.4850     1.3050 H     1 <1>   0.1500 
 43 H       -0.1540     9.8990     0.8930 H     1 <1>   0.1500 
 44 H        1.7610    11.0570    -0.0890 H     1 <1>   0.1500 
 45 H        3.9510    11.0040    -1.0440 H     1 <1>   0.0800 
 46 H        4.4690     9.4840    -1.7430 H     1 <1>   0.0800 
 47 H        5.3420     8.8870     0.4380 H     1 <1>   0.4500 
 48 H        4.8320    11.6920     1.2090 H     1 <1>   0.0800 
 49 H        5.7350    10.5250     2.1530 H     1 <1>   0.0800 
 50 H        4.0300    10.2750     1.8550 H     1 <1>   0.0800 
 51 H        6.5440    11.3580    -0.6830 H     1 <1>   0.0800 
 52 H        6.8310     9.7300    -1.2660 H     1 <1>   0.0800 
 53 H        7.3720    10.1950     0.3310 H     1 <1>   0.0800 
@<TRIPOS>BOND
  1   1   2  2   
  2   1   3  2   
  3   1   4  am  
  4   1   5  1   
  5   4   6  1   
  6   4   7  1   
  7   5   8  1   
  8   5  26  1   
  9   5  27  1   
 10   6  28  1   
 11   6  29  1   
 12   6  30  1   
 13   7  31  1   
 14   7  32  1   
 15   7  33  1   
 16   8   9  1   
 17   8  10  1   
 18   8  34  1   
 19   9  11  1   
 20   9  12  1   
 21   9  35  1   
 22  10  13  1   
 23  10  36  1   
 24  10  37  1   
 25  11  38  1   
 26  12  13  1   
 27  12  39  1   
 28  12  40  1   
 29  13  14  am  
 30  14  15  2   
 31  14  16  1   
 32  16  17  ar  
 33  16  18  ar  
 34  17  19  ar  
 35  17  41  1   
 36  18  20  ar  
 37  18  42  1   
 38  19  21  ar  
 39  19  22  1   
 40  20  21  ar  
 41  20  43  1   
 42  21  44  1   
 43  22  23  1   
 44  22  45  1   
 45  22  46  1   
 46  23  24  1   
 47  23  25  1   
 48  23  47  1   
 49  24  48  1   
 50  24  49  1   
 51  24  50  1   
 52  25  51  1   
 53  25  52  1   
 54  25  53  1   
@<TRIPOS>SUBSTRUCTURE
  1 ****  13 GROUP 4 **** **** 0

# MOE 2024.06 (io_trps.svl 2023.06)
