@<TRIPOS>MOLECULE
NONAME
38 39 1 0 0 
SMALL
USER_CHARGES


@<TRIPOS>ATOM
  1 CL       0.3760     0.6110    -0.2170 Cl    1 <1>  -0.1770 
  2 C        1.3530    -0.8410    -0.3530 C.ar  1 <1>   0.1770 
  3 C        0.8810    -2.0660     0.1050 C.ar  1 <1>   0.4100 
  4 C        2.5990    -0.7930    -0.9110 C.ar  1 <1>   0.1600 
  5 N        1.6270    -3.1540    -0.0010 N.ar  1 <1>  -0.6200 
  6 N       -0.3690    -2.1980     0.6740 N.pl3 1 <1>  -0.8690 
  7 N        3.3530    -1.8740    -1.0190 N.ar  1 <1>  -0.6200 
  8 C        2.8190    -2.9900    -0.5520 C.ar  1 <1>   0.4770 
  9 C       -0.8010    -3.3750     1.4460 C.3   1 <1>   0.2090 
 10 C        3.6770    -4.2260    -0.6690 C.3   1 <1>  -0.0970 
 11 C       -1.4260    -4.3690     0.4700 C.3   1 <1>  -0.1600 
 12 C       -1.6500    -5.7180     1.1430 C.3   1 <1>   0.3430 
 13 N       -2.0140    -6.7420     0.1240 N.4   1 <1>  -0.9590 
 14 C       -3.3690    -6.5000    -0.4900 C.3   1 <1>   0.3430 
 15 C       -1.9450    -8.1290     0.7040 C.3   1 <1>   0.3430 
 16 C       -3.7670    -7.6370    -1.4500 C.3   1 <1>   0.1200 
 17 C       -2.4070    -9.1910    -0.3120 C.3   1 <1>   0.1200 
 18 O       -3.6770    -8.8720    -0.8010 O.3   1 <1>  -0.5600 
 19 H        2.9900     0.1410    -1.2760 H     1 <1>   0.1500 
 20 H       -0.8760    -1.3230     0.8590 H     1 <1>   0.4000 
 21 H       -1.5120    -3.0730     2.1980 H     1 <1>   0.0800 
 22 H        0.0540    -3.8090     1.9400 H     1 <1>   0.0800 
 23 H        3.4410    -4.9190     0.1170 H     1 <1>   0.0800 
 24 H        4.7160    -3.9620    -0.5960 H     1 <1>   0.0800 
 25 H        3.5010    -4.6930    -1.6200 H     1 <1>   0.0800 
 26 H       -0.7510    -4.4980    -0.3580 H     1 <1>   0.0800 
 27 H       -2.3540    -3.9600     0.1130 H     1 <1>   0.0800 
 28 H       -2.4250    -5.6380     1.8890 H     1 <1>   0.0800 
 29 H       -0.7360    -6.0130     1.6340 H     1 <1>   0.0800 
 30 H       -1.3190    -6.6900    -0.6330 H     1 <1>   0.4500 
 31 H       -3.3700    -5.5670    -1.0300 H     1 <1>   0.0800 
 32 H       -4.1140    -6.4350     0.2850 H     1 <1>   0.0800 
 33 H       -2.5820    -8.1930     1.5710 H     1 <1>   0.0800 
 34 H       -0.9380    -8.3500     1.0150 H     1 <1>   0.0800 
 35 H       -3.1330    -7.6540    -2.3200 H     1 <1>   0.0800 
 36 H       -4.7860    -7.5110    -1.7720 H     1 <1>   0.0800 
 37 H       -2.4730   -10.1550     0.1630 H     1 <1>   0.0800 
 38 H       -1.7240    -9.2640    -1.1410 H     1 <1>   0.0800 
@<TRIPOS>BOND
  1   1   2  1   
  2   2   3  ar  
  3   2   4  ar  
  4   3   5  ar  
  5   3   6  1   
  6   4   7  ar  
  7   4  19  1   
  8   5   8  ar  
  9   6   9  1   
 10   6  20  1   
 11   7   8  ar  
 12   8  10  1   
 13   9  11  1   
 14   9  21  1   
 15   9  22  1   
 16  10  23  1   
 17  10  24  1   
 18  10  25  1   
 19  11  12  1   
 20  11  26  1   
 21  11  27  1   
 22  12  13  1   
 23  12  28  1   
 24  12  29  1   
 25  13  14  1   
 26  13  15  1   
 27  13  30  1   
 28  14  16  1   
 29  14  31  1   
 30  14  32  1   
 31  15  17  1   
 32  15  33  1   
 33  15  34  1   
 34  16  18  1   
 35  16  35  1   
 36  16  36  1   
 37  17  18  1   
 38  17  37  1   
 39  17  38  1   
@<TRIPOS>SUBSTRUCTURE
  1 ****  11 GROUP 4 **** **** 0

# MOE 2024.06 (io_trps.svl 2023.06)
