@<TRIPOS>MOLECULE
NONAME
59 61 1 0 0 
SMALL
USER_CHARGES


@<TRIPOS>ATOM
  1 F       -0.7380     0.3230     1.1840 F     1 <1>  -0.1900 
  2 C       -1.9830     0.5900     0.8820 C.ar  1 <1>   0.1900 
  3 C       -2.6660     1.6770     1.4410 C.ar  1 <1>   0.0830 
  4 C       -2.5920    -0.2590    -0.0210 C.ar  1 <1>  -0.1500 
  5 O       -2.1780     2.5810     2.3380 O.3   1 <1>  -0.3630 
  6 C       -3.9820     1.8740     1.0590 C.ar  1 <1>  -0.1500 
  7 C       -3.9090    -0.0350    -0.3800 C.ar  1 <1>  -0.1500 
  8 C       -0.8500     2.5540     2.8130 C.3   1 <1>   0.0400 
  9 C       -4.6330     1.0310     0.1570 C.ar  1 <1>   0.0530 
 10 C       -6.0100     1.2600    -0.1990 C.2   1 <1>   0.0870 
 11 O       -6.4960     2.4720    -0.2690 O.3   1 <1>  -0.0190 
 12 C       -7.0350     0.4160    -0.4770 C.2   1 <1>  -0.0860 
 13 N       -7.7650     2.4940    -0.5850 N.2   1 <1>  -0.4100 
 14 C       -8.1140     1.2640    -0.7340 C.2   1 <1>   0.3720 
 15 C       -7.1140    -1.0030    -0.4490 C.2   1 <1>   0.7160 
 16 N       -9.4080     0.8380    -1.1040 N.pl3 1 <1>  -0.8210 
 17 O       -6.7300    -1.6550    -1.4010 O.2   1 <1>  -0.5700 
 18 N       -7.6810    -1.6610     0.6230 N.am  1 <1>  -0.6600 
 19 C       -9.4250     0.3850    -2.5290 C.3   1 <1>   0.1290 
 20 C      -10.4440     1.9070    -0.9170 C.3   1 <1>   0.1290 
 21 C       -8.1040    -3.0880     0.5000 C.3   1 <1>   0.1400 
 22 C       -8.3720    -0.9580     1.7530 C.3   1 <1>   0.1400 
 23 C       -9.6220    -3.1940     0.1480 C.3   1 <1>   0.5030 
 24 C       -9.8660    -1.3510     1.8340 C.3   1 <1>   0.3430 
 25 N      -10.3720    -1.9430     0.5430 N.4   1 <1>  -0.9590 
 26 C       -9.7800    -3.3500    -1.3660 C.3   1 <1>  -0.2400 
 27 C      -10.2070    -4.4260     0.8540 C.3   1 <1>  -0.2400 
 28 C      -11.8550    -2.0780     0.5410 C.3   1 <1>   0.3430 
 29 C      -12.5000    -0.7300     0.2600 C.3   1 <1>  -0.2400 
 30 H       -2.0410    -1.0830    -0.4370 H     1 <1>   0.1500 
 31 H       -4.5150     2.7080     1.4810 H     1 <1>   0.1500 
 32 H       -4.3720    -0.6940    -1.0930 H     1 <1>   0.1500 
 33 H       -0.7200     3.3800     3.4880 H     1 <1>   0.0800 
 34 H       -0.1780     2.6550     1.9800 H     1 <1>   0.0800 
 35 H       -0.6830     1.6280     3.3340 H     1 <1>   0.0800 
 36 H       -8.6550    -0.3460    -2.7060 H     1 <1>   0.0800 
 37 H       -9.2480     1.2240    -3.1840 H     1 <1>   0.0800 
 38 H      -10.3780    -0.0510    -2.7720 H     1 <1>   0.0800 
 39 H      -10.5000     2.1850     0.1210 H     1 <1>   0.0800 
 40 H      -11.4090     1.5660    -1.2420 H     1 <1>   0.0800 
 41 H      -10.1860     2.7830    -1.4910 H     1 <1>   0.0800 
 42 H       -7.9110    -3.5770     1.4390 H     1 <1>   0.0800 
 43 H       -7.5110    -3.6050    -0.2360 H     1 <1>   0.0800 
 44 H       -8.3030     0.1100     1.6500 H     1 <1>   0.0800 
 45 H       -7.8870    -1.2130     2.6790 H     1 <1>   0.0800 
 46 H      -10.4370    -0.4750     2.0920 H     1 <1>   0.0800 
 47 H       -9.9950    -2.0670     2.6290 H     1 <1>   0.0800 
 48 H      -10.1120    -1.2420    -0.1770 H     1 <1>   0.4500 
 49 H       -9.3580    -2.5070    -1.8800 H     1 <1>   0.0800 
 50 H      -10.8090    -3.4620    -1.6550 H     1 <1>   0.0800 
 51 H       -9.2540    -4.2270    -1.7010 H     1 <1>   0.0800 
 52 H      -10.2020    -4.3000     1.9210 H     1 <1>   0.0800 
 53 H       -9.6090    -5.2910     0.6230 H     1 <1>   0.0800 
 54 H      -11.2070    -4.6430     0.5250 H     1 <1>   0.0800 
 55 H      -12.1920    -2.4630     1.4900 H     1 <1>   0.0800 
 56 H      -12.1620    -2.7690    -0.2270 H     1 <1>   0.0800 
 57 H      -12.1970     0.0160     0.9720 H     1 <1>   0.0800 
 58 H      -13.5690    -0.8320     0.3210 H     1 <1>   0.0800 
 59 H      -12.2580    -0.4120    -0.7360 H     1 <1>   0.0800 
@<TRIPOS>BOND
  1   1   2  1   
  2   2   3  ar  
  3   2   4  ar  
  4   3   5  1   
  5   3   6  ar  
  6   4   7  ar  
  7   4  30  1   
  8   5   8  1   
  9   6   9  ar  
 10   6  31  1   
 11   7   9  ar  
 12   7  32  1   
 13   8  33  1   
 14   8  34  1   
 15   8  35  1   
 16   9  10  1   
 17  10  11  1   
 18  10  12  2   
 19  11  13  1   
 20  12  14  1   
 21  12  15  1   
 22  13  14  2   
 23  14  16  1   
 24  15  17  2   
 25  15  18  am  
 26  16  19  1   
 27  16  20  1   
 28  18  21  1   
 29  18  22  1   
 30  19  36  1   
 31  19  37  1   
 32  19  38  1   
 33  20  39  1   
 34  20  40  1   
 35  20  41  1   
 36  21  23  1   
 37  21  42  1   
 38  21  43  1   
 39  22  24  1   
 40  22  44  1   
 41  22  45  1   
 42  23  25  1   
 43  23  26  1   
 44  23  27  1   
 45  24  25  1   
 46  24  46  1   
 47  24  47  1   
 48  25  28  1   
 49  25  48  1   
 50  26  49  1   
 51  26  50  1   
 52  26  51  1   
 53  27  52  1   
 54  27  53  1   
 55  27  54  1   
 56  28  29  1   
 57  28  55  1   
 58  28  56  1   
 59  29  57  1   
 60  29  58  1   
 61  29  59  1   
@<TRIPOS>SUBSTRUCTURE
  1 ****  12 GROUP 4 **** **** 0

# MOE 2024.06 (io_trps.svl 2023.06)
