@<TRIPOS>MOLECULE
NONAME
52 54 1 0 0 
SMALL
USER_CHARGES


@<TRIPOS>ATOM
  1 F        1.5380    -2.4940     1.7090 F     1 <1>  -0.1900 
  2 C        2.2100    -1.6370     0.9860 C.ar  1 <1>   0.1900 
  3 C        1.6340    -1.1200    -0.1660 C.ar  1 <1>  -0.1440 
  4 C        3.4770    -1.2830     1.4090 C.ar  1 <1>  -0.1500 
  5 C        2.3780    -0.2150    -0.9070 C.ar  1 <1>  -0.1500 
  6 C        0.2360    -1.5290    -0.6060 C.3   1 <1>  -0.0960 
  7 C        4.2100    -0.3770     0.6590 C.ar  1 <1>  -0.1430 
  8 C        3.6510     0.1510    -0.4980 C.ar  1 <1>  -0.1500 
  9 C        5.6130     0.0380     1.0900 C.3   1 <1>   0.1270 
 10 C        6.7270    -0.4900     0.1760 C.ar  1 <1>  -0.1430 
 11 C        7.9560     0.1830     0.0940 C.ar  1 <1>   0.0860 
 12 C        6.5240    -1.6460    -0.5680 C.ar  1 <1>  -0.1500 
 13 C        8.2590     1.3880     0.8480 C.2   1 <1>   0.5440 
 14 C        8.9340    -0.3370    -0.7560 C.ar  1 <1>  -0.1500 
 15 C        7.5080    -2.1390    -1.4030 C.ar  1 <1>  -0.1500 
 16 O        8.0540     1.4600     2.0430 O.2   1 <1>  -0.5700 
 17 N        8.7740     2.4800     0.2120 N.am  1 <1>  -0.7300 
 18 C        8.7180    -1.4810    -1.4990 C.ar  1 <1>  -0.1500 
 19 C        9.1140     3.7620     0.8740 C.3   1 <1>   0.2200 
 20 C        7.9710     4.7680     0.6500 C.3   1 <1>   0.1400 
 21 C       10.3250     4.3750     0.1620 C.3   1 <1>  -0.0990 
 22 N        8.3890     5.5020    -0.5600 N.am  1 <1>  -0.6600 
 23 C        9.6910     5.2840    -0.8530 C.2   1 <1>   0.5690 
 24 C        7.4510     6.3420    -1.3370 C.3   1 <1>   0.1400 
 25 O       10.2930     5.7320    -1.7970 O.2   1 <1>  -0.5700 
 26 C        7.1030     7.6050    -0.5460 C.3   1 <1>  -0.1600 
 27 C        6.1630     8.5190    -1.3400 C.3   1 <1>  -0.2400 
 28 H        3.8740    -1.7160     2.3100 H     1 <1>   0.1500 
 29 H        1.9710     0.2100    -1.8080 H     1 <1>   0.1500 
 30 H       -0.4760    -1.2740     0.1580 H     1 <1>   0.0800 
 31 H        0.2010    -2.5910    -0.7710 H     1 <1>   0.0800 
 32 H       -0.0430    -1.0310    -1.5170 H     1 <1>   0.0800 
 33 H        4.2140     0.8520    -1.0900 H     1 <1>   0.1500 
 34 H        5.8050    -0.3010     2.0930 H     1 <1>   0.0800 
 35 H        5.6320     1.1130     1.1120 H     1 <1>   0.0800 
 36 H        5.5920    -2.1830    -0.5080 H     1 <1>   0.1500 
 37 H        9.8850     0.1600    -0.8290 H     1 <1>   0.1500 
 38 H        7.3310    -3.0340    -1.9740 H     1 <1>   0.1500 
 39 H        8.8000     2.4960    -0.8100 H     1 <1>   0.3700 
 40 H        9.4880    -1.8630    -2.1470 H     1 <1>   0.1500 
 41 H        9.3000     3.6000     1.9230 H     1 <1>   0.0800 
 42 H        7.9080     5.4530     1.4770 H     1 <1>   0.0800 
 43 H        7.0270     4.2710     0.5100 H     1 <1>   0.0800 
 44 H       10.9580     3.6390    -0.2980 H     1 <1>   0.0800 
 45 H       10.8980     4.9760     0.8430 H     1 <1>   0.0800 
 46 H        6.5600     5.7770    -1.5530 H     1 <1>   0.0800 
 47 H        7.9120     6.6170    -2.2710 H     1 <1>   0.0800 
 48 H        8.0100     8.1410    -0.3250 H     1 <1>   0.0800 
 49 H        6.6280     7.3350     0.3810 H     1 <1>   0.0800 
 50 H        6.6260     8.8220    -2.2630 H     1 <1>   0.0800 
 51 H        5.9370     9.4010    -0.7670 H     1 <1>   0.0800 
 52 H        5.2410     8.0110    -1.5640 H     1 <1>   0.0800 
@<TRIPOS>BOND
  1   1   2  1   
  2   2   3  ar  
  3   2   4  ar  
  4   3   5  ar  
  5   3   6  1   
  6   4   7  ar  
  7   4  28  1   
  8   5   8  ar  
  9   5  29  1   
 10   6  30  1   
 11   6  31  1   
 12   6  32  1   
 13   7   8  ar  
 14   7   9  1   
 15   8  33  1   
 16   9  10  1   
 17   9  34  1   
 18   9  35  1   
 19  10  11  ar  
 20  10  12  ar  
 21  11  13  1   
 22  11  14  ar  
 23  12  15  ar  
 24  12  36  1   
 25  13  16  2   
 26  13  17  am  
 27  14  18  ar  
 28  14  37  1   
 29  15  18  ar  
 30  15  38  1   
 31  17  19  1   
 32  17  39  1   
 33  18  40  1   
 34  19  20  1   
 35  19  21  1   
 36  19  41  1   
 37  20  22  1   
 38  20  42  1   
 39  20  43  1   
 40  21  23  1   
 41  21  44  1   
 42  21  45  1   
 43  22  23  am  
 44  22  24  1   
 45  23  25  2   
 46  24  26  1   
 47  24  46  1   
 48  24  47  1   
 49  26  27  1   
 50  26  48  1   
 51  26  49  1   
 52  27  50  1   
 53  27  51  1   
 54  27  52  1   
@<TRIPOS>SUBSTRUCTURE
  1 ****  13 GROUP 4 **** **** 0

# MOE 2024.06 (io_trps.svl 2023.06)
