@<TRIPOS>MOLECULE
NONAME
49 51 1 0 0 
SMALL
USER_CHARGES


@<TRIPOS>ATOM
  1 O        0.0490    -0.0150    -1.1440 O.2   1 <1>  -0.5700 
  2 C       -0.9180     0.6910    -0.9830 C.2   1 <1>   0.5690 
  3 N       -2.1590     0.1710    -0.7400 N.am  1 <1>  -0.6600 
  4 C       -0.7140     2.1890    -1.0360 C.3   1 <1>  -0.0990 
  5 C       -3.4150     0.9350    -0.5190 C.3   1 <1>   0.1400 
  6 C       -2.3910    -1.2810    -0.5620 C.3   1 <1>   0.1400 
  7 C       -0.4380     2.7400     0.3650 C.3   1 <1>   0.0210 
  8 C       -4.4940    -0.1310    -0.3280 C.3   1 <1>   0.2000 
  9 C       -3.7490    -1.3820     0.1310 C.3   1 <1>  -0.0800 
 10 C       -0.4700     4.2540     0.3470 C.2   1 <1>   0.1080 
 11 O       -5.4290     0.2470     0.6220 O.3   1 <1>  -0.6800 
 12 C       -4.5020    -2.6850    -0.1750 C.3   1 <1>   0.0210 
 13 N       -1.5860     4.9080     0.4230 N.2   1 <1>  -0.7070 
 14 C        0.6350     5.0970     0.2410 C.2   1 <1>  -0.1810 
 15 C       -3.6650    -3.8950     0.1900 C.2   1 <1>   0.1080 
 16 N       -1.2210     6.2020     0.3730 N.pl3 1 <1>   0.3000 
 17 C        0.1170     6.3450     0.2630 C.2   1 <1>  -0.3320 
 18 C        2.0840     4.6590     0.1260 C.3   1 <1>  -0.0590 
 19 N       -3.2370    -4.1170     1.3940 N.2   1 <1>  -0.7070 
 20 C       -3.2550    -4.8790    -0.7040 C.2   1 <1>  -0.1500 
 21 C        0.7910     7.7050     0.1860 C.3   1 <1>  -0.0600 
 22 N       -2.5360    -5.2620     1.3000 N.pl3 1 <1>   0.3000 
 23 C       -2.5300    -5.7420     0.0380 C.2   1 <1>  -0.3320 
 24 C       -1.8210    -7.0140    -0.3860 C.3   1 <1>  -0.0600 
 25 H        0.1200     2.4090    -1.6770 H     1 <1>   0.0800 
 26 H       -1.5780     2.6680    -1.4560 H     1 <1>   0.0800 
 27 H       -3.3160     1.5440     0.3630 H     1 <1>   0.0800 
 28 H       -3.6390     1.5500    -1.3730 H     1 <1>   0.0800 
 29 H       -2.4110    -1.7520    -1.5290 H     1 <1>   0.0800 
 30 H       -1.6120    -1.7280     0.0350 H     1 <1>   0.0800 
 31 H        0.5140     2.3880     0.7170 H     1 <1>   0.0800 
 32 H       -1.1900     2.3960     1.0520 H     1 <1>   0.0800 
 33 H       -5.0060    -0.2980    -1.2610 H     1 <1>   0.0800 
 34 H       -3.5650    -1.3240     1.1900 H     1 <1>   0.0800 
 35 H       -5.0090     0.3090     1.5020 H     1 <1>   0.4000 
 36 H       -4.7560    -2.7290    -1.2190 H     1 <1>   0.0800 
 37 H       -5.4150    -2.7130     0.3930 H     1 <1>   0.0800 
 38 H       -1.9070     6.9630     0.4180 H     1 <1>   0.2700 
 39 H        2.1950     3.9760    -0.6970 H     1 <1>   0.0800 
 40 H        2.3890     4.1670     1.0320 H     1 <1>   0.0800 
 41 H        2.7300     5.5000    -0.0420 H     1 <1>   0.0800 
 42 H       -3.4800    -4.9180    -1.7540 H     1 <1>   0.1500 
 43 H        1.8580     7.6020     0.1230 H     1 <1>   0.0800 
 44 H        0.5580     8.2820     1.0640 H     1 <1>   0.0800 
 45 H        0.4490     8.2380    -0.6830 H     1 <1>   0.0800 
 46 H       -2.0730    -5.6870     2.1120 H     1 <1>   0.2700 
 47 H       -1.9650    -7.1840    -1.4390 H     1 <1>   0.0800 
 48 H       -2.2150    -7.8580     0.1530 H     1 <1>   0.0800 
 49 H       -0.7660    -6.9340    -0.1940 H     1 <1>   0.0800 
@<TRIPOS>BOND
  1   1   2  2   
  2   2   3  am  
  3   2   4  1   
  4   3   5  1   
  5   3   6  1   
  6   4   7  1   
  7   4  25  1   
  8   4  26  1   
  9   5   8  1   
 10   5  27  1   
 11   5  28  1   
 12   6   9  1   
 13   6  29  1   
 14   6  30  1   
 15   7  10  1   
 16   7  31  1   
 17   7  32  1   
 18   8   9  1   
 19   8  11  1   
 20   8  33  1   
 21   9  12  1   
 22   9  34  1   
 23  10  13  2   
 24  10  14  1   
 25  11  35  1   
 26  12  15  1   
 27  12  36  1   
 28  12  37  1   
 29  13  16  1   
 30  14  17  2   
 31  14  18  1   
 32  15  19  2   
 33  15  20  1   
 34  16  17  1   
 35  16  38  1   
 36  17  21  1   
 37  18  39  1   
 38  18  40  1   
 39  18  41  1   
 40  19  22  1   
 41  20  23  2   
 42  20  42  1   
 43  21  43  1   
 44  21  44  1   
 45  21  45  1   
 46  22  23  1   
 47  22  46  1   
 48  23  24  1   
 49  24  47  1   
 50  24  48  1   
 51  24  49  1   
@<TRIPOS>SUBSTRUCTURE
  1 ****   3 GROUP 4 **** **** 0

# MOE 2024.06 (io_trps.svl 2023.06)
