@<TRIPOS>MOLECULE
NONAME
56 59 1 0 0 
SMALL
USER_CHARGES


@<TRIPOS>ATOM
  1 O       -1.2810    -2.0110     1.2660 O.2   1 <1>  -0.5700 
  2 C       -0.3350    -2.6230     0.8320 C.2   1 <1>   0.5690 
  3 N       -0.3790    -3.3630    -0.3180 N.am  1 <1>  -0.6600 
  4 C        0.9760    -2.5840     1.5910 C.3   1 <1>  -0.0990 
  5 C        0.8190    -4.1110    -0.7750 C.3   1 <1>   0.1400 
  6 C       -1.6160    -3.5100    -1.1300 C.3   1 <1>   0.0600 
  7 C        2.1490    -2.3550     0.6210 C.3   1 <1>  -0.0800 
  8 C        2.0780    -3.2300    -0.6530 C.3   1 <1>  -0.0800 
  9 C        3.5190    -2.6170     1.2610 C.3   1 <1>  -0.1600 
 10 C        3.3790    -4.0440    -0.6770 C.3   1 <1>  -0.1600 
 11 C        4.3630    -3.2030     0.1360 C.3   1 <1>   0.2200 
 12 N        5.5520    -3.9510     0.6490 N.am  1 <1>  -0.6600 
 13 C        6.8360    -3.4590     0.5970 C.2   1 <1>   0.5690 
 14 C        5.3180    -5.3060     1.2430 C.3   1 <1>   0.0600 
 15 O        7.7820    -4.1380     0.9200 O.2   1 <1>  -0.5700 
 16 C        7.1050    -2.0310     0.1240 C.3   1 <1>  -0.0990 
 17 C        8.5370    -1.5300     0.3920 C.3   1 <1>  -0.1600 
 18 C        8.7350    -0.0830    -0.0790 C.3   1 <1>   0.0210 
 19 C       10.1410     0.4300     0.1850 C.2   1 <1>  -0.1810 
 20 C       10.5640     1.7380    -0.1460 C.ar  1 <1>   0.0000 
 21 C       11.1980    -0.2070     0.7470 C.2   1 <1>  -0.3020 
 22 C       11.8960     1.8340     0.2430 C.ar  1 <1>  -0.1520 
 23 C        9.9390     2.8420    -0.7370 C.ar  1 <1>  -0.1500 
 24 N       12.2720     0.6340     0.7880 N.pl3 1 <1>   0.0330 
 25 C       12.6190     3.0150     0.0530 C.ar  1 <1>  -0.1500 
 26 C       10.6500     4.0050    -0.9250 C.ar  1 <1>  -0.1500 
 27 C       11.9910     4.0920    -0.5300 C.ar  1 <1>  -0.1500 
 28 H        0.9430    -1.7990     2.3250 H     1 <1>   0.0800 
 29 H        1.0830    -3.5210     2.1040 H     1 <1>   0.0800 
 30 H        0.9170    -4.9900    -0.1610 H     1 <1>   0.0800 
 31 H        0.6940    -4.4260    -1.7970 H     1 <1>   0.0800 
 32 H       -1.4430    -3.1410    -2.1260 H     1 <1>   0.0800 
 33 H       -2.4240    -2.9500    -0.6920 H     1 <1>   0.0800 
 34 H       -1.9000    -4.5460    -1.1770 H     1 <1>   0.0800 
 35 H        2.1120    -1.3260     0.3040 H     1 <1>   0.0800 
 36 H        2.0880    -2.5650    -1.5010 H     1 <1>   0.0800 
 37 H        3.4240    -3.3310     2.0590 H     1 <1>   0.0800 
 38 H        3.9520    -1.7120     1.6470 H     1 <1>   0.0800 
 39 H        3.7320    -4.2000    -1.6810 H     1 <1>   0.0800 
 40 H        3.2050    -4.9930    -0.2070 H     1 <1>   0.0800 
 41 H        4.6780    -2.3940    -0.5000 H     1 <1>   0.0800 
 42 H        4.4020    -5.3240     1.8040 H     1 <1>   0.0800 
 43 H        6.1210    -5.5710     1.9110 H     1 <1>   0.0800 
 44 H        5.2730    -6.0400     0.4590 H     1 <1>   0.0800 
 45 H        6.9130    -1.9890    -0.9320 H     1 <1>   0.0800 
 46 H        6.4190    -1.3740     0.6260 H     1 <1>   0.0800 
 47 H        8.7430    -1.5920     1.4470 H     1 <1>   0.0800 
 48 H        9.2380    -2.1670    -0.1210 H     1 <1>   0.0800 
 49 H        8.0390     0.5600     0.4300 H     1 <1>   0.0800 
 50 H        8.5420    -0.0190    -1.1350 H     1 <1>   0.0800 
 51 H       11.2550    -1.2140     1.1220 H     1 <1>   0.1500 
 52 H        8.9110     2.7640    -1.0370 H     1 <1>   0.1500 
 53 H       13.2010     0.4180     1.1600 H     1 <1>   0.2700 
 54 H       13.6480     3.0720     0.3590 H     1 <1>   0.1500 
 55 H       10.1820     4.8610    -1.3780 H     1 <1>   0.1500 
 56 H       12.5250     5.0120    -0.6870 H     1 <1>   0.1500 
@<TRIPOS>BOND
  1   1   2  2   
  2   2   3  am  
  3   2   4  1   
  4   3   5  1   
  5   3   6  1   
  6   4   7  1   
  7   4  28  1   
  8   4  29  1   
  9   5   8  1   
 10   5  30  1   
 11   5  31  1   
 12   6  32  1   
 13   6  33  1   
 14   6  34  1   
 15   7   8  1   
 16   7   9  1   
 17   7  35  1   
 18   8  10  1   
 19   8  36  1   
 20   9  11  1   
 21   9  37  1   
 22   9  38  1   
 23  10  11  1   
 24  10  39  1   
 25  10  40  1   
 26  11  12  1   
 27  11  41  1   
 28  12  13  am  
 29  12  14  1   
 30  13  15  2   
 31  13  16  1   
 32  14  42  1   
 33  14  43  1   
 34  14  44  1   
 35  16  17  1   
 36  16  45  1   
 37  16  46  1   
 38  17  18  1   
 39  17  47  1   
 40  17  48  1   
 41  18  19  1   
 42  18  49  1   
 43  18  50  1   
 44  19  20  1   
 45  19  21  2   
 46  20  22  ar  
 47  20  23  ar  
 48  21  24  1   
 49  21  51  1   
 50  22  24  1   
 51  22  25  ar  
 52  23  26  ar  
 53  23  52  1   
 54  24  53  1   
 55  25  27  ar  
 56  25  54  1   
 57  26  27  ar  
 58  26  55  1   
 59  27  56  1   
@<TRIPOS>SUBSTRUCTURE
  1 ****  16 GROUP 4 **** **** 0

# MOE 2024.06 (io_trps.svl 2023.06)
