@<TRIPOS>MOLECULE
NONAME
45 46 1 0 0 
SMALL
USER_CHARGES


@<TRIPOS>ATOM
  1 CL       1.0710    -0.7230     2.2220 Cl    1 <1>  -0.1770 
  2 C        0.6150    -2.2630     1.5380 C.ar  1 <1>   0.1770 
  3 C        1.1020    -3.4250     2.1030 C.ar  1 <1>  -0.1500 
  4 C       -0.2250    -2.2970     0.4380 C.ar  1 <1>  -0.1500 
  5 C        0.7170    -4.6220     1.5340 C.ar  1 <1>   0.1900 
  6 C       -0.5940    -3.5140    -0.1140 C.ar  1 <1>  -0.1500 
  7 F        1.1760    -5.7310     2.0610 F     1 <1>  -0.1900 
  8 C       -0.1320    -4.7140     0.4280 C.ar  1 <1>   0.1170 
  9 N       -0.4630    -5.9890    -0.0800 N.am  1 <1>  -0.5470 
 10 C       -1.4650    -6.3890    -0.9280 C.2   1 <1>   0.5690 
 11 O       -2.2750    -5.6350    -1.4040 O.2   1 <1>  -0.5700 
 12 C       -1.6130    -7.8830    -1.2690 C.3   1 <1>   0.4040 
 13 N       -2.7600    -8.5880    -0.5630 N.4   1 <1>  -0.9590 
 14 C       -2.7100   -10.0580    -0.8050 C.3   1 <1>   0.3430 
 15 C       -4.0770    -7.9940    -0.9830 C.3   1 <1>   0.2630 
 16 C       -3.5660   -10.7930     0.2280 C.3   1 <1>  -0.1600 
 17 C       -3.4610   -12.3230     0.0940 C.3   1 <1>  -0.0800 
 18 C       -4.3950   -13.0000     1.1120 C.3   1 <1>  -0.1600 
 19 C       -2.0230   -12.8340     0.3060 C.3   1 <1>  -0.1600 
 20 C       -4.1970   -14.5200     1.1280 C.3   1 <1>   0.1200 
 21 C       -1.9840   -14.3660     0.3730 C.3   1 <1>   0.1200 
 22 O       -2.8540   -14.7980     1.3680 O.3   1 <1>  -0.5600 
 23 H        1.7560    -3.3940     2.9550 H     1 <1>   0.1500 
 24 H       -0.5850    -1.3730     0.0190 H     1 <1>   0.1500 
 25 H       -1.2410    -3.5120    -0.9730 H     1 <1>   0.1500 
 26 H        0.1420    -6.7140     0.3140 H     1 <1>   0.3700 
 27 H       -0.6870    -8.3740    -1.0270 H     1 <1>   0.0800 
 28 H       -1.7530    -7.9580    -2.3340 H     1 <1>   0.0800 
 29 H       -2.6580    -8.4290     0.4500 H     1 <1>   0.4500 
 30 H       -1.6920   -10.4010    -0.7150 H     1 <1>   0.0800 
 31 H       -3.0550   -10.2860    -1.8010 H     1 <1>   0.0800 
 32 H       -4.2240    -8.1150    -2.0440 H     1 <1>   0.0800 
 33 H       -4.1070    -6.9410    -0.7540 H     1 <1>   0.0800 
 34 H       -4.8910    -8.4730    -0.4650 H     1 <1>   0.0800 
 35 H       -4.5990   -10.5170     0.1050 H     1 <1>   0.0800 
 36 H       -3.2540   -10.5120     1.2190 H     1 <1>   0.0800 
 37 H       -3.7830   -12.6160    -0.8930 H     1 <1>   0.0800 
 38 H       -5.4220   -12.7840     0.8760 H     1 <1>   0.0800 
 39 H       -4.2000   -12.6310     2.1040 H     1 <1>   0.0800 
 40 H       -1.6230   -12.4530     1.2300 H     1 <1>   0.0800 
 41 H       -1.3800   -12.5180    -0.4950 H     1 <1>   0.0800 
 42 H       -4.4820   -14.9690     0.1910 H     1 <1>   0.0800 
 43 H       -4.7710   -14.9690     1.9200 H     1 <1>   0.0800 
 44 H       -0.9970   -14.7100     0.6320 H     1 <1>   0.0800 
 45 H       -2.2770   -14.8140    -0.5610 H     1 <1>   0.0800 
@<TRIPOS>BOND
  1   1   2  1   
  2   2   3  ar  
  3   2   4  ar  
  4   3   5  ar  
  5   3  23  1   
  6   4   6  ar  
  7   4  24  1   
  8   5   7  1   
  9   5   8  ar  
 10   6   8  ar  
 11   6  25  1   
 12   8   9  1   
 13   9  10  am  
 14   9  26  1   
 15  10  11  2   
 16  10  12  1   
 17  12  13  1   
 18  12  27  1   
 19  12  28  1   
 20  13  14  1   
 21  13  15  1   
 22  13  29  1   
 23  14  16  1   
 24  14  30  1   
 25  14  31  1   
 26  15  32  1   
 27  15  33  1   
 28  15  34  1   
 29  16  17  1   
 30  16  35  1   
 31  16  36  1   
 32  17  18  1   
 33  17  19  1   
 34  17  37  1   
 35  18  20  1   
 36  18  38  1   
 37  18  39  1   
 38  19  21  1   
 39  19  40  1   
 40  19  41  1   
 41  20  22  1   
 42  20  42  1   
 43  20  43  1   
 44  21  22  1   
 45  21  44  1   
 46  21  45  1   
@<TRIPOS>SUBSTRUCTURE
  1 ****  12 GROUP 4 **** **** 0

# MOE 2024.06 (io_trps.svl 2023.06)
