@<TRIPOS>MOLECULE
NONAME
40 42 1 0 0 
SMALL
USER_CHARGES


@<TRIPOS>ATOM
  1 O        0.0540    -0.5530     0.8530 O.3   1 <1>  -0.5600 
  2 C        0.5000    -1.8640     0.6620 C.3   1 <1>   0.2000 
  3 C       -1.0820    -0.4280     1.6480 C.3   1 <1>   0.0400 
  4 C        1.9250    -1.9060     0.0800 C.3   1 <1>   0.0000 
  5 C       -0.3800    -2.6240    -0.3360 C.3   1 <1>  -0.1600 
  6 C        2.9500    -1.7140     1.2240 C.3   1 <1>   0.2090 
  7 C        2.1360    -0.8740    -1.0720 C.3   1 <1>  -0.1600 
  8 C        1.9560    -3.3310    -0.4980 C.3   1 <1>  -0.1600 
  9 C        0.5680    -3.5540    -1.1070 C.3   1 <1>  -0.1600 
 10 N        4.3220    -1.4160     0.7040 N.pl3 1 <1>  -0.8380 
 11 C        3.0520     0.2830    -0.6500 C.3   1 <1>  -0.1600 
 12 C        5.3250    -2.3780     0.7240 C.ar  1 <1>   0.4100 
 13 C        4.4270    -0.2390    -0.2060 C.3   1 <1>   0.2090 
 14 N        4.9560    -3.6520     0.8280 N.ar  1 <1>  -0.6200 
 15 C        6.6640    -1.9930     0.6370 C.ar  1 <1>  -0.1500 
 16 C        5.9280    -4.5480     0.8310 C.ar  1 <1>   0.1600 
 17 C        7.6660    -2.9340     0.6400 C.ar  1 <1>  -0.1500 
 18 C        7.2750    -4.2530     0.7390 C.ar  1 <1>  -0.1500 
 19 H        0.4950    -2.3760     1.6110 H     1 <1>   0.0800 
 20 H       -1.3120     0.6180     1.7370 H     1 <1>   0.0800 
 21 H       -0.8810    -0.8390     2.6220 H     1 <1>   0.0800 
 22 H       -1.9050    -0.9400     1.1810 H     1 <1>   0.0800 
 23 H       -1.1330    -3.1900     0.1820 H     1 <1>   0.0800 
 24 H       -0.8470    -1.9380    -1.0210 H     1 <1>   0.0800 
 25 H        2.9660    -2.5780     1.8650 H     1 <1>   0.0800 
 26 H        2.6410    -0.8820     1.8320 H     1 <1>   0.0800 
 27 H        2.5970    -1.3550    -1.9160 H     1 <1>   0.0800 
 28 H        1.1950    -0.4800    -1.4140 H     1 <1>   0.0800 
 29 H        2.7520    -3.4740    -1.2090 H     1 <1>   0.0800 
 30 H        2.1030    -4.0380     0.3010 H     1 <1>   0.0800 
 31 H        0.2720    -4.5860    -1.0250 H     1 <1>   0.0800 
 32 H        0.5800    -3.2750    -2.1460 H     1 <1>   0.0800 
 33 H        2.5970     0.8310     0.1560 H     1 <1>   0.0800 
 34 H        3.1810     0.9640    -1.4720 H     1 <1>   0.0800 
 35 H        4.9650     0.5480     0.2940 H     1 <1>   0.0800 
 36 H        4.9860    -0.5300    -1.0800 H     1 <1>   0.0800 
 37 H        6.9060    -0.9520     0.5750 H     1 <1>   0.1500 
 38 H        5.6300    -5.5790     0.9110 H     1 <1>   0.1500 
 39 H        8.7040    -2.6580     0.5720 H     1 <1>   0.1500 
 40 H        8.0050    -5.0420     0.7480 H     1 <1>   0.1500 
@<TRIPOS>BOND
  1   1   2  1   
  2   1   3  1   
  3   2   4  1   
  4   2   5  1   
  5   2  19  1   
  6   3  20  1   
  7   3  21  1   
  8   3  22  1   
  9   4   6  1   
 10   4   7  1   
 11   4   8  1   
 12   5   9  1   
 13   5  23  1   
 14   5  24  1   
 15   6  10  1   
 16   6  25  1   
 17   6  26  1   
 18   7  11  1   
 19   7  27  1   
 20   7  28  1   
 21   8   9  1   
 22   8  29  1   
 23   8  30  1   
 24   9  31  1   
 25   9  32  1   
 26  10  12  1   
 27  10  13  1   
 28  11  13  1   
 29  11  33  1   
 30  11  34  1   
 31  12  14  ar  
 32  12  15  ar  
 33  13  35  1   
 34  13  36  1   
 35  14  16  ar  
 36  15  17  ar  
 37  15  37  1   
 38  16  18  ar  
 39  16  38  1   
 40  17  18  ar  
 41  17  39  1   
 42  18  40  1   
@<TRIPOS>SUBSTRUCTURE
  1 ****   6 GROUP 4 **** **** 0

# MOE 2024.06 (io_trps.svl 2023.06)
