@<TRIPOS>MOLECULE
NONAME
48 50 1 0 0 
SMALL
USER_CHARGES


@<TRIPOS>ATOM
  1 O        1.7760    -0.8330     2.6040 O.co2 1 <1>  -0.9000 
  2 C        2.5270    -0.7670     1.6230 C.2   1 <1>   0.9060 
  3 O        3.3680    -1.6510     1.4130 O.co2 1 <1>  -0.9000 
  4 C        2.4280     0.4570     0.6870 C.3   1 <1>  -0.1060 
  5 C        3.2610     0.1290    -0.5950 C.3   1 <1>   0.2000 
  6 C        3.0770     1.6480     1.4600 C.3   1 <1>  -0.1600 
  7 C        0.9060     0.7000     0.4060 C.3   1 <1>  -0.0160 
  8 O        2.7750     0.7780    -1.7240 O.3   1 <1>  -0.6800 
  9 C        4.7360     0.5430    -0.4070 C.3   1 <1>   0.1100 
 10 C        3.7920     2.6440     0.5410 C.3   1 <1>   0.1100 
 11 C        0.4830     1.9740    -0.3390 C.ar  1 <1>  -0.1430 
 12 N        4.9330     2.0040    -0.1540 N.3   1 <1>  -0.8100 
 13 C        0.3890     3.1900     0.3230 C.ar  1 <1>  -0.1500 
 14 C        0.1460     1.9240    -1.6840 C.ar  1 <1>  -0.1500 
 15 C        5.2640     2.7320    -1.3940 C.3   1 <1>   0.2900 
 16 C        0.0120     4.3380    -0.3520 C.ar  1 <1>  -0.1500 
 17 C       -0.2330     3.0690    -2.3640 C.ar  1 <1>  -0.1500 
 18 C        5.7540     4.1470    -1.1120 C.2   1 <1>   0.0070 
 19 C       -0.2960     4.2790    -1.6990 C.ar  1 <1>  -0.1500 
 20 N        5.2880     5.2050    -1.6820 N.2   1 <1>  -0.5650 
 21 N        6.7370     4.4520    -0.2500 N.pl3 1 <1>   0.3140 
 22 C        6.0360     6.1620    -1.1230 C.2   1 <1>   0.3660 
 23 N        6.9160     5.7700    -0.2640 N.2   1 <1>  -0.7070 
 24 C        7.5590     3.5740     0.6160 C.3   1 <1>   0.0960 
 25 C        8.6710     2.8800    -0.1810 C.3   1 <1>  -0.2400 
 26 H        3.2120    -0.9230    -0.8210 H     1 <1>   0.0800 
 27 H        3.8140     1.2700     2.1480 H     1 <1>   0.0800 
 28 H        2.3450     2.1430     2.0670 H     1 <1>   0.0800 
 29 H        0.5260    -0.1570    -0.1220 H     1 <1>   0.0800 
 30 H        0.3820     0.7170     1.3460 H     1 <1>   0.0800 
 31 H        2.2630     1.5570    -1.4180 H     1 <1>   0.4000 
 32 H        5.3080     0.2170    -1.2560 H     1 <1>   0.0800 
 33 H        5.1150     0.0030     0.4440 H     1 <1>   0.0800 
 34 H        4.1570     3.4740     1.1210 H     1 <1>   0.0800 
 35 H        3.0890     3.0300    -0.1770 H     1 <1>   0.0800 
 36 H        0.6040     3.2510     1.3740 H     1 <1>   0.1500 
 37 H        0.1840     0.9860    -2.2120 H     1 <1>   0.1500 
 38 H        6.0390     2.2070    -1.9220 H     1 <1>   0.0800 
 39 H        4.4010     2.7750    -2.0370 H     1 <1>   0.0800 
 40 H       -0.0450     5.2750     0.1730 H     1 <1>   0.1500 
 41 H       -0.4780     3.0140    -3.4100 H     1 <1>   0.1500 
 42 H       -0.5850     5.1710    -2.2260 H     1 <1>   0.1500 
 43 H        5.8940     7.1960    -1.3910 H     1 <1>   0.1500 
 44 H        7.9930     4.1840     1.3870 H     1 <1>   0.0800 
 45 H        6.9250     2.8480     1.0880 H     1 <1>   0.0800 
 46 H        9.3020     3.6140    -0.6520 H     1 <1>   0.0800 
 47 H        8.2500     2.2330    -0.9280 H     1 <1>   0.0800 
 48 H        9.2720     2.2850     0.4830 H     1 <1>   0.0800 
@<TRIPOS>BOND
  1   1   2  ar  
  2   2   3  ar  
  3   2   4  1   
  4   4   5  1   
  5   4   6  1   
  6   4   7  1   
  7   5   8  1   
  8   5   9  1   
  9   5  26  1   
 10   6  10  1   
 11   6  27  1   
 12   6  28  1   
 13   7  11  1   
 14   7  29  1   
 15   7  30  1   
 16   8  31  1   
 17   9  12  1   
 18   9  32  1   
 19   9  33  1   
 20  10  12  1   
 21  10  34  1   
 22  10  35  1   
 23  11  13  ar  
 24  11  14  ar  
 25  12  15  1   
 26  13  16  ar  
 27  13  36  1   
 28  14  17  ar  
 29  14  37  1   
 30  15  18  1   
 31  15  38  1   
 32  15  39  1   
 33  16  19  ar  
 34  16  40  1   
 35  17  19  ar  
 36  17  41  1   
 37  18  20  2   
 38  18  21  1   
 39  19  42  1   
 40  20  22  1   
 41  21  23  1   
 42  21  24  1   
 43  22  23  2   
 44  22  43  1   
 45  24  25  1   
 46  24  44  1   
 47  24  45  1   
 48  25  46  1   
 49  25  47  1   
 50  25  48  1   
@<TRIPOS>SUBSTRUCTURE
  1 ****  10 GROUP 4 **** **** 0

# MOE 2024.06 (io_trps.svl 2023.06)
