@<TRIPOS>MOLECULE
NONAME
52 54 1 0 0 
SMALL
USER_CHARGES


@<TRIPOS>ATOM
  1 O        0.5050    -0.2140    -0.8550 O.2   1 <1>  -0.5700 
  2 C        1.4270    -0.9990    -0.9070 C.2   1 <1>   0.5440 
  3 N        2.6280    -0.4770    -1.2510 N.am  1 <1>  -0.8000 
  4 C        1.2450    -2.4120    -0.6320 C.ar  1 <1>   0.0860 
  5 C        2.2960    -3.2360    -0.2210 C.ar  1 <1>  -0.1500 
  6 C       -0.0070    -3.0140    -0.7670 C.ar  1 <1>  -0.1500 
  7 C        2.1060    -4.5820     0.0290 C.ar  1 <1>  -0.1500 
  8 C       -0.2000    -4.3590    -0.5170 C.ar  1 <1>  -0.1500 
  9 C        0.8560    -5.1730    -0.1180 C.ar  1 <1>   0.1170 
 10 N        0.7190    -6.5390     0.1610 N.am  1 <1>  -0.5470 
 11 C       -0.2280    -7.4360    -0.2680 C.2   1 <1>   0.5690 
 12 O       -1.1160    -7.1550    -1.0370 O.2   1 <1>  -0.5700 
 13 C       -0.1890    -8.8910     0.2380 C.3   1 <1>   0.4040 
 14 N       -1.4950    -9.6320     0.0430 N.4   1 <1>  -0.9590 
 15 C       -2.5730    -9.1010     0.9250 C.3   1 <1>   0.3430 
 16 C       -1.3460   -11.1090     0.1490 C.3   1 <1>   0.3430 
 17 C       -3.9050    -9.7460     0.5440 C.3   1 <1>  -0.1600 
 18 C       -2.6610   -11.7900    -0.2330 C.3   1 <1>  -0.1600 
 19 C       -3.8510   -11.2820     0.6040 C.3   1 <1>  -0.0800 
 20 C       -5.1900   -11.8630     0.1120 C.3   1 <1>  -0.1600 
 21 C       -5.3110   -13.3860     0.2960 C.3   1 <1>   0.0960 
 22 N       -6.5780   -13.8720    -0.2780 N.pl3 1 <1>   0.3140 
 23 N       -6.6990   -14.1300    -1.5920 N.2   1 <1>  -0.7070 
 24 C       -7.7330   -14.1050     0.3750 C.2   1 <1>  -0.3020 
 25 C       -7.9270   -14.5240    -1.7430 C.2   1 <1>   0.1390 
 26 C       -8.6270   -14.5290    -0.5430 C.2   1 <1>  -0.1500 
 27 H        2.6730     0.5190    -1.4710 H     1 <1>   0.3700 
 28 H        3.4440    -1.0350    -1.4940 H     1 <1>   0.3700 
 29 H        3.2750    -2.8120    -0.0870 H     1 <1>   0.1500 
 30 H       -0.8410    -2.4050    -1.0740 H     1 <1>   0.1500 
 31 H        2.9460    -5.1760     0.3420 H     1 <1>   0.1500 
 32 H       -1.1880    -4.7650    -0.6340 H     1 <1>   0.1500 
 33 H        1.4820    -6.9020     0.7330 H     1 <1>   0.3700 
 34 H        0.0750    -8.8920     1.2810 H     1 <1>   0.0800 
 35 H        0.5890    -9.3990    -0.3060 H     1 <1>   0.0800 
 36 H       -1.7970    -9.4010    -0.9190 H     1 <1>   0.4500 
 37 H       -2.6530    -8.0300     0.8080 H     1 <1>   0.0800 
 38 H       -2.3480    -9.3180     1.9570 H     1 <1>   0.0800 
 39 H       -1.0830   -11.3780     1.1590 H     1 <1>   0.0800 
 40 H       -0.5640   -11.4520    -0.5100 H     1 <1>   0.0800 
 41 H       -4.1790    -9.4210    -0.4450 H     1 <1>   0.0800 
 42 H       -4.6640    -9.3870     1.2180 H     1 <1>   0.0800 
 43 H       -2.5390   -12.8490    -0.0930 H     1 <1>   0.0800 
 44 H       -2.8500   -11.6260    -1.2810 H     1 <1>   0.0800 
 45 H       -3.7050   -11.5760     1.6310 H     1 <1>   0.0800 
 46 H       -5.3200   -11.6310    -0.9330 H     1 <1>   0.0800 
 47 H       -5.9980   -11.3990     0.6520 H     1 <1>   0.0800 
 48 H       -5.2820   -13.6480     1.3370 H     1 <1>   0.0800 
 49 H       -4.5160   -13.8970    -0.2140 H     1 <1>   0.0800 
 50 H       -7.8550   -13.9610     1.4330 H     1 <1>   0.1500 
 51 H       -8.3450   -14.8120    -2.6930 H     1 <1>   0.1500 
 52 H       -9.6550   -14.8140    -0.4090 H     1 <1>   0.1500 
@<TRIPOS>BOND
  1   1   2  2   
  2   2   3  am  
  3   2   4  1   
  4   3  27  1   
  5   3  28  1   
  6   4   5  ar  
  7   4   6  ar  
  8   5   7  ar  
  9   5  29  1   
 10   6   8  ar  
 11   6  30  1   
 12   7   9  ar  
 13   7  31  1   
 14   8   9  ar  
 15   8  32  1   
 16   9  10  1   
 17  10  11  am  
 18  10  33  1   
 19  11  12  2   
 20  11  13  1   
 21  13  14  1   
 22  13  34  1   
 23  13  35  1   
 24  14  15  1   
 25  14  16  1   
 26  14  36  1   
 27  15  17  1   
 28  15  37  1   
 29  15  38  1   
 30  16  18  1   
 31  16  39  1   
 32  16  40  1   
 33  17  19  1   
 34  17  41  1   
 35  17  42  1   
 36  18  19  1   
 37  18  43  1   
 38  18  44  1   
 39  19  20  1   
 40  19  45  1   
 41  20  21  1   
 42  20  46  1   
 43  20  47  1   
 44  21  22  1   
 45  21  48  1   
 46  21  49  1   
 47  22  23  1   
 48  22  24  1   
 49  23  25  2   
 50  24  26  2   
 51  24  50  1   
 52  25  26  1   
 53  25  51  1   
 54  26  52  1   
@<TRIPOS>SUBSTRUCTURE
  1 ****  14 GROUP 4 **** **** 0

# MOE 2024.06 (io_trps.svl 2023.06)
