@<TRIPOS>MOLECULE
NONAME
43 44 1 0 0 
SMALL
USER_CHARGES


@<TRIPOS>ATOM
  1 S        0.0710     0.2150     0.2370 S.o2  1 <1>   1.3330 
  2 O        0.2120    -0.8200     1.2360 O.2   1 <1>  -0.6500 
  3 O       -0.4190     1.5200     0.6190 O.2   1 <1>  -0.6500 
  4 N       -0.9440    -0.3870    -0.9830 N.am  1 <1>  -0.8490 
  5 C        1.6180     0.4520    -0.6380 C.3   1 <1>  -0.0550 
  6 C       -2.3540    -0.0660    -0.7370 C.3   1 <1>   0.1160 
  7 C       -0.7960    -1.8300    -1.2010 C.3   1 <1>   0.1160 
  8 C        2.7410     1.0400     0.2360 C.3   1 <1>  -0.0800 
  9 C        3.9260     1.4870    -0.6250 C.3   1 <1>   0.2200 
 10 C        3.3680    -0.0180     1.1460 C.3   1 <1>   0.1200 
 11 N        4.2470     2.9290    -0.4400 N.am  1 <1>  -0.7300 
 12 C        5.0630     0.5450    -0.2160 C.3   1 <1>   0.1200 
 13 O        4.4320    -0.5240     0.4120 O.3   1 <1>  -0.5600 
 14 C        4.5810     3.5690     0.7230 C.2   1 <1>   0.5440 
 15 O        4.6820     2.9290     1.7480 O.2   1 <1>  -0.5700 
 16 C        4.7700     5.0020     0.7360 C.ar  1 <1>   0.0860 
 17 C        5.6400     5.6880    -0.1130 C.ar  1 <1>  -0.1440 
 18 C        4.0350     5.7590     1.6470 C.ar  1 <1>   0.1600 
 19 C        5.6750     7.0630     0.0010 C.ar  1 <1>  -0.1500 
 20 C        6.5410     4.9860    -1.1220 C.3   1 <1>  -0.0970 
 21 N        4.0590     7.0770     1.7640 N.ar  1 <1>  -0.6200 
 22 C        4.8790     7.7000     0.9360 C.ar  1 <1>   0.1600 
 23 H        1.9470    -0.4800    -1.0540 H     1 <1>   0.0800 
 24 H        1.4290     1.1250    -1.4510 H     1 <1>   0.0800 
 25 H       -2.9690    -0.4500    -1.5330 H     1 <1>   0.0800 
 26 H       -2.4880     1.0020    -0.6960 H     1 <1>   0.0800 
 27 H       -2.6770    -0.4910     0.1990 H     1 <1>   0.0800 
 28 H       -1.3940    -2.1410    -2.0410 H     1 <1>   0.0800 
 29 H       -1.1100    -2.3780    -0.3270 H     1 <1>   0.0800 
 30 H        0.2320    -2.0730    -1.4080 H     1 <1>   0.0800 
 31 H        2.3480     1.8490     0.8290 H     1 <1>   0.0800 
 32 H        3.7170     1.3200    -1.6670 H     1 <1>   0.0800 
 33 H        2.7060    -0.8230     1.4110 H     1 <1>   0.0800 
 34 H        3.7660     0.4330     2.0410 H     1 <1>   0.0800 
 35 H        4.0720     3.5130    -1.2590 H     1 <1>   0.3700 
 36 H        5.7280     1.0010     0.4970 H     1 <1>   0.0800 
 37 H        5.6130     0.1740    -1.0610 H     1 <1>   0.0800 
 38 H        3.3810     5.2270     2.3190 H     1 <1>   0.1500 
 39 H        6.3200     7.6510    -0.6260 H     1 <1>   0.1500 
 40 H        7.3510     5.6280    -1.4180 H     1 <1>   0.0800 
 41 H        5.9800     4.7180    -1.9990 H     1 <1>   0.0800 
 42 H        6.9640     4.0960    -0.6910 H     1 <1>   0.0800 
 43 H        4.9200     8.7740     1.0090 H     1 <1>   0.1500 
@<TRIPOS>BOND
  1   1   2  2   
  2   1   3  2   
  3   1   4  am  
  4   1   5  1   
  5   4   6  1   
  6   4   7  1   
  7   5   8  1   
  8   5  23  1   
  9   5  24  1   
 10   6  25  1   
 11   6  26  1   
 12   6  27  1   
 13   7  28  1   
 14   7  29  1   
 15   7  30  1   
 16   8   9  1   
 17   8  10  1   
 18   8  31  1   
 19   9  11  1   
 20   9  12  1   
 21   9  32  1   
 22  10  13  1   
 23  10  33  1   
 24  10  34  1   
 25  11  14  am  
 26  11  35  1   
 27  12  13  1   
 28  12  36  1   
 29  12  37  1   
 30  14  15  2   
 31  14  16  1   
 32  16  17  ar  
 33  16  18  ar  
 34  17  19  ar  
 35  17  20  1   
 36  18  21  ar  
 37  18  38  1   
 38  19  22  ar  
 39  19  39  1   
 40  20  40  1   
 41  20  41  1   
 42  20  42  1   
 43  21  22  ar  
 44  22  43  1   
@<TRIPOS>SUBSTRUCTURE
  1 ****   8 GROUP 4 **** **** 0

# MOE 2024.06 (io_trps.svl 2023.06)
