@<TRIPOS>MOLECULE
NONAME
37 38 1 0 0 
SMALL
USER_CHARGES


@<TRIPOS>ATOM
  1 F       -0.9550    -0.0370    -2.0470 F     1 <1>  -0.3400 
  2 C       -2.2730    -0.1090    -1.8670 C.3   1 <1>   1.2010 
  3 F       -2.6820     1.1480    -1.7020 F     1 <1>  -0.3400 
  4 F       -2.7810    -0.5020    -3.0330 F     1 <1>  -0.3400 
  5 C       -2.6680    -1.0480    -0.6870 C.2   1 <1>   0.3350 
  6 N       -3.3150    -0.6920     0.3620 N.2   1 <1>  -0.4100 
  7 N       -2.3600    -2.3540    -0.6650 N.2   1 <1>  -0.5650 
  8 O       -3.4690    -1.7410     1.1100 O.3   1 <1>  -0.0190 
  9 C       -2.8890    -2.7030     0.4400 C.2   1 <1>   0.2980 
 10 C       -2.8880    -4.1110     1.0300 C.3   1 <1>   0.2900 
 11 N       -4.1300    -4.8670     0.7300 N.3   1 <1>  -0.8100 
 12 C       -3.9530    -6.3070     0.9690 C.3   1 <1>   0.2900 
 13 C       -5.2950    -4.3400     1.4670 C.3   1 <1>   0.0300 
 14 C       -5.0530    -7.0550     0.2520 C.2   1 <1>  -0.3320 
 15 N       -5.4920    -6.6770    -0.9620 N.pl3 1 <1>   0.3000 
 16 C       -5.7740    -8.1400     0.6050 C.2   1 <1>  -0.1500 
 17 N       -6.4730    -7.4840    -1.4120 N.2   1 <1>  -0.7070 
 18 C       -6.6350    -8.3580    -0.4670 C.2   1 <1>   0.1080 
 19 C       -7.6520    -9.4790    -0.5470 C.3   1 <1>   0.0210 
 20 C       -7.0500   -10.7210    -1.2170 C.3   1 <1>  -0.1600 
 21 C       -8.0630   -11.8680    -1.3030 C.3   1 <1>  -0.2400 
 22 H       -2.7340    -4.0570     2.0930 H     1 <1>   0.0800 
 23 H       -2.0500    -4.6300     0.5990 H     1 <1>   0.0800 
 24 H       -3.9690    -6.5250     2.0240 H     1 <1>   0.0800 
 25 H       -3.0100    -6.6320     0.5640 H     1 <1>   0.0800 
 26 H       -5.4880    -3.3200     1.1820 H     1 <1>   0.0800 
 27 H       -5.1260    -4.3840     2.5290 H     1 <1>   0.0800 
 28 H       -6.1770    -4.9130     1.2340 H     1 <1>   0.0800 
 29 H       -5.1520    -5.8530    -1.4750 H     1 <1>   0.2700 
 30 H       -5.7220    -8.7300     1.5020 H     1 <1>   0.1500 
 31 H       -8.4990    -9.1340    -1.1140 H     1 <1>   0.0800 
 32 H       -7.9890    -9.7220     0.4440 H     1 <1>   0.0800 
 33 H       -6.1870   -11.0430    -0.6600 H     1 <1>   0.0800 
 34 H       -6.7220   -10.4560    -2.2080 H     1 <1>   0.0800 
 35 H       -8.3870   -12.1600    -0.3200 H     1 <1>   0.0800 
 36 H       -7.6120   -12.7200    -1.7810 H     1 <1>   0.0800 
 37 H       -8.9210   -11.5680    -1.8790 H     1 <1>   0.0800 
@<TRIPOS>BOND
  1   1   2  1   
  2   2   3  1   
  3   2   4  1   
  4   2   5  1   
  5   5   6  2   
  6   5   7  1   
  7   6   8  1   
  8   7   9  2   
  9   8   9  1   
 10   9  10  1   
 11  10  11  1   
 12  10  22  1   
 13  10  23  1   
 14  11  12  1   
 15  11  13  1   
 16  12  14  1   
 17  12  24  1   
 18  12  25  1   
 19  13  26  1   
 20  13  27  1   
 21  13  28  1   
 22  14  15  1   
 23  14  16  2   
 24  15  17  1   
 25  15  29  1   
 26  16  18  1   
 27  16  30  1   
 28  17  18  2   
 29  18  19  1   
 30  19  20  1   
 31  19  31  1   
 32  19  32  1   
 33  20  21  1   
 34  20  33  1   
 35  20  34  1   
 36  21  35  1   
 37  21  36  1   
 38  21  37  1   
@<TRIPOS>SUBSTRUCTURE
  1 ****  11 GROUP 4 **** **** 0

# MOE 2024.06 (io_trps.svl 2023.06)
