@<TRIPOS>MOLECULE
NONAME
43 45 1 0 0 
SMALL
USER_CHARGES


@<TRIPOS>ATOM
  1 O        0.7580     2.0400    -1.8830 O.3   1 <1>  -0.5320 
  2 C        1.7880     2.2320    -1.0480 C.ar  1 <1>   0.0830 
  3 C        2.6720     3.2650    -1.2990 C.ar  1 <1>  -0.1500 
  4 C        1.9630     1.4100     0.0530 C.ar  1 <1>  -0.1500 
  5 C        3.7420     3.4790    -0.4500 C.ar  1 <1>  -0.1500 
  6 C        3.0360     1.6220     0.9010 C.ar  1 <1>  -0.1500 
  7 C        3.9340     2.6510     0.6500 C.ar  1 <1>  -0.1430 
  8 C        5.1240     2.8740     1.5580 C.3   1 <1>   0.4860 
  9 N        6.3110     2.2970     0.8710 N.4   1 <1>  -0.8520 
 10 C        6.5700     0.9120     1.2950 C.3   1 <1>   0.2960 
 11 C        7.5310     3.1410     0.9890 C.3   1 <1>   0.4860 
 12 C        7.3420     0.0360     0.3680 C.3   1 <1>  -0.2000 
 13 C        5.8730    -0.1890     0.5710 C.3   1 <1>  -0.2000 
 14 C        7.2900     4.4590     0.2930 C.ar  1 <1>  -0.1430 
 15 C        7.0830     5.6210     1.0020 C.ar  1 <1>   0.1600 
 16 C        7.2550     4.5500    -1.0800 C.ar  1 <1>   0.1600 
 17 N        6.8250     6.7590     0.4070 N.ar  1 <1>  -0.6200 
 18 N        6.9980     5.6790    -1.6930 N.ar  1 <1>  -0.6200 
 19 C        6.7980     6.7330    -0.9170 C.ar  1 <1>   0.4770 
 20 C        6.5090     8.0500    -1.6190 C.3   1 <1>  -0.0170 
 21 C        7.7900     8.8450    -1.9080 C.3   1 <1>  -0.2400 
 22 H        0.1650     1.3150    -1.6180 H     1 <1>   0.4500 
 23 H        2.5110     3.8980    -2.1550 H     1 <1>   0.1500 
 24 H        1.2690     0.6120     0.2490 H     1 <1>   0.1500 
 25 H        4.4080     4.3000    -0.6620 H     1 <1>   0.1500 
 26 H        3.1570     0.9750     1.7540 H     1 <1>   0.1500 
 27 H        4.9660     2.4030     2.5140 H     1 <1>   0.0800 
 28 H        5.2440     3.9340     1.7100 H     1 <1>   0.0800 
 29 H        6.0370     2.2590    -0.1190 H     1 <1>   0.4500 
 30 H        6.7400     0.8020     2.3560 H     1 <1>   0.1000 
 31 H        8.3670     2.6430     0.5240 H     1 <1>   0.0800 
 32 H        7.7720     3.3050     2.0270 H     1 <1>   0.0800 
 33 H        8.0150    -0.7010     0.7750 H     1 <1>   0.1000 
 34 H        7.6620     0.3930    -0.5960 H     1 <1>   0.1000 
 35 H        5.2070     0.0300    -0.2460 H     1 <1>   0.1000 
 36 H        5.5750    -1.0690     1.1160 H     1 <1>   0.1000 
 37 H        7.1200     5.6330     2.0790 H     1 <1>   0.1500 
 38 H        7.4320     3.6880    -1.7020 H     1 <1>   0.1500 
 39 H        5.8540     8.6390    -1.0020 H     1 <1>   0.0800 
 40 H        5.9960     7.8500    -2.5420 H     1 <1>   0.0800 
 41 H        8.3030     9.0690    -0.9890 H     1 <1>   0.0800 
 42 H        7.5500     9.7680    -2.4040 H     1 <1>   0.0800 
 43 H        8.4460     8.2720    -2.5400 H     1 <1>   0.0800 
@<TRIPOS>BOND
  1   1   2  1   
  2   1  22  1   
  3   2   3  ar  
  4   2   4  ar  
  5   3   5  ar  
  6   3  23  1   
  7   4   6  ar  
  8   4  24  1   
  9   5   7  ar  
 10   5  25  1   
 11   6   7  ar  
 12   6  26  1   
 13   7   8  1   
 14   8   9  1   
 15   8  27  1   
 16   8  28  1   
 17   9  10  1   
 18   9  11  1   
 19   9  29  1   
 20  10  12  1   
 21  10  13  1   
 22  10  30  1   
 23  11  14  1   
 24  11  31  1   
 25  11  32  1   
 26  12  13  1   
 27  12  33  1   
 28  12  34  1   
 29  13  35  1   
 30  13  36  1   
 31  14  15  ar  
 32  14  16  ar  
 33  15  17  ar  
 34  15  37  1   
 35  16  18  ar  
 36  16  38  1   
 37  17  19  ar  
 38  18  19  ar  
 39  19  20  1   
 40  20  21  1   
 41  20  39  1   
 42  20  40  1   
 43  21  41  1   
 44  21  42  1   
 45  21  43  1   
@<TRIPOS>SUBSTRUCTURE
  1 ****   5 GROUP 4 **** **** 0

# MOE 2024.06 (io_trps.svl 2023.06)
