@<TRIPOS>MOLECULE
NONAME
49 53 1 0 0 
SMALL
USER_CHARGES


@<TRIPOS>ATOM
  1 O        1.8920    -0.3190    -0.8530 O.3   1 <1>  -0.5600 
  2 C        2.5760    -1.1970     0.0220 C.3   1 <1>   0.4600 
  3 C        0.4890    -0.2250    -0.7340 C.3   1 <1>   0.1200 
  4 C        1.7610    -2.4680     0.2190 C.2   1 <1>  -0.3320 
  5 C        2.8360    -0.4660     1.3420 C.3   1 <1>  -0.1600 
  6 C        3.9150    -1.5060    -0.6590 C.3   1 <1>  -0.1600 
  7 C       -0.1860    -1.5670    -1.0580 C.3   1 <1>   0.0210 
  8 N        2.1350    -3.5970     0.9000 N.pl3 1 <1>   0.0330 
  9 C        0.5180    -2.6430    -0.2730 C.2   1 <1>  -0.1810 
 10 C        3.6050     0.8450     1.1430 C.3   1 <1>   0.3430 
 11 C        4.9250    -0.3550    -0.5820 C.3   1 <1>   0.3430 
 12 C        1.1040    -4.5010     0.8220 C.ar  1 <1>  -0.1520 
 13 C        0.0700    -3.9310     0.0860 C.ar  1 <1>   0.0000 
 14 N        4.2430     0.9090    -0.2110 N.4   1 <1>  -0.9590 
 15 C        0.9860    -5.7920     1.3430 C.ar  1 <1>  -0.1500 
 16 C       -1.1020    -4.6580    -0.1390 C.ar  1 <1>  -0.1500 
 17 C        5.0980     2.1300    -0.3870 C.3   1 <1>   0.4860 
 18 C       -0.1740    -6.4970     1.1150 C.ar  1 <1>  -0.1500 
 19 C       -1.2180    -5.9300     0.3730 C.ar  1 <1>  -0.1500 
 20 C        4.3090     3.4240    -0.1920 C.ar  1 <1>   0.1670 
 21 N        4.0980     3.8080     1.0610 N.ar  1 <1>  -0.6200 
 22 C        3.8610     4.1230    -1.3040 C.ar  1 <1>  -0.1500 
 23 C        3.4220     4.9390     1.2090 C.ar  1 <1>   0.1600 
 24 C        3.1530     5.2930    -1.1320 C.ar  1 <1>  -0.1500 
 25 C        2.9340     5.7040     0.1640 C.ar  1 <1>  -0.1500 
 26 H        0.1460     0.5340    -1.4150 H     1 <1>   0.0800 
 27 H        0.2480     0.0770     0.2710 H     1 <1>   0.0800 
 28 H        3.4080    -1.1050     1.9880 H     1 <1>   0.0800 
 29 H        1.9090    -0.2730     1.8490 H     1 <1>   0.0800 
 30 H        3.7290    -1.7660    -1.6860 H     1 <1>   0.0800 
 31 H        4.3660    -2.3660    -0.2020 H     1 <1>   0.0800 
 32 H       -0.1160    -1.7750    -2.1100 H     1 <1>   0.0800 
 33 H       -1.2250    -1.5270    -0.7830 H     1 <1>   0.0800 
 34 H        3.0160    -3.7770     1.3890 H     1 <1>   0.2700 
 35 H        4.3510     0.9520     1.9140 H     1 <1>   0.0800 
 36 H        2.9140     1.6680     1.2410 H     1 <1>   0.0800 
 37 H        5.4150    -0.2500    -1.5370 H     1 <1>   0.0800 
 38 H        5.6750    -0.5850     0.1580 H     1 <1>   0.0800 
 39 H        3.4320     0.9830    -0.8550 H     1 <1>   0.4500 
 40 H        1.7910    -6.2230     1.9110 H     1 <1>   0.1500 
 41 H       -1.8950    -4.2120    -0.7110 H     1 <1>   0.1500 
 42 H        5.5240     2.1320    -1.3760 H     1 <1>   0.0800 
 43 H        5.9060     2.1150     0.3250 H     1 <1>   0.0800 
 44 H       -0.2900    -7.4930     1.5040 H     1 <1>   0.1500 
 45 H       -2.1140    -6.5020     0.2090 H     1 <1>   0.1500 
 46 H        4.0580     3.7690    -2.3010 H     1 <1>   0.1500 
 47 H        3.2450     5.2770     2.2180 H     1 <1>   0.1500 
 48 H        2.7890     5.8650    -1.9700 H     1 <1>   0.1500 
 49 H        2.3930     6.6110     0.3660 H     1 <1>   0.1500 
@<TRIPOS>BOND
  1   1   2  1   
  2   1   3  1   
  3   2   4  1   
  4   2   5  1   
  5   2   6  1   
  6   3   7  1   
  7   3  26  1   
  8   3  27  1   
  9   4   8  1   
 10   4   9  2   
 11   5  10  1   
 12   5  28  1   
 13   5  29  1   
 14   6  11  1   
 15   6  30  1   
 16   6  31  1   
 17   7   9  1   
 18   7  32  1   
 19   7  33  1   
 20   8  12  1   
 21   8  34  1   
 22   9  13  1   
 23  10  14  1   
 24  10  35  1   
 25  10  36  1   
 26  11  14  1   
 27  11  37  1   
 28  11  38  1   
 29  12  13  ar  
 30  12  15  ar  
 31  13  16  ar  
 32  14  17  1   
 33  14  39  1   
 34  15  18  ar  
 35  15  40  1   
 36  16  19  ar  
 37  16  41  1   
 38  17  20  1   
 39  17  42  1   
 40  17  43  1   
 41  18  19  ar  
 42  18  44  1   
 43  19  45  1   
 44  20  21  ar  
 45  20  22  ar  
 46  21  23  ar  
 47  22  24  ar  
 48  22  46  1   
 49  23  25  ar  
 50  23  47  1   
 51  24  25  ar  
 52  24  48  1   
 53  25  49  1   
@<TRIPOS>SUBSTRUCTURE
  1 ****   2 GROUP 4 **** **** 0

# MOE 2024.06 (io_trps.svl 2023.06)
