@<TRIPOS>MOLECULE
NONAME
45 48 1 0 0 
SMALL
USER_CHARGES


@<TRIPOS>ATOM
  1 O       -3.4840     1.5600    -2.1160 O.2   1 <1>  -0.5700 
  2 C       -2.5280     1.4930    -1.3660 C.2   1 <1>   0.5440 
  3 N       -2.0300     0.2530    -1.1010 N.am  1 <1>  -0.7300 
  4 C       -1.9470     2.6950    -0.7840 C.ar  1 <1>   0.0860 
  5 C       -2.6080    -1.0300    -1.5520 C.3   1 <1>   0.2200 
  6 C       -1.1070     2.6980     0.3430 C.ar  1 <1>   0.0820 
  7 C       -2.2280     3.9350    -1.3700 C.ar  1 <1>  -0.1500 
  8 C       -3.5940    -1.5230    -0.5080 C.3   1 <1>  -0.0800 
  9 C       -1.5380    -2.1170    -1.5150 C.3   1 <1>   0.1200 
 10 O       -0.7770     1.5310     0.9630 O.3   1 <1>  -0.3630 
 11 C       -0.5980     3.9010     0.8450 C.ar  1 <1>   0.0820 
 12 C       -1.7120     5.1190    -0.8790 C.ar  1 <1>  -0.1500 
 13 C       -2.6650    -2.2090     0.4960 C.3   1 <1>   0.1200 
 14 C       -4.6230    -2.4930    -1.1160 C.3   1 <1>  -0.0160 
 15 O       -1.5440    -2.6420    -0.2180 O.3   1 <1>  -0.5600 
 16 C        0.2920     1.5310     1.8890 C.3   1 <1>   0.1200 
 17 O        0.1930     3.9350     1.9490 O.3   1 <1>  -0.3630 
 18 C       -0.8920     5.1030     0.2330 C.ar  1 <1>  -0.1500 
 19 C       -5.6240    -2.9700    -0.0750 C.ar  1 <1>  -0.1430 
 20 C        0.2200     2.7840     2.7650 C.3   1 <1>   0.1200 
 21 C       -5.5790    -4.2420     0.4600 C.ar  1 <1>  -0.1500 
 22 C       -6.6330    -2.1500     0.3880 C.ar  1 <1>  -0.1500 
 23 C       -6.5180    -4.6200     1.4060 C.ar  1 <1>   0.1600 
 24 C       -7.5210    -2.6260     1.3380 C.ar  1 <1>   0.1600 
 25 N       -7.4880    -3.8430     1.8590 N.ar  1 <1>  -0.6200 
 26 H       -1.3320     0.1800    -0.3530 H     1 <1>   0.3700 
 27 H       -3.0430    -0.9140    -2.5310 H     1 <1>   0.0800 
 28 H       -2.8680     3.9680    -2.2360 H     1 <1>   0.1500 
 29 H       -4.1200    -0.7020    -0.0510 H     1 <1>   0.0800 
 30 H       -0.5580    -1.7390    -1.7480 H     1 <1>   0.0800 
 31 H       -1.7880    -2.9170    -2.1890 H     1 <1>   0.0800 
 32 H       -1.9480     6.0530    -1.3600 H     1 <1>   0.1500 
 33 H       -3.1180    -3.0510     0.9900 H     1 <1>   0.0800 
 34 H       -2.3250    -1.5030     1.2340 H     1 <1>   0.0800 
 35 H       -4.1250    -3.3420    -1.5520 H     1 <1>   0.0800 
 36 H       -5.1600    -1.9930    -1.9030 H     1 <1>   0.0800 
 37 H        0.2170     0.6400     2.4860 H     1 <1>   0.0800 
 38 H        1.2160     1.5120     1.3380 H     1 <1>   0.0800 
 39 H       -0.4850     6.0160     0.6290 H     1 <1>   0.1500 
 40 H        1.0770     2.8530     3.4100 H     1 <1>   0.0800 
 41 H       -0.6740     2.7750     3.3640 H     1 <1>   0.0800 
 42 H       -4.8250    -4.9420     0.1510 H     1 <1>   0.1500 
 43 H       -6.7350    -1.1450     0.0190 H     1 <1>   0.1500 
 44 H       -6.4660    -5.6160     1.8120 H     1 <1>   0.1500 
 45 H       -8.3010    -1.9720     1.6870 H     1 <1>   0.1500 
@<TRIPOS>BOND
  1   1   2  2   
  2   2   3  am  
  3   2   4  1   
  4   3   5  1   
  5   3  26  1   
  6   4   6  ar  
  7   4   7  ar  
  8   5   8  1   
  9   5   9  1   
 10   5  27  1   
 11   6  10  1   
 12   6  11  ar  
 13   7  12  ar  
 14   7  28  1   
 15   8  13  1   
 16   8  14  1   
 17   8  29  1   
 18   9  15  1   
 19   9  30  1   
 20   9  31  1   
 21  10  16  1   
 22  11  17  1   
 23  11  18  ar  
 24  12  18  ar  
 25  12  32  1   
 26  13  15  1   
 27  13  33  1   
 28  13  34  1   
 29  14  19  1   
 30  14  35  1   
 31  14  36  1   
 32  16  20  1   
 33  16  37  1   
 34  16  38  1   
 35  17  20  1   
 36  18  39  1   
 37  19  21  ar  
 38  19  22  ar  
 39  20  40  1   
 40  20  41  1   
 41  21  23  ar  
 42  21  42  1   
 43  22  24  ar  
 44  22  43  1   
 45  23  25  ar  
 46  23  44  1   
 47  24  25  ar  
 48  24  45  1   
@<TRIPOS>SUBSTRUCTURE
  1 ****   3 GROUP 4 **** **** 0

# MOE 2024.06 (io_trps.svl 2023.06)
