@<TRIPOS>MOLECULE
NONAME
45 47 1 0 0 
SMALL
USER_CHARGES


@<TRIPOS>ATOM
  1 CL       1.2800     2.3840    -1.1410 Cl    1 <1>  -0.1770 
  2 C        1.6040     0.6970    -0.8130 C.ar  1 <1>   0.1770 
  3 C        2.7670     0.3090    -0.1470 C.ar  1 <1>   0.0540 
  4 C        0.6710    -0.2220    -1.2580 C.ar  1 <1>  -0.1500 
  5 C        3.7450     1.2560     0.3410 C.2   1 <1>   0.4620 
  6 C        2.9620    -1.0620     0.0360 C.ar  1 <1>  -0.1500 
  7 C        0.8860    -1.5730    -1.0540 C.ar  1 <1>  -0.1500 
  8 N        3.5100     2.2900     1.0660 N.2   1 <1>  -0.4100 
  9 N        5.0490     1.1110     0.0890 N.2   1 <1>  -0.5650 
 10 C        2.0370    -1.9910    -0.4080 C.ar  1 <1>  -0.1500 
 11 O        4.6420     2.8720     1.3040 O.3   1 <1>  -0.0190 
 12 C        5.5200     2.1210     0.6920 C.2   1 <1>   0.2980 
 13 C        6.9850     2.5100     0.7610 C.3   1 <1>   0.0200 
 14 C        7.2570     3.8260     0.0150 C.3   1 <1>  -0.1600 
 15 C        8.7360     4.2420     0.1110 C.3   1 <1>  -0.0990 
 16 C        9.0320     5.4980    -0.6880 C.2   1 <1>   0.5690 
 17 O        9.6040     5.3820    -1.7380 O.2   1 <1>  -0.5700 
 18 N        8.6330     6.6930    -0.1610 N.am  1 <1>  -0.4940 
 19 C        8.7570     7.9630    -0.6840 C.2   1 <1>   0.4420 
 20 S        8.1710     9.2610     0.3030 S.3   1 <1>  -0.0800 
 21 N        9.2390     8.3800    -1.7970 N.2   1 <1>  -0.3380 
 22 C        8.6410    10.3470    -0.9630 C.2   1 <1>   0.1980 
 23 N        9.1690     9.7370    -1.9500 N.2   1 <1>  -0.3380 
 24 C        8.4020    11.8430    -0.7510 C.3   1 <1>   0.3800 
 25 O        7.1130    12.0360    -0.2360 O.3   1 <1>  -0.5600 
 26 C        8.5220    12.6450    -2.0520 C.3   1 <1>  -0.2400 
 27 C        6.9360    13.1740     0.5500 C.3   1 <1>   0.0400 
 28 H       -0.2140     0.1210    -1.7630 H     1 <1>   0.1500 
 29 H        3.8540    -1.3990     0.5350 H     1 <1>   0.1500 
 30 H        0.1650    -2.2960    -1.3970 H     1 <1>   0.1500 
 31 H        2.2120    -3.0420    -0.2500 H     1 <1>   0.1500 
 32 H        7.5720     1.7200     0.3240 H     1 <1>   0.0800 
 33 H        7.2660     2.6030     1.7940 H     1 <1>   0.0800 
 34 H        6.6330     4.6040     0.4200 H     1 <1>   0.0800 
 35 H        6.9920     3.7000    -1.0230 H     1 <1>   0.0800 
 36 H        9.3550     3.4500    -0.2750 H     1 <1>   0.0800 
 37 H        9.0140     4.4030     1.1360 H     1 <1>   0.0800 
 38 H        8.1620     6.6510     0.7360 H     1 <1>   0.3700 
 39 H        9.1190    12.1950    -0.0290 H     1 <1>   0.0800 
 40 H        7.7810    12.3090    -2.7560 H     1 <1>   0.0800 
 41 H        9.4930    12.4880    -2.4850 H     1 <1>   0.0800 
 42 H        8.4000    13.6960    -1.8730 H     1 <1>   0.0800 
 43 H        5.9150    13.1850     0.8910 H     1 <1>   0.0800 
 44 H        7.1260    14.0550    -0.0370 H     1 <1>   0.0800 
 45 H        7.5970    13.1300     1.3980 H     1 <1>   0.0800 
@<TRIPOS>BOND
  1   1   2  1   
  2   2   3  ar  
  3   2   4  ar  
  4   3   5  1   
  5   3   6  ar  
  6   4   7  ar  
  7   4  28  1   
  8   5   8  2   
  9   5   9  1   
 10   6  10  ar  
 11   6  29  1   
 12   7  10  ar  
 13   7  30  1   
 14   8  11  1   
 15   9  12  2   
 16  10  31  1   
 17  11  12  1   
 18  12  13  1   
 19  13  14  1   
 20  13  32  1   
 21  13  33  1   
 22  14  15  1   
 23  14  34  1   
 24  14  35  1   
 25  15  16  1   
 26  15  36  1   
 27  15  37  1   
 28  16  17  2   
 29  16  18  am  
 30  18  19  1   
 31  18  38  1   
 32  19  20  1   
 33  19  21  2   
 34  20  22  1   
 35  21  23  1   
 36  22  23  2   
 37  22  24  1   
 38  24  25  1   
 39  24  26  1   
 40  24  39  1   
 41  25  27  1   
 42  26  40  1   
 43  26  41  1   
 44  26  42  1   
 45  27  43  1   
 46  27  44  1   
 47  27  45  1   
@<TRIPOS>SUBSTRUCTURE
  1 ****  14 GROUP 4 **** **** 0

# MOE 2024.06 (io_trps.svl 2023.06)
