@<TRIPOS>MOLECULE
NONAME
44 45 1 0 0 
SMALL
USER_CHARGES


@<TRIPOS>ATOM
  1 N       -2.2240    -0.8630     0.2670 N.2   1 <1>   0.0000 
  2 N       -2.0320    -2.0980     0.5670 N.2   1 <1>  -0.4180 
  3 N       -2.3000    -0.7050    -1.0500 N.2   1 <1>  -0.3380 
  4 N       -1.9820    -2.7510    -0.5710 N.pl3 1 <1>   0.3140 
  5 C       -2.1470    -1.8730    -1.5410 C.2   1 <1>   0.0360 
  6 C       -1.7920    -4.2140    -0.6460 C.3   1 <1>   0.0960 
  7 C       -2.9390    -4.9460     0.0750 C.3   1 <1>  -0.1600 
  8 C       -2.7260    -6.4610     0.0730 C.3   1 <1>   0.3430 
  9 N       -3.7560    -7.1360     0.9100 N.4   1 <1>  -0.9590 
 10 C       -3.3490    -8.5560     1.1460 C.3   1 <1>   0.3430 
 11 C       -5.1120    -7.0730     0.2630 C.3   1 <1>   0.2630 
 12 C       -4.2010    -9.2250     2.2350 C.3   1 <1>  -0.1600 
 13 C       -4.9220   -10.4860     1.7220 C.3   1 <1>   0.0960 
 14 N       -5.8510   -10.1720     0.6160 N.pl3 1 <1>   0.3140 
 15 N       -5.3980   -10.0020    -0.6420 N.2   1 <1>  -0.7070 
 16 C       -7.1880    -9.9810     0.6830 C.2   1 <1>  -0.3320 
 17 C       -6.4560    -9.7600    -1.3500 C.2   1 <1>   0.1080 
 18 C       -7.6060    -9.7210    -0.5730 C.2   1 <1>  -0.1500 
 19 C       -8.0320   -10.0750     1.9440 C.3   1 <1>  -0.0600 
 20 C       -6.4110    -9.5590    -2.8470 C.3   1 <1>  -0.0590 
 21 H       -2.1520    -2.1160    -2.5870 H     1 <1>   0.1500 
 22 H       -0.8500    -4.4450    -0.1820 H     1 <1>   0.0800 
 23 H       -1.7480    -4.5020    -1.6810 H     1 <1>   0.0800 
 24 H       -3.8630    -4.7010    -0.4180 H     1 <1>   0.0800 
 25 H       -2.9810    -4.6020     1.0940 H     1 <1>   0.0800 
 26 H       -1.7480    -6.6740     0.4730 H     1 <1>   0.0800 
 27 H       -2.7660    -6.8420    -0.9360 H     1 <1>   0.0800 
 28 H       -3.8020    -6.6610     1.8220 H     1 <1>   0.4500 
 29 H       -2.3170    -8.5830     1.4590 H     1 <1>   0.0800 
 30 H       -3.4190    -9.1120     0.2240 H     1 <1>   0.0800 
 31 H       -5.0850    -7.5460    -0.7060 H     1 <1>   0.0800 
 32 H       -5.4320    -6.0520     0.1420 H     1 <1>   0.0800 
 33 H       -5.8440    -7.5880     0.8630 H     1 <1>   0.0800 
 34 H       -4.9210    -8.5470     2.6570 H     1 <1>   0.0800 
 35 H       -3.5450    -9.5300     3.0300 H     1 <1>   0.0800 
 36 H       -5.4770   -10.9480     2.5180 H     1 <1>   0.0800 
 37 H       -4.2080   -11.2030     1.3580 H     1 <1>   0.0800 
 38 H       -8.6050    -9.5330    -0.9270 H     1 <1>   0.1500 
 39 H       -7.6950    -9.3690     2.6810 H     1 <1>   0.0800 
 40 H       -7.9770   -11.0680     2.3560 H     1 <1>   0.0800 
 41 H       -9.0620    -9.8640     1.7150 H     1 <1>   0.0800 
 42 H       -5.7770    -8.7260    -3.0870 H     1 <1>   0.0800 
 43 H       -7.3970    -9.3750    -3.2310 H     1 <1>   0.0800 
 44 H       -6.0170   -10.4430    -3.3130 H     1 <1>   0.0800 
@<TRIPOS>BOND
  1   1   2  2   
  2   1   3  1   
  3   2   4  1   
  4   3   5  2   
  5   4   5  1   
  6   4   6  1   
  7   5  21  1   
  8   6   7  1   
  9   6  22  1   
 10   6  23  1   
 11   7   8  1   
 12   7  24  1   
 13   7  25  1   
 14   8   9  1   
 15   8  26  1   
 16   8  27  1   
 17   9  10  1   
 18   9  11  1   
 19   9  28  1   
 20  10  12  1   
 21  10  29  1   
 22  10  30  1   
 23  11  31  1   
 24  11  32  1   
 25  11  33  1   
 26  12  13  1   
 27  12  34  1   
 28  12  35  1   
 29  13  14  1   
 30  13  36  1   
 31  13  37  1   
 32  14  15  1   
 33  14  16  1   
 34  15  17  2   
 35  16  18  2   
 36  16  19  1   
 37  17  18  1   
 38  17  20  1   
 39  18  38  1   
 40  19  39  1   
 41  19  40  1   
 42  19  41  1   
 43  20  42  1   
 44  20  43  1   
 45  20  44  1   
@<TRIPOS>SUBSTRUCTURE
  1 ****  11 GROUP 4 **** **** 0

# MOE 2024.06 (io_trps.svl 2023.06)
