@<TRIPOS>MOLECULE
NONAME
37 39 1 0 0 
SMALL
USER_CHARGES


@<TRIPOS>ATOM
  1 F        1.3550     0.9700    -1.9500 F     1 <1>  -0.1900 
  2 C        2.1050     1.3990    -0.9720 C.ar  1 <1>   0.1900 
  3 C        2.0790     2.7450    -0.6600 C.ar  1 <1>  -0.1500 
  4 C        2.8960     0.4960    -0.2900 C.ar  1 <1>  -0.1500 
  5 C        2.8810     3.2100     0.3740 C.ar  1 <1>  -0.1440 
  6 C        3.6880     0.9620     0.7440 C.ar  1 <1>  -0.1500 
  7 C        3.6790     2.3100     1.0740 C.ar  1 <1>  -0.1500 
  8 C        2.8900     4.6860     0.7270 C.3   1 <1>   0.4870 
  9 N        4.2280     5.2440     0.4000 N.4   1 <1>  -0.9590 
 10 C        4.4650     6.5940     1.0300 C.3   1 <1>   0.3430 
 11 C        4.5710     5.1150    -1.0580 C.3   1 <1>   0.3430 
 12 C        5.9350     7.1000     0.9750 C.3   1 <1>   0.2200 
 13 C        6.0650     5.2940    -1.3670 C.3   1 <1>  -0.0190 
 14 N        6.2760     7.5510    -0.3940 N.am  1 <1>  -0.7300 
 15 C        6.9700     6.0600     1.4730 C.3   1 <1>   0.1200 
 16 C        6.3560     6.7650    -1.4820 C.2   1 <1>   0.5690 
 17 C        7.0620     4.5890    -0.4200 C.3   1 <1>   0.1200 
 18 O        6.7610     4.7750     0.9390 O.3   1 <1>  -0.5600 
 19 O        6.6260     7.2360    -2.5520 O.2   1 <1>  -0.5700 
 20 H        1.4380     3.3970    -1.2280 H     1 <1>   0.1500 
 21 H        2.8860    -0.5450    -0.5630 H     1 <1>   0.1500 
 22 H        4.3100     0.2730     1.2930 H     1 <1>   0.1500 
 23 H        4.3040     2.6400     1.8870 H     1 <1>   0.1500 
 24 H        2.6870     4.7960     1.7800 H     1 <1>   0.0800 
 25 H        2.1240     5.2040     0.1740 H     1 <1>   0.0800 
 26 H        4.9280     4.6240     0.8540 H     1 <1>   0.4500 
 27 H        3.8300     7.3300     0.5660 H     1 <1>   0.0800 
 28 H        4.1860     6.5350     2.0690 H     1 <1>   0.0800 
 29 H        4.2930     4.1290    -1.3930 H     1 <1>   0.0800 
 30 H        4.0010     5.8260    -1.6360 H     1 <1>   0.0800 
 31 H        6.0100     7.9640     1.6140 H     1 <1>   0.0800 
 32 H        6.2310     4.8860    -2.3480 H     1 <1>   0.0800 
 33 H        6.5410     8.5330    -0.5290 H     1 <1>   0.3700 
 34 H        6.8880     5.9640     2.5420 H     1 <1>   0.0800 
 35 H        7.9760     6.3760     1.2480 H     1 <1>   0.0800 
 36 H        8.0700     4.9260    -0.6020 H     1 <1>   0.0800 
 37 H        7.0330     3.5270    -0.5990 H     1 <1>   0.0800 
@<TRIPOS>BOND
  1   1   2  1   
  2   2   3  ar  
  3   2   4  ar  
  4   3   5  ar  
  5   3  20  1   
  6   4   6  ar  
  7   4  21  1   
  8   5   7  ar  
  9   5   8  1   
 10   6   7  ar  
 11   6  22  1   
 12   7  23  1   
 13   8   9  1   
 14   8  24  1   
 15   8  25  1   
 16   9  10  1   
 17   9  11  1   
 18   9  26  1   
 19  10  12  1   
 20  10  27  1   
 21  10  28  1   
 22  11  13  1   
 23  11  29  1   
 24  11  30  1   
 25  12  14  1   
 26  12  15  1   
 27  12  31  1   
 28  13  16  1   
 29  13  17  1   
 30  13  32  1   
 31  14  16  am  
 32  14  33  1   
 33  15  18  1   
 34  15  34  1   
 35  15  35  1   
 36  16  19  2   
 37  17  18  1   
 38  17  36  1   
 39  17  37  1   
@<TRIPOS>SUBSTRUCTURE
  1 ****   9 GROUP 4 **** **** 0

# MOE 2024.06 (io_trps.svl 2023.06)
