@<TRIPOS>MOLECULE
NONAME
48 52 1 0 0 
SMALL
USER_CHARGES


@<TRIPOS>ATOM
  1 O        0.1260    -0.2150    -0.2670 O.3   1 <1>  -0.6800 
  2 C        1.1890    -0.2140    -1.1680 C.3   1 <1>   0.2000 
  3 C        2.2120    -1.2920    -0.7970 C.3   1 <1>  -0.0800 
  4 C        1.9650     1.1040    -1.0400 C.3   1 <1>   0.2090 
  5 C        3.0960    -0.5940     0.2380 C.3   1 <1>   0.2090 
  6 C        1.6280    -2.6340    -0.3090 C.3   1 <1>  -0.0170 
  7 N        3.1660     0.8200    -0.2030 N.pl3 1 <1>  -0.8380 
  8 C        2.6290    -3.7750    -0.0820 C.ar  1 <1>  -0.1440 
  9 C        4.3660     1.3060    -0.6530 C.ar  1 <1>   0.4100 
 10 C        2.2100    -4.9590     0.5760 C.ar  1 <1>   0.0000 
 11 C        3.9320    -3.7280    -0.4950 C.ar  1 <1>  -0.1500 
 12 N        5.0120     0.6170    -1.5740 N.ar  1 <1>  -0.6200 
 13 C        4.8630     2.4950    -0.1660 C.ar  1 <1>  -0.1500 
 14 C        3.1670    -5.9850     0.7760 C.ar  1 <1>   0.3100 
 15 C        0.8940    -5.1910     1.0440 C.ar  1 <1>  -0.1500 
 16 C        4.7960    -4.8010    -0.2510 C.ar  1 <1>   0.1600 
 17 C        6.1480     1.1520    -1.9790 C.ar  1 <1>   0.4700 
 18 C        6.0550     2.9460    -0.6620 C.ar  1 <1>   0.2780 
 19 N        4.4530    -5.8900     0.3590 N.ar  1 <1>  -0.6200 
 20 C        2.7790    -7.1640     1.4330 C.ar  1 <1>  -0.1500 
 21 C        0.5470    -6.3530     1.6790 C.ar  1 <1>  -0.1500 
 22 N        6.7170     2.2770    -1.5860 N.ar  1 <1>  -0.6200 
 23 C        6.6700     4.2490    -0.1760 C.3   1 <1>  -0.0680 
 24 C        1.5000    -7.3540     1.8790 C.ar  1 <1>  -0.1500 
 25 C        7.8870     4.2220     0.6970 C.3   1 <1>  -0.2000 
 26 C        6.5790     4.6930     1.2550 C.3   1 <1>  -0.2000 
 27 H       -0.4310    -1.0060    -0.3900 H     1 <1>   0.4000 
 28 H        0.7890    -0.3410    -2.1590 H     1 <1>   0.0800 
 29 H        2.8070    -1.4630    -1.6760 H     1 <1>   0.0800 
 30 H        1.3600     1.8690    -0.5850 H     1 <1>   0.0800 
 31 H        2.2810     1.4330    -2.0150 H     1 <1>   0.0800 
 32 H        4.0760    -1.0350     0.2990 H     1 <1>   0.0800 
 33 H        2.6350    -0.6290     1.2100 H     1 <1>   0.0800 
 34 H        0.9010    -2.9740    -1.0260 H     1 <1>   0.0800 
 35 H        1.1170    -2.4500     0.6200 H     1 <1>   0.0800 
 36 H        4.3510    -2.8880    -1.0170 H     1 <1>   0.1500 
 37 H        4.3110     3.0310     0.5790 H     1 <1>   0.1500 
 38 H        0.1390    -4.4430     0.9000 H     1 <1>   0.1500 
 39 H        5.8130    -4.7140    -0.5930 H     1 <1>   0.1500 
 40 H        6.6840     0.5980    -2.7320 H     1 <1>   0.1500 
 41 H        3.5300    -7.9190     1.5730 H     1 <1>   0.1500 
 42 H       -0.4580    -6.5130     2.0300 H     1 <1>   0.1500 
 43 H        6.6400     5.0070    -0.9390 H     1 <1>   0.1000 
 44 H        1.2170    -8.2630     2.3810 H     1 <1>   0.1500 
 45 H        8.2720     3.2630     0.9990 H     1 <1>   0.1000 
 46 H        8.6670     4.9370     0.5060 H     1 <1>   0.1000 
 47 H        6.4510     5.7420     1.4600 H     1 <1>   0.1000 
 48 H        6.0890     4.0680     1.9810 H     1 <1>   0.1000 
@<TRIPOS>BOND
  1   1   2  1   
  2   1  27  1   
  3   2   3  1   
  4   2   4  1   
  5   2  28  1   
  6   3   5  1   
  7   3   6  1   
  8   3  29  1   
  9   4   7  1   
 10   4  30  1   
 11   4  31  1   
 12   5   7  1   
 13   5  32  1   
 14   5  33  1   
 15   6   8  1   
 16   6  34  1   
 17   6  35  1   
 18   7   9  1   
 19   8  10  ar  
 20   8  11  ar  
 21   9  12  ar  
 22   9  13  ar  
 23  10  14  ar  
 24  10  15  ar  
 25  11  16  ar  
 26  11  36  1   
 27  12  17  ar  
 28  13  18  ar  
 29  13  37  1   
 30  14  19  ar  
 31  14  20  ar  
 32  15  21  ar  
 33  15  38  1   
 34  16  19  ar  
 35  16  39  1   
 36  17  22  ar  
 37  17  40  1   
 38  18  22  ar  
 39  18  23  1   
 40  20  24  ar  
 41  20  41  1   
 42  21  24  ar  
 43  21  42  1   
 44  23  25  1   
 45  23  26  1   
 46  23  43  1   
 47  24  44  1   
 48  25  26  1   
 49  25  45  1   
 50  25  46  1   
 51  26  47  1   
 52  26  48  1   
@<TRIPOS>SUBSTRUCTURE
  1 ****   5 GROUP 4 **** **** 0

# MOE 2024.06 (io_trps.svl 2023.06)
