@<TRIPOS>MOLECULE
NONAME
34 36 1 0 0 
SMALL
USER_CHARGES


@<TRIPOS>ATOM
  1 O        0.2440    -0.6220    -0.5850 O.2   1 <1>  -0.5700 
  2 C        0.0760    -1.8190    -0.3900 C.2   1 <1>   0.6160 
  3 N        0.5760    -2.7590    -1.2800 N.am  1 <1>  -0.4690 
  4 C       -0.6210    -2.2980     0.7530 C.2   1 <1>  -0.1360 
  5 C        0.4020    -4.1030    -1.0420 C.2   1 <1>  -0.0410 
  6 C        1.2860    -2.3010    -2.5000 C.3   1 <1>   0.0600 
  7 C       -0.7870    -3.6280     0.9770 C.2   1 <1>  -0.1500 
  8 C       -0.2660    -4.5880     0.0550 C.2   1 <1>   0.0140 
  9 C       -0.4070    -6.0080     0.2820 C.2   1 <1>   0.6160 
 10 O        0.5860    -6.7100     0.1900 O.2   1 <1>  -0.5700 
 11 N       -1.6060    -6.5850     0.6220 N.am  1 <1>  -0.6600 
 12 C       -2.9220    -5.9520     0.5810 C.3   1 <1>   0.2350 
 13 C       -1.8350    -8.0250     0.7730 C.3   1 <1>   0.2350 
 14 C       -3.8910    -6.9330    -0.0720 C.3   1 <1>  -0.2420 
 15 C       -3.1490    -8.3610     0.0610 C.3   1 <1>  -0.2420 
 16 C       -4.9780    -5.9390    -0.4810 C.2   1 <1>   0.9470 
 17 C       -4.4930    -8.1960    -0.4990 C.3   1 <1>  -0.2000 
 18 C       -2.9600    -9.8710    -0.1080 C.2   1 <1>   0.9470 
 19 O       -4.9820    -5.4640    -1.6230 O.co2 1 <1>  -0.9000 
 20 O       -5.7650    -5.5390     0.3880 O.co2 1 <1>  -0.9000 
 21 O       -2.5570   -10.3310    -1.1830 O.co2 1 <1>  -0.9000 
 22 O       -3.1550   -10.6020     0.8750 O.co2 1 <1>  -0.9000 
 23 H       -1.0020    -1.5500     1.4200 H     1 <1>   0.1500 
 24 H        0.8120    -4.7990    -1.7560 H     1 <1>   0.1500 
 25 H        1.6020    -3.1410    -3.0920 H     1 <1>   0.0800 
 26 H        2.1470    -1.7210    -2.2170 H     1 <1>   0.0800 
 27 H        0.6260    -1.6840    -3.0860 H     1 <1>   0.0800 
 28 H       -1.3080    -3.9940     1.8450 H     1 <1>   0.1500 
 29 H       -3.2450    -5.7800     1.5930 H     1 <1>   0.0800 
 30 H       -2.8960    -5.0120     0.0550 H     1 <1>   0.0800 
 31 H       -1.0080    -8.6000     0.3870 H     1 <1>   0.0800 
 32 H       -1.9450    -8.2400     1.8210 H     1 <1>   0.0800 
 33 H       -4.6280    -8.3660    -1.5540 H     1 <1>   0.1000 
 34 H       -5.3250    -8.5760     0.0680 H     1 <1>   0.1000 
@<TRIPOS>BOND
  1   1   2  2   
  2   2   3  am  
  3   2   4  1   
  4   3   5  1   
  5   3   6  1   
  6   4   7  2   
  7   4  23  1   
  8   5   8  2   
  9   5  24  1   
 10   6  25  1   
 11   6  26  1   
 12   6  27  1   
 13   7   8  1   
 14   7  28  1   
 15   8   9  1   
 16   9  10  2   
 17   9  11  am  
 18  11  12  1   
 19  11  13  1   
 20  12  14  1   
 21  12  29  1   
 22  12  30  1   
 23  13  15  1   
 24  13  31  1   
 25  13  32  1   
 26  14  15  1   
 27  14  16  1   
 28  14  17  1   
 29  15  17  1   
 30  15  18  1   
 31  16  19  ar  
 32  16  20  ar  
 33  17  33  1   
 34  17  34  1   
 35  18  21  ar  
 36  18  22  ar  
@<TRIPOS>SUBSTRUCTURE
  1 ****  11 GROUP 4 **** **** 0

# MOE 2024.06 (io_trps.svl 2023.06)
