@<TRIPOS>MOLECULE
NONAME
45 47 1 0 0 
SMALL
USER_CHARGES


@<TRIPOS>ATOM
  1 CL      -1.3120    -0.8750    -0.8060 Cl    1 <1>  -0.1770 
  2 C        0.2550    -1.6030    -1.0730 C.ar  1 <1>   0.1770 
  3 C        0.8510    -2.4050    -0.1010 C.ar  1 <1>  -0.1440 
  4 C        0.8720    -1.3550    -2.2850 C.ar  1 <1>  -0.1500 
  5 C        2.0950    -2.9670    -0.3670 C.ar  1 <1>  -0.1500 
  6 C        0.1980    -2.6970     1.2510 C.3   1 <1>   0.0450 
  7 C        2.1050    -1.9310    -2.5120 C.ar  1 <1>   0.1900 
  8 C        2.7290    -2.7330    -1.5770 C.ar  1 <1>  -0.1500 
  9 C       -0.0670    -4.1820     1.4510 C.2   1 <1>   0.5690 
 10 F        2.7010    -1.7100    -3.6520 F     1 <1>  -0.1900 
 11 O        0.6850    -4.7980     2.1700 O.2   1 <1>  -0.5700 
 12 N       -1.1210    -4.7930     0.8290 N.am  1 <1>  -0.6600 
 13 C       -2.0430    -4.1890    -0.1660 C.3   1 <1>   0.1400 
 14 C       -1.4390    -6.2260     1.0080 C.3   1 <1>   0.1400 
 15 C       -3.0340    -5.3000    -0.5430 C.3   1 <1>   0.2000 
 16 C       -2.2780    -6.5920    -0.2180 C.3   1 <1>  -0.0800 
 17 O       -4.1680    -5.2230     0.2730 O.3   1 <1>  -0.5600 
 18 C       -3.1750    -7.8240    -0.0040 C.3   1 <1>   0.0200 
 19 C       -5.1610    -4.3510    -0.1690 C.3   1 <1>   0.0400 
 20 C       -2.3900    -9.1180     0.1400 C.2   1 <1>  -0.0400 
 21 O       -3.0400   -10.2190     0.4090 O.3   1 <1>  -0.0190 
 22 C       -1.0870    -9.4280     0.0440 C.2   1 <1>  -0.1500 
 23 N       -2.2440   -11.2460     0.5020 N.2   1 <1>  -0.4100 
 24 C       -1.0600   -10.7980     0.2880 C.2   1 <1>   0.1080 
 25 C        0.1880   -11.6510     0.3010 C.3   1 <1>  -0.0590 
 26 H        0.4080    -0.7340    -3.0280 H     1 <1>   0.1500 
 27 H        2.5740    -3.5930     0.3690 H     1 <1>   0.1500 
 28 H       -0.7220    -2.1640     1.3850 H     1 <1>   0.0800 
 29 H        0.8620    -2.3670     2.0290 H     1 <1>   0.0800 
 30 H        3.6910    -3.1640    -1.7920 H     1 <1>   0.1500 
 31 H       -2.5470    -3.3320     0.2430 H     1 <1>   0.0800 
 32 H       -1.4770    -3.9030    -1.0340 H     1 <1>   0.0800 
 33 H       -0.5410    -6.8150     1.0790 H     1 <1>   0.0800 
 34 H       -2.0160    -6.3410     1.9100 H     1 <1>   0.0800 
 35 H       -3.3340    -5.2580    -1.5770 H     1 <1>   0.0800 
 36 H       -1.6030    -6.7900    -1.0320 H     1 <1>   0.0800 
 37 H       -3.8450    -7.9270    -0.8390 H     1 <1>   0.0800 
 38 H       -3.7760    -7.6890     0.8790 H     1 <1>   0.0800 
 39 H       -5.9660    -4.3740     0.5450 H     1 <1>   0.0800 
 40 H       -5.5220    -4.6800    -1.1280 H     1 <1>   0.0800 
 41 H       -4.7660    -3.3530    -0.2340 H     1 <1>   0.0800 
 42 H       -0.2350    -8.8090    -0.1670 H     1 <1>   0.1500 
 43 H        0.8780   -11.2760     1.0330 H     1 <1>   0.0800 
 44 H        0.6520   -11.6340    -0.6680 H     1 <1>   0.0800 
 45 H       -0.0650   -12.6670     0.5490 H     1 <1>   0.0800 
@<TRIPOS>BOND
  1   1   2  1   
  2   2   3  ar  
  3   2   4  ar  
  4   3   5  ar  
  5   3   6  1   
  6   4   7  ar  
  7   4  26  1   
  8   5   8  ar  
  9   5  27  1   
 10   6   9  1   
 11   6  28  1   
 12   6  29  1   
 13   7   8  ar  
 14   7  10  1   
 15   8  30  1   
 16   9  11  2   
 17   9  12  am  
 18  12  13  1   
 19  12  14  1   
 20  13  15  1   
 21  13  31  1   
 22  13  32  1   
 23  14  16  1   
 24  14  33  1   
 25  14  34  1   
 26  15  16  1   
 27  15  17  1   
 28  15  35  1   
 29  16  18  1   
 30  16  36  1   
 31  17  19  1   
 32  18  20  1   
 33  18  37  1   
 34  18  38  1   
 35  19  39  1   
 36  19  40  1   
 37  19  41  1   
 38  20  21  1   
 39  20  22  2   
 40  21  23  1   
 41  22  24  1   
 42  22  42  1   
 43  23  24  2   
 44  24  25  1   
 45  25  43  1   
 46  25  44  1   
 47  25  45  1   
@<TRIPOS>SUBSTRUCTURE
  1 ****  12 GROUP 4 **** **** 0

# MOE 2024.06 (io_trps.svl 2023.06)
