@<TRIPOS>MOLECULE
NONAME
47 49 1 0 0 
SMALL
USER_CHARGES


@<TRIPOS>ATOM
  1 S        1.5380     0.6620    -0.6360 S.o2  1 <1>   1.4470 
  2 O        1.3240     1.7400     0.2980 O.2   1 <1>  -0.6500 
  3 O        2.8590     0.4690    -1.1920 O.2   1 <1>  -0.6500 
  4 N        0.5380     1.0160    -1.9350 N.am  1 <1>  -0.9140 
  5 C        0.8750    -0.9210    -0.0150 C.ar  1 <1>  -0.0090 
  6 C        1.0850     2.0750    -2.8020 C.3   1 <1>   0.2570 
  7 C       -0.2900    -1.0210     0.7620 C.ar  1 <1>  -0.1430 
  8 C        1.5450    -2.0980    -0.3500 C.ar  1 <1>  -0.1500 
  9 C        0.9940     3.4770    -2.1860 C.2   1 <1>   0.5690 
 10 C       -0.7450    -2.2620     1.1860 C.ar  1 <1>  -0.1500 
 11 C       -1.0990     0.2040     1.1780 C.3   1 <1>  -0.0960 
 12 C        1.0990    -3.3390     0.0670 C.ar  1 <1>  -0.1500 
 13 O       -0.1080     3.8890    -1.8990 O.2   1 <1>  -0.5700 
 14 N        2.1170     4.2200    -1.9880 N.am  1 <1>  -0.5100 
 15 C       -0.0450    -3.3970     0.8330 C.ar  1 <1>   0.1900 
 16 C        2.2470     5.3550    -1.0180 C.3   1 <1>   0.2250 
 17 C        3.4970     3.7540    -1.6320 C.3   1 <1>   0.2250 
 18 F       -0.4800    -4.5600     1.2350 F     1 <1>  -0.1900 
 19 C        3.7880     5.1870    -1.1140 C.3   1 <1>   0.2100 
 20 N        4.4950     5.2440     0.1830 N.3   1 <1>  -0.7500 
 21 C        4.4930     6.6140     0.7300 C.3   1 <1>   0.1100 
 22 C        5.8860     4.7670     0.0550 C.3   1 <1>   0.1100 
 23 C        5.2910     6.6870     2.0440 C.3   1 <1>   0.1200 
 24 C        6.6400     4.8970     1.3900 C.3   1 <1>   0.1200 
 25 O        6.5940     6.2170     1.8510 O.3   1 <1>  -0.5600 
 26 H       -0.2810     1.4470    -1.5020 H     1 <1>   0.4200 
 27 H        0.5070     2.0930    -3.7080 H     1 <1>   0.0800 
 28 H        2.1000     1.8510    -3.0780 H     1 <1>   0.0800 
 29 H        2.4380    -2.0450    -0.9520 H     1 <1>   0.1500 
 30 H       -1.6320    -2.3630     1.7850 H     1 <1>   0.1500 
 31 H       -1.3460     0.8080     0.3240 H     1 <1>   0.0800 
 32 H       -0.5380     0.7980     1.8770 H     1 <1>   0.0800 
 33 H       -2.0200    -0.0830     1.6520 H     1 <1>   0.0800 
 34 H        1.6220    -4.2420    -0.1940 H     1 <1>   0.1500 
 35 H        1.8310     5.0970    -0.0600 H     1 <1>   0.0000 
 36 H        1.8830     6.2770    -1.4350 H     1 <1>   0.0000 
 37 H        4.0630     3.4820    -2.5050 H     1 <1>   0.0000 
 38 H        3.4730     3.0080    -0.8580 H     1 <1>   0.0000 
 39 H        4.2370     5.8210    -1.8590 H     1 <1>   0.0000 
 40 H        3.4800     6.9250     0.9210 H     1 <1>   0.0800 
 41 H        4.9270     7.2970     0.0190 H     1 <1>   0.0800 
 42 H        6.4050     5.3370    -0.6970 H     1 <1>   0.0800 
 43 H        5.8870     3.7330    -0.2440 H     1 <1>   0.0800 
 44 H        4.8170     6.0920     2.8060 H     1 <1>   0.0800 
 45 H        5.3560     7.7040     2.3860 H     1 <1>   0.0800 
 46 H        7.6740     4.6290     1.2630 H     1 <1>   0.0800 
 47 H        6.2030     4.2540     2.1340 H     1 <1>   0.0800 
@<TRIPOS>BOND
  1   1   2  2   
  2   1   3  2   
  3   1   4  am  
  4   1   5  1   
  5   4   6  1   
  6   4  26  1   
  7   5   7  ar  
  8   5   8  ar  
  9   6   9  1   
 10   6  27  1   
 11   6  28  1   
 12   7  10  ar  
 13   7  11  1   
 14   8  12  ar  
 15   8  29  1   
 16   9  13  2   
 17   9  14  am  
 18  10  15  ar  
 19  10  30  1   
 20  11  31  1   
 21  11  32  1   
 22  11  33  1   
 23  12  15  ar  
 24  12  34  1   
 25  14  16  1   
 26  14  17  1   
 27  15  18  1   
 28  16  19  1   
 29  16  35  1   
 30  16  36  1   
 31  17  19  1   
 32  17  37  1   
 33  17  38  1   
 34  19  20  1   
 35  19  39  1   
 36  20  21  1   
 37  20  22  1   
 38  21  23  1   
 39  21  40  1   
 40  21  41  1   
 41  22  24  1   
 42  22  42  1   
 43  22  43  1   
 44  23  25  1   
 45  23  44  1   
 46  23  45  1   
 47  24  25  1   
 48  24  46  1   
 49  24  47  1   
@<TRIPOS>SUBSTRUCTURE
  1 ****   2 GROUP 4 **** **** 0

# MOE 2024.06 (io_trps.svl 2023.06)
