@<TRIPOS>MOLECULE
NONAME
33 34 1 0 0 
SMALL
USER_CHARGES


@<TRIPOS>ATOM
  1 CL       0.3480    -1.4880    -2.9600 Cl    1 <1>  -0.1770 
  2 C        0.7440    -2.6590    -1.7260 C.ar  1 <1>   0.1770 
  3 C       -0.2760    -3.3620    -1.1100 C.ar  1 <1>  -0.1500 
  4 C        2.0680    -2.8560    -1.3820 C.ar  1 <1>  -0.1500 
  5 C        0.0260    -4.2920    -0.1250 C.ar  1 <1>  -0.1440 
  6 C        2.3750    -3.7890    -0.4070 C.ar  1 <1>  -0.1500 
  7 C        1.3600    -4.5100     0.2040 C.ar  1 <1>   0.0830 
  8 C       -1.0910    -5.0260     0.6010 C.3   1 <1>   0.2540 
  9 O        1.7000    -5.4380     1.1200 O.3   1 <1>  -0.3630 
 10 N       -1.0610    -6.4710     0.3210 N.3   1 <1>  -0.8100 
 11 C        1.4050    -6.7770     0.7740 C.3   1 <1>   0.1200 
 12 C       -0.0350    -7.1570     1.1430 C.3   1 <1>   0.1100 
 13 C       -2.3980    -7.0570     0.5320 C.3   1 <1>   0.3100 
 14 C       -2.4650    -8.4560     0.0180 C.1   1 <1>  -0.2000 
 15 C       -2.5110    -9.5730    -0.3850 C.1   1 <1>  -0.2000 
 16 C       -2.5500   -10.9710    -0.8980 C.3   1 <1>   0.0400 
 17 C       -1.2780   -11.7220    -0.5000 C.3   1 <1>  -0.2400 
 18 H       -1.2920    -3.1740    -1.4030 H     1 <1>   0.1500 
 19 H        2.8400    -2.2910    -1.8710 H     1 <1>   0.1500 
 20 H        3.3950    -3.9700    -0.1200 H     1 <1>   0.1500 
 21 H       -2.0290    -4.6130     0.2740 H     1 <1>   0.0800 
 22 H       -1.0090    -4.8510     1.6610 H     1 <1>   0.0800 
 23 H        2.0900    -7.4000     1.3190 H     1 <1>   0.0800 
 24 H        1.5740    -6.9160    -0.2800 H     1 <1>   0.0800 
 25 H       -0.1170    -8.2190     0.9930 H     1 <1>   0.0800 
 26 H       -0.2000    -6.9650     2.1900 H     1 <1>   0.0800 
 27 H       -3.1330    -6.4780    -0.0010 H     1 <1>   0.0800 
 28 H       -2.6480    -7.0430     1.5790 H     1 <1>   0.0800 
 29 H       -2.6410   -10.9500    -1.9700 H     1 <1>   0.0800 
 30 H       -3.4120   -11.4720    -0.4950 H     1 <1>   0.0800 
 31 H       -0.4140   -11.2280    -0.9080 H     1 <1>   0.0800 
 32 H       -1.3110   -12.7290    -0.8750 H     1 <1>   0.0800 
 33 H       -1.1860   -11.7540     0.5710 H     1 <1>   0.0800 
@<TRIPOS>BOND
  1   1   2  1   
  2   2   3  ar  
  3   2   4  ar  
  4   3   5  ar  
  5   3  18  1   
  6   4   6  ar  
  7   4  19  1   
  8   5   7  ar  
  9   5   8  1   
 10   6   7  ar  
 11   6  20  1   
 12   7   9  1   
 13   8  10  1   
 14   8  21  1   
 15   8  22  1   
 16   9  11  1   
 17  10  12  1   
 18  10  13  1   
 19  11  12  1   
 20  11  23  1   
 21  11  24  1   
 22  12  25  1   
 23  12  26  1   
 24  13  14  1   
 25  13  27  1   
 26  13  28  1   
 27  14  15  3   
 28  15  16  1   
 29  16  17  1   
 30  16  29  1   
 31  16  30  1   
 32  17  31  1   
 33  17  32  1   
 34  17  33  1   
@<TRIPOS>SUBSTRUCTURE
  1 ****  10 GROUP 4 **** **** 0

# MOE 2024.06 (io_trps.svl 2023.06)
