@<TRIPOS>MOLECULE
NONAME
41 43 1 0 0 
SMALL
USER_CHARGES


@<TRIPOS>ATOM
  1 S        0.4870     0.1700    -1.1370 S.o2  1 <1>   1.4470 
  2 O        0.2600    -0.9360    -2.0440 O.2   1 <1>  -0.6500 
  3 O        1.3970     1.2190    -1.5420 O.2   1 <1>  -0.6500 
  4 N       -1.0290     0.8610    -0.8380 N.am  1 <1>  -0.8490 
  5 C        0.9690    -0.4730     0.4820 C.ar  1 <1>  -0.0090 
  6 C       -2.0910    -0.1460    -0.6980 C.3   1 <1>   0.1960 
  7 C       -1.3980     1.8950    -1.7990 C.3   1 <1>   0.1960 
  8 C        1.1030     0.3740     1.5750 C.ar  1 <1>   0.1900 
  9 C        1.2050    -1.8320     0.6920 C.ar  1 <1>  -0.1500 
 10 C       -3.3580     0.4860    -0.0840 C.3   1 <1>   0.0000 
 11 C       -2.6510     2.6250    -1.3030 C.3   1 <1>  -0.1600 
 12 F        0.9060     1.6560     1.4280 F     1 <1>  -0.1900 
 13 C        1.4450    -0.0690     2.8400 C.ar  1 <1>  -0.1500 
 14 C        1.5540    -2.3130     1.9460 C.ar  1 <1>  -0.1500 
 15 C       -3.1410     0.9460     1.3750 C.3   1 <1>   0.2000 
 16 C       -3.8050     1.6540    -1.0030 C.3   1 <1>  -0.1600 
 17 C       -4.5170    -0.5190     0.0540 C.3   1 <1>  -0.1600 
 18 C        1.6650    -1.4210     2.9970 C.ar  1 <1>   0.1900 
 19 O       -2.4860    -0.0380     2.1060 O.3   1 <1>  -0.6800 
 20 C       -4.5470     1.0440     1.9610 C.3   1 <1>  -0.1600 
 21 C       -5.3850    -0.0100     1.2180 C.3   1 <1>  -0.1600 
 22 F        1.9920    -1.8750     4.1750 F     1 <1>  -0.1900 
 23 H       -2.3230    -0.5630    -1.6650 H     1 <1>   0.0800 
 24 H       -1.7490    -0.9520    -0.0720 H     1 <1>   0.0800 
 25 H       -0.5980     2.6100    -1.8960 H     1 <1>   0.0800 
 26 H       -1.5750     1.4510    -2.7660 H     1 <1>   0.0800 
 27 H        1.1140    -2.5190    -0.1340 H     1 <1>   0.1500 
 28 H       -2.3940     3.1790    -0.4170 H     1 <1>   0.0800 
 29 H       -2.9620     3.3360    -2.0470 H     1 <1>   0.0800 
 30 H        1.5330     0.6130     3.6650 H     1 <1>   0.1500 
 31 H        1.7360    -3.3600     2.1090 H     1 <1>   0.1500 
 32 H       -2.5730     1.8570     1.4560 H     1 <1>   0.0800 
 33 H       -4.1460     1.2490    -1.9400 H     1 <1>   0.0800 
 34 H       -4.6280     2.1960    -0.5730 H     1 <1>   0.0800 
 35 H       -5.0880    -0.6200    -0.8530 H     1 <1>   0.0800 
 36 H       -4.1260    -1.4880     0.3130 H     1 <1>   0.0800 
 37 H       -3.0970    -0.7860     2.2380 H     1 <1>   0.4000 
 38 H       -4.5550     0.9060     3.0280 H     1 <1>   0.0800 
 39 H       -4.9430     2.0220     1.7490 H     1 <1>   0.0800 
 40 H       -5.6480    -0.8230     1.8730 H     1 <1>   0.0800 
 41 H       -6.2900     0.4390     0.8450 H     1 <1>   0.0800 
@<TRIPOS>BOND
  1   1   2  2   
  2   1   3  2   
  3   1   4  am  
  4   1   5  1   
  5   4   6  1   
  6   4   7  1   
  7   5   8  ar  
  8   5   9  ar  
  9   6  10  1   
 10   6  23  1   
 11   6  24  1   
 12   7  11  1   
 13   7  25  1   
 14   7  26  1   
 15   8  12  1   
 16   8  13  ar  
 17   9  14  ar  
 18   9  27  1   
 19  10  15  1   
 20  10  16  1   
 21  10  17  1   
 22  11  16  1   
 23  11  28  1   
 24  11  29  1   
 25  13  18  ar  
 26  13  30  1   
 27  14  18  ar  
 28  14  31  1   
 29  15  19  1   
 30  15  20  1   
 31  15  32  1   
 32  16  33  1   
 33  16  34  1   
 34  17  21  1   
 35  17  35  1   
 36  17  36  1   
 37  18  22  1   
 38  19  37  1   
 39  20  21  1   
 40  20  38  1   
 41  20  39  1   
 42  21  40  1   
 43  21  41  1   
@<TRIPOS>SUBSTRUCTURE
  1 ****   4 GROUP 4 **** **** 0

# MOE 2024.06 (io_trps.svl 2023.06)
