@<TRIPOS>MOLECULE
NONAME
44 46 1 0 0 
SMALL
USER_CHARGES


@<TRIPOS>ATOM
  1 O        2.6550    -0.5460     3.4620 O.2   1 <1>  -0.5700 
  2 C        2.8080    -1.1000     2.3890 C.2   1 <1>   0.7670 
  3 N        3.2660    -0.3830     1.3200 N.2   1 <1>  -0.6610 
  4 C        2.4880    -2.4740     2.2420 C.2   1 <1>  -0.1360 
  5 C        3.4030    -0.9840     0.2010 C.2   1 <1>   0.4390 
  6 C        2.6170    -3.0800     1.0390 C.2   1 <1>  -0.0380 
  7 N        3.0980    -2.3030     0.0060 N.pl3 1 <1>  -0.5500 
  8 C        3.9270    -0.2260    -0.9940 C.3   1 <1>  -0.1790 
  9 C        2.2400    -4.5370     0.8000 C.3   1 <1>   0.4810 
 10 N        0.9560    -4.6360     0.0340 N.4   1 <1>  -0.9590 
 11 C       -0.2160    -4.1890     0.8700 C.3   1 <1>   0.4230 
 12 C        0.8500    -6.0110    -0.5540 C.3   1 <1>   0.2630 
 13 C       -1.5400    -4.8940     0.5450 C.3   1 <1>  -0.1600 
 14 C       -0.5540    -2.7400     0.5090 C.3   1 <1>  -0.1600 
 15 C       -2.0760    -4.2120    -0.7220 C.3   1 <1>  -0.0800 
 16 C       -1.4320    -2.8220    -0.7480 C.3   1 <1>  -0.0800 
 17 C       -3.5950    -3.9970    -0.7610 C.3   1 <1>  -0.1600 
 18 C       -2.5760    -1.8010    -0.8130 C.3   1 <1>  -0.1600 
 19 C       -3.7630    -2.5980    -1.3410 C.3   1 <1>   0.2000 
 20 O       -4.9410    -2.0390    -0.9050 O.3   1 <1>  -0.6800 
 21 H        2.1390    -2.9640     3.1300 H     1 <1>   0.1500 
 22 H        3.3130    -2.6740    -0.9250 H     1 <1>   0.4000 
 23 H        4.8400    -0.6700    -1.3430 H     1 <1>   0.0800 
 24 H        4.1290     0.7950    -0.7200 H     1 <1>   0.0800 
 25 H        3.1990    -0.2270    -1.7840 H     1 <1>   0.0800 
 26 H        2.1390    -5.0440     1.7460 H     1 <1>   0.0800 
 27 H        3.0370    -5.0140     0.2530 H     1 <1>   0.0800 
 28 H        1.0050    -3.9580    -0.7360 H     1 <1>   0.4500 
 29 H        0.0130    -4.2870     1.9200 H     1 <1>   0.0800 
 30 H        0.7490    -6.7480     0.2260 H     1 <1>   0.0800 
 31 H        1.7290    -6.2430    -1.1360 H     1 <1>   0.0800 
 32 H       -0.0080    -6.0780    -1.2030 H     1 <1>   0.0800 
 33 H       -1.4870    -5.9640     0.4630 H     1 <1>   0.0800 
 34 H       -2.2080    -4.6850     1.3630 H     1 <1>   0.0800 
 35 H       -1.1250    -2.3300     1.3240 H     1 <1>   0.0800 
 36 H        0.2940    -2.0990     0.3580 H     1 <1>   0.0800 
 37 H       -1.7700    -4.7530    -1.6030 H     1 <1>   0.0800 
 38 H       -0.8280    -2.7360    -1.6360 H     1 <1>   0.0800 
 39 H       -4.0130    -4.0290     0.2300 H     1 <1>   0.0800 
 40 H       -4.0840    -4.7300    -1.3790 H     1 <1>   0.0800 
 41 H       -2.3390    -0.9830    -1.4710 H     1 <1>   0.0800 
 42 H       -2.8040    -1.4170     0.1650 H     1 <1>   0.0800 
 43 H       -3.7670    -2.6220    -2.4190 H     1 <1>   0.0800 
 44 H       -4.9590    -1.9880     0.0690 H     1 <1>   0.4000 
@<TRIPOS>BOND
  1   1   2  2   
  2   2   3  1   
  3   2   4  1   
  4   3   5  2   
  5   4   6  2   
  6   4  21  1   
  7   5   7  1   
  8   5   8  1   
  9   6   7  1   
 10   6   9  1   
 11   7  22  1   
 12   8  23  1   
 13   8  24  1   
 14   8  25  1   
 15   9  10  1   
 16   9  26  1   
 17   9  27  1   
 18  10  11  1   
 19  10  12  1   
 20  10  28  1   
 21  11  13  1   
 22  11  14  1   
 23  11  29  1   
 24  12  30  1   
 25  12  31  1   
 26  12  32  1   
 27  13  15  1   
 28  13  33  1   
 29  13  34  1   
 30  14  16  1   
 31  14  35  1   
 32  14  36  1   
 33  15  16  1   
 34  15  17  1   
 35  15  37  1   
 36  16  18  1   
 37  16  38  1   
 38  17  19  1   
 39  17  39  1   
 40  17  40  1   
 41  18  19  1   
 42  18  41  1   
 43  18  42  1   
 44  19  20  1   
 45  19  43  1   
 46  20  44  1   
@<TRIPOS>SUBSTRUCTURE
  1 ****  14 GROUP 4 **** **** 0

# MOE 2024.06 (io_trps.svl 2023.06)
