@<TRIPOS>MOLECULE
NONAME
54 55 1 0 0 
SMALL
USER_CHARGES


@<TRIPOS>ATOM
  1 O       -1.0630     3.4900    -1.7240 O.co2 1 <1>  -0.9000 
  2 C       -1.0320     2.6010    -0.8570 C.2   1 <1>   0.9060 
  3 O       -1.8370     1.6720    -0.8440 O.co2 1 <1>  -0.9000 
  4 C       -0.0630     2.7670     0.3080 C.3   1 <1>  -0.1060 
  5 C       -0.9180     3.4760     1.3980 C.3   1 <1>   0.2000 
  6 C        1.0760     3.6880    -0.1550 C.3   1 <1>   0.3430 
  7 C        0.5730     1.4160     0.7790 C.3   1 <1>  -0.1600 
  8 O       -1.2350     2.6260     2.4370 O.3   1 <1>  -0.6800 
  9 C       -0.2350     4.7020     2.0010 C.3   1 <1>  -0.1600 
 10 N        0.5680     5.0700    -0.3500 N.4   1 <1>  -0.9590 
 11 C        1.6620     0.7860    -0.1180 C.3   1 <1>  -0.1600 
 12 C        0.0950     5.7230     0.9080 C.3   1 <1>   0.3430 
 13 C        1.4970     5.9040    -1.1590 C.3   1 <1>   0.3430 
 14 C        1.1870     0.4540    -1.5360 C.3   1 <1>  -0.2400 
 15 C        0.7950     7.1310    -1.7450 C.3   1 <1>   0.1200 
 16 O        1.7840     8.0470    -2.1590 O.3   1 <1>  -0.3630 
 17 C        1.8580     9.2400    -1.5130 C.ar  1 <1>   0.0830 
 18 C        2.0420     9.3570    -0.1290 C.ar  1 <1>   0.0830 
 19 C        1.7530    10.3780    -2.2940 C.ar  1 <1>  -0.1500 
 20 O        2.1970     8.2330     0.6310 O.3   1 <1>  -0.3630 
 21 C        2.0770    10.6260     0.4420 C.ar  1 <1>  -0.1500 
 22 C        1.8020    11.6330    -1.7140 C.ar  1 <1>  -0.1500 
 23 C        2.9800     8.2900     1.8070 C.3   1 <1>   0.0400 
 24 C        1.9600    11.7620    -0.3440 C.ar  1 <1>  -0.1430 
 25 C        2.0020    13.1400     0.2910 C.3   1 <1>  -0.0970 
 26 H       -1.8590     3.7980     0.9760 H     1 <1>   0.0800 
 27 H        1.4650     3.3090    -1.0860 H     1 <1>   0.0800 
 28 H        1.8660     3.6880     0.5770 H     1 <1>   0.0800 
 29 H        1.0160     1.5650     1.7490 H     1 <1>   0.0800 
 30 H       -0.2120     0.6890     0.9060 H     1 <1>   0.0800 
 31 H       -1.7210     1.8580     2.0630 H     1 <1>   0.4000 
 32 H       -0.8840     5.1610     2.7240 H     1 <1>   0.0800 
 33 H        0.6690     4.4060     2.5030 H     1 <1>   0.0800 
 34 H       -0.2650     4.8600    -0.9640 H     1 <1>   0.4500 
 35 H        2.5320     1.4160    -0.1670 H     1 <1>   0.0800 
 36 H        1.9720    -0.1340     0.3480 H     1 <1>   0.0800 
 37 H        0.8500     6.3960     1.2790 H     1 <1>   0.0800 
 38 H       -0.7870     6.3030     0.6870 H     1 <1>   0.0800 
 39 H        2.3170     6.2270    -0.5400 H     1 <1>   0.0800 
 40 H        1.8900     5.3190    -1.9730 H     1 <1>   0.0800 
 41 H        1.0040     1.3440    -2.1110 H     1 <1>   0.0800 
 42 H        0.2740    -0.1170    -1.5000 H     1 <1>   0.0800 
 43 H        1.9310    -0.1290    -2.0490 H     1 <1>   0.0800 
 44 H        0.1560     7.6120    -1.0250 H     1 <1>   0.0800 
 45 H        0.2180     6.8550    -2.6090 H     1 <1>   0.0800 
 46 H        1.6310    10.2800    -3.3570 H     1 <1>   0.1500 
 47 H        2.1920    10.7490     1.5010 H     1 <1>   0.1500 
 48 H        1.7140    12.5070    -2.3350 H     1 <1>   0.1500 
 49 H        3.1900     7.2850     2.1240 H     1 <1>   0.0800 
 50 H        2.4280     8.8050     2.5730 H     1 <1>   0.0800 
 51 H        3.9010     8.8040     1.5900 H     1 <1>   0.0800 
 52 H        2.3810    13.8660    -0.4070 H     1 <1>   0.0800 
 53 H        2.6420    13.1380     1.1550 H     1 <1>   0.0800 
 54 H        1.0120    13.4330     0.5910 H     1 <1>   0.0800 
@<TRIPOS>BOND
  1   1   2  ar  
  2   2   3  ar  
  3   2   4  1   
  4   4   5  1   
  5   4   6  1   
  6   4   7  1   
  7   5   8  1   
  8   5   9  1   
  9   5  26  1   
 10   6  10  1   
 11   6  27  1   
 12   6  28  1   
 13   7  11  1   
 14   7  29  1   
 15   7  30  1   
 16   8  31  1   
 17   9  12  1   
 18   9  32  1   
 19   9  33  1   
 20  10  12  1   
 21  10  13  1   
 22  10  34  1   
 23  11  14  1   
 24  11  35  1   
 25  11  36  1   
 26  12  37  1   
 27  12  38  1   
 28  13  15  1   
 29  13  39  1   
 30  13  40  1   
 31  14  41  1   
 32  14  42  1   
 33  14  43  1   
 34  15  16  1   
 35  15  44  1   
 36  15  45  1   
 37  16  17  1   
 38  17  18  ar  
 39  17  19  ar  
 40  18  20  1   
 41  18  21  ar  
 42  19  22  ar  
 43  19  46  1   
 44  20  23  1   
 45  21  24  ar  
 46  21  47  1   
 47  22  24  ar  
 48  22  48  1   
 49  23  49  1   
 50  23  50  1   
 51  23  51  1   
 52  24  25  1   
 53  25  52  1   
 54  25  53  1   
 55  25  54  1   
@<TRIPOS>SUBSTRUCTURE
  1 ****  10 GROUP 4 **** **** 0

# MOE 2024.06 (io_trps.svl 2023.06)
