@<TRIPOS>MOLECULE
NONAME
43 44 1 0 0 
SMALL
USER_CHARGES


@<TRIPOS>ATOM
  1 O       -0.3200     0.8350    -2.0360 O.2   1 <1>  -0.5700 
  2 C       -1.4370     1.2390    -1.7960 C.2   1 <1>   0.5690 
  3 N       -2.3850     0.3860    -1.2760 N.am  1 <1>  -0.6600 
  4 C       -1.6930     2.7300    -2.1150 C.3   1 <1>   0.2610 
  5 C       -2.0480    -1.0760    -1.1700 C.3   1 <1>   0.3210 
  6 C       -3.7060     0.8160    -0.7130 C.3   1 <1>   0.1400 
  7 O       -2.2720     3.4510    -1.0340 O.3   1 <1>  -0.3630 
  8 C       -2.5940     2.9270    -3.3400 C.3   1 <1>  -0.2400 
  9 C       -3.2580    -2.0090    -1.2490 C.2   1 <1>   0.0460 
 10 C       -3.6410     0.8640     0.8170 C.3   1 <1>   0.1200 
 11 C       -1.6000     3.7130     0.1150 C.ar  1 <1>   0.0820 
 12 N       -3.9440    -2.1540    -2.4040 N.2   1 <1>  -0.5650 
 13 C       -3.8010    -2.7760    -0.2720 C.2   1 <1>  -0.3320 
 14 O       -4.7820     1.4790     1.3120 O.3   1 <1>  -0.6800 
 15 C       -0.2920     3.3080     0.3700 C.ar  1 <1>  -0.1500 
 16 C       -2.2910     4.4260     1.0830 C.ar  1 <1>  -0.1500 
 17 C       -4.8810    -2.9920    -2.1090 C.2   1 <1>   0.0360 
 18 N       -4.8510    -3.4080    -0.8280 N.pl3 1 <1>   0.0330 
 19 C       -3.4150    -2.9760     1.1850 C.3   1 <1>  -0.0600 
 20 C        0.3030     3.6100     1.5830 C.ar  1 <1>  -0.1500 
 21 C       -1.6950     4.7280     2.2940 C.ar  1 <1>  -0.1500 
 22 C       -0.3970     4.3180     2.5450 C.ar  1 <1>  -0.1500 
 23 H       -0.7470     3.1940    -2.3280 H     1 <1>   0.0800 
 24 H       -1.5300    -1.2390    -0.2440 H     1 <1>   0.0800 
 25 H       -1.3790    -1.3490    -1.9680 H     1 <1>   0.0800 
 26 H       -4.4830     0.1400    -1.0220 H     1 <1>   0.0800 
 27 H       -3.9730     1.7840    -1.0850 H     1 <1>   0.0800 
 28 H       -3.5590     2.4810    -3.1830 H     1 <1>   0.0800 
 29 H       -2.1430     2.4560    -4.1950 H     1 <1>   0.0800 
 30 H       -2.7100     3.9750    -3.5480 H     1 <1>   0.0800 
 31 H       -2.7870     1.4280     1.1490 H     1 <1>   0.0800 
 32 H       -3.6000    -0.1300     1.2220 H     1 <1>   0.0800 
 33 H       -4.7770     2.4290     1.0840 H     1 <1>   0.4000 
 34 H        0.2830     2.7600    -0.3530 H     1 <1>   0.1500 
 35 H       -3.2960     4.7470     0.8810 H     1 <1>   0.1500 
 36 H       -5.6250    -3.3370    -2.8060 H     1 <1>   0.1500 
 37 H       -5.4950    -4.0660    -0.3810 H     1 <1>   0.2700 
 38 H       -2.5430    -2.4000     1.4340 H     1 <1>   0.0800 
 39 H       -3.2000    -4.0130     1.3720 H     1 <1>   0.0800 
 40 H       -4.2210    -2.6660     1.8260 H     1 <1>   0.0800 
 41 H        1.3130     3.2930     1.7780 H     1 <1>   0.1500 
 42 H       -2.2390     5.2810     3.0410 H     1 <1>   0.1500 
 43 H        0.0690     4.5510     3.4870 H     1 <1>   0.1500 
@<TRIPOS>BOND
  1   1   2  2   
  2   2   3  am  
  3   2   4  1   
  4   3   5  1   
  5   3   6  1   
  6   4   7  1   
  7   4   8  1   
  8   4  23  1   
  9   5   9  1   
 10   5  24  1   
 11   5  25  1   
 12   6  10  1   
 13   6  26  1   
 14   6  27  1   
 15   7  11  1   
 16   8  28  1   
 17   8  29  1   
 18   8  30  1   
 19   9  12  1   
 20   9  13  2   
 21  10  14  1   
 22  10  31  1   
 23  10  32  1   
 24  11  15  ar  
 25  11  16  ar  
 26  12  17  2   
 27  13  18  1   
 28  13  19  1   
 29  14  33  1   
 30  15  20  ar  
 31  15  34  1   
 32  16  21  ar  
 33  16  35  1   
 34  17  18  1   
 35  17  36  1   
 36  18  37  1   
 37  19  38  1   
 38  19  39  1   
 39  19  40  1   
 40  20  22  ar  
 41  20  41  1   
 42  21  22  ar  
 43  21  42  1   
 44  22  43  1   
@<TRIPOS>SUBSTRUCTURE
  1 ****   3 GROUP 4 **** **** 0

# MOE 2024.06 (io_trps.svl 2023.06)
