@<TRIPOS>MOLECULE
NONAME
48 50 1 0 0 
SMALL
USER_CHARGES


@<TRIPOS>ATOM
  1 O       -0.6670     0.0220    -0.1620 O.3   1 <1>  -0.5600 
  2 C       -0.4030     1.3580    -0.4700 C.3   1 <1>   0.2640 
  3 C       -1.7890    -0.5150    -0.7710 C.3   1 <1>   0.1200 
  4 C        0.8840     1.7650     0.2260 C.ar  1 <1>  -0.1440 
  5 C       -1.9030    -1.9660    -0.2900 C.3   1 <1>   0.3430 
  6 C        2.0180     2.0750    -0.5100 C.ar  1 <1>  -0.1500 
  7 C        0.9350     1.8330     1.6100 C.ar  1 <1>  -0.1500 
  8 N       -2.9460    -2.7540    -1.0290 N.4   1 <1>  -0.9590 
  9 C        3.1860     2.4540     0.1300 C.ar  1 <1>  -0.1500 
 10 C        2.1020     2.2110     2.2520 C.ar  1 <1>  -0.1500 
 11 C       -4.3350    -2.2880    -0.6950 C.3   1 <1>   0.3430 
 12 C       -2.8660    -4.1880    -0.6000 C.3   1 <1>   0.3430 
 13 C        3.2280     2.5230     1.5110 C.ar  1 <1>  -0.1500 
 14 C       -4.8550    -3.2430     0.3830 C.3   1 <1>   0.2000 
 15 C       -4.2390    -4.5750    -0.0410 C.3   1 <1>  -0.0800 
 16 O       -4.3290    -2.8420     1.6070 O.3   1 <1>  -0.6800 
 17 C       -4.1570    -5.6690     1.0410 C.3   1 <1>  -0.0170 
 18 C       -3.3850    -6.8650     0.5110 C.ar  1 <1>  -0.1430 
 19 C       -3.9340    -7.7390    -0.4070 C.ar  1 <1>  -0.1500 
 20 C       -2.0910    -7.1340     0.9130 C.ar  1 <1>  -0.1500 
 21 C       -3.1760    -8.7970    -0.8820 C.ar  1 <1>   0.1600 
 22 C       -1.4210    -8.2210     0.3770 C.ar  1 <1>   0.1600 
 23 N       -1.9300    -9.0490    -0.5190 N.ar  1 <1>  -0.6200 
 24 H       -0.3050     1.4580    -1.5370 H     1 <1>   0.0800 
 25 H       -1.2200     1.9650    -0.1200 H     1 <1>   0.0800 
 26 H       -2.6480     0.0620    -0.4740 H     1 <1>   0.0800 
 27 H       -1.6460    -0.4740    -1.8370 H     1 <1>   0.0800 
 28 H       -2.1290    -1.9660     0.7650 H     1 <1>   0.0800 
 29 H       -0.9420    -2.4340    -0.4280 H     1 <1>   0.0800 
 30 H        2.0010     2.0240    -1.5840 H     1 <1>   0.1500 
 31 H        0.0650     1.5880     2.1930 H     1 <1>   0.1500 
 32 H       -2.7710    -2.6850    -2.0410 H     1 <1>   0.4500 
 33 H        4.0620     2.6930    -0.4460 H     1 <1>   0.1500 
 34 H        2.1330     2.2610     3.3260 H     1 <1>   0.1500 
 35 H       -4.3560    -1.2690    -0.3460 H     1 <1>   0.0800 
 36 H       -4.9610    -2.3760    -1.5680 H     1 <1>   0.0800 
 37 H       -2.5950    -4.8330    -1.4210 H     1 <1>   0.0800 
 38 H       -2.1280    -4.2960     0.1790 H     1 <1>   0.0800 
 39 H        4.1360     2.8160     2.0090 H     1 <1>   0.1500 
 40 H       -5.9310    -3.2540     0.4470 H     1 <1>   0.0800 
 41 H       -4.8170    -4.9620    -0.8610 H     1 <1>   0.0800 
 42 H       -4.8060    -3.2590     2.3550 H     1 <1>   0.4000 
 43 H       -5.1480    -5.9800     1.3270 H     1 <1>   0.0800 
 44 H       -3.6640    -5.3000     1.9240 H     1 <1>   0.0800 
 45 H       -4.9410    -7.6150    -0.7590 H     1 <1>   0.1500 
 46 H       -1.5930    -6.5190     1.6400 H     1 <1>   0.1500 
 47 H       -3.6170    -9.4710    -1.5970 H     1 <1>   0.1500 
 48 H       -0.4120    -8.4200     0.7000 H     1 <1>   0.1500 
@<TRIPOS>BOND
  1   1   2  1   
  2   1   3  1   
  3   2   4  1   
  4   2  24  1   
  5   2  25  1   
  6   3   5  1   
  7   3  26  1   
  8   3  27  1   
  9   4   6  ar  
 10   4   7  ar  
 11   5   8  1   
 12   5  28  1   
 13   5  29  1   
 14   6   9  ar  
 15   6  30  1   
 16   7  10  ar  
 17   7  31  1   
 18   8  11  1   
 19   8  12  1   
 20   8  32  1   
 21   9  13  ar  
 22   9  33  1   
 23  10  13  ar  
 24  10  34  1   
 25  11  14  1   
 26  11  35  1   
 27  11  36  1   
 28  12  15  1   
 29  12  37  1   
 30  12  38  1   
 31  13  39  1   
 32  14  15  1   
 33  14  16  1   
 34  14  40  1   
 35  15  17  1   
 36  15  41  1   
 37  16  42  1   
 38  17  18  1   
 39  17  43  1   
 40  17  44  1   
 41  18  19  ar  
 42  18  20  ar  
 43  19  21  ar  
 44  19  45  1   
 45  20  22  ar  
 46  20  46  1   
 47  21  23  ar  
 48  21  47  1   
 49  22  23  ar  
 50  22  48  1   
@<TRIPOS>SUBSTRUCTURE
  1 ****   5 GROUP 4 **** **** 0

# MOE 2024.06 (io_trps.svl 2023.06)
