@<TRIPOS>MOLECULE
NONAME
51 53 1 0 0 
SMALL
USER_CHARGES


@<TRIPOS>ATOM
  1 O        0.0790     0.9280    -0.6570 O.2   1 <1>  -0.5700 
  2 C        0.0670     2.0970    -0.9640 C.2   1 <1>   0.5690 
  3 N       -0.1590     3.0930    -0.0490 N.am  1 <1>  -0.6600 
  4 C        0.2900     2.4530    -2.4390 C.3   1 <1>   0.1810 
  5 C       -0.1490     4.5320    -0.4700 C.3   1 <1>   0.3640 
  6 C       -0.2980     2.8220     1.4120 C.3   1 <1>   0.0600 
  7 O        0.6380     3.8040    -2.6460 O.3   1 <1>  -0.5600 
  8 C       -1.2060     5.3650     0.2710 C.ar  1 <1>  -0.1430 
  9 C       -0.2380     4.7100    -2.0020 C.3   1 <1>   0.2610 
 10 C       -2.5870     5.1520     0.2040 C.ar  1 <1>  -0.1430 
 11 C       -0.7280     6.4170     1.0440 C.ar  1 <1>  -0.1500 
 12 C        0.1020     6.1560    -2.3640 C.2   1 <1>   0.5690 
 13 C       -3.4400     5.9960     0.9000 C.ar  1 <1>  -0.1500 
 14 C       -3.2430     4.0410    -0.6090 C.3   1 <1>  -0.0960 
 15 C       -1.5870     7.2540     1.7280 C.ar  1 <1>  -0.1500 
 16 O       -0.7880     6.9660    -2.4870 O.2   1 <1>  -0.5700 
 17 N        1.4020     6.5250    -2.5010 N.am  1 <1>  -0.7300 
 18 C       -2.9480     7.0420     1.6580 C.ar  1 <1>  -0.1500 
 19 C        1.8610     7.9060    -2.7180 C.3   1 <1>   0.3200 
 20 C        1.8150     8.6310    -1.3930 C.2   1 <1>  -0.3320 
 21 N        0.6650     8.8360    -0.7210 N.pl3 1 <1>   0.3000 
 22 C        2.8000     9.1890    -0.6560 C.2   1 <1>  -0.1500 
 23 N        0.8770     9.5010     0.4340 N.2   1 <1>  -0.7070 
 24 C        2.1610     9.7150     0.4630 C.2   1 <1>   0.1080 
 25 C        2.8410    10.4620     1.6050 C.3   1 <1>   0.3010 
 26 O        4.2230    10.5700     1.3900 O.3   1 <1>  -0.5600 
 27 C        4.8950    11.2690     2.3870 C.3   1 <1>   0.0400 
 28 H       -0.6060     2.2450    -2.9950 H     1 <1>   0.0800 
 29 H        1.0860     1.8470    -2.8310 H     1 <1>   0.0800 
 30 H        0.8150     4.9130    -0.1840 H     1 <1>   0.0800 
 31 H        0.3950     3.4300     1.9660 H     1 <1>   0.0800 
 32 H       -0.0960     1.7870     1.6280 H     1 <1>   0.0800 
 33 H       -1.3000     3.0490     1.7330 H     1 <1>   0.0800 
 34 H       -1.2340     4.5100    -2.3480 H     1 <1>   0.0800 
 35 H        0.3290     6.6140     1.1200 H     1 <1>   0.1500 
 36 H       -4.5040     5.8480     0.8550 H     1 <1>   0.1500 
 37 H       -4.2110     3.8040    -0.2050 H     1 <1>   0.0800 
 38 H       -2.6670     3.1370    -0.5940 H     1 <1>   0.0800 
 39 H       -3.3770     4.3610    -1.6260 H     1 <1>   0.0800 
 40 H       -1.1920     8.0720     2.3070 H     1 <1>   0.1500 
 41 H        2.1300     5.8080    -2.4460 H     1 <1>   0.3700 
 42 H       -3.6230     7.6910     2.1880 H     1 <1>   0.1500 
 43 H        2.8640     7.8990    -3.1070 H     1 <1>   0.0800 
 44 H        1.2170     8.3970    -3.4290 H     1 <1>   0.0800 
 45 H       -0.2660     8.5040    -1.0270 H     1 <1>   0.2700 
 46 H        3.8570     9.2420    -0.8490 H     1 <1>   0.1500 
 47 H        2.6750     9.9320     2.5250 H     1 <1>   0.0800 
 48 H        2.4240    11.4510     1.6760 H     1 <1>   0.0800 
 49 H        5.9400    11.2920     2.1320 H     1 <1>   0.0800 
 50 H        4.7630    10.7630     3.3280 H     1 <1>   0.0800 
 51 H        4.5130    12.2740     2.4370 H     1 <1>   0.0800 
@<TRIPOS>BOND
  1   1   2  2   
  2   2   3  am  
  3   2   4  1   
  4   3   5  1   
  5   3   6  1   
  6   4   7  1   
  7   4  28  1   
  8   4  29  1   
  9   5   8  1   
 10   5   9  1   
 11   5  30  1   
 12   6  31  1   
 13   6  32  1   
 14   6  33  1   
 15   7   9  1   
 16   8  10  ar  
 17   8  11  ar  
 18   9  12  1   
 19   9  34  1   
 20  10  13  ar  
 21  10  14  1   
 22  11  15  ar  
 23  11  35  1   
 24  12  16  2   
 25  12  17  am  
 26  13  18  ar  
 27  13  36  1   
 28  14  37  1   
 29  14  38  1   
 30  14  39  1   
 31  15  18  ar  
 32  15  40  1   
 33  17  19  1   
 34  17  41  1   
 35  18  42  1   
 36  19  20  1   
 37  19  43  1   
 38  19  44  1   
 39  20  21  1   
 40  20  22  2   
 41  21  23  1   
 42  21  45  1   
 43  22  24  1   
 44  22  46  1   
 45  23  24  2   
 46  24  25  1   
 47  25  26  1   
 48  25  47  1   
 49  25  48  1   
 50  26  27  1   
 51  27  49  1   
 52  27  50  1   
 53  27  51  1   
@<TRIPOS>SUBSTRUCTURE
  1 ****  11 GROUP 4 **** **** 0

# MOE 2024.06 (io_trps.svl 2023.06)
