@<TRIPOS>MOLECULE
NONAME
51 52 1 0 0 
SMALL
USER_CHARGES


@<TRIPOS>ATOM
  1 O       -4.5370     2.7770    -1.3380 O.2   1 <1>  -0.5700 
  2 C       -3.9720     2.4230    -0.3200 C.2   1 <1>   0.5440 
  3 N       -4.6790     1.6510     0.5780 N.am  1 <1>  -0.6600 
  4 C       -2.5860     2.7810    -0.1050 C.ar  1 <1>   0.0860 
  5 C       -4.0220     0.8920     1.6880 C.3   1 <1>   0.3210 
  6 C       -6.0940     1.2750     0.3050 C.3   1 <1>   0.1400 
  7 C       -1.5870     2.2930    -0.9450 C.ar  1 <1>  -0.1500 
  8 C       -2.2000     3.6070     0.9490 C.ar  1 <1>  -0.1500 
  9 C       -3.6730    -0.5330     1.2590 C.2   1 <1>   0.0460 
 10 C       -6.1750     0.4010    -0.9600 C.3   1 <1>   0.3430 
 11 C       -0.2510     2.5840    -0.7340 C.ar  1 <1>  -0.1440 
 12 C       -0.8700     3.9080     1.1740 C.ar  1 <1>  -0.1500 
 13 N       -4.6300    -1.4700     1.0560 N.2   1 <1>  -0.5650 
 14 C       -2.4390    -1.0540     1.0510 C.2   1 <1>  -0.3320 
 15 N       -7.4820    -0.3240    -1.0920 N.4   1 <1>  -0.9590 
 16 C        0.1170     3.3920     0.3380 C.ar  1 <1>   0.0830 
 17 C        0.8050     2.0220    -1.6760 C.3   1 <1>  -0.0970 
 18 C       -3.9580    -2.5320     0.7450 C.2   1 <1>   0.0360 
 19 N       -2.6240    -2.3440     0.7190 N.pl3 1 <1>   0.0330 
 20 C       -1.0510    -0.4380     1.1480 C.3   1 <1>  -0.0600 
 21 C       -7.5570    -1.4450    -0.1010 C.3   1 <1>   0.2630 
 22 C       -7.6250    -0.8460    -2.4830 C.3   1 <1>   0.2630 
 23 O        1.4360     3.6410     0.5180 O.3   1 <1>  -0.3630 
 24 C        1.9080     4.5150     1.5190 C.3   1 <1>   0.0400 
 25 H       -4.6840     0.8480     2.5350 H     1 <1>   0.0800 
 26 H       -3.1310     1.3940     2.0130 H     1 <1>   0.0800 
 27 H       -6.6700     2.1720     0.1590 H     1 <1>   0.0800 
 28 H       -6.4860     0.7450     1.1540 H     1 <1>   0.0800 
 29 H       -1.8790     1.6750    -1.7750 H     1 <1>   0.1500 
 30 H       -2.9560     4.0170     1.5950 H     1 <1>   0.1500 
 31 H       -5.3710    -0.3150    -0.9370 H     1 <1>   0.0800 
 32 H       -6.0250     1.0400    -1.8160 H     1 <1>   0.0800 
 33 H       -0.6190     4.5450     2.0010 H     1 <1>   0.1500 
 34 H       -8.2430     0.3480    -0.9120 H     1 <1>   0.4500 
 35 H        0.3600     1.4250    -2.4510 H     1 <1>   0.0800 
 36 H        1.4990     1.4140    -1.1260 H     1 <1>   0.0800 
 37 H        1.3460     2.8300    -2.1350 H     1 <1>   0.0800 
 38 H       -4.3950    -3.4910     0.5270 H     1 <1>   0.1500 
 39 H       -1.9030    -3.0410     0.5080 H     1 <1>   0.2700 
 40 H       -1.1000     0.5880     1.4640 H     1 <1>   0.0800 
 41 H       -0.5630    -0.4700     0.1900 H     1 <1>   0.0800 
 42 H       -0.4530    -0.9790     1.8590 H     1 <1>   0.0800 
 43 H       -6.7510    -2.1410    -0.2650 H     1 <1>   0.0800 
 44 H       -8.4940    -1.9700    -0.1940 H     1 <1>   0.0800 
 45 H       -7.4720    -1.0680     0.9050 H     1 <1>   0.0800 
 46 H       -6.8320    -1.5420    -2.7030 H     1 <1>   0.0800 
 47 H       -7.5780    -0.0350    -3.1920 H     1 <1>   0.0800 
 48 H       -8.5710    -1.3500    -2.5990 H     1 <1>   0.0800 
 49 H        2.9790     4.5710     1.4350 H     1 <1>   0.0800 
 50 H        1.6370     4.1220     2.4820 H     1 <1>   0.0800 
 51 H        1.4780     5.4890     1.3630 H     1 <1>   0.0800 
@<TRIPOS>BOND
  1   1   2  2   
  2   2   3  am  
  3   2   4  1   
  4   3   5  1   
  5   3   6  1   
  6   4   7  ar  
  7   4   8  ar  
  8   5   9  1   
  9   5  25  1   
 10   5  26  1   
 11   6  10  1   
 12   6  27  1   
 13   6  28  1   
 14   7  11  ar  
 15   7  29  1   
 16   8  12  ar  
 17   8  30  1   
 18   9  13  1   
 19   9  14  2   
 20  10  15  1   
 21  10  31  1   
 22  10  32  1   
 23  11  16  ar  
 24  11  17  1   
 25  12  16  ar  
 26  12  33  1   
 27  13  18  2   
 28  14  19  1   
 29  14  20  1   
 30  15  21  1   
 31  15  22  1   
 32  15  34  1   
 33  16  23  1   
 34  17  35  1   
 35  17  36  1   
 36  17  37  1   
 37  18  19  1   
 38  18  38  1   
 39  19  39  1   
 40  20  40  1   
 41  20  41  1   
 42  20  42  1   
 43  21  43  1   
 44  21  44  1   
 45  21  45  1   
 46  22  46  1   
 47  22  47  1   
 48  22  48  1   
 49  23  24  1   
 50  24  49  1   
 51  24  50  1   
 52  24  51  1   
@<TRIPOS>SUBSTRUCTURE
  1 ****   2 GROUP 4 **** **** 0

# MOE 2024.06 (io_trps.svl 2023.06)
