@<TRIPOS>MOLECULE
NONAME
54 57 1 0 0 
SMALL
USER_CHARGES


@<TRIPOS>ATOM
  1 O       -0.2370     0.7580    -0.2240 O.2   1 <1>  -0.5700 
  2 C        0.8040     1.1190     0.2730 C.2   1 <1>   0.5690 
  3 N        0.9000     2.2080     1.1100 N.am  1 <1>  -0.6600 
  4 C        2.0520     0.3160    -0.0740 C.3   1 <1>  -0.0990 
  5 C       -0.1630     3.2560     1.3420 C.3   1 <1>   0.2200 
  6 C        2.1120     2.5050     1.9380 C.3   1 <1>   0.1400 
  7 C        1.8710    -0.6380    -1.2650 C.3   1 <1>  -0.0160 
  8 C        0.3170     4.6790     0.9120 C.3   1 <1>   0.1380 
  9 C       -1.6000     2.9750     0.8800 C.3   1 <1>  -0.1600 
 10 C        2.6310     3.9230     1.6580 C.3   1 <1>  -0.1600 
 11 C        3.1750    -1.3580    -1.5670 C.ar  1 <1>  -0.1440 
 12 C        0.7350     4.8420    -0.5790 C.2   1 <1>  -0.2760 
 13 C       -0.8370     5.6840     1.1730 C.3   1 <1>   0.1200 
 14 C        1.5280     4.9860     1.8290 C.3   1 <1>  -0.1600 
 15 C       -2.5510     4.0880     1.3570 C.3   1 <1>   0.1200 
 16 C        4.1450    -0.7990    -2.3750 C.ar  1 <1>  -0.1500 
 17 C        3.4580    -2.6040    -1.0470 C.ar  1 <1>  -0.1500 
 18 C        0.5800     3.9430    -1.5600 C.2   1 <1>  -0.2880 
 19 C        1.3840     6.1800    -0.9510 C.3   1 <1>  -0.0220 
 20 O       -1.8460     5.1310     1.9710 O.3   1 <1>  -0.5600 
 21 C        5.3190    -1.4940    -2.6140 C.ar  1 <1>   0.1600 
 22 C        4.6650    -3.2140    -1.3490 C.ar  1 <1>   0.1600 
 23 C        1.0290     4.1460    -3.0010 C.3   1 <1>   0.2580 
 24 C        1.3820     6.4020    -2.4700 C.3   1 <1>   0.1200 
 25 N        5.6030    -2.6880    -2.1200 N.ar  1 <1>  -0.6200 
 26 O        1.8650     5.2600    -3.1060 O.3   1 <1>  -0.5600 
 27 H        2.8410     1.0020    -0.3160 H     1 <1>   0.0800 
 28 H        2.3420    -0.2540     0.7880 H     1 <1>   0.0800 
 29 H       -0.2640     3.2960     2.4140 H     1 <1>   0.0800 
 30 H        1.8400     2.4290     2.9770 H     1 <1>   0.0800 
 31 H        2.9020     1.7980     1.7650 H     1 <1>   0.0800 
 32 H        1.5570    -0.0800    -2.1300 H     1 <1>   0.0800 
 33 H        1.1010    -1.3560    -1.0430 H     1 <1>   0.0800 
 34 H       -1.9360     2.0370     1.2820 H     1 <1>   0.0800 
 35 H       -1.6610     2.9160    -0.1890 H     1 <1>   0.0800 
 36 H        3.4420     4.1390     2.3310 H     1 <1>   0.0800 
 37 H        3.0240     3.9570     0.6570 H     1 <1>   0.0800 
 38 H       -1.2910     5.9860     0.2450 H     1 <1>   0.0800 
 39 H       -0.4730     6.5640     1.6720 H     1 <1>   0.0800 
 40 H        1.9290     5.9620     1.6350 H     1 <1>   0.0800 
 41 H        1.2010     4.9860     2.8550 H     1 <1>   0.0800 
 42 H       -3.2420     3.6990     2.0850 H     1 <1>   0.0800 
 43 H       -3.1110     4.4930     0.5320 H     1 <1>   0.0800 
 44 H        3.9980     0.1690    -2.8190 H     1 <1>   0.1500 
 45 H        2.7530    -3.1050    -0.4090 H     1 <1>   0.1500 
 46 H        0.1230     2.9830    -1.4360 H     1 <1>   0.1500 
 47 H        2.4030     6.1990    -0.6100 H     1 <1>   0.0800 
 48 H        0.8650     7.0030    -0.4960 H     1 <1>   0.0800 
 49 H        6.0640    -1.0420    -3.2470 H     1 <1>   0.1500 
 50 H        4.8680    -4.1860    -0.9350 H     1 <1>   0.1500 
 51 H        0.1810     4.2910    -3.6470 H     1 <1>   0.0800 
 52 H        1.5890     3.2930    -3.3410 H     1 <1>   0.0800 
 53 H        2.0230     7.2250    -2.7340 H     1 <1>   0.0800 
 54 H        0.3870     6.5990    -2.8300 H     1 <1>   0.0800 
@<TRIPOS>BOND
  1   1   2  2   
  2   2   3  am  
  3   2   4  1   
  4   3   5  1   
  5   3   6  1   
  6   4   7  1   
  7   4  27  1   
  8   4  28  1   
  9   5   8  1   
 10   5   9  1   
 11   5  29  1   
 12   6  10  1   
 13   6  30  1   
 14   6  31  1   
 15   7  11  1   
 16   7  32  1   
 17   7  33  1   
 18   8  12  1   
 19   8  13  1   
 20   8  14  1   
 21   9  15  1   
 22   9  34  1   
 23   9  35  1   
 24  10  14  1   
 25  10  36  1   
 26  10  37  1   
 27  11  16  ar  
 28  11  17  ar  
 29  12  18  2   
 30  12  19  1   
 31  13  20  1   
 32  13  38  1   
 33  13  39  1   
 34  14  40  1   
 35  14  41  1   
 36  15  20  1   
 37  15  42  1   
 38  15  43  1   
 39  16  21  ar  
 40  16  44  1   
 41  17  22  ar  
 42  17  45  1   
 43  18  23  1   
 44  18  46  1   
 45  19  24  1   
 46  19  47  1   
 47  19  48  1   
 48  21  25  ar  
 49  21  49  1   
 50  22  25  ar  
 51  22  50  1   
 52  23  26  1   
 53  23  51  1   
 54  23  52  1   
 55  24  26  1   
 56  24  53  1   
 57  24  54  1   
@<TRIPOS>SUBSTRUCTURE
  1 ****   2 GROUP 4 **** **** 0

# MOE 2024.06 (io_trps.svl 2023.06)
