@<TRIPOS>MOLECULE
NONAME
52 54 1 0 0 
SMALL
USER_CHARGES


@<TRIPOS>ATOM
  1 F        1.7460     4.3650     1.9540 F     1 <1>  -0.1900 
  2 C        1.0320     4.3620     0.8620 C.ar  1 <1>   0.1900 
  3 C       -0.3240     4.6130     0.9580 C.ar  1 <1>  -0.1500 
  4 C        1.6550     4.1110    -0.3430 C.ar  1 <1>  -0.1500 
  5 C       -1.0930     4.6170    -0.2010 C.ar  1 <1>  -0.1440 
  6 C        0.8870     4.1100    -1.4940 C.ar  1 <1>  -0.1500 
  7 C       -0.4750     4.3600    -1.4210 C.ar  1 <1>  -0.1500 
  8 C       -2.5890     4.9090    -0.1680 C.3   1 <1>   0.5660 
  9 N       -2.8300     6.2270     0.4720 N.4   1 <1>  -0.9590 
 10 C       -3.3500     3.8140     0.5900 C.3   1 <1>  -0.1600 
 11 C       -4.2710     6.5990     0.5520 C.3   1 <1>   0.3430 
 12 C       -2.0030     7.3520    -0.1150 C.3   1 <1>   0.4040 
 13 C       -4.8470     4.1310     0.7100 C.3   1 <1>  -0.1600 
 14 C       -5.0440     5.5250     1.3190 C.3   1 <1>  -0.1600 
 15 C       -1.7970     8.5130     0.8710 C.2   1 <1>   0.5690 
 16 O       -2.1050     8.3270     2.0270 O.2   1 <1>  -0.5700 
 17 N       -1.2820     9.6910     0.4420 N.am  1 <1>  -0.7300 
 18 C       -0.8170    10.7800     1.3200 C.3   1 <1>   0.2840 
 19 C        0.6820    10.9130     1.1170 C.ar  1 <1>  -0.1430 
 20 C        1.2000    11.3410    -0.1030 C.ar  1 <1>   0.0830 
 21 C        1.5430    10.5980     2.1570 C.ar  1 <1>  -0.1500 
 22 O        0.3220    11.6260    -1.1030 O.3   1 <1>  -0.3620 
 23 C        2.5790    11.4520    -0.2630 C.ar  1 <1>  -0.1500 
 24 C        2.9120    10.7100     1.9910 C.ar  1 <1>  -0.1500 
 25 C        0.7280    12.3560    -2.2420 C.3   1 <1>   0.0400 
 26 C        3.4290    11.1370     0.7820 C.ar  1 <1>  -0.1500 
 27 H       -0.7420     4.7970     1.9310 H     1 <1>   0.1500 
 28 H        2.7130     3.9190    -0.3750 H     1 <1>   0.1500 
 29 H        1.3520     3.9100    -2.4460 H     1 <1>   0.1500 
 30 H       -1.0460     4.3480    -2.3360 H     1 <1>   0.1500 
 31 H       -2.9580     4.9400    -1.1810 H     1 <1>   0.0800 
 32 H       -2.5050     6.1560     1.4470 H     1 <1>   0.4500 
 33 H       -2.9300     3.6910     1.5720 H     1 <1>   0.0800 
 34 H       -3.2250     2.8790     0.0710 H     1 <1>   0.0800 
 35 H       -4.6810     6.6980    -0.4400 H     1 <1>   0.0800 
 36 H       -4.3790     7.5440     1.0620 H     1 <1>   0.0800 
 37 H       -2.4700     7.7280    -1.0080 H     1 <1>   0.0800 
 38 H       -1.0240     6.9900    -0.3780 H     1 <1>   0.0800 
 39 H       -5.3290     3.3910     1.3280 H     1 <1>   0.0800 
 40 H       -5.3060     4.0940    -0.2640 H     1 <1>   0.0800 
 41 H       -6.0910     5.7730     1.3110 H     1 <1>   0.0800 
 42 H       -4.7240     5.5260     2.3480 H     1 <1>   0.0800 
 43 H       -0.9340     9.8370    -0.5120 H     1 <1>   0.3700 
 44 H       -1.0460    10.5640     2.3500 H     1 <1>   0.0800 
 45 H       -1.3070    11.6990     1.0470 H     1 <1>   0.0800 
 46 H        1.1550    10.2610     3.1030 H     1 <1>   0.1500 
 47 H        3.0110    11.7760    -1.1900 H     1 <1>   0.1500 
 48 H        3.5750    10.4630     2.8030 H     1 <1>   0.1500 
 49 H       -0.1450    12.5790    -2.8280 H     1 <1>   0.0800 
 50 H        1.4110    11.7570    -2.8190 H     1 <1>   0.0800 
 51 H        1.1950    13.2710    -1.9220 H     1 <1>   0.0800 
 52 H        4.4940    11.2230     0.6550 H     1 <1>   0.1500 
@<TRIPOS>BOND
  1   1   2  1   
  2   2   3  ar  
  3   2   4  ar  
  4   3   5  ar  
  5   3  27  1   
  6   4   6  ar  
  7   4  28  1   
  8   5   7  ar  
  9   5   8  1   
 10   6   7  ar  
 11   6  29  1   
 12   7  30  1   
 13   8   9  1   
 14   8  10  1   
 15   8  31  1   
 16   9  11  1   
 17   9  12  1   
 18   9  32  1   
 19  10  13  1   
 20  10  33  1   
 21  10  34  1   
 22  11  14  1   
 23  11  35  1   
 24  11  36  1   
 25  12  15  1   
 26  12  37  1   
 27  12  38  1   
 28  13  14  1   
 29  13  39  1   
 30  13  40  1   
 31  14  41  1   
 32  14  42  1   
 33  15  16  2   
 34  15  17  am  
 35  17  18  1   
 36  17  43  1   
 37  18  19  1   
 38  18  44  1   
 39  18  45  1   
 40  19  20  ar  
 41  19  21  ar  
 42  20  22  1   
 43  20  23  ar  
 44  21  24  ar  
 45  21  46  1   
 46  22  25  1   
 47  23  26  ar  
 48  23  47  1   
 49  24  26  ar  
 50  24  48  1   
 51  25  49  1   
 52  25  50  1   
 53  25  51  1   
 54  26  52  1   
@<TRIPOS>SUBSTRUCTURE
  1 ****  12 GROUP 4 **** **** 0

# MOE 2024.06 (io_trps.svl 2023.06)
