@<TRIPOS>MOLECULE
NONAME
42 43 1 0 0 
SMALL
USER_CHARGES


@<TRIPOS>ATOM
  1 S        0.8180    -0.9220     1.6300 S.o2  1 <1>   1.4470 
  2 O        0.4730    -0.3190     2.8940 O.2   1 <1>  -0.6500 
  3 O        2.0510    -1.6650     1.4940 O.2   1 <1>  -0.6500 
  4 N       -0.4280    -2.0040     1.3330 N.am  1 <1>  -0.9140 
  5 C        0.6280     0.2700     0.2770 C.ar  1 <1>  -0.0090 
  6 C       -0.1080    -3.0550     0.3750 C.3   1 <1>   0.2760 
  7 C       -0.5440     1.0060     0.1390 C.ar  1 <1>  -0.1500 
  8 C        1.6340     0.4660    -0.6620 C.ar  1 <1>  -0.1500 
  9 C       -1.3970    -3.6550    -0.1690 C.3   1 <1>  -0.0800 
 10 C        0.4680    -4.2670     1.1030 C.3   1 <1>   0.1200 
 11 C       -0.7110     1.9020    -0.9030 C.ar  1 <1>  -0.1500 
 12 C        1.4760     1.3620    -1.7060 C.ar  1 <1>  -0.1500 
 13 C       -1.7660    -4.7090     0.8840 C.3   1 <1>   0.1200 
 14 C       -2.5170    -2.6350    -0.4630 C.3   1 <1>  -0.0550 
 15 O       -0.6370    -4.8780     1.6920 O.3   1 <1>  -0.5600 
 16 C        0.3010     2.0800    -1.8280 C.ar  1 <1>  -0.1500 
 17 S       -3.9280    -3.3650    -1.2870 S.o2  1 <1>   1.3330 
 18 O       -3.4710    -3.8620    -2.5650 O.2   1 <1>  -0.6500 
 19 O       -4.6020    -4.2590    -0.3720 O.2   1 <1>  -0.6500 
 20 N       -4.9430    -2.0330    -1.5620 N.am  1 <1>  -0.8490 
 21 C       -5.8080    -2.2280    -2.7290 C.3   1 <1>   0.1160 
 22 C       -5.7550    -1.6700    -0.3950 C.3   1 <1>   0.1160 
 23 H       -0.5720    -2.4810     2.2260 H     1 <1>   0.4200 
 24 H        0.5320    -2.6920    -0.4130 H     1 <1>   0.0800 
 25 H       -1.3350     0.8740     0.8580 H     1 <1>   0.1500 
 26 H        2.5550    -0.0870    -0.5770 H     1 <1>   0.1500 
 27 H       -1.1610    -4.1750    -1.0820 H     1 <1>   0.0800 
 28 H        1.1900    -4.0160     1.8590 H     1 <1>   0.0800 
 29 H        0.9000    -4.9640     0.4050 H     1 <1>   0.0800 
 30 H       -1.6260     2.4630    -0.9920 H     1 <1>   0.1500 
 31 H        2.2680     1.5000    -2.4230 H     1 <1>   0.1500 
 32 H       -2.0170    -5.6540     0.4330 H     1 <1>   0.0800 
 33 H       -2.5740    -4.3850     1.5170 H     1 <1>   0.0800 
 34 H       -2.1200    -1.8600    -1.0890 H     1 <1>   0.0800 
 35 H       -2.8400    -2.1810     0.4520 H     1 <1>   0.0800 
 36 H        0.1760     2.7770    -2.6390 H     1 <1>   0.1500 
 37 H       -6.4260    -1.3610    -2.8870 H     1 <1>   0.0800 
 38 H       -6.4380    -3.0920    -2.5890 H     1 <1>   0.0800 
 39 H       -5.2090    -2.3780    -3.6120 H     1 <1>   0.0800 
 40 H       -6.3120    -0.7720    -0.5980 H     1 <1>   0.0800 
 41 H       -5.1230    -1.4920     0.4580 H     1 <1>   0.0800 
 42 H       -6.4440    -2.4640    -0.1540 H     1 <1>   0.0800 
@<TRIPOS>BOND
  1   1   2  2   
  2   1   3  2   
  3   1   4  am  
  4   1   5  1   
  5   4   6  1   
  6   4  23  1   
  7   5   7  ar  
  8   5   8  ar  
  9   6   9  1   
 10   6  10  1   
 11   6  24  1   
 12   7  11  ar  
 13   7  25  1   
 14   8  12  ar  
 15   8  26  1   
 16   9  13  1   
 17   9  14  1   
 18   9  27  1   
 19  10  15  1   
 20  10  28  1   
 21  10  29  1   
 22  11  16  ar  
 23  11  30  1   
 24  12  16  ar  
 25  12  31  1   
 26  13  15  1   
 27  13  32  1   
 28  13  33  1   
 29  14  17  1   
 30  14  34  1   
 31  14  35  1   
 32  16  36  1   
 33  17  18  2   
 34  17  19  2   
 35  17  20  am  
 36  20  21  1   
 37  20  22  1   
 38  21  37  1   
 39  21  38  1   
 40  21  39  1   
 41  22  40  1   
 42  22  41  1   
 43  22  42  1   
@<TRIPOS>SUBSTRUCTURE
  1 ****  14 GROUP 4 **** **** 0

# MOE 2024.06 (io_trps.svl 2023.06)
