@<TRIPOS>MOLECULE
NONAME
51 54 1 0 0 
SMALL
USER_CHARGES


@<TRIPOS>ATOM
  1 O       -0.9160     0.2390    -2.5980 O.2   1 <1>  -0.5700 
  2 C       -1.5700     0.7730    -1.7190 C.2   1 <1>   0.5440 
  3 N       -2.5590     0.0400    -1.1040 N.am  1 <1>  -0.6600 
  4 C       -1.2970     2.1410    -1.3530 C.ar  1 <1>   0.0860 
  5 C       -3.4240     0.5380    -0.0110 C.3   1 <1>   0.1400 
  6 C       -2.5010    -1.4420    -1.0580 C.3   1 <1>   0.1400 
  7 C       -0.6080     2.4800    -0.1690 C.ar  1 <1>   0.1000 
  8 C       -1.7390     3.1590    -2.1980 C.ar  1 <1>  -0.1500 
  9 C       -3.3320    -0.5510     1.0500 C.3   1 <1>   0.2000 
 10 C       -3.1780    -1.8550     0.2610 C.3   1 <1>  -0.0800 
 11 N       -0.1130     1.5010     0.7100 N.pl3 1 <1>  -0.8380 
 12 C       -0.4130     3.8350     0.1100 C.ar  1 <1>  -0.1500 
 13 C       -1.5340     4.4890    -1.8970 C.ar  1 <1>  -0.1500 
 14 O       -2.1760    -0.3470     1.7820 O.3   1 <1>  -0.6800 
 15 C       -4.5470    -2.5230     0.0290 C.3   1 <1>  -0.0170 
 16 C        0.9240     0.5460     0.1870 C.3   1 <1>   0.2090 
 17 C        0.0700     1.7670     2.1810 C.3   1 <1>   0.2090 
 18 C       -0.8680     4.8270    -0.7330 C.ar  1 <1>  -0.1500 
 19 C       -4.4120    -3.8890    -0.6260 C.ar  1 <1>   0.1670 
 20 C        2.3380     0.9340     0.6530 C.3   1 <1>   0.1200 
 21 C        1.5370     2.0850     2.5260 C.3   1 <1>   0.1200 
 22 N       -4.5700    -3.9380    -1.9380 N.ar  1 <1>  -0.6200 
 23 C       -4.1380    -5.0100     0.1570 C.ar  1 <1>   0.1600 
 24 O        2.3920     1.0870     2.0440 O.3   1 <1>  -0.5600 
 25 C       -4.4340    -5.1660    -2.4110 C.ar  1 <1>   0.1600 
 26 N       -4.0030    -6.2390    -0.3130 N.ar  1 <1>  -0.6200 
 27 C       -4.1600    -6.2780    -1.6250 C.ar  1 <1>   0.1600 
 28 H       -3.1130     1.4930     0.3740 H     1 <1>   0.0800 
 29 H       -4.4330     0.6140    -0.3770 H     1 <1>   0.0800 
 30 H       -2.9960    -1.8490    -1.9230 H     1 <1>   0.0800 
 31 H       -1.4730    -1.7620    -1.0650 H     1 <1>   0.0800 
 32 H       -2.2500     2.8880    -3.1060 H     1 <1>   0.1500 
 33 H       -4.1640    -0.5510     1.7330 H     1 <1>   0.0800 
 34 H       -2.5510    -2.5450     0.7990 H     1 <1>   0.0800 
 35 H        0.1150     4.1290     0.9960 H     1 <1>   0.1500 
 36 H       -1.8850     5.2590    -2.5620 H     1 <1>   0.1500 
 37 H       -1.5130     0.1270     1.2150 H     1 <1>   0.4000 
 38 H       -5.1670    -1.8930    -0.5850 H     1 <1>   0.0800 
 39 H       -5.0470    -2.6470     0.9730 H     1 <1>   0.0800 
 40 H        0.6970    -0.4490     0.5270 H     1 <1>   0.0800 
 41 H        0.9180     0.5350    -0.8880 H     1 <1>   0.0800 
 42 H       -0.5680     2.5730     2.4950 H     1 <1>   0.0800 
 43 H       -0.2180     0.8940     2.7400 H     1 <1>   0.0800 
 44 H       -0.7020     5.8630    -0.4930 H     1 <1>   0.1500 
 45 H        2.6410     1.8580     0.1920 H     1 <1>   0.0800 
 46 H        3.0400     0.1660     0.3800 H     1 <1>   0.0800 
 47 H        1.6620     2.1340     3.5930 H     1 <1>   0.0800 
 48 H        1.8350     3.0260     2.1000 H     1 <1>   0.0800 
 49 H       -4.0230    -4.8840     1.2190 H     1 <1>   0.1500 
 50 H       -4.5460    -5.2980    -3.4730 H     1 <1>   0.1500 
 51 H       -4.0680    -7.2380    -2.1030 H     1 <1>   0.1500 
@<TRIPOS>BOND
  1   1   2  2   
  2   2   3  am  
  3   2   4  1   
  4   3   5  1   
  5   3   6  1   
  6   4   7  ar  
  7   4   8  ar  
  8   5   9  1   
  9   5  28  1   
 10   5  29  1   
 11   6  10  1   
 12   6  30  1   
 13   6  31  1   
 14   7  11  1   
 15   7  12  ar  
 16   8  13  ar  
 17   8  32  1   
 18   9  10  1   
 19   9  14  1   
 20   9  33  1   
 21  10  15  1   
 22  10  34  1   
 23  11  16  1   
 24  11  17  1   
 25  12  18  ar  
 26  12  35  1   
 27  13  18  ar  
 28  13  36  1   
 29  14  37  1   
 30  15  19  1   
 31  15  38  1   
 32  15  39  1   
 33  16  20  1   
 34  16  40  1   
 35  16  41  1   
 36  17  21  1   
 37  17  42  1   
 38  17  43  1   
 39  18  44  1   
 40  19  22  ar  
 41  19  23  ar  
 42  20  24  1   
 43  20  45  1   
 44  20  46  1   
 45  21  24  1   
 46  21  47  1   
 47  21  48  1   
 48  22  25  ar  
 49  23  26  ar  
 50  23  49  1   
 51  25  27  ar  
 52  25  50  1   
 53  26  27  ar  
 54  27  51  1   
@<TRIPOS>SUBSTRUCTURE
  1 ****   3 GROUP 4 **** **** 0

# MOE 2024.06 (io_trps.svl 2023.06)
