@<TRIPOS>MOLECULE
NONAME
49 52 1 0 0 
SMALL
USER_CHARGES


@<TRIPOS>ATOM
  1 S       -0.8950     0.9730    -0.9980 S.3   1 <1>  -0.0800 
  2 C       -1.9810    -0.4030    -0.9560 C.2   1 <1>  -0.1100 
  3 C       -1.5610     1.5990     0.4980 C.2   1 <1>  -0.1100 
  4 C       -2.7820    -0.3490     0.1270 C.2   1 <1>  -0.1810 
  5 C       -2.5350     0.7950     0.9600 C.2   1 <1>  -0.1500 
  6 C       -3.8560    -1.3600     0.4710 C.3   1 <1>   0.5240 
  7 N       -5.1640    -0.6640     0.4310 N.4   1 <1>  -0.9590 
  8 C       -6.2550    -1.4170     1.1420 C.3   1 <1>   0.3430 
  9 C       -5.5000    -0.1450    -0.9360 C.3   1 <1>   0.3430 
 10 C       -7.6190    -0.6760     1.2050 C.3   1 <1>   0.2200 
 11 C       -6.5050     1.0290    -0.9030 C.3   1 <1>  -0.0800 
 12 N       -8.2250    -0.6340    -0.1650 N.am  1 <1>  -0.6600 
 13 C       -7.5240     0.7170     1.8820 C.3   1 <1>   0.1200 
 14 C       -6.3430     2.0320     0.2630 C.3   1 <1>   0.1200 
 15 C       -7.9540     0.5500    -1.0230 C.3   1 <1>   0.1400 
 16 C       -8.5660    -1.8290    -0.7550 C.2   1 <1>   0.7160 
 17 O       -6.3620     1.4200     1.5210 O.3   1 <1>  -0.5600 
 18 O       -8.0270    -2.1100    -1.8070 O.2   1 <1>  -0.5700 
 19 C       -9.4220    -2.7700    -0.0800 C.2   1 <1>  -0.0860 
 20 C       -9.3590    -4.1160     0.0170 C.2   1 <1>  -0.0400 
 21 C      -10.5550    -2.5010     0.6750 C.2   1 <1>   0.1080 
 22 O      -10.3080    -4.6030     0.7780 O.3   1 <1>  -0.0190 
 23 C       -8.3880    -5.1040    -0.6030 C.3   1 <1>  -0.0600 
 24 N      -11.0280    -3.5780     1.1710 N.2   1 <1>  -0.4100 
 25 C      -11.2060    -1.1490     0.8940 C.3   1 <1>  -0.0590 
 26 H       -1.8940    -1.1080    -1.7660 H     1 <1>   0.1500 
 27 H       -1.1400     2.5140     0.8790 H     1 <1>   0.1500 
 28 H       -3.0840     0.9730     1.8700 H     1 <1>   0.1500 
 29 H       -3.6700    -1.7530     1.4570 H     1 <1>   0.0800 
 30 H       -3.8440    -2.1730    -0.2360 H     1 <1>   0.0800 
 31 H       -5.0560     0.2040     0.9890 H     1 <1>   0.4500 
 32 H       -6.4050    -2.3710     0.6640 H     1 <1>   0.0800 
 33 H       -5.9370    -1.6070     2.1540 H     1 <1>   0.0800 
 34 H       -4.5980     0.2170    -1.4020 H     1 <1>   0.0800 
 35 H       -5.8890    -0.9410    -1.5520 H     1 <1>   0.0800 
 36 H       -8.2730    -1.2680     1.8220 H     1 <1>   0.0800 
 37 H       -6.3280     1.5980    -1.7990 H     1 <1>   0.0800 
 38 H       -7.4710     0.5790     2.9480 H     1 <1>   0.0800 
 39 H       -8.3920     1.3200     1.6750 H     1 <1>   0.0800 
 40 H       -7.1170     2.7820     0.2400 H     1 <1>   0.0800 
 41 H       -5.3950     2.5380     0.1750 H     1 <1>   0.0800 
 42 H       -8.1550     0.3000    -2.0530 H     1 <1>   0.0800 
 43 H       -8.6350     1.3420    -0.7610 H     1 <1>   0.0800 
 44 H       -7.6480    -4.6040    -1.1980 H     1 <1>   0.0800 
 45 H       -8.9280    -5.7870    -1.2350 H     1 <1>   0.0800 
 46 H       -7.8970    -5.6680     0.1690 H     1 <1>   0.0800 
 47 H      -11.1890    -0.5750    -0.0140 H     1 <1>   0.0800 
 48 H      -10.6940    -0.6100     1.6690 H     1 <1>   0.0800 
 49 H      -12.2310    -1.2850     1.1920 H     1 <1>   0.0800 
@<TRIPOS>BOND
  1   1   2  1   
  2   1   3  1   
  3   2   4  2   
  4   2  26  1   
  5   3   5  2   
  6   3  27  1   
  7   4   5  1   
  8   4   6  1   
  9   5  28  1   
 10   6   7  1   
 11   6  29  1   
 12   6  30  1   
 13   7   8  1   
 14   7   9  1   
 15   7  31  1   
 16   8  10  1   
 17   8  32  1   
 18   8  33  1   
 19   9  11  1   
 20   9  34  1   
 21   9  35  1   
 22  10  12  1   
 23  10  13  1   
 24  10  36  1   
 25  11  14  1   
 26  11  15  1   
 27  11  37  1   
 28  12  15  1   
 29  12  16  am  
 30  13  17  1   
 31  13  38  1   
 32  13  39  1   
 33  14  17  1   
 34  14  40  1   
 35  14  41  1   
 36  15  42  1   
 37  15  43  1   
 38  16  18  2   
 39  16  19  1   
 40  19  20  2   
 41  19  21  1   
 42  20  22  1   
 43  20  23  1   
 44  21  24  2   
 45  21  25  1   
 46  22  24  1   
 47  23  44  1   
 48  23  45  1   
 49  23  46  1   
 50  25  47  1   
 51  25  48  1   
 52  25  49  1   
@<TRIPOS>SUBSTRUCTURE
  1 ****   8 GROUP 4 **** **** 0

# MOE 2024.06 (io_trps.svl 2023.06)
