@<TRIPOS>MOLECULE
NONAME
50 53 1 0 0 
SMALL
USER_CHARGES


@<TRIPOS>ATOM
  1 CL       0.4280    -2.1970     2.9960 Cl    1 <1>  -0.1770 
  2 C       -0.0920    -3.2850     1.7370 C.ar  1 <1>   0.1770 
  3 C       -1.4050    -3.6530     1.6450 C.ar  1 <1>  -0.1500 
  4 C        0.8620    -3.7630     0.8360 C.ar  1 <1>  -0.1500 
  5 C       -1.8240    -4.5310     0.6260 C.ar  1 <1>   0.0000 
  6 C        0.4690    -4.6200    -0.1590 C.ar  1 <1>  -0.1500 
  7 C       -0.8710    -5.0280    -0.2940 C.ar  1 <1>   0.3100 
  8 C       -3.1560    -4.9460     0.4770 C.ar  1 <1>  -0.1500 
  9 N       -1.1920    -5.8820    -1.2980 N.ar  1 <1>  -0.6200 
 10 C       -3.4540    -5.7960    -0.5430 C.ar  1 <1>  -0.1500 
 11 C       -2.4400    -6.2400    -1.4100 C.ar  1 <1>   0.1670 
 12 C       -2.8150    -7.2010    -2.5380 C.3   1 <1>   0.2540 
 13 N       -3.7010    -8.2850    -2.0690 N.3   1 <1>  -0.8100 
 14 C       -3.1320    -9.1110    -0.9850 C.3   1 <1>   0.1100 
 15 C       -4.3760    -9.0430    -3.1150 C.3   1 <1>   0.1100 
 16 C       -4.0390   -10.3090    -0.5900 C.3   1 <1>   0.4230 
 17 C       -5.5670    -9.8170    -2.5200 C.3   1 <1>  -0.1600 
 18 N       -3.9360   -10.6660     0.8650 N.4   1 <1>  -0.9590 
 19 C       -5.5080   -10.0420    -0.9740 C.3   1 <1>  -0.1060 
 20 C       -4.7240   -11.8720     1.2230 C.3   1 <1>   0.3430 
 21 C       -2.5600   -10.6870     1.4290 C.3   1 <1>   0.2630 
 22 C       -6.0090    -8.8050    -0.1910 C.2   1 <1>   0.9060 
 23 C       -6.3760   -11.2750    -0.6180 C.3   1 <1>  -0.1600 
 24 C       -6.1960   -11.6810     0.8520 C.3   1 <1>  -0.1600 
 25 O       -6.9750    -8.1640    -0.6100 O.co2 1 <1>  -0.9000 
 26 O       -5.4990    -8.5420     0.9150 O.co2 1 <1>  -0.9000 
 27 H       -2.1270    -3.2760     2.3460 H     1 <1>   0.1500 
 28 H        1.8850    -3.4490     0.9410 H     1 <1>   0.1500 
 29 H        1.1760    -5.0070    -0.8700 H     1 <1>   0.1500 
 30 H       -3.9160    -4.6030     1.1570 H     1 <1>   0.1500 
 31 H       -4.4630    -6.1500    -0.6900 H     1 <1>   0.1500 
 32 H       -1.9220    -7.6220    -2.9670 H     1 <1>   0.0800 
 33 H       -3.3200    -6.6350    -3.2990 H     1 <1>   0.0800 
 34 H       -2.1660    -9.4780    -1.2830 H     1 <1>   0.0800 
 35 H       -3.0120    -8.4760    -0.1250 H     1 <1>   0.0800 
 36 H       -4.7420    -8.3710    -3.8750 H     1 <1>   0.0800 
 37 H       -3.6760    -9.7220    -3.5720 H     1 <1>   0.0800 
 38 H       -3.7080   -11.1550    -1.1660 H     1 <1>   0.0800 
 39 H       -6.4720    -9.2880    -2.7650 H     1 <1>   0.0800 
 40 H       -5.6240   -10.7580    -3.0360 H     1 <1>   0.0800 
 41 H       -4.4570    -9.8440     1.2800 H     1 <1>   0.4500 
 42 H       -4.3310   -12.7280     0.7010 H     1 <1>   0.0800 
 43 H       -4.6510   -12.0530     2.2820 H     1 <1>   0.0800 
 44 H       -1.9720   -11.4530     0.9530 H     1 <1>   0.0800 
 45 H       -2.6000   -10.8820     2.4880 H     1 <1>   0.0800 
 46 H       -2.0820    -9.7330     1.2810 H     1 <1>   0.0800 
 47 H       -7.4120   -11.0410    -0.8010 H     1 <1>   0.0800 
 48 H       -6.1100   -12.1090    -1.2440 H     1 <1>   0.0800 
 49 H       -6.7310   -12.5950     1.0380 H     1 <1>   0.0800 
 50 H       -6.6240   -10.9270     1.4920 H     1 <1>   0.0800 
@<TRIPOS>BOND
  1   1   2  1   
  2   2   3  ar  
  3   2   4  ar  
  4   3   5  ar  
  5   3  27  1   
  6   4   6  ar  
  7   4  28  1   
  8   5   7  ar  
  9   5   8  ar  
 10   6   7  ar  
 11   6  29  1   
 12   7   9  ar  
 13   8  10  ar  
 14   8  30  1   
 15   9  11  ar  
 16  10  11  ar  
 17  10  31  1   
 18  11  12  1   
 19  12  13  1   
 20  12  32  1   
 21  12  33  1   
 22  13  14  1   
 23  13  15  1   
 24  14  16  1   
 25  14  34  1   
 26  14  35  1   
 27  15  17  1   
 28  15  36  1   
 29  15  37  1   
 30  16  18  1   
 31  16  19  1   
 32  16  38  1   
 33  17  19  1   
 34  17  39  1   
 35  17  40  1   
 36  18  20  1   
 37  18  21  1   
 38  18  41  1   
 39  19  22  1   
 40  19  23  1   
 41  20  24  1   
 42  20  42  1   
 43  20  43  1   
 44  21  44  1   
 45  21  45  1   
 46  21  46  1   
 47  22  25  ar  
 48  22  26  ar  
 49  23  24  1   
 50  23  47  1   
 51  23  48  1   
 52  24  49  1   
 53  24  50  1   
@<TRIPOS>SUBSTRUCTURE
  1 ****  10 GROUP 4 **** **** 0

# MOE 2024.06 (io_trps.svl 2023.06)
