@<TRIPOS>MOLECULE
NONAME
44 45 1 0 0 
SMALL
USER_CHARGES


@<TRIPOS>ATOM
  1 CL      -1.1310    -0.4490    -1.7470 Cl    1 <1>  -0.1770 
  2 C       -2.1050     0.5640    -0.7000 C.ar  1 <1>   0.1770 
  3 C       -1.9880     1.9450    -0.7930 C.ar  1 <1>   0.0830 
  4 C       -2.9880    -0.0220     0.1940 C.ar  1 <1>  -0.1440 
  5 O       -1.1330     2.5180    -1.6600 O.3   1 <1>  -0.5320 
  6 C       -2.7650     2.7520     0.0190 C.ar  1 <1>  -0.1500 
  7 C       -3.7590     0.7980     1.0080 C.ar  1 <1>  -0.1500 
  8 C       -3.1110    -1.5300     0.2880 C.3   1 <1>   0.4860 
  9 C       -3.6480     2.1770     0.9170 C.ar  1 <1>  -0.1500 
 10 N       -3.7860    -2.0550    -0.9340 N.4   1 <1>  -0.9590 
 11 C       -5.1900    -1.5430    -1.0490 C.3   1 <1>   0.3430 
 12 C       -3.8770    -3.5440    -0.8680 C.3   1 <1>   0.3430 
 13 C       -6.0710    -2.6200    -0.4120 C.3   1 <1>   0.2000 
 14 C       -5.3710    -3.9100    -0.8390 C.3   1 <1>  -0.0800 
 15 O       -6.0000    -2.4860     0.9730 O.3   1 <1>  -0.6800 
 16 C       -5.6830    -5.1560     0.0210 C.3   1 <1>  -0.0550 
 17 S       -4.7800    -6.6010    -0.5300 S.o2  1 <1>   1.3330 
 18 O       -3.3890    -6.3150    -0.2580 O.2   1 <1>  -0.6500 
 19 O       -5.1980    -6.8820    -1.8830 O.2   1 <1>  -0.6500 
 20 N       -5.3250    -7.8250     0.5060 N.am  1 <1>  -0.8490 
 21 C       -6.5330    -8.5040     0.0230 C.3   1 <1>   0.1160 
 22 C       -4.2850    -8.8180     0.7990 C.3   1 <1>   0.1160 
 23 H       -0.5920     1.8750    -2.1580 H     1 <1>   0.4500 
 24 H       -2.6730     3.8220    -0.0550 H     1 <1>   0.1500 
 25 H       -4.4510     0.3750     1.7190 H     1 <1>   0.1500 
 26 H       -3.6790    -1.7940     1.1650 H     1 <1>   0.0800 
 27 H       -2.1270    -1.9620     0.3780 H     1 <1>   0.0800 
 28 H       -4.2480     2.8100     1.5510 H     1 <1>   0.1500 
 29 H       -3.2250    -1.7570    -1.7440 H     1 <1>   0.4500 
 30 H       -5.3250    -0.5890    -0.5670 H     1 <1>   0.0800 
 31 H       -5.4500    -1.4490    -2.0910 H     1 <1>   0.0800 
 32 H       -3.3940    -4.0030    -1.7170 H     1 <1>   0.0800 
 33 H       -3.3980    -3.9040     0.0290 H     1 <1>   0.0800 
 34 H       -7.1010    -2.5510    -0.7230 H     1 <1>   0.0800 
 35 H       -5.6620    -4.1260    -1.8540 H     1 <1>   0.0800 
 36 H       -6.7730    -2.9020     1.4120 H     1 <1>   0.4000 
 37 H       -6.7350    -5.3610    -0.0250 H     1 <1>   0.0800 
 38 H       -5.4280    -4.9690     1.0470 H     1 <1>   0.0800 
 39 H       -6.8810    -9.2100     0.7590 H     1 <1>   0.0800 
 40 H       -6.3290    -9.0300    -0.8960 H     1 <1>   0.0800 
 41 H       -7.3170    -7.7890    -0.1560 H     1 <1>   0.0800 
 42 H       -4.6600    -9.5640     1.4790 H     1 <1>   0.0800 
 43 H       -3.4360    -8.3410     1.2620 H     1 <1>   0.0800 
 44 H       -3.9580    -9.2990    -0.1080 H     1 <1>   0.0800 
@<TRIPOS>BOND
  1   1   2  1   
  2   2   3  ar  
  3   2   4  ar  
  4   3   5  1   
  5   3   6  ar  
  6   4   7  ar  
  7   4   8  1   
  8   5  23  1   
  9   6   9  ar  
 10   6  24  1   
 11   7   9  ar  
 12   7  25  1   
 13   8  10  1   
 14   8  26  1   
 15   8  27  1   
 16   9  28  1   
 17  10  11  1   
 18  10  12  1   
 19  10  29  1   
 20  11  13  1   
 21  11  30  1   
 22  11  31  1   
 23  12  14  1   
 24  12  32  1   
 25  12  33  1   
 26  13  14  1   
 27  13  15  1   
 28  13  34  1   
 29  14  16  1   
 30  14  35  1   
 31  15  36  1   
 32  16  17  1   
 33  16  37  1   
 34  16  38  1   
 35  17  18  2   
 36  17  19  2   
 37  17  20  am  
 38  20  21  1   
 39  20  22  1   
 40  21  39  1   
 41  21  40  1   
 42  21  41  1   
 43  22  42  1   
 44  22  43  1   
 45  22  44  1   
@<TRIPOS>SUBSTRUCTURE
  1 ****  10 GROUP 4 **** **** 0

# MOE 2024.06 (io_trps.svl 2023.06)
