@<TRIPOS>MOLECULE
NONAME
45 47 1 0 0 
SMALL
USER_CHARGES


@<TRIPOS>ATOM
  1 F       -1.5570    -0.2760    -1.5170 F     1 <1>  -0.1900 
  2 C       -2.0690     0.5620    -0.6490 C.ar  1 <1>   0.1900 
  3 C       -1.9660     1.9240    -0.8790 C.ar  1 <1>   0.1900 
  4 C       -2.6970     0.0740     0.4880 C.ar  1 <1>  -0.1440 
  5 F       -1.3690     2.3540    -1.9650 F     1 <1>  -0.1900 
  6 C       -2.4810     2.8470     0.0200 C.ar  1 <1>  -0.1440 
  7 C       -3.2100     0.9960     1.3930 C.ar  1 <1>  -0.1500 
  8 C       -2.8220    -1.4220     0.7440 C.3   1 <1>   0.2540 
  9 C       -3.1040     2.3620     1.1620 C.ar  1 <1>  -0.1500 
 10 C       -2.3690     4.3440    -0.2300 C.3   1 <1>  -0.0970 
 11 N       -3.8920    -2.0150    -0.0830 N.3   1 <1>  -0.8100 
 12 C       -3.9420    -3.4960     0.0390 C.3   1 <1>   0.3330 
 13 C       -5.2180    -1.4350     0.2180 C.3   1 <1>   0.1100 
 14 C       -2.6060    -4.1250    -0.3630 C.ar  1 <1>  -0.1440 
 15 C       -5.1040    -4.0800    -0.8120 C.3   1 <1>   0.2000 
 16 C       -6.3270    -2.0970    -0.6170 C.3   1 <1>   0.1200 
 17 C       -1.9980    -5.0600     0.4630 C.ar  1 <1>  -0.1500 
 18 C       -1.9950    -3.7840    -1.5610 C.ar  1 <1>  -0.1500 
 19 O       -6.3160    -3.4820    -0.4290 O.3   1 <1>  -0.5600 
 20 C       -5.2770    -5.6010    -0.6640 C.3   1 <1>   0.1200 
 21 C       -0.8040    -5.6530     0.0910 C.ar  1 <1>  -0.1500 
 22 C       -0.8000    -4.3740    -1.9330 C.ar  1 <1>  -0.1500 
 23 O       -4.2930    -6.2940    -1.3640 O.3   1 <1>  -0.6800 
 24 C       -0.2050    -5.3110    -1.1080 C.ar  1 <1>  -0.1500 
 25 H       -3.7000     0.6540     2.2880 H     1 <1>   0.1500 
 26 H       -3.0230    -1.6040     1.7850 H     1 <1>   0.0800 
 27 H       -1.8760    -1.8780     0.5080 H     1 <1>   0.0800 
 28 H       -3.5140     3.0490     1.8830 H     1 <1>   0.1500 
 29 H       -2.8220     4.9060     0.5660 H     1 <1>   0.0800 
 30 H       -2.8600     4.5990    -1.1530 H     1 <1>   0.0800 
 31 H       -1.3330     4.6270    -0.3020 H     1 <1>   0.0800 
 32 H       -4.1390    -3.7460     1.0670 H     1 <1>   0.0800 
 33 H       -5.4470    -1.5560     1.2630 H     1 <1>   0.0800 
 34 H       -5.2130    -0.3830    -0.0060 H     1 <1>   0.0800 
 35 H       -4.9450    -3.8540    -1.8530 H     1 <1>   0.0800 
 36 H       -6.1880    -1.8860    -1.6630 H     1 <1>   0.0800 
 37 H       -7.2910    -1.7310    -0.3140 H     1 <1>   0.0800 
 38 H       -2.4510    -5.3380     1.3990 H     1 <1>   0.1500 
 39 H       -2.4500    -3.0490    -2.2050 H     1 <1>   0.1500 
 40 H       -6.2270    -5.9020    -1.0710 H     1 <1>   0.0800 
 41 H       -5.2240    -5.8910     0.3710 H     1 <1>   0.0800 
 42 H       -0.3390    -6.3800     0.7340 H     1 <1>   0.1500 
 43 H       -0.3350    -4.1000    -2.8640 H     1 <1>   0.1500 
 44 H       -3.3990    -5.9350    -1.1600 H     1 <1>   0.4000 
 45 H        0.7240    -5.7710    -1.3980 H     1 <1>   0.1500 
@<TRIPOS>BOND
  1   1   2  1   
  2   2   3  ar  
  3   2   4  ar  
  4   3   5  1   
  5   3   6  ar  
  6   4   7  ar  
  7   4   8  1   
  8   6   9  ar  
  9   6  10  1   
 10   7   9  ar  
 11   7  25  1   
 12   8  11  1   
 13   8  26  1   
 14   8  27  1   
 15   9  28  1   
 16  10  29  1   
 17  10  30  1   
 18  10  31  1   
 19  11  12  1   
 20  11  13  1   
 21  12  14  1   
 22  12  15  1   
 23  12  32  1   
 24  13  16  1   
 25  13  33  1   
 26  13  34  1   
 27  14  17  ar  
 28  14  18  ar  
 29  15  19  1   
 30  15  20  1   
 31  15  35  1   
 32  16  19  1   
 33  16  36  1   
 34  16  37  1   
 35  17  21  ar  
 36  17  38  1   
 37  18  22  ar  
 38  18  39  1   
 39  20  23  1   
 40  20  40  1   
 41  20  41  1   
 42  21  24  ar  
 43  21  42  1   
 44  22  24  ar  
 45  22  43  1   
 46  23  44  1   
 47  24  45  1   
@<TRIPOS>SUBSTRUCTURE
  1 ****  11 GROUP 4 **** **** 0

# MOE 2024.06 (io_trps.svl 2023.06)
