@<TRIPOS>MOLECULE
NONAME
55 56 1 0 0 
SMALL
USER_CHARGES


@<TRIPOS>ATOM
  1 S        0.3090     0.0040    -0.8980 S.o2  1 <1>   1.3330 
  2 O       -0.4360    -1.1890    -1.2120 O.2   1 <1>  -0.6500 
  3 O        1.4030     0.4400    -1.7370 O.2   1 <1>  -0.6500 
  4 N        0.9070    -0.1280     0.6840 N.am  1 <1>  -0.8490 
  5 C       -0.8110     1.4030    -0.7850 C.3   1 <1>  -0.0550 
  6 C        2.1770    -0.8660     0.7170 C.3   1 <1>   0.1160 
  7 C       -0.0390    -0.7870     1.5970 C.3   1 <1>   0.1160 
  8 C       -0.1350     2.6870    -0.2570 C.3   1 <1>  -0.0800 
  9 C       -1.0770     3.8810    -0.2310 C.3   1 <1>   0.2000 
 10 C        1.0380     3.1750    -1.1090 C.3   1 <1>   0.3430 
 11 O       -1.8570     3.8460     0.9130 O.3   1 <1>  -0.6800 
 12 C       -0.1640     5.1100    -0.2750 C.3   1 <1>   0.3430 
 13 N        1.1170     4.6520    -0.9120 N.4   1 <1>  -0.9590 
 14 C        2.3180     5.0650    -0.1360 C.3   1 <1>   0.4860 
 15 C        2.3740     6.5790    -0.1270 C.ar  1 <1>  -0.1440 
 16 C        2.7660     7.2710    -1.2640 C.ar  1 <1>  -0.1500 
 17 C        2.0270     7.2870     1.0150 C.ar  1 <1>  -0.1500 
 18 C        2.7940     8.6540    -1.2620 C.ar  1 <1>  -0.1500 
 19 C        2.0570     8.6700     1.0120 C.ar  1 <1>  -0.1500 
 20 C        2.4360     9.3610    -0.1260 C.ar  1 <1>  -0.1440 
 21 C        2.4710    10.8820    -0.1260 C.3   1 <1>  -0.0170 
 22 C        3.8490    11.3900     0.3130 C.3   1 <1>  -0.1600 
 23 C        3.9080    12.9230     0.3220 C.3   1 <1>  -0.1600 
 24 C        5.2880    13.4170     0.7610 C.3   1 <1>  -0.2400 
 25 H       -1.2260     1.5890    -1.7570 H     1 <1>   0.0800 
 26 H       -1.6270     1.1480    -0.1360 H     1 <1>   0.0800 
 27 H        2.5470    -0.9330     1.7260 H     1 <1>   0.0800 
 28 H        2.9190    -0.3610     0.1210 H     1 <1>   0.0800 
 29 H        2.0430    -1.8620     0.3250 H     1 <1>   0.0800 
 30 H        0.3600    -0.8020     2.5980 H     1 <1>   0.0800 
 31 H       -0.2230    -1.8030     1.2840 H     1 <1>   0.0800 
 32 H       -0.9760    -0.2590     1.6160 H     1 <1>   0.0800 
 33 H        0.2460     2.5060     0.7340 H     1 <1>   0.0800 
 34 H       -1.7350     3.8890    -1.0840 H     1 <1>   0.0800 
 35 H        0.8400     2.9600    -2.1480 H     1 <1>   0.0800 
 36 H        1.9550     2.6790    -0.8290 H     1 <1>   0.0800 
 37 H       -1.3400     3.6930     1.7300 H     1 <1>   0.4000 
 38 H        0.0220     5.4560     0.7280 H     1 <1>   0.0800 
 39 H       -0.6170     5.9040    -0.8470 H     1 <1>   0.0800 
 40 H        1.2000     5.1150    -1.8270 H     1 <1>   0.4500 
 41 H        2.2640     4.6900     0.8730 H     1 <1>   0.0800 
 42 H        3.2120     4.6790    -0.5990 H     1 <1>   0.0800 
 43 H        3.0590     6.7510    -2.1600 H     1 <1>   0.1500 
 44 H        1.7340     6.7800     1.9180 H     1 <1>   0.1500 
 45 H        3.1010     9.1840    -2.1470 H     1 <1>   0.1500 
 46 H        1.7880     9.2130     1.9030 H     1 <1>   0.1500 
 47 H        2.2460    11.2480    -1.1130 H     1 <1>   0.0800 
 48 H        1.7150    11.2600     0.5410 H     1 <1>   0.0800 
 49 H        4.0650    11.0160     1.3000 H     1 <1>   0.0800 
 50 H        4.5970    11.0050    -0.3580 H     1 <1>   0.0800 
 51 H        3.6960    13.3000    -0.6650 H     1 <1>   0.0800 
 52 H        3.1630    13.3110     0.9960 H     1 <1>   0.0800 
 53 H        6.0480    13.0590     0.0890 H     1 <1>   0.0800 
 54 H        5.5140    13.0700     1.7550 H     1 <1>   0.0800 
 55 H        5.3120    14.4920     0.7620 H     1 <1>   0.0800 
@<TRIPOS>BOND
  1   1   2  2   
  2   1   3  2   
  3   1   4  am  
  4   1   5  1   
  5   4   6  1   
  6   4   7  1   
  7   5   8  1   
  8   5  25  1   
  9   5  26  1   
 10   6  27  1   
 11   6  28  1   
 12   6  29  1   
 13   7  30  1   
 14   7  31  1   
 15   7  32  1   
 16   8   9  1   
 17   8  10  1   
 18   8  33  1   
 19   9  11  1   
 20   9  12  1   
 21   9  34  1   
 22  10  13  1   
 23  10  35  1   
 24  10  36  1   
 25  11  37  1   
 26  12  13  1   
 27  12  38  1   
 28  12  39  1   
 29  13  14  1   
 30  13  40  1   
 31  14  15  1   
 32  14  41  1   
 33  14  42  1   
 34  15  16  ar  
 35  15  17  ar  
 36  16  18  ar  
 37  16  43  1   
 38  17  19  ar  
 39  17  44  1   
 40  18  20  ar  
 41  18  45  1   
 42  19  20  ar  
 43  19  46  1   
 44  20  21  1   
 45  21  22  1   
 46  21  47  1   
 47  21  48  1   
 48  22  23  1   
 49  22  49  1   
 50  22  50  1   
 51  23  24  1   
 52  23  51  1   
 53  23  52  1   
 54  24  53  1   
 55  24  54  1   
 56  24  55  1   
@<TRIPOS>SUBSTRUCTURE
  1 ****  14 GROUP 4 **** **** 0

# MOE 2024.06 (io_trps.svl 2023.06)
