@<TRIPOS>MOLECULE
NONAME
44 46 1 0 0 
SMALL
USER_CHARGES


@<TRIPOS>ATOM
  1 O       -0.2820    -0.3340     0.3750 O.2   1 <1>  -0.5700 
  2 C       -0.2700    -1.4450    -0.1180 C.2   1 <1>   0.5440 
  3 N        0.9040    -1.9050    -0.6510 N.am  1 <1>  -0.7300 
  4 C       -1.4690    -2.2550    -0.1290 C.ar  1 <1>   0.0860 
  5 C        2.1790    -1.1610    -0.6850 C.3   1 <1>   0.1400 
  6 C       -2.5480    -1.9330     0.6950 C.ar  1 <1>   0.1600 
  7 C       -1.6280    -3.3750    -0.9440 C.ar  1 <1>  -0.1500 
  8 C        3.3100    -2.1170    -0.3300 C.3   1 <1>  -0.2400 
  9 N       -3.6900    -2.5940     0.7850 N.ar  1 <1>  -0.6200 
 10 C       -2.8080    -4.0730    -0.8650 C.ar  1 <1>  -0.1500 
 11 C       -3.8130    -3.6640     0.0080 C.ar  1 <1>   0.4100 
 12 N       -4.9830    -4.3770     0.0940 N.pl3 1 <1>  -0.8380 
 13 C       -4.9000    -5.7920     0.5750 C.3   1 <1>   0.3900 
 14 C       -6.2550    -3.6660     0.4490 C.3   1 <1>   0.2090 
 15 C       -6.2420    -6.4830     0.3880 C.2   1 <1>  -0.1810 
 16 C       -7.4820    -4.3640    -0.1680 C.3   1 <1>   0.0200 
 17 C       -6.5630    -7.8410     0.5070 C.2   1 <1>   0.2030 
 18 C       -7.3860    -5.8620     0.0590 C.2   1 <1>  -0.3320 
 19 N       -7.8500    -8.0220     0.2510 N.2   1 <1>  -0.7070 
 20 C       -5.6240    -8.8980     0.8590 C.2   1 <1>   0.7160 
 21 N       -8.3410    -6.8050    -0.0270 N.pl3 1 <1>   0.3140 
 22 O       -4.4460    -8.6900     1.0890 O.2   1 <1>  -0.5700 
 23 N       -6.0380   -10.1830     0.9430 N.am  1 <1>  -0.8000 
 24 C       -9.7510    -6.5990    -0.3770 C.3   1 <1>   0.0160 
 25 H        0.9510    -2.8560    -1.0160 H     1 <1>   0.3700 
 26 H        2.1510    -0.3450     0.0200 H     1 <1>   0.0800 
 27 H        2.3280    -0.7540    -1.6710 H     1 <1>   0.0800 
 28 H       -2.4500    -1.0640     1.3240 H     1 <1>   0.1500 
 29 H       -0.8570    -3.6860    -1.6240 H     1 <1>   0.1500 
 30 H        3.1590    -2.5190     0.6560 H     1 <1>   0.0800 
 31 H        4.2450    -1.5860    -0.3390 H     1 <1>   0.0800 
 32 H        3.3680    -2.9180    -1.0440 H     1 <1>   0.0800 
 33 H       -2.9810    -4.9360    -1.4800 H     1 <1>   0.1500 
 34 H       -4.6300    -5.8020     1.6170 H     1 <1>   0.0800 
 35 H       -4.1440    -6.3210     0.0210 H     1 <1>   0.0800 
 36 H       -6.2130    -2.6460     0.1060 H     1 <1>   0.0800 
 37 H       -6.3510    -3.6550     1.5210 H     1 <1>   0.0800 
 38 H       -7.5100    -4.1600    -1.2230 H     1 <1>   0.0800 
 39 H       -8.3730    -3.9680     0.2820 H     1 <1>   0.0800 
 40 H       -5.3910   -10.9280     1.1860 H     1 <1>   0.3700 
 41 H       -7.0170   -10.4060     0.7560 H     1 <1>   0.3700 
 42 H       -9.8080    -6.0980    -1.3240 H     1 <1>   0.0800 
 43 H      -10.2180    -6.0040     0.3840 H     1 <1>   0.0800 
 44 H      -10.2410    -7.5520    -0.4420 H     1 <1>   0.0800 
@<TRIPOS>BOND
  1   1   2  2   
  2   2   3  am  
  3   2   4  1   
  4   3   5  1   
  5   3  25  1   
  6   4   6  ar  
  7   4   7  ar  
  8   5   8  1   
  9   5  26  1   
 10   5  27  1   
 11   6   9  ar  
 12   6  28  1   
 13   7  10  ar  
 14   7  29  1   
 15   8  30  1   
 16   8  31  1   
 17   8  32  1   
 18   9  11  ar  
 19  10  11  ar  
 20  10  33  1   
 21  11  12  1   
 22  12  13  1   
 23  12  14  1   
 24  13  15  1   
 25  13  34  1   
 26  13  35  1   
 27  14  16  1   
 28  14  36  1   
 29  14  37  1   
 30  15  17  1   
 31  15  18  2   
 32  16  18  1   
 33  16  38  1   
 34  16  39  1   
 35  17  19  2   
 36  17  20  1   
 37  18  21  1   
 38  19  21  1   
 39  20  22  2   
 40  20  23  am  
 41  21  24  1   
 42  23  40  1   
 43  23  41  1   
 44  24  42  1   
 45  24  43  1   
 46  24  44  1   
@<TRIPOS>SUBSTRUCTURE
  1 ****  12 GROUP 4 **** **** 0

# MOE 2024.06 (io_trps.svl 2023.06)
