@<TRIPOS>MOLECULE
NONAME
53 55 1 0 0 
SMALL
USER_CHARGES


@<TRIPOS>ATOM
  1 O        0.0020     0.3650    -0.7240 O.2   1 <1>  -0.5700 
  2 C       -1.0380     0.9500    -0.9050 C.2   1 <1>   0.5690 
  3 N       -2.2420     0.3050    -0.8720 N.am  1 <1>  -0.6600 
  4 C       -0.9580     2.4440    -1.1500 C.3   1 <1>  -0.0990 
  5 C       -3.5960     0.9010    -0.9930 C.3   1 <1>   0.1400 
  6 C       -2.3500    -1.1240    -0.4980 C.3   1 <1>   0.1400 
  7 C       -0.8200     3.1970     0.1800 C.3   1 <1>  -0.0220 
  8 C       -4.5570    -0.1300    -0.3910 C.3   1 <1>   0.2000 
  9 C       -3.8380    -1.4650    -0.6060 C.3   1 <1>  -0.0800 
 10 C       -0.6220     4.6990    -0.0550 C.2   1 <1>  -0.1240 
 11 O       -4.6900     0.1040     0.9830 O.3   1 <1>  -0.5600 
 12 C       -4.2710    -2.5950     0.3440 C.3   1 <1>   0.0200 
 13 C       -1.6760     5.5610    -0.1400 C.2   1 <1>  -0.0290 
 14 C        0.6980     5.2390    -0.1930 C.2   1 <1>   0.3750 
 15 C       -5.7270     0.9630     1.3410 C.3   1 <1>   0.0400 
 16 C       -3.5460    -3.8860     0.0150 C.2   1 <1>  -0.0400 
 17 N       -1.3850     6.8770    -0.3410 N.am  1 <1>  -0.5390 
 18 C       -3.1590     5.2400    -0.0420 C.3   1 <1>  -0.1020 
 19 N        0.9410     6.4850    -0.3880 N.2   1 <1>  -0.6610 
 20 C        1.9220     4.3420    -0.1070 C.3   1 <1>  -0.1790 
 21 O       -3.7560    -4.4830    -1.1280 O.3   1 <1>  -0.0190 
 22 C       -2.6520    -4.6110     0.7020 C.2   1 <1>  -0.1500 
 23 C       -0.1150     7.3420    -0.4650 C.2   1 <1>   0.8410 
 24 N       -3.0470    -5.5680    -1.2440 N.2   1 <1>  -0.4100 
 25 C       -2.3720    -5.6710    -0.1560 C.2   1 <1>   0.1080 
 26 O        0.0530     8.5320    -0.6450 O.2   1 <1>  -0.5700 
 27 C       -1.4040    -6.7940     0.1420 C.3   1 <1>  -0.0590 
 28 H       -0.0990     2.6310    -1.7660 H     1 <1>   0.0800 
 29 H       -1.8190     2.7880    -1.6900 H     1 <1>   0.0800 
 30 H       -3.6610     1.8410    -0.4770 H     1 <1>   0.0800 
 31 H       -3.8180     1.0390    -2.0360 H     1 <1>   0.0800 
 32 H       -1.7530    -1.7380    -1.1520 H     1 <1>   0.0800 
 33 H       -2.0040    -1.2420     0.5150 H     1 <1>   0.0800 
 34 H        0.0010     2.7870     0.7400 H     1 <1>   0.0800 
 35 H       -1.6910     3.0210     0.7830 H     1 <1>   0.0800 
 36 H       -5.5290    -0.1200    -0.8550 H     1 <1>   0.0800 
 37 H       -4.0210    -1.7780    -1.6190 H     1 <1>   0.0800 
 38 H       -5.3300    -2.7560     0.2580 H     1 <1>   0.0800 
 39 H       -4.0560    -2.3250     1.3630 H     1 <1>   0.0800 
 40 H       -5.7110     1.0760     2.4110 H     1 <1>   0.0800 
 41 H       -6.6660     0.5310     1.0390 H     1 <1>   0.0800 
 42 H       -5.5810     1.9210     0.8740 H     1 <1>   0.0800 
 43 H       -2.0930     7.6050    -0.4120 H     1 <1>   0.3700 
 44 H       -3.6770     5.6610    -0.8860 H     1 <1>   0.0800 
 45 H       -3.5630     5.6680     0.8580 H     1 <1>   0.0800 
 46 H       -3.3520     4.1860    -0.0330 H     1 <1>   0.0800 
 47 H        1.8500     3.5300    -0.8060 H     1 <1>   0.0800 
 48 H        2.0230     3.9530     0.8880 H     1 <1>   0.0800 
 49 H        2.8110     4.9020    -0.3390 H     1 <1>   0.0800 
 50 H       -2.2300    -4.4450     1.6760 H     1 <1>   0.1500 
 51 H       -1.7120    -7.3160     1.0290 H     1 <1>   0.0800 
 52 H       -0.4170    -6.3940     0.2880 H     1 <1>   0.0800 
 53 H       -1.3810    -7.4860    -0.6800 H     1 <1>   0.0800 
@<TRIPOS>BOND
  1   1   2  2   
  2   2   3  am  
  3   2   4  1   
  4   3   5  1   
  5   3   6  1   
  6   4   7  1   
  7   4  28  1   
  8   4  29  1   
  9   5   8  1   
 10   5  30  1   
 11   5  31  1   
 12   6   9  1   
 13   6  32  1   
 14   6  33  1   
 15   7  10  1   
 16   7  34  1   
 17   7  35  1   
 18   8   9  1   
 19   8  11  1   
 20   8  36  1   
 21   9  12  1   
 22   9  37  1   
 23  10  13  2   
 24  10  14  1   
 25  11  15  1   
 26  12  16  1   
 27  12  38  1   
 28  12  39  1   
 29  13  17  1   
 30  13  18  1   
 31  14  19  2   
 32  14  20  1   
 33  15  40  1   
 34  15  41  1   
 35  15  42  1   
 36  16  21  1   
 37  16  22  2   
 38  17  23  am  
 39  17  43  1   
 40  18  44  1   
 41  18  45  1   
 42  18  46  1   
 43  19  23  1   
 44  20  47  1   
 45  20  48  1   
 46  20  49  1   
 47  21  24  1   
 48  22  25  1   
 49  22  50  1   
 50  23  26  2   
 51  24  25  2   
 52  25  27  1   
 53  27  51  1   
 54  27  52  1   
 55  27  53  1   
@<TRIPOS>SUBSTRUCTURE
  1 ****   3 GROUP 4 **** **** 0

# MOE 2024.06 (io_trps.svl 2023.06)
