@<TRIPOS>MOLECULE
NONAME
12 11 1 0 0 
SMALL
USER_CHARGES


@<TRIPOS>ATOM
  1 C       -3.2120     0.0800    -0.0220 C.2   1 <1>  -0.2760 
  2 C       -1.8800     0.0830     0.0750 C.2   1 <1>  -0.3000 
  3 C       -4.0650    -1.1320     0.3120 C.3   1 <1>  -0.1020 
  4 C       -4.0130     1.2880    -0.4750 C.3   1 <1>  -0.1020 
  5 H       -1.2590     0.9300    -0.1570 H     1 <1>   0.1500 
  6 H       -1.2960    -0.7630     0.3930 H     1 <1>   0.1500 
  7 H       -4.7480    -0.8960     1.1080 H     1 <1>   0.0800 
  8 H       -3.4480    -1.9540     0.6250 H     1 <1>   0.0800 
  9 H       -4.6270    -1.4380    -0.5520 H     1 <1>   0.0800 
 10 H       -4.5740     1.0510    -1.3610 H     1 <1>   0.0800 
 11 H       -3.3600     2.1140    -0.6960 H     1 <1>   0.0800 
 12 H       -4.6950     1.5920     0.2990 H     1 <1>   0.0800 
@<TRIPOS>BOND
  1   1   2  2   
  2   1   3  1   
  3   1   4  1   
  4   2   5  1   
  5   2   6  1   
  6   3   7  1   
  7   3   8  1   
  8   3   9  1   
  9   4  10  1   
 10   4  11  1   
 11   4  12  1   
@<TRIPOS>SUBSTRUCTURE
  1 ****   1 GROUP 4 **** **** 0

# MOE 2024.06 (io_trps.svl 2023.06)
