@<TRIPOS>MOLECULE
NONAME
45 47 1 0 0 
SMALL
USER_CHARGES


@<TRIPOS>ATOM
  1 O       -0.1160    -0.2940     0.7800 O.2   1 <1>  -0.5700 
  2 C        0.5690    -1.0560     0.1250 C.2   1 <1>   0.5440 
  3 N        1.7370    -0.5870    -0.4300 N.am  1 <1>  -0.6600 
  4 C        0.1430    -2.4320    -0.0390 C.ar  1 <1>   0.0860 
  5 C        2.8710    -1.4340    -0.8680 C.3   1 <1>   0.1400 
  6 C        2.1630     0.8230    -0.2800 C.3   1 <1>   0.1400 
  7 C       -0.3100    -3.1880     1.0240 C.ar  1 <1>  -0.1500 
  8 C        0.1420    -3.0850    -1.2640 C.ar  1 <1>  -0.1500 
  9 C        4.1020    -0.5540    -0.6900 C.3   1 <1>  -0.1600 
 10 C        3.5790     0.8710    -0.8420 C.3   1 <1>  -0.1600 
 11 C       -0.7040    -4.5070     0.8500 C.ar  1 <1>   0.4100 
 12 C       -0.2700    -4.4000    -1.3470 C.ar  1 <1>   0.1600 
 13 N       -0.6850    -5.1260    -0.3240 N.ar  1 <1>  -0.6200 
 14 N       -1.1490    -5.2200     1.9400 N.pl3 1 <1>  -0.8690 
 15 C       -1.3510    -6.6900     1.9360 C.3   1 <1>   0.2090 
 16 C       -2.7780    -7.0130     1.4980 C.3   1 <1>   0.0200 
 17 C       -2.9040    -8.4930     1.1950 C.2   1 <1>   0.0070 
 18 N       -3.3210    -9.3690     2.0440 N.2   1 <1>  -0.3380 
 19 N       -2.5880    -9.0550     0.0220 N.pl3 1 <1>   0.0480 
 20 N       -3.2890   -10.5540     1.4320 N.2   1 <1>  -0.3380 
 21 C       -2.8530   -10.3440     0.2390 C.2   1 <1>   0.0360 
 22 C       -2.0610    -8.4390    -1.2150 C.3   1 <1>   0.0960 
 23 C       -3.2050    -7.9790    -2.1220 C.3   1 <1>  -0.2400 
 24 H        2.7430    -1.6840    -1.9070 H     1 <1>   0.0800 
 25 H        2.9410    -2.3330    -0.2790 H     1 <1>   0.0800 
 26 H        2.1610     1.0810     0.7660 H     1 <1>   0.0800 
 27 H        1.4970     1.4800    -0.8120 H     1 <1>   0.0800 
 28 H       -0.3610    -2.7450     2.0000 H     1 <1>   0.1500 
 29 H        0.4570    -2.5600    -2.1470 H     1 <1>   0.1500 
 30 H        4.8710    -0.7900    -1.4050 H     1 <1>   0.0800 
 31 H        4.4920    -0.6960     0.3040 H     1 <1>   0.0800 
 32 H        4.1890     1.5900    -0.3250 H     1 <1>   0.0800 
 33 H        3.5320     1.1350    -1.8840 H     1 <1>   0.0800 
 34 H       -0.2590    -4.8820    -2.3100 H     1 <1>   0.1500 
 35 H       -1.0330    -4.7940     2.8620 H     1 <1>   0.4000 
 36 H       -1.1750    -7.0880     2.9210 H     1 <1>   0.0800 
 37 H       -0.6460    -7.1480     1.2630 H     1 <1>   0.0800 
 38 H       -3.0330    -6.4420     0.6250 H     1 <1>   0.0800 
 39 H       -3.4590    -6.7500     2.2860 H     1 <1>   0.0800 
 40 H       -2.7140   -11.1060    -0.5050 H     1 <1>   0.1500 
 41 H       -1.4530    -9.1620    -1.7280 H     1 <1>   0.0800 
 42 H       -1.4390    -7.6020    -0.9530 H     1 <1>   0.0800 
 43 H       -3.8250    -8.8130    -2.4010 H     1 <1>   0.0800 
 44 H       -2.8040    -7.5370    -3.0170 H     1 <1>   0.0800 
 45 H       -3.8070    -7.2400    -1.6220 H     1 <1>   0.0800 
@<TRIPOS>BOND
  1   1   2  2   
  2   2   3  am  
  3   2   4  1   
  4   3   5  1   
  5   3   6  1   
  6   4   7  ar  
  7   4   8  ar  
  8   5   9  1   
  9   5  24  1   
 10   5  25  1   
 11   6  10  1   
 12   6  26  1   
 13   6  27  1   
 14   7  11  ar  
 15   7  28  1   
 16   8  12  ar  
 17   8  29  1   
 18   9  10  1   
 19   9  30  1   
 20   9  31  1   
 21  10  32  1   
 22  10  33  1   
 23  11  13  ar  
 24  11  14  1   
 25  12  13  ar  
 26  12  34  1   
 27  14  15  1   
 28  14  35  1   
 29  15  16  1   
 30  15  36  1   
 31  15  37  1   
 32  16  17  1   
 33  16  38  1   
 34  16  39  1   
 35  17  18  2   
 36  17  19  1   
 37  18  20  1   
 38  19  21  1   
 39  19  22  1   
 40  20  21  2   
 41  21  40  1   
 42  22  23  1   
 43  22  41  1   
 44  22  42  1   
 45  23  43  1   
 46  23  44  1   
 47  23  45  1   
@<TRIPOS>SUBSTRUCTURE
  1 ****  13 GROUP 4 **** **** 0

# MOE 2024.06 (io_trps.svl 2023.06)
