@<TRIPOS>MOLECULE
NONAME
47 49 1 0 0 
SMALL
USER_CHARGES


@<TRIPOS>ATOM
  1 O       -3.8630     0.2180    -2.1840 O.2   1 <1>  -0.5700 
  2 C       -3.7380     0.5360    -1.0200 C.2   1 <1>   0.7800 
  3 O       -3.8130     1.8330    -0.7140 O.3   1 <1>  -0.4300 
  4 N       -3.5350    -0.3880    -0.0250 N.am  1 <1>  -0.6600 
  5 C       -3.4870     2.3220     0.5660 C.3   1 <1>   0.1200 
  6 C       -3.4810    -0.0310     1.4130 C.3   1 <1>   0.1400 
  7 C       -3.3710    -1.8300    -0.3460 C.3   1 <1>   0.1400 
  8 C       -4.0430     1.3730     1.6250 C.3   1 <1>  -0.1600 
  9 C       -4.7420    -2.4910    -0.5100 C.3   1 <1>   0.1400 
 10 N       -4.5910    -3.9520    -0.7230 N.am  1 <1>  -0.7300 
 11 C       -4.3580    -4.8420     0.2720 C.2   1 <1>   0.5690 
 12 O       -4.2040    -4.4960     1.4170 O.2   1 <1>  -0.5700 
 13 C       -4.2850    -6.3160    -0.0690 C.3   1 <1>  -0.0990 
 14 C       -5.6860    -6.9380    -0.2030 C.3   1 <1>  -0.1600 
 15 C       -5.6160    -8.4440    -0.4970 C.3   1 <1>   0.0200 
 16 C       -7.0010    -9.0480    -0.6340 C.2   1 <1>   0.2980 
 17 O       -7.7310    -8.7190    -1.6680 O.3   1 <1>  -0.0190 
 18 N       -7.5370    -9.8620     0.1750 N.2   1 <1>  -0.5650 
 19 N       -8.8310    -9.3810    -1.5010 N.2   1 <1>  -0.4100 
 20 C       -8.7220   -10.0580    -0.4130 C.2   1 <1>   0.4620 
 21 C       -9.7340   -10.9340     0.1440 C.ar  1 <1>   0.0540 
 22 C      -10.9530   -11.1600    -0.4820 C.ar  1 <1>  -0.1500 
 23 C       -9.5670   -11.6170     1.3420 C.ar  1 <1>  -0.1500 
 24 C      -11.8890   -12.0040     0.0850 C.ar  1 <1>   0.1600 
 25 C      -10.5650   -12.4400     1.8270 C.ar  1 <1>   0.1600 
 26 N      -11.7250   -12.6510     1.2270 N.ar  1 <1>  -0.6200 
 27 H       -3.9120     3.3060     0.6620 H     1 <1>   0.0800 
 28 H       -2.4140     2.3890     0.6310 H     1 <1>   0.0800 
 29 H       -2.4550    -0.0680     1.7380 H     1 <1>   0.0800 
 30 H       -4.0490    -0.7430     1.9890 H     1 <1>   0.0800 
 31 H       -2.8250    -2.3150     0.4450 H     1 <1>   0.0800 
 32 H       -2.8130    -1.9300    -1.2610 H     1 <1>   0.0800 
 33 H       -5.1170     1.3510     1.5610 H     1 <1>   0.0800 
 34 H       -3.7800     1.7220     2.6070 H     1 <1>   0.0800 
 35 H       -5.2590    -2.0570    -1.3480 H     1 <1>   0.0800 
 36 H       -5.3250    -2.3280     0.3810 H     1 <1>   0.0800 
 37 H       -4.6960    -4.2710    -1.6880 H     1 <1>   0.3700 
 38 H       -3.7410    -6.8150     0.7130 H     1 <1>   0.0800 
 39 H       -3.7350    -6.4360    -0.9840 H     1 <1>   0.0800 
 40 H       -6.2260    -6.4410    -0.9900 H     1 <1>   0.0800 
 41 H       -6.2280    -6.7840     0.7160 H     1 <1>   0.0800 
 42 H       -5.1000    -8.9450     0.3040 H     1 <1>   0.0800 
 43 H       -5.0720    -8.6200    -1.4070 H     1 <1>   0.0800 
 44 H      -11.1750   -10.6750    -1.4150 H     1 <1>   0.1500 
 45 H       -8.6550   -11.5050     1.9000 H     1 <1>   0.1500 
 46 H      -12.8250   -12.1560    -0.4260 H     1 <1>   0.1500 
 47 H      -10.4030   -12.9540     2.7590 H     1 <1>   0.1500 
@<TRIPOS>BOND
  1   1   2  2   
  2   2   3  1   
  3   2   4  am  
  4   3   5  1   
  5   4   6  1   
  6   4   7  1   
  7   5   8  1   
  8   5  27  1   
  9   5  28  1   
 10   6   8  1   
 11   6  29  1   
 12   6  30  1   
 13   7   9  1   
 14   7  31  1   
 15   7  32  1   
 16   8  33  1   
 17   8  34  1   
 18   9  10  1   
 19   9  35  1   
 20   9  36  1   
 21  10  11  am  
 22  10  37  1   
 23  11  12  2   
 24  11  13  1   
 25  13  14  1   
 26  13  38  1   
 27  13  39  1   
 28  14  15  1   
 29  14  40  1   
 30  14  41  1   
 31  15  16  1   
 32  15  42  1   
 33  15  43  1   
 34  16  17  1   
 35  16  18  2   
 36  17  19  1   
 37  18  20  1   
 38  19  20  2   
 39  20  21  1   
 40  21  22  ar  
 41  21  23  ar  
 42  22  24  ar  
 43  22  44  1   
 44  23  25  ar  
 45  23  45  1   
 46  24  26  ar  
 47  24  46  1   
 48  25  26  ar  
 49  25  47  1   
@<TRIPOS>SUBSTRUCTURE
  1 ****  14 GROUP 4 **** **** 0

# MOE 2024.06 (io_trps.svl 2023.06)
