@<TRIPOS>MOLECULE
NONAME
47 49 1 0 0 
SMALL
USER_CHARGES


@<TRIPOS>ATOM
  1 O       -1.5660     0.1920     2.4180 O.2   1 <1>  -0.5700 
  2 C       -2.4340     0.7400     1.7660 C.2   1 <1>   0.5440 
  3 N       -3.6950     0.1850     1.6980 N.am  1 <1>  -0.6600 
  4 C       -2.1270     1.9620     1.0740 C.ar  1 <1>   0.0860 
  5 C       -3.9280    -1.1880     2.2350 C.3   1 <1>   0.3200 
  6 C       -4.9340     1.0090     1.4780 C.3   1 <1>   0.1400 
  7 C       -1.7500     1.9540    -0.2760 C.ar  1 <1>   0.0000 
  8 C       -2.2280     3.2110     1.6510 C.ar  1 <1>  -0.1500 
  9 C       -3.9440    -2.1950     1.1040 C.2   1 <1>  -0.3320 
 10 C       -5.1260     1.5760     0.0570 C.3   1 <1>   0.1200 
 11 C       -1.6100     3.1570    -0.9330 C.ar  1 <1>   0.1050 
 12 C       -1.4680     0.9880    -1.2600 C.2   1 <1>   0.1080 
 13 C       -2.0280     4.3720     0.8970 C.ar  1 <1>   0.1660 
 14 N       -4.6780    -2.0690    -0.0160 N.pl3 1 <1>   0.0330 
 15 C       -3.2680    -3.3580     0.9780 C.2   1 <1>   0.0770 
 16 O       -4.9120     0.6090    -0.9130 O.3   1 <1>  -0.6800 
 17 N       -1.7450     4.3760    -0.3810 N.ar  1 <1>  -0.5670 
 18 N       -1.3130     2.8450    -2.2250 N.pl3 1 <1>   0.3140 
 19 N       -1.2350     1.5090    -2.4170 N.2   1 <1>  -0.7070 
 20 C       -1.4070    -0.5100    -1.0350 C.3   1 <1>  -0.0590 
 21 C       -2.1500     5.7270     1.5620 C.3   1 <1>  -0.0970 
 22 C       -4.3980    -3.1630    -0.7540 C.2   1 <1>   0.0070 
 23 N       -3.5600    -3.9660    -0.1870 N.2   1 <1>  -0.5650 
 24 C       -1.0730     3.8060    -3.3080 C.3   1 <1>   0.0160 
 25 C       -5.0040    -3.3980    -2.1200 C.3   1 <1>  -0.0600 
 26 H       -4.8650    -1.2240     2.7630 H     1 <1>   0.0800 
 27 H       -3.1600    -1.4600     2.9380 H     1 <1>   0.0800 
 28 H       -4.9290     1.8290     2.1750 H     1 <1>   0.0800 
 29 H       -5.8020     0.4160     1.7080 H     1 <1>   0.0800 
 30 H       -2.4710     3.2890     2.6950 H     1 <1>   0.1500 
 31 H       -4.4660     2.4030    -0.1340 H     1 <1>   0.0800 
 32 H       -6.1370     1.9290    -0.0530 H     1 <1>   0.0800 
 33 H       -5.2510    -1.2600    -0.2950 H     1 <1>   0.2700 
 34 H       -2.5730    -3.7960     1.6750 H     1 <1>   0.1500 
 35 H       -3.9480     0.5180    -1.0790 H     1 <1>   0.4000 
 36 H       -0.8940    -0.7320    -0.1170 H     1 <1>   0.0800 
 37 H       -0.8740    -0.9790    -1.8420 H     1 <1>   0.0800 
 38 H       -2.3940    -0.9230    -0.9950 H     1 <1>   0.0800 
 39 H       -2.3690     5.6320     2.6090 H     1 <1>   0.0800 
 40 H       -2.9340     6.2910     1.0910 H     1 <1>   0.0800 
 41 H       -1.2250     6.2640     1.4510 H     1 <1>   0.0800 
 42 H       -0.2340     4.4240    -3.0470 H     1 <1>   0.0800 
 43 H       -1.9470     4.4170    -3.4350 H     1 <1>   0.0800 
 44 H       -0.8650     3.2730    -4.2160 H     1 <1>   0.0800 
 45 H       -4.7530    -2.5860    -2.7780 H     1 <1>   0.0800 
 46 H       -6.0720    -3.4750    -2.0400 H     1 <1>   0.0800 
 47 H       -4.6200    -4.3120    -2.5360 H     1 <1>   0.0800 
@<TRIPOS>BOND
  1   1   2  2   
  2   2   3  am  
  3   2   4  1   
  4   3   5  1   
  5   3   6  1   
  6   4   7  ar  
  7   4   8  ar  
  8   5   9  1   
  9   5  26  1   
 10   5  27  1   
 11   6  10  1   
 12   6  28  1   
 13   6  29  1   
 14   7  11  ar  
 15   7  12  1   
 16   8  13  ar  
 17   8  30  1   
 18   9  14  1   
 19   9  15  2   
 20  10  16  1   
 21  10  31  1   
 22  10  32  1   
 23  11  17  ar  
 24  11  18  1   
 25  12  19  2   
 26  12  20  1   
 27  13  17  ar  
 28  13  21  1   
 29  14  22  1   
 30  14  33  1   
 31  15  23  1   
 32  15  34  1   
 33  16  35  1   
 34  18  19  1   
 35  18  24  1   
 36  20  36  1   
 37  20  37  1   
 38  20  38  1   
 39  21  39  1   
 40  21  40  1   
 41  21  41  1   
 42  22  23  2   
 43  22  25  1   
 44  24  42  1   
 45  24  43  1   
 46  24  44  1   
 47  25  45  1   
 48  25  46  1   
 49  25  47  1   
@<TRIPOS>SUBSTRUCTURE
  1 ****   7 GROUP 4 **** **** 0

# MOE 2024.06 (io_trps.svl 2023.06)
