@<TRIPOS>MOLECULE
NONAME
51 53 1 0 0 
SMALL
USER_CHARGES


@<TRIPOS>ATOM
  1 O       -0.3890    -0.0340     0.5460 O.2   1 <1>  -0.5700 
  2 C        0.6930    -0.5470     0.4040 C.2   1 <1>   0.5690 
  3 N        1.8370     0.1480     0.1230 N.am  1 <1>  -0.4940 
  4 C        0.7950    -2.0490     0.5400 C.3   1 <1>  -0.0990 
  5 C        2.0710     1.5330    -0.0610 C.2   1 <1>  -0.0880 
  6 C        0.1550    -2.7510    -0.6610 C.3   1 <1>   0.0210 
  7 N        1.2330     2.4610    -0.6040 N.pl3 1 <1>   0.3140 
  8 C        3.2080     2.1960     0.2530 C.2   1 <1>  -0.1810 
  9 C        0.3380    -4.2520    -0.5350 C.2   1 <1>  -0.1810 
 10 N        1.8050     3.6780    -0.6470 N.2   1 <1>  -0.7070 
 11 C       -0.1020     2.2720    -1.1880 C.3   1 <1>   0.0160 
 12 C        2.9970     3.5250    -0.1340 C.2   1 <1>   0.2350 
 13 C        4.4600     1.6470     0.9190 C.3   1 <1>  -0.0590 
 14 C        1.3560    -5.0200    -1.0940 C.2   1 <1>   0.1080 
 15 C       -0.4290    -5.1370     0.1390 C.2   1 <1>  -0.3320 
 16 C        3.9420     4.6120     0.0110 C.ar  1 <1>   0.0540 
 17 N        1.2420    -6.2730    -0.7970 N.2   1 <1>  -0.7070 
 18 C        2.4860    -4.5080    -1.9580 C.3   1 <1>  -0.0590 
 19 N        0.1390    -6.3510    -0.0380 N.pl3 1 <1>   0.3140 
 20 C       -1.6890    -4.9000     0.9570 C.3   1 <1>  -0.0600 
 21 C        5.2420     4.5260    -0.4850 C.ar  1 <1>  -0.1500 
 22 C        3.5730     5.7900     0.6550 C.ar  1 <1>  -0.1500 
 23 C       -0.3240    -7.6380     0.4930 C.3   1 <1>   0.0160 
 24 C        6.1430     5.5640    -0.3250 C.ar  1 <1>  -0.1500 
 25 C        4.4660     6.8330     0.8190 C.ar  1 <1>  -0.1500 
 26 C        5.7560     6.7200     0.3310 C.ar  1 <1>  -0.1500 
 27 H        2.6880    -0.4110     0.1380 H     1 <1>   0.3700 
 28 H        0.2850    -2.3480     1.4380 H     1 <1>   0.0800 
 29 H        1.8220    -2.3480     0.6280 H     1 <1>   0.0800 
 30 H        0.6020    -2.4060    -1.5770 H     1 <1>   0.0800 
 31 H       -0.8940    -2.5170    -0.7030 H     1 <1>   0.0800 
 32 H       -0.1410     1.3290    -1.6970 H     1 <1>   0.0800 
 33 H       -0.2980     3.0660    -1.8830 H     1 <1>   0.0800 
 34 H       -0.8320     2.2960    -0.4010 H     1 <1>   0.0800 
 35 H        4.2470     0.7230     1.4240 H     1 <1>   0.0800 
 36 H        4.8260     2.3510     1.6450 H     1 <1>   0.0800 
 37 H        5.2240     1.4760     0.1830 H     1 <1>   0.0800 
 38 H        2.9600    -3.6680    -1.4880 H     1 <1>   0.0800 
 39 H        2.1020    -4.2160    -2.9170 H     1 <1>   0.0800 
 40 H        3.2150    -5.2850    -2.0990 H     1 <1>   0.0800 
 41 H       -1.9390    -3.8550     0.9790 H     1 <1>   0.0800 
 42 H       -1.5420    -5.2330     1.9690 H     1 <1>   0.0800 
 43 H       -2.5150    -5.4380     0.5280 H     1 <1>   0.0800 
 44 H        5.5440     3.6370    -1.0070 H     1 <1>   0.1500 
 45 H        2.5660     5.8760     1.0270 H     1 <1>   0.1500 
 46 H       -1.3160    -7.8320     0.1320 H     1 <1>   0.0800 
 47 H       -0.3210    -7.5980     1.5660 H     1 <1>   0.0800 
 48 H        0.3390    -8.4140     0.1600 H     1 <1>   0.0800 
 49 H        7.1430     5.4760    -0.7130 H     1 <1>   0.1500 
 50 H        4.1570     7.7310     1.3230 H     1 <1>   0.1500 
 51 H        6.4540     7.5290     0.4570 H     1 <1>   0.1500 
@<TRIPOS>BOND
  1   1   2  2   
  2   2   3  am  
  3   2   4  1   
  4   3   5  1   
  5   3  27  1   
  6   4   6  1   
  7   4  28  1   
  8   4  29  1   
  9   5   7  1   
 10   5   8  2   
 11   6   9  1   
 12   6  30  1   
 13   6  31  1   
 14   7  10  1   
 15   7  11  1   
 16   8  12  1   
 17   8  13  1   
 18   9  14  1   
 19   9  15  2   
 20  10  12  2   
 21  11  32  1   
 22  11  33  1   
 23  11  34  1   
 24  12  16  1   
 25  13  35  1   
 26  13  36  1   
 27  13  37  1   
 28  14  17  2   
 29  14  18  1   
 30  15  19  1   
 31  15  20  1   
 32  16  21  ar  
 33  16  22  ar  
 34  17  19  1   
 35  18  38  1   
 36  18  39  1   
 37  18  40  1   
 38  19  23  1   
 39  20  41  1   
 40  20  42  1   
 41  20  43  1   
 42  21  24  ar  
 43  21  44  1   
 44  22  25  ar  
 45  22  45  1   
 46  23  46  1   
 47  23  47  1   
 48  23  48  1   
 49  24  26  ar  
 50  24  49  1   
 51  25  26  ar  
 52  25  50  1   
 53  26  51  1   
@<TRIPOS>SUBSTRUCTURE
  1 ****   3 GROUP 4 **** **** 0

# MOE 2024.06 (io_trps.svl 2023.06)
