@<TRIPOS>MOLECULE
NONAME
39 39 1 0 0 
SMALL
USER_CHARGES


@<TRIPOS>ATOM
  1 O       -0.3400     0.0780     0.7220 O.2   1 <1>  -0.5700 
  2 C       -0.5220    -1.0840     0.4720 C.2   1 <1>   0.4950 
  3 C        0.5200    -2.0450     0.1900 C.2   1 <1>  -0.1360 
  4 C       -1.9620    -1.5770     0.4580 C.3   1 <1>  -0.0990 
  5 C        1.8630    -1.9300     0.0980 C.2   1 <1>  -0.2760 
  6 C       -2.5130    -1.8100    -0.9700 C.3   1 <1>  -0.0800 
  7 C        2.7520    -3.1260    -0.2150 C.3   1 <1>  -0.1020 
  8 C        2.6750    -0.6530     0.2830 C.3   1 <1>  -0.1020 
  9 C       -3.9070    -2.4900    -0.9810 C.3   1 <1>   0.0580 
 10 C       -2.5450    -0.4840    -1.7540 C.3   1 <1>  -0.2400 
 11 C       -4.9000    -1.8200    -0.0340 C.2   1 <1>  -0.2880 
 12 C       -3.8030    -4.0000    -0.6670 C.3   1 <1>  -0.1600 
 13 C       -5.7620    -2.4950     0.7420 C.2   1 <1>  -0.1500 
 14 C       -5.1630    -4.6460    -0.3810 C.3   1 <1>   0.3380 
 15 C       -5.8890    -3.9320     0.7550 C.2   1 <1>  -0.1380 
 16 O       -5.9500    -4.5230    -1.5030 O.3   1 <1>  -0.6800 
 17 C       -6.5910    -4.6130     1.6760 C.2   1 <1>  -0.3000 
 18 H        0.1070    -3.0220     0.0290 H     1 <1>   0.1500 
 19 H       -2.0080    -2.4790     1.0370 H     1 <1>   0.0800 
 20 H       -2.5680    -0.8490     0.9670 H     1 <1>   0.0800 
 21 H       -1.8350    -2.4630    -1.4940 H     1 <1>   0.0800 
 22 H        3.3040    -2.9490    -1.1210 H     1 <1>   0.0800 
 23 H        2.1710    -4.0220    -0.3420 H     1 <1>   0.0800 
 24 H        3.4500    -3.2880     0.5870 H     1 <1>   0.0800 
 25 H        3.3650    -0.7700     1.0990 H     1 <1>   0.0800 
 26 H        2.0580     0.1990     0.4950 H     1 <1>   0.0800 
 27 H        3.2330    -0.4390    -0.6110 H     1 <1>   0.0800 
 28 H       -4.3070    -2.4010    -1.9770 H     1 <1>   0.0800 
 29 H       -3.1570     0.2460    -1.2560 H     1 <1>   0.0800 
 30 H       -2.9330    -0.6390    -2.7450 H     1 <1>   0.0800 
 31 H       -1.5540    -0.0760    -1.8510 H     1 <1>   0.0800 
 32 H       -4.8560    -0.7450    -0.0400 H     1 <1>   0.1500 
 33 H       -3.2000    -4.1520     0.2070 H     1 <1>   0.0800 
 34 H       -3.3290    -4.5180    -1.4820 H     1 <1>   0.0800 
 35 H       -6.4240    -1.9710     1.4110 H     1 <1>   0.1500 
 36 H       -5.0510    -5.6970    -0.1740 H     1 <1>   0.0800 
 37 H       -6.3460    -3.6310    -1.4740 H     1 <1>   0.4000 
 38 H       -6.6950    -5.6830     1.6830 H     1 <1>   0.1500 
 39 H       -7.1180    -4.1500     2.4910 H     1 <1>   0.1500 
@<TRIPOS>BOND
  1   1   2  2   
  2   2   3  1   
  3   2   4  1   
  4   3   5  2   
  5   3  18  1   
  6   4   6  1   
  7   4  19  1   
  8   4  20  1   
  9   5   7  1   
 10   5   8  1   
 11   6   9  1   
 12   6  10  1   
 13   6  21  1   
 14   7  22  1   
 15   7  23  1   
 16   7  24  1   
 17   8  25  1   
 18   8  26  1   
 19   8  27  1   
 20   9  11  1   
 21   9  12  1   
 22   9  28  1   
 23  10  29  1   
 24  10  30  1   
 25  10  31  1   
 26  11  13  2   
 27  11  32  1   
 28  12  14  1   
 29  12  33  1   
 30  12  34  1   
 31  13  15  1   
 32  13  35  1   
 33  14  15  1   
 34  14  16  1   
 35  14  36  1   
 36  15  17  2   
 37  16  37  1   
 38  17  38  1   
 39  17  39  1   
@<TRIPOS>SUBSTRUCTURE
  1 ****   6 GROUP 4 **** **** 0

# MOE 2024.06 (io_trps.svl 2023.06)
