@<TRIPOS>MOLECULE
NONAME
50 51 1 0 0 
SMALL
USER_CHARGES


@<TRIPOS>ATOM
  1 F       -3.2430    -1.2680     2.4080 F     1 <1>  -0.1900 
  2 C       -3.3550    -1.5160     1.1300 C.ar  1 <1>   0.1900 
  3 C       -3.8570    -0.5590     0.2460 C.ar  1 <1>   0.0820 
  4 C       -3.0100    -2.7870     0.7120 C.ar  1 <1>  -0.1500 
  5 O       -4.2680     0.6890     0.5810 O.3   1 <1>  -0.3630 
  6 C       -3.9820    -0.9110    -1.0880 C.ar  1 <1>  -0.1500 
  7 C       -3.1830    -3.1360    -0.6220 C.ar  1 <1>  -0.1440 
  8 C       -3.5900     1.4320     1.5750 C.3   1 <1>   0.0400 
  9 C       -3.6470    -2.1830    -1.5210 C.ar  1 <1>  -0.1500 
 10 C       -2.9120    -4.5580    -1.0720 C.3   1 <1>   0.4870 
 11 N       -4.0980    -5.3570    -0.6590 N.4   1 <1>  -0.9590 
 12 C       -3.8270    -6.8240    -0.6450 C.3   1 <1>   0.5240 
 13 C       -5.3860    -5.0290    -1.3770 C.3   1 <1>   0.3430 
 14 C       -4.7870    -7.4300     0.3730 C.2   1 <1>   0.0460 
 15 C       -6.5230    -4.5090    -0.4460 C.3   1 <1>   0.3430 
 16 N       -5.1860    -6.7050     1.4460 N.2   1 <1>  -0.5650 
 17 C       -5.3450    -8.6620     0.3880 C.2   1 <1>  -0.3320 
 18 N       -6.1530    -3.2970     0.3800 N.4   1 <1>  -0.9590 
 19 C       -5.9500    -7.5230     2.1000 C.2   1 <1>   0.0360 
 20 N       -6.0920    -8.7270     1.5080 N.pl3 1 <1>   0.0330 
 21 C       -5.2240    -9.8390    -0.5680 C.3   1 <1>  -0.0600 
 22 C       -6.2110    -3.5920     1.8510 C.3   1 <1>   0.2630 
 23 C       -7.0480    -2.1300     0.0850 C.3   1 <1>   0.2630 
 24 H       -2.6230    -3.4840     1.4380 H     1 <1>   0.1500 
 25 H       -4.3390    -0.1710    -1.7870 H     1 <1>   0.1500 
 26 H       -3.8420     2.4690     1.4480 H     1 <1>   0.0800 
 27 H       -2.5290     1.2990     1.4570 H     1 <1>   0.0800 
 28 H       -3.9120     1.1010     2.5470 H     1 <1>   0.0800 
 29 H       -3.7520    -2.4130    -2.5710 H     1 <1>   0.1500 
 30 H       -2.0200    -4.9240    -0.5870 H     1 <1>   0.0800 
 31 H       -2.7710    -4.6010    -2.1400 H     1 <1>   0.0800 
 32 H       -4.2630    -5.1980     0.3500 H     1 <1>   0.4500 
 33 H       -2.8190    -7.0130    -0.3130 H     1 <1>   0.0800 
 34 H       -3.9670    -7.2650    -1.6180 H     1 <1>   0.0800 
 35 H       -5.7480    -5.9120    -1.8800 H     1 <1>   0.0800 
 36 H       -5.2010    -4.2890    -2.1370 H     1 <1>   0.0800 
 37 H       -6.8230    -5.3130     0.2070 H     1 <1>   0.0800 
 38 H       -7.3770    -4.2730    -1.0590 H     1 <1>   0.0800 
 39 H       -5.1920    -2.9870     0.1510 H     1 <1>   0.4500 
 40 H       -6.4380    -7.2980     3.0350 H     1 <1>   0.1500 
 41 H       -6.6350    -9.5270     1.8550 H     1 <1>   0.2700 
 42 H       -4.5770    -9.6070    -1.3940 H     1 <1>   0.0800 
 43 H       -6.1910   -10.1050    -0.9580 H     1 <1>   0.0800 
 44 H       -4.8190   -10.6940    -0.0540 H     1 <1>   0.0800 
 45 H       -7.2080    -3.8860     2.1380 H     1 <1>   0.0800 
 46 H       -5.9360    -2.7160     2.4180 H     1 <1>   0.0800 
 47 H       -5.5320    -4.3880     2.1090 H     1 <1>   0.0800 
 48 H       -8.0710    -2.3630     0.3370 H     1 <1>   0.0800 
 49 H       -6.9990    -1.8700    -0.9600 H     1 <1>   0.0800 
 50 H       -6.7410    -1.2700     0.6600 H     1 <1>   0.0800 
@<TRIPOS>BOND
  1   1   2  1   
  2   2   3  ar  
  3   2   4  ar  
  4   3   5  1   
  5   3   6  ar  
  6   4   7  ar  
  7   4  24  1   
  8   5   8  1   
  9   6   9  ar  
 10   6  25  1   
 11   7   9  ar  
 12   7  10  1   
 13   8  26  1   
 14   8  27  1   
 15   8  28  1   
 16   9  29  1   
 17  10  11  1   
 18  10  30  1   
 19  10  31  1   
 20  11  12  1   
 21  11  13  1   
 22  11  32  1   
 23  12  14  1   
 24  12  33  1   
 25  12  34  1   
 26  13  15  1   
 27  13  35  1   
 28  13  36  1   
 29  14  16  1   
 30  14  17  2   
 31  15  18  1   
 32  15  37  1   
 33  15  38  1   
 34  16  19  2   
 35  17  20  1   
 36  17  21  1   
 37  18  22  1   
 38  18  23  1   
 39  18  39  1   
 40  19  20  1   
 41  19  40  1   
 42  20  41  1   
 43  21  42  1   
 44  21  43  1   
 45  21  44  1   
 46  22  45  1   
 47  22  46  1   
 48  22  47  1   
 49  23  48  1   
 50  23  49  1   
 51  23  50  1   
@<TRIPOS>SUBSTRUCTURE
  1 ****  11 GROUP 4 **** **** 0

# MOE 2024.06 (io_trps.svl 2023.06)
