@<TRIPOS>MOLECULE
NONAME
50 52 1 0 0 
SMALL
USER_CHARGES


@<TRIPOS>ATOM
  1 CL       2.5070     1.7470    -1.8840 Cl    1 <1>  -0.1770 
  2 C        2.3110     0.2640    -0.9830 C.ar  1 <1>   0.1770 
  3 C        2.6210     0.2230     0.3740 C.ar  1 <1>   0.0860 
  4 C        1.8510    -0.8480    -1.6630 C.ar  1 <1>  -0.1500 
  5 C        3.1130     1.3840     1.0770 C.2   1 <1>   0.5440 
  6 C        2.4390    -0.9910     1.0360 C.ar  1 <1>  -0.1500 
  7 C        1.6850    -2.0440    -0.9860 C.ar  1 <1>  -0.1500 
  8 O        2.3250     2.0880     1.6770 O.2   1 <1>  -0.5700 
  9 N        4.4550     1.6990     1.1020 N.am  1 <1>  -0.6600 
 10 C        1.9790    -2.1120     0.3660 C.ar  1 <1>  -0.1500 
 11 C        5.5260     0.9020     0.4220 C.3   1 <1>   0.1400 
 12 C        4.9530     2.8960     1.8300 C.3   1 <1>   0.1400 
 13 C        6.0580     1.5860    -0.8480 C.3   1 <1>   0.1400 
 14 C        4.8850     4.1490     0.9470 C.3   1 <1>  -0.1600 
 15 N        6.4890     2.9990    -0.5970 N.am  1 <1>  -0.6600 
 16 C        5.3510     3.9570    -0.5040 C.3   1 <1>   0.1400 
 17 C        7.8190     3.3100    -0.4500 C.2   1 <1>   0.5690 
 18 O        8.6650     2.4460    -0.4930 O.2   1 <1>  -0.5700 
 19 C        8.2790     4.7600    -0.2360 C.3   1 <1>  -0.0190 
 20 C        8.5750     5.4400    -1.5880 C.3   1 <1>  -0.1600 
 21 C        9.5080     4.8610     0.6950 C.3   1 <1>  -0.1600 
 22 C        9.0280     6.8970    -1.4050 C.3   1 <1>  -0.1600 
 23 C        9.9570     6.3180     0.8860 C.3   1 <1>  -0.1600 
 24 C       10.2340     6.9810    -0.4650 C.3   1 <1>   0.2000 
 25 O       10.5190     8.3100    -0.2450 O.3   1 <1>  -0.6800 
 26 H        1.6220    -0.7770    -2.7120 H     1 <1>   0.1500 
 27 H        2.6600    -1.0460     2.0880 H     1 <1>   0.1500 
 28 H        1.3260    -2.9160    -1.5060 H     1 <1>   0.1500 
 29 H        1.8460    -3.0400     0.8970 H     1 <1>   0.1500 
 30 H        5.1590    -0.0740     0.1620 H     1 <1>   0.0800 
 31 H        6.3460     0.7580     1.1040 H     1 <1>   0.0800 
 32 H        5.9710     2.7280     2.1360 H     1 <1>   0.0800 
 33 H        4.3680     3.0510     2.7220 H     1 <1>   0.0800 
 34 H        5.2980     1.5730    -1.6070 H     1 <1>   0.0800 
 35 H        6.8860     1.0120    -1.2260 H     1 <1>   0.0800 
 36 H        5.4680     4.9210     1.4120 H     1 <1>   0.0800 
 37 H        3.8670     4.4980     0.9310 H     1 <1>   0.0800 
 38 H        5.6190     4.9040    -0.9360 H     1 <1>   0.0800 
 39 H        4.5250     3.5750    -1.0800 H     1 <1>   0.0800 
 40 H        7.4900     5.3030     0.2460 H     1 <1>   0.0800 
 41 H        7.6960     5.4130    -2.2090 H     1 <1>   0.0800 
 42 H        9.3490     4.8880    -2.0950 H     1 <1>   0.0800 
 43 H       10.3230     4.2950     0.2740 H     1 <1>   0.0800 
 44 H        9.2710     4.4260     1.6510 H     1 <1>   0.0800 
 45 H        8.2110     7.4690    -1.0010 H     1 <1>   0.0800 
 46 H        9.2960     7.3090    -2.3620 H     1 <1>   0.0800 
 47 H       10.8530     6.3380     1.4820 H     1 <1>   0.0800 
 48 H        9.1850     6.8560     1.4070 H     1 <1>   0.0800 
 49 H       11.0970     6.5320    -0.9290 H     1 <1>   0.0800 
 50 H        9.7620     8.7450     0.1860 H     1 <1>   0.4000 
@<TRIPOS>BOND
  1   1   2  1   
  2   2   3  ar  
  3   2   4  ar  
  4   3   5  1   
  5   3   6  ar  
  6   4   7  ar  
  7   4  26  1   
  8   5   8  2   
  9   5   9  am  
 10   6  10  ar  
 11   6  27  1   
 12   7  10  ar  
 13   7  28  1   
 14   9  11  1   
 15   9  12  1   
 16  10  29  1   
 17  11  13  1   
 18  11  30  1   
 19  11  31  1   
 20  12  14  1   
 21  12  32  1   
 22  12  33  1   
 23  13  15  1   
 24  13  34  1   
 25  13  35  1   
 26  14  16  1   
 27  14  36  1   
 28  14  37  1   
 29  15  16  1   
 30  15  17  am  
 31  16  38  1   
 32  16  39  1   
 33  17  18  2   
 34  17  19  1   
 35  19  20  1   
 36  19  21  1   
 37  19  40  1   
 38  20  22  1   
 39  20  41  1   
 40  20  42  1   
 41  21  23  1   
 42  21  43  1   
 43  21  44  1   
 44  22  24  1   
 45  22  45  1   
 46  22  46  1   
 47  23  24  1   
 48  23  47  1   
 49  23  48  1   
 50  24  25  1   
 51  24  49  1   
 52  25  50  1   
@<TRIPOS>SUBSTRUCTURE
  1 ****  15 GROUP 4 **** **** 0

# MOE 2024.06 (io_trps.svl 2023.06)
