@<TRIPOS>MOLECULE
NONAME
53 55 1 0 0 
SMALL
USER_CHARGES


@<TRIPOS>ATOM
  1 O       -0.5400    -1.3840    -2.3200 O.2   1 <1>  -0.5700 
  2 C       -1.1840    -0.3700    -2.1730 C.2   1 <1>   0.5690 
  3 N       -2.3820    -0.3810    -1.5080 N.am  1 <1>  -0.6600 
  4 C       -0.6180     0.9170    -2.7640 C.3   1 <1>   0.0440 
  5 C       -3.1850     0.7960    -1.1080 C.3   1 <1>   0.1400 
  6 C       -2.8890    -1.5870    -0.8160 C.3   1 <1>   0.1400 
  7 C       -0.1920     1.9390    -1.7110 C.ar  1 <1>  -0.1440 
  8 C       -3.7050     0.4350     0.2840 C.3   1 <1>  -0.0800 
  9 C       -3.9130    -1.0900     0.2130 C.3   1 <1>  -0.0800 
 10 C        0.5180     1.5400    -0.5880 C.ar  1 <1>  -0.1500 
 11 C       -0.5270     3.2770    -1.8600 C.ar  1 <1>  -0.1500 
 12 C       -4.9260     1.2580     0.7900 C.3   1 <1>   0.2800 
 13 C       -5.3590    -1.4280    -0.1810 C.3   1 <1>  -0.1600 
 14 C        0.8710     2.4630     0.3790 C.ar  1 <1>  -0.1500 
 15 C       -0.1730     4.2040    -0.8940 C.ar  1 <1>  -0.1500 
 16 O       -5.6660     1.7250    -0.2810 O.3   1 <1>  -0.6800 
 17 C       -5.8650     0.3560     1.6130 C.3   1 <1>  -0.1600 
 18 C       -4.5100     2.4900     1.6240 C.3   1 <1>  -0.1600 
 19 C       -6.3740    -0.8800     0.8400 C.3   1 <1>  -0.1600 
 20 C        0.5270     3.7970     0.2380 C.ar  1 <1>   0.0830 
 21 C       -3.5970     3.5040     0.9100 C.3   1 <1>  -0.2400 
 22 O        0.9020     4.6340     1.2370 O.3   1 <1>  -0.3630 
 23 C        0.6030     6.0090     1.1900 C.3   1 <1>   0.1200 
 24 C        1.1560     6.6560     2.4560 C.3   1 <1>  -0.2400 
 25 H        0.2360     0.6700    -3.3670 H     1 <1>   0.0800 
 26 H       -1.3620     1.3380    -3.4130 H     1 <1>   0.0800 
 27 H       -2.6140     1.7020    -1.0810 H     1 <1>   0.0800 
 28 H       -3.9910     0.9050    -1.8120 H     1 <1>   0.0800 
 29 H       -3.3320    -2.2600    -1.5300 H     1 <1>   0.0800 
 30 H       -2.0710    -2.0860    -0.3240 H     1 <1>   0.0800 
 31 H       -2.8930     0.5920     0.9720 H     1 <1>   0.0800 
 32 H       -3.7040    -1.5420     1.1680 H     1 <1>   0.0800 
 33 H        0.7940     0.5060    -0.4590 H     1 <1>   0.1500 
 34 H       -1.0700     3.6060    -2.7290 H     1 <1>   0.1500 
 35 H       -5.5650    -0.9900    -1.1430 H     1 <1>   0.0800 
 36 H       -5.4830    -2.4930    -0.2770 H     1 <1>   0.0800 
 37 H        1.4180     2.1540     1.2510 H     1 <1>   0.1500 
 38 H       -0.4520     5.2290    -1.0400 H     1 <1>   0.1500 
 39 H       -6.4620     2.1750     0.0520 H     1 <1>   0.4000 
 40 H       -5.3160     0.0100     2.4720 H     1 <1>   0.0800 
 41 H       -6.7010     0.9200     1.9860 H     1 <1>   0.0800 
 42 H       -5.3960     3.0010     1.9570 H     1 <1>   0.0800 
 43 H       -3.9990     2.1500     2.5080 H     1 <1>   0.0800 
 44 H       -6.6210    -1.6510     1.5500 H     1 <1>   0.0800 
 45 H       -7.2780    -0.6250     0.3150 H     1 <1>   0.0800 
 46 H       -4.0310     3.8200    -0.0220 H     1 <1>   0.0800 
 47 H       -2.6280     3.0790     0.7170 H     1 <1>   0.0800 
 48 H       -3.4580     4.3710     1.5310 H     1 <1>   0.0800 
 49 H        1.0670     6.4290     0.3140 H     1 <1>   0.0800 
 50 H       -0.4660     6.1240     1.1410 H     1 <1>   0.0800 
 51 H        2.2220     6.5200     2.5040 H     1 <1>   0.0800 
 52 H        0.6990     6.2160     3.3250 H     1 <1>   0.0800 
 53 H        0.9440     7.7090     2.4510 H     1 <1>   0.0800 
@<TRIPOS>BOND
  1   1   2  2   
  2   2   3  am  
  3   2   4  1   
  4   3   5  1   
  5   3   6  1   
  6   4   7  1   
  7   4  25  1   
  8   4  26  1   
  9   5   8  1   
 10   5  27  1   
 11   5  28  1   
 12   6   9  1   
 13   6  29  1   
 14   6  30  1   
 15   7  10  ar  
 16   7  11  ar  
 17   8   9  1   
 18   8  12  1   
 19   8  31  1   
 20   9  13  1   
 21   9  32  1   
 22  10  14  ar  
 23  10  33  1   
 24  11  15  ar  
 25  11  34  1   
 26  12  16  1   
 27  12  17  1   
 28  12  18  1   
 29  13  19  1   
 30  13  35  1   
 31  13  36  1   
 32  14  20  ar  
 33  14  37  1   
 34  15  20  ar  
 35  15  38  1   
 36  16  39  1   
 37  17  19  1   
 38  17  40  1   
 39  17  41  1   
 40  18  21  1   
 41  18  42  1   
 42  18  43  1   
 43  19  44  1   
 44  19  45  1   
 45  20  22  1   
 46  21  46  1   
 47  21  47  1   
 48  21  48  1   
 49  22  23  1   
 50  23  24  1   
 51  23  49  1   
 52  23  50  1   
 53  24  51  1   
 54  24  52  1   
 55  24  53  1   
@<TRIPOS>SUBSTRUCTURE
  1 ****   5 GROUP 4 **** **** 0

# MOE 2024.06 (io_trps.svl 2023.06)
