@<TRIPOS>MOLECULE
NONAME
42 43 1 0 0 
SMALL
USER_CHARGES


@<TRIPOS>ATOM
  1 S        0.6960    -0.0800    -1.1520 S.o2  1 <1>   1.3330 
  2 O        2.0200    -0.6460    -1.2910 O.2   1 <1>  -0.6500 
  3 O       -0.1610     0.0160    -2.3120 O.2   1 <1>  -0.6500 
  4 N       -0.1450    -1.0010     0.0020 N.am  1 <1>  -0.8490 
  5 C        0.8220     1.5420    -0.3820 C.3   1 <1>  -0.0550 
  6 C       -1.6020    -0.8300    -0.0620 C.3   1 <1>   0.1160 
  7 C        0.1870    -2.4270    -0.0760 C.3   1 <1>   0.1160 
  8 C        1.9240     1.7520     0.6820 C.3   1 <1>  -0.0800 
  9 C        3.3420     1.6990     0.1060 C.3   1 <1>   0.2200 
 10 C        1.9650     0.7600     1.8510 C.3   1 <1>   0.1200 
 11 N        4.0020     3.0080     0.3190 N.am  1 <1>  -0.7300 
 12 C        4.0170     0.6170     0.9440 C.3   1 <1>   0.1200 
 13 O        3.3150     0.6050     2.1450 O.3   1 <1>  -0.5600 
 14 C        3.8750     4.0830    -0.5130 C.2   1 <1>   0.5440 
 15 O        3.1580     3.9680    -1.4870 O.2   1 <1>  -0.5700 
 16 C        4.5700     5.3290    -0.2390 C.ar  1 <1>   0.0860 
 17 C        4.9410     6.1780    -1.2850 C.ar  1 <1>  -0.1500 
 18 C        4.8880     5.7240     1.0680 C.ar  1 <1>  -0.1500 
 19 C        5.6110     7.3630    -1.0450 C.ar  1 <1>   0.0820 
 20 C        5.5590     6.9090     1.3260 C.ar  1 <1>  -0.1500 
 21 O        5.9590     8.1550    -2.0780 O.3   1 <1>  -0.5330 
 22 C        5.9140     7.7140     0.2630 C.ar  1 <1>   0.1900 
 23 F        6.5480     8.8330     0.4990 F     1 <1>  -0.1900 
 24 H        0.9960     2.2630    -1.1590 H     1 <1>   0.0800 
 25 H       -0.1250     1.7890     0.0560 H     1 <1>   0.0800 
 26 H       -2.0720    -1.3580     0.7500 H     1 <1>   0.0800 
 27 H       -1.9850    -1.2090    -0.9960 H     1 <1>   0.0800 
 28 H       -1.8590     0.2120     0.0160 H     1 <1>   0.0800 
 29 H       -0.3560    -2.9800     0.6710 H     1 <1>   0.0800 
 30 H        1.2400    -2.5720     0.1000 H     1 <1>   0.0800 
 31 H       -0.0560    -2.8150    -1.0520 H     1 <1>   0.0800 
 32 H        1.7560     2.7250     1.1080 H     1 <1>   0.0800 
 33 H        3.3720     1.4470    -0.9420 H     1 <1>   0.0800 
 34 H        1.5850    -0.2110     1.5940 H     1 <1>   0.0800 
 35 H        1.4560     1.1300     2.7240 H     1 <1>   0.0800 
 36 H        4.5460     3.0730     1.1800 H     1 <1>   0.3700 
 37 H        5.0580     0.8120     1.1300 H     1 <1>   0.0800 
 38 H        3.9010    -0.3490     0.4830 H     1 <1>   0.0800 
 39 H        4.7020     5.9060    -2.2990 H     1 <1>   0.1500 
 40 H        4.6010     5.1000     1.8960 H     1 <1>   0.1500 
 41 H        5.8020     7.2070     2.3310 H     1 <1>   0.1500 
 42 H        6.4180     8.9650    -1.7810 H     1 <1>   0.4500 
@<TRIPOS>BOND
  1   1   2  2   
  2   1   3  2   
  3   1   4  am  
  4   1   5  1   
  5   4   6  1   
  6   4   7  1   
  7   5   8  1   
  8   5  24  1   
  9   5  25  1   
 10   6  26  1   
 11   6  27  1   
 12   6  28  1   
 13   7  29  1   
 14   7  30  1   
 15   7  31  1   
 16   8   9  1   
 17   8  10  1   
 18   8  32  1   
 19   9  11  1   
 20   9  12  1   
 21   9  33  1   
 22  10  13  1   
 23  10  34  1   
 24  10  35  1   
 25  11  14  am  
 26  11  36  1   
 27  12  13  1   
 28  12  37  1   
 29  12  38  1   
 30  14  15  2   
 31  14  16  1   
 32  16  17  ar  
 33  16  18  ar  
 34  17  19  ar  
 35  17  39  1   
 36  18  20  ar  
 37  18  40  1   
 38  19  21  1   
 39  19  22  ar  
 40  20  22  ar  
 41  20  41  1   
 42  21  42  1   
 43  22  23  1   
@<TRIPOS>SUBSTRUCTURE
  1 ****  11 GROUP 4 **** **** 0

# MOE 2024.06 (io_trps.svl 2023.06)
