@<TRIPOS>MOLECULE
NONAME
57 61 1 0 0 
SMALL
USER_CHARGES


@<TRIPOS>ATOM
  1 S        0.7780    -3.4010    -0.2020 S.3   1 <1>  -0.0800 
  2 C        0.5890    -3.1440    -1.9190 C.2   1 <1>   0.2280 
  3 C       -0.8040    -2.7220     0.0380 C.2   1 <1>  -0.1100 
  4 N       -0.5210    -2.6200    -2.2570 N.2   1 <1>  -0.5650 
  5 C       -1.3220    -2.3710    -1.1520 C.2   1 <1>   0.0460 
  6 C       -2.6690    -1.7330    -1.4730 C.3   1 <1>   0.0210 
  7 C       -3.7480    -1.7230    -0.3560 C.3   1 <1>   0.0610 
  8 C       -3.9690    -3.1710     0.1090 C.2   1 <1>   0.5690 
  9 C       -3.3870    -0.7230     0.7780 C.3   1 <1>   0.2200 
 10 C       -5.0510    -1.0630    -0.9110 C.3   1 <1>  -0.1600 
 11 O       -3.5270    -3.5500     1.1680 O.2   1 <1>  -0.5700 
 12 N       -4.6490    -4.0290    -0.7020 N.am  1 <1>  -0.7300 
 13 N       -3.8020     0.5380     0.1740 N.am  1 <1>  -0.6600 
 14 C       -4.4020    -0.7420     1.9410 C.3   1 <1>  -0.1600 
 15 C       -5.1930     0.2330    -0.0990 C.3   1 <1>   0.2200 
 16 C       -4.8550    -5.4690    -0.4160 C.3   1 <1>   0.1400 
 17 C       -3.0030     1.5530    -0.2820 C.2   1 <1>   0.7150 
 18 C       -5.6650    -0.1180     1.3150 C.3   1 <1>  -0.1600 
 19 C       -6.2010    -5.6760     0.2760 C.3   1 <1>  -0.0170 
 20 O       -1.7990     1.3870    -0.2860 O.2   1 <1>  -0.5700 
 21 C       -3.5720     2.7850    -0.7510 C.2   1 <1>  -0.2370 
 22 C       -6.4350    -7.1550     0.5340 C.ar  1 <1>  -0.1440 
 23 N       -4.6030     3.4230    -0.1190 N.pl3 1 <1>   0.0330 
 24 C       -3.2190     3.5500    -1.8320 C.2   1 <1>  -0.1500 
 25 C       -7.1840    -7.9160    -0.3500 C.ar  1 <1>  -0.1500 
 26 C       -5.8920    -7.7570     1.6590 C.ar  1 <1>  -0.1500 
 27 C       -4.8980     4.5540    -0.8040 C.2   1 <1>  -0.3020 
 28 C       -4.0590     4.6610    -1.8690 C.2   1 <1>  -0.1500 
 29 C       -7.3890    -9.2640    -0.1130 C.ar  1 <1>  -0.1500 
 30 C       -6.0960    -9.1050     1.8980 C.ar  1 <1>  -0.1500 
 31 C       -6.8450    -9.8590     1.0120 C.ar  1 <1>  -0.1500 
 32 H        1.4060    -3.4400    -2.5520 H     1 <1>   0.1500 
 33 H       -1.1650    -2.6650     1.0480 H     1 <1>   0.1500 
 34 H       -2.4760    -0.7330    -1.8170 H     1 <1>   0.0800 
 35 H       -3.0680    -2.2710    -2.3140 H     1 <1>   0.0800 
 36 H       -2.3570    -0.7330     1.0910 H     1 <1>   0.0800 
 37 H       -5.9220    -1.6800    -0.7830 H     1 <1>   0.0800 
 38 H       -4.9630    -0.8170    -1.9550 H     1 <1>   0.0800 
 39 H       -4.9760    -3.7110    -1.6150 H     1 <1>   0.3700 
 40 H       -4.5900    -1.7180     2.3460 H     1 <1>   0.0800 
 41 H       -4.0340    -0.1190     2.7370 H     1 <1>   0.0800 
 42 H       -5.7460     1.0150    -0.5910 H     1 <1>   0.0800 
 43 H       -4.8220    -6.0270    -1.3360 H     1 <1>   0.0800 
 44 H       -4.0640    -5.8300     0.2220 H     1 <1>   0.0800 
 45 H       -5.9500     0.7730     1.8460 H     1 <1>   0.0800 
 46 H       -6.4950    -0.8020     1.3040 H     1 <1>   0.0800 
 47 H       -6.2050    -5.1450     1.2120 H     1 <1>   0.0800 
 48 H       -6.9910    -5.2860    -0.3400 H     1 <1>   0.0800 
 49 H       -5.0500     3.0970     0.7450 H     1 <1>   0.2700 
 50 H       -2.4290     3.3400    -2.5330 H     1 <1>   0.1500 
 51 H       -7.6120    -7.4650    -1.2280 H     1 <1>   0.1500 
 52 H       -5.3070    -7.1780     2.3530 H     1 <1>   0.1500 
 53 H       -5.6790     5.2320    -0.5040 H     1 <1>   0.1500 
 54 H       -4.0260     5.4430    -2.6080 H     1 <1>   0.1500 
 55 H       -7.9720    -9.8500    -0.8020 H     1 <1>   0.1500 
 56 H       -5.6720    -9.5660     2.7730 H     1 <1>   0.1500 
 57 H       -7.0040   -10.9070     1.1970 H     1 <1>   0.1500 
@<TRIPOS>BOND
  1   1   2  1   
  2   1   3  1   
  3   2   4  2   
  4   2  32  1   
  5   3   5  2   
  6   3  33  1   
  7   4   5  1   
  8   5   6  1   
  9   6   7  1   
 10   6  34  1   
 11   6  35  1   
 12   7   8  1   
 13   7   9  1   
 14   7  10  1   
 15   8  11  2   
 16   8  12  am  
 17   9  13  1   
 18   9  14  1   
 19   9  36  1   
 20  10  15  1   
 21  10  37  1   
 22  10  38  1   
 23  12  16  1   
 24  12  39  1   
 25  13  15  1   
 26  13  17  am  
 27  14  18  1   
 28  14  40  1   
 29  14  41  1   
 30  15  18  1   
 31  15  42  1   
 32  16  19  1   
 33  16  43  1   
 34  16  44  1   
 35  17  20  2   
 36  17  21  1   
 37  18  45  1   
 38  18  46  1   
 39  19  22  1   
 40  19  47  1   
 41  19  48  1   
 42  21  23  1   
 43  21  24  2   
 44  22  25  ar  
 45  22  26  ar  
 46  23  27  1   
 47  23  49  1   
 48  24  28  1   
 49  24  50  1   
 50  25  29  ar  
 51  25  51  1   
 52  26  30  ar  
 53  26  52  1   
 54  27  28  2   
 55  27  53  1   
 56  28  54  1   
 57  29  31  ar  
 58  29  55  1   
 59  30  31  ar  
 60  30  56  1   
 61  31  57  1   
@<TRIPOS>SUBSTRUCTURE
  1 ****   7 GROUP 4 **** **** 0

# MOE 2024.06 (io_trps.svl 2023.06)
