@<TRIPOS>MOLECULE
NONAME
47 49 1 0 0 
SMALL
USER_CHARGES


@<TRIPOS>ATOM
  1 S       -0.0130    -0.1600     0.2510 S.o2  1 <1>   1.3330 
  2 O        0.1840    -1.0240     1.3940 O.2   1 <1>  -0.6500 
  3 O       -0.8200     1.0310     0.3890 O.2   1 <1>  -0.6500 
  4 N       -0.6620    -1.1020    -1.0030 N.am  1 <1>  -0.8490 
  5 C        1.5770     0.3290    -0.4190 C.3   1 <1>  -0.0550 
  6 C       -0.2250    -2.5020    -0.9670 C.3   1 <1>   0.1160 
  7 C       -2.1260    -1.0360    -1.0490 C.3   1 <1>   0.1160 
  8 C        2.3610     1.2960     0.4910 C.3   1 <1>  -0.0800 
  9 C        3.5900     1.8300    -0.2220 C.3   1 <1>   0.2200 
 10 C        2.9670     0.5880     1.7110 C.3   1 <1>   0.1200 
 11 N        3.9730     3.1250     0.3810 N.am  1 <1>  -0.7300 
 12 C        4.6370     0.7840     0.1380 C.3   1 <1>   0.1200 
 13 O        4.3220     0.3810     1.4370 O.3   1 <1>  -0.5600 
 14 C        3.9720     4.3190    -0.2730 C.2   1 <1>   0.5440 
 15 O        3.3850     4.4160    -1.3300 O.2   1 <1>  -0.5700 
 16 C        4.7330     5.4280     0.2510 C.ar  1 <1>   0.0860 
 17 C        6.1350     5.4100     0.2350 C.ar  1 <1>  -0.0230 
 18 C        4.0880     6.5410     0.7850 C.ar  1 <1>  -0.1500 
 19 N        6.8300     4.3050    -0.3190 N.pl3 1 <1>   0.3260 
 20 C        6.8470     6.4810     0.7640 C.ar  1 <1>  -0.1500 
 21 C        4.8030     7.6020     1.3060 C.ar  1 <1>  -0.1500 
 22 C        7.7000     3.4780     0.2780 C.2   1 <1>   0.0370 
 23 C        6.7140     3.7360    -1.5290 C.2   1 <1>   0.0370 
 24 C        6.1860     7.5710     1.2990 C.ar  1 <1>  -0.1500 
 25 N        8.0680     2.5100    -0.4850 N.2   1 <1>  -0.3380 
 26 N        7.4340     2.6750    -1.6480 N.2   1 <1>  -0.3380 
 27 H        2.1680    -0.5440    -0.6120 H     1 <1>   0.0800 
 28 H        1.3990     0.8170    -1.3580 H     1 <1>   0.0800 
 29 H       -0.5890    -3.0250    -1.8350 H     1 <1>   0.0800 
 30 H       -0.5980    -2.9900    -0.0810 H     1 <1>   0.0800 
 31 H        0.8500    -2.5560    -0.9640 H     1 <1>   0.0800 
 32 H       -2.5010    -1.6310    -1.8630 H     1 <1>   0.0800 
 33 H       -2.4450    -0.0180    -1.2030 H     1 <1>   0.0800 
 34 H       -2.5460    -1.3940    -0.1230 H     1 <1>   0.0800 
 35 H        1.7060     2.0990     0.7870 H     1 <1>   0.0800 
 36 H        3.4630     1.9300    -1.2880 H     1 <1>   0.0800 
 37 H        2.5140    -0.3650     1.9230 H     1 <1>   0.0800 
 38 H        2.9040     1.2110     2.5860 H     1 <1>   0.0800 
 39 H        4.3990     3.0310     1.3060 H     1 <1>   0.3700 
 40 H        5.6420     1.1650     0.1070 H     1 <1>   0.0800 
 41 H        4.5570    -0.0760    -0.5030 H     1 <1>   0.0800 
 42 H        3.0110     6.5680     0.7850 H     1 <1>   0.1500 
 43 H        7.9250     6.4730     0.7550 H     1 <1>   0.1500 
 44 H        4.2860     8.4530     1.7170 H     1 <1>   0.1500 
 45 H        8.0330     3.6250     1.2890 H     1 <1>   0.1500 
 46 H        6.0720     4.1360    -2.2940 H     1 <1>   0.1500 
 47 H        6.7440     8.3980     1.7060 H     1 <1>   0.1500 
@<TRIPOS>BOND
  1   1   2  2   
  2   1   3  2   
  3   1   4  am  
  4   1   5  1   
  5   4   6  1   
  6   4   7  1   
  7   5   8  1   
  8   5  27  1   
  9   5  28  1   
 10   6  29  1   
 11   6  30  1   
 12   6  31  1   
 13   7  32  1   
 14   7  33  1   
 15   7  34  1   
 16   8   9  1   
 17   8  10  1   
 18   8  35  1   
 19   9  11  1   
 20   9  12  1   
 21   9  36  1   
 22  10  13  1   
 23  10  37  1   
 24  10  38  1   
 25  11  14  am  
 26  11  39  1   
 27  12  13  1   
 28  12  40  1   
 29  12  41  1   
 30  14  15  2   
 31  14  16  1   
 32  16  17  ar  
 33  16  18  ar  
 34  17  19  1   
 35  17  20  ar  
 36  18  21  ar  
 37  18  42  1   
 38  19  22  1   
 39  19  23  1   
 40  20  24  ar  
 41  20  43  1   
 42  21  24  ar  
 43  21  44  1   
 44  22  25  2   
 45  22  45  1   
 46  23  26  2   
 47  23  46  1   
 48  24  47  1   
 49  25  26  1   
@<TRIPOS>SUBSTRUCTURE
  1 ****  11 GROUP 4 **** **** 0

# MOE 2024.06 (io_trps.svl 2023.06)
