@<TRIPOS>MOLECULE
NONAME
60 63 1 0 0 
SMALL
USER_CHARGES


@<TRIPOS>ATOM
  1 O        0.4840    -0.7440    -1.6250 O.2   1 <1>  -0.5700 
  2 C        0.6820    -1.7030    -0.9150 C.2   1 <1>   0.5690 
  3 N        1.7710    -1.7920    -0.1030 N.am  1 <1>  -0.7300 
  4 C       -0.3800    -2.8160    -0.9410 C.3   1 <1>   0.4040 
  5 C        2.8090    -0.7360     0.0300 C.3   1 <1>   0.1400 
  6 N       -1.7490    -2.2850    -1.2950 N.4   1 <1>  -0.9590 
  7 C        4.1150    -1.1980    -0.6150 C.3   1 <1>  -0.0170 
  8 C       -2.2830    -1.4070    -0.1970 C.3   1 <1>   0.3430 
  9 C       -2.7190    -3.3420    -1.6890 C.3   1 <1>   0.3430 
 10 C        5.2080    -0.1660    -0.3740 C.ar  1 <1>  -0.1430 
 11 C       -3.5830    -0.7020    -0.6150 C.3   1 <1>   0.1430 
 12 C       -4.0210    -2.6900    -2.1650 C.3   1 <1>  -0.1600 
 13 C        5.8560    -0.0830     0.8580 C.ar  1 <1>   0.0820 
 14 C        5.5590     0.7060    -1.3930 C.ar  1 <1>  -0.1500 
 15 C       -4.1180     0.0440     0.5820 C.ar  1 <1>   0.1670 
 16 C       -4.6160    -1.7350    -1.1130 C.3   1 <1>  -0.1600 
 17 C       -3.3440     0.4370    -1.6440 C.3   1 <1>  -0.1600 
 18 O        5.4760    -0.9530     1.8330 O.3   1 <1>  -0.3620 
 19 C        6.8510     0.8740     1.0470 C.ar  1 <1>  -0.1500 
 20 C        6.5470     1.6550    -1.1970 C.ar  1 <1>  -0.1500 
 21 N       -4.2400    -0.4710     1.7840 N.ar  1 <1>  -0.6200 
 22 C       -4.4460     1.3280     0.2770 C.ar  1 <1>  -0.1430 
 23 C       -4.1850     1.6420    -1.1750 C.3   1 <1>  -0.0170 
 24 C        6.1300    -0.9920     3.0830 C.3   1 <1>   0.0400 
 25 C        7.1930     1.7380     0.0230 C.ar  1 <1>  -0.1500 
 26 C       -4.7320     0.3710     2.6850 C.ar  1 <1>   0.4770 
 27 C       -4.9390     2.1150     1.2880 C.ar  1 <1>   0.1600 
 28 N       -5.0850     1.6370     2.5070 N.ar  1 <1>  -0.6200 
 29 C       -4.9050    -0.1670     4.0840 C.3   1 <1>  -0.0970 
 30 H        1.9500    -2.6120     0.4840 H     1 <1>   0.3700 
 31 H       -0.4100    -3.2990     0.0210 H     1 <1>   0.0800 
 32 H       -0.0750    -3.5410    -1.6750 H     1 <1>   0.0800 
 33 H        2.9730    -0.5290     1.0750 H     1 <1>   0.0800 
 34 H        2.4820     0.1760    -0.4410 H     1 <1>   0.0800 
 35 H       -1.5840    -1.6570    -2.1010 H     1 <1>   0.4500 
 36 H        3.9640    -1.3320    -1.6710 H     1 <1>   0.0800 
 37 H        4.4220    -2.1400    -0.1960 H     1 <1>   0.0800 
 38 H       -1.5560    -0.6580     0.0710 H     1 <1>   0.0800 
 39 H       -2.4860    -2.0030     0.6780 H     1 <1>   0.0800 
 40 H       -2.9270    -3.9800    -0.8440 H     1 <1>   0.0800 
 41 H       -2.3100    -3.9480    -2.4810 H     1 <1>   0.0800 
 42 H       -4.7380    -3.4640    -2.3810 H     1 <1>   0.0800 
 43 H       -3.8390    -2.1660    -3.0870 H     1 <1>   0.0800 
 44 H        5.0650     0.6550    -2.3480 H     1 <1>   0.1500 
 45 H       -5.4780    -1.2300    -1.5160 H     1 <1>   0.0800 
 46 H       -4.9560    -2.3170    -0.2720 H     1 <1>   0.0800 
 47 H       -3.6020     0.1580    -2.6500 H     1 <1>   0.0800 
 48 H       -2.3080     0.7300    -1.6290 H     1 <1>   0.0800 
 49 H        7.3680     0.9650     1.9820 H     1 <1>   0.1500 
 50 H        6.8130     2.3270    -1.9940 H     1 <1>   0.1500 
 51 H       -5.1190     1.6890    -1.7070 H     1 <1>   0.0800 
 52 H       -3.6510     2.5700    -1.2930 H     1 <1>   0.0800 
 53 H        5.6840    -1.7730     3.6710 H     1 <1>   0.0800 
 54 H        6.0000    -0.0440     3.5750 H     1 <1>   0.0800 
 55 H        7.1730    -1.2050     2.9240 H     1 <1>   0.0800 
 56 H        7.9610     2.4760     0.1730 H     1 <1>   0.1500 
 57 H       -5.2160     3.1390     1.1040 H     1 <1>   0.1500 
 58 H       -4.9130    -1.2410     4.0770 H     1 <1>   0.0800 
 59 H       -5.8340     0.1840     4.4950 H     1 <1>   0.0800 
 60 H       -4.0970     0.1770     4.7000 H     1 <1>   0.0800 
@<TRIPOS>BOND
  1   1   2  2   
  2   2   3  am  
  3   2   4  1   
  4   3   5  1   
  5   3  30  1   
  6   4   6  1   
  7   4  31  1   
  8   4  32  1   
  9   5   7  1   
 10   5  33  1   
 11   5  34  1   
 12   6   8  1   
 13   6   9  1   
 14   6  35  1   
 15   7  10  1   
 16   7  36  1   
 17   7  37  1   
 18   8  11  1   
 19   8  38  1   
 20   8  39  1   
 21   9  12  1   
 22   9  40  1   
 23   9  41  1   
 24  10  13  ar  
 25  10  14  ar  
 26  11  15  1   
 27  11  16  1   
 28  11  17  1   
 29  12  16  1   
 30  12  42  1   
 31  12  43  1   
 32  13  18  1   
 33  13  19  ar  
 34  14  20  ar  
 35  14  44  1   
 36  15  21  ar  
 37  15  22  ar  
 38  16  45  1   
 39  16  46  1   
 40  17  23  1   
 41  17  47  1   
 42  17  48  1   
 43  18  24  1   
 44  19  25  ar  
 45  19  49  1   
 46  20  25  ar  
 47  20  50  1   
 48  21  26  ar  
 49  22  23  1   
 50  22  27  ar  
 51  23  51  1   
 52  23  52  1   
 53  24  53  1   
 54  24  54  1   
 55  24  55  1   
 56  25  56  1   
 57  26  28  ar  
 58  26  29  1   
 59  27  28  ar  
 60  27  57  1   
 61  29  58  1   
 62  29  59  1   
 63  29  60  1   
@<TRIPOS>SUBSTRUCTURE
  1 ****   2 GROUP 4 **** **** 0

# MOE 2024.06 (io_trps.svl 2023.06)
