@<TRIPOS>MOLECULE
NONAME
36 38 1 0 0 
SMALL
USER_CHARGES


@<TRIPOS>ATOM
  1 O        2.4270     0.4310     2.5820 O.2   1 <1>  -0.5700 
  2 C        2.5100    -0.4000     1.6890 C.2   1 <1>   0.5650 
  3 N        2.8140    -0.0560     0.3460 N.pl3 1 <1>   0.5610 
  4 C        2.2970    -1.7840     1.9680 C.2   1 <1>  -0.1360 
  5 N        3.0490     1.1250    -0.2760 N.2   1 <1>  -0.7070 
  6 C        2.8860    -1.0210    -0.6050 C.2   1 <1>   0.2700 
  7 C        2.3820    -2.7370     1.0030 C.2   1 <1>  -0.0380 
  8 C        3.2350     0.7660    -1.5010 C.2   1 <1>   0.3660 
  9 N        3.1460    -0.5460    -1.7690 N.2   1 <1>  -0.5650 
 10 N        2.6830    -2.3530    -0.2850 N.pl3 1 <1>  -0.5840 
 11 C        2.1590    -4.2270     1.2470 C.3   1 <1>   0.2480 
 12 N        1.3250    -4.8130     0.1830 N.3   1 <1>  -0.8100 
 13 C       -0.0600    -4.2900     0.2160 C.3   1 <1>   0.1100 
 14 C        1.2890    -6.2860     0.2910 C.3   1 <1>   0.1100 
 15 C       -0.9490    -4.9750    -0.8440 C.3   1 <1>   0.2000 
 16 C        0.3590    -6.9090    -0.7730 C.3   1 <1>   0.2000 
 17 O       -0.9190    -6.3590    -0.6700 O.3   1 <1>  -0.5600 
 18 C       -2.4090    -4.5430    -0.7340 C.3   1 <1>  -0.2400 
 19 C        0.2110    -8.4170    -0.5950 C.3   1 <1>  -0.2400 
 20 H        2.0640    -2.0250     2.9890 H     1 <1>   0.1500 
 21 H        3.4530     1.4680    -2.2910 H     1 <1>   0.1500 
 22 H        2.6500    -3.0510    -1.0430 H     1 <1>   0.4000 
 23 H        1.7010    -4.3880     2.2090 H     1 <1>   0.0800 
 24 H        3.1190    -4.7140     1.2460 H     1 <1>   0.0800 
 25 H       -0.4920    -4.4520     1.1890 H     1 <1>   0.0800 
 26 H       -0.0520    -3.2310     0.0250 H     1 <1>   0.0800 
 27 H        2.2820    -6.6780     0.1570 H     1 <1>   0.0800 
 28 H        0.9400    -6.5760     1.2670 H     1 <1>   0.0800 
 29 H       -0.5790    -4.7490    -1.8300 H     1 <1>   0.0800 
 30 H        0.7400    -6.6970    -1.7580 H     1 <1>   0.0800 
 31 H       -2.8000    -4.7940     0.2350 H     1 <1>   0.0800 
 32 H       -2.9910    -5.0370    -1.4910 H     1 <1>   0.0800 
 33 H       -2.4910    -3.4810    -0.8790 H     1 <1>   0.0800 
 34 H       -0.2020    -8.6400     0.3720 H     1 <1>   0.0800 
 35 H        1.1690    -8.8960    -0.6830 H     1 <1>   0.0800 
 36 H       -0.4380    -8.8090    -1.3560 H     1 <1>   0.0800 
@<TRIPOS>BOND
  1   1   2  2   
  2   2   3  1   
  3   2   4  1   
  4   3   5  1   
  5   3   6  1   
  6   4   7  2   
  7   4  20  1   
  8   5   8  2   
  9   6   9  2   
 10   6  10  1   
 11   7  10  1   
 12   7  11  1   
 13   8   9  1   
 14   8  21  1   
 15  10  22  1   
 16  11  12  1   
 17  11  23  1   
 18  11  24  1   
 19  12  13  1   
 20  12  14  1   
 21  13  15  1   
 22  13  25  1   
 23  13  26  1   
 24  14  16  1   
 25  14  27  1   
 26  14  28  1   
 27  15  17  1   
 28  15  18  1   
 29  15  29  1   
 30  16  17  1   
 31  16  19  1   
 32  16  30  1   
 33  18  31  1   
 34  18  32  1   
 35  18  33  1   
 36  19  34  1   
 37  19  35  1   
 38  19  36  1   
@<TRIPOS>SUBSTRUCTURE
  1 ****   7 GROUP 4 **** **** 0

# MOE 2024.06 (io_trps.svl 2023.06)
