@<TRIPOS>MOLECULE
STOCK7S-73894
48 49 1 0 0 
SMALL
USER_CHARGES


@<TRIPOS>ATOM
  1 O       -7.2480     3.0070     0.1850 O.3   1 <1>  -0.6800 
  2 C       -6.0130     2.5960    -0.2500 C.3   1 <1>   0.2000 
  3 C       -5.3100     1.9010     0.9150 C.3   1 <1>  -0.1600 
  4 C       -5.2620     3.8460    -0.7000 C.3   1 <1>  -0.1600 
  5 C       -3.8400     1.6440     0.5910 C.3   1 <1>   0.3430 
  6 C       -3.7980     3.5350    -0.9840 C.3   1 <1>   0.3430 
  7 N       -3.1690     2.9300     0.2310 N.4   1 <1>  -0.9590 
  8 C       -1.7000     2.7290     0.0840 C.3   1 <1>   0.3430 
  9 C       -0.9560     4.0730     0.1300 C.3   1 <1>  -0.1600 
 10 C        0.5740     3.8830     0.1060 C.3   1 <1>  -0.1600 
 11 C        1.3120     5.2290     0.1760 C.3   1 <1>   0.3430 
 12 N        2.7870     5.0290     0.2710 N.4   1 <1>  -0.9590 
 13 C        3.4460     6.2940     0.7300 C.3   1 <1>   0.3430 
 14 C        3.3850     4.5420    -1.0150 C.3   1 <1>   0.3430 
 15 C        4.9390     6.0600     0.9480 C.3   1 <1>  -0.1600 
 16 C        4.8770     4.2740    -0.8320 C.3   1 <1>  -0.1600 
 17 C        5.5770     5.5340    -0.3340 C.3   1 <1>   0.2000 
 18 O        6.8930     5.2360    -0.0810 O.3   1 <1>  -0.6800 
 19 H       -7.8390     2.2490     0.3680 H     1 <1>   0.4000 
 20 H       -6.1530     1.9190    -1.0780 H     1 <1>   0.0800 
 21 H       -5.7920     0.9610     1.1170 H     1 <1>   0.0800 
 22 H       -5.3740     2.5090     1.8020 H     1 <1>   0.0800 
 23 H       -5.3230     4.6080     0.0580 H     1 <1>   0.0800 
 24 H       -5.7210     4.2290    -1.5950 H     1 <1>   0.0800 
 25 H       -3.7670     0.9490    -0.2300 H     1 <1>   0.0800 
 26 H       -3.3610     1.2040     1.4510 H     1 <1>   0.0800 
 27 H       -3.2930     4.4490    -1.2540 H     1 <1>   0.0800 
 28 H       -3.7280     2.8510    -1.8150 H     1 <1>   0.0800 
 29 H       -3.3380     3.5770     1.0140 H     1 <1>   0.4500 
 30 H       -1.4890     2.2180    -0.8430 H     1 <1>   0.0800 
 31 H       -1.3440     2.1100     0.8930 H     1 <1>   0.0800 
 32 H       -1.2290     4.5940     1.0330 H     1 <1>   0.0800 
 33 H       -1.2430     4.6760    -0.7140 H     1 <1>   0.0800 
 34 H        0.8450     3.3660    -0.7990 H     1 <1>   0.0800 
 35 H        0.8650     3.2790     0.9490 H     1 <1>   0.0800 
 36 H        0.9700     5.7640     1.0480 H     1 <1>   0.0800 
 37 H        1.0770     5.8260    -0.6920 H     1 <1>   0.0800 
 38 H        2.9750     4.3190     0.9910 H     1 <1>   0.4500 
 39 H        3.0020     6.6300     1.6540 H     1 <1>   0.0800 
 40 H        3.3100     7.0670    -0.0090 H     1 <1>   0.0800 
 41 H        3.2470     5.2830    -1.7860 H     1 <1>   0.0800 
 42 H        2.9020     3.6320    -1.3320 H     1 <1>   0.0800 
 43 H        5.0780     5.3660     1.7580 H     1 <1>   0.0800 
 44 H        5.4030     6.9920     1.2170 H     1 <1>   0.0800 
 45 H        5.2990     3.9870    -1.7790 H     1 <1>   0.0800 
 46 H        5.0130     3.4620    -0.1400 H     1 <1>   0.0800 
 47 H        5.5640     6.2960    -1.0970 H     1 <1>   0.0800 
 48 H        6.9940     4.5530     0.6100 H     1 <1>   0.4000 
@<TRIPOS>BOND
  1   1   2  1   
  2   1  19  1   
  3   2   3  1   
  4   2   4  1   
  5   2  20  1   
  6   3   5  1   
  7   3  21  1   
  8   3  22  1   
  9   4   6  1   
 10   4  23  1   
 11   4  24  1   
 12   5   7  1   
 13   5  25  1   
 14   5  26  1   
 15   6   7  1   
 16   6  27  1   
 17   6  28  1   
 18   7   8  1   
 19   7  29  1   
 20   8   9  1   
 21   8  30  1   
 22   8  31  1   
 23   9  10  1   
 24   9  32  1   
 25   9  33  1   
 26  10  11  1   
 27  10  34  1   
 28  10  35  1   
 29  11  12  1   
 30  11  36  1   
 31  11  37  1   
 32  12  13  1   
 33  12  14  1   
 34  12  38  1   
 35  13  15  1   
 36  13  39  1   
 37  13  40  1   
 38  14  16  1   
 39  14  41  1   
 40  14  42  1   
 41  15  17  1   
 42  15  43  1   
 43  15  44  1   
 44  16  17  1   
 45  16  45  1   
 46  16  46  1   
 47  17  18  1   
 48  17  47  1   
 49  18  48  1   
@<TRIPOS>SUBSTRUCTURE
  1 ****   9 GROUP 4 **** **** 0

# MOE 2024.06 (io_trps.svl 2023.06)
