@<TRIPOS>MOLECULE
NONAME
56 60 1 0 0 
SMALL
USER_CHARGES


@<TRIPOS>ATOM
  1 N        0.3700    -0.0210     0.0430 N.ar  1 <1>  -0.6200 
  2 C       -0.6740     0.8240     0.0260 C.ar  1 <1>   0.6200 
  3 C        1.2720     0.1810    -0.8850 C.ar  1 <1>   0.1660 
  4 N       -0.8280     1.8370    -0.8380 N.ar  1 <1>  -0.6200 
  5 C       -1.7180     0.6260     1.0220 C.ar  1 <1>   0.0000 
  6 C        1.1960     1.1820    -1.8010 C.ar  1 <1>  -0.1430 
  7 C        2.5190    -0.6530    -1.0660 C.3   1 <1>   0.1440 
  8 C        0.1070     2.0110    -1.7450 C.ar  1 <1>   0.1600 
  9 C       -1.4400     0.0950     2.2850 C.ar  1 <1>  -0.1500 
 10 C       -3.0500     0.9570     0.7580 C.ar  1 <1>  -0.1500 
 11 C        2.3820     1.1790    -2.7330 C.3   1 <1>  -0.0160 
 12 C        3.1900    -0.8440     0.3050 C.3   1 <1>   0.3430 
 13 C        2.1580    -2.0220    -1.6820 C.3   1 <1>  -0.1600 
 14 C        3.3640     0.2190    -2.0340 C.3   1 <1>  -0.1600 
 15 C       -2.4330    -0.0960     3.2290 C.ar  1 <1>  -0.1500 
 16 C       -4.0480     0.7700     1.6970 C.ar  1 <1>  -0.1500 
 17 N        4.3650    -1.7760     0.2260 N.4   1 <1>  -0.9590 
 18 C        3.3520    -2.9940    -1.6660 C.3   1 <1>  -0.1600 
 19 C       -3.7410     0.2410     2.9370 C.ar  1 <1>  -0.1500 
 20 C        3.9760    -3.1220    -0.2730 C.3   1 <1>   0.3430 
 21 C        5.1560    -1.8370     1.4940 C.3   1 <1>   0.3430 
 22 C        6.0140    -0.5800     1.7150 C.3   1 <1>   0.0960 
 23 N        6.9620    -0.3860     0.5970 N.pl3 1 <1>   0.3140 
 24 N        6.5280    -0.2490    -0.6770 N.2   1 <1>  -0.7070 
 25 C        8.3110    -0.3250     0.6600 C.2   1 <1>  -0.3320 
 26 C        7.6080    -0.0940    -1.3830 C.2   1 <1>   0.1390 
 27 C        8.7530    -0.1360    -0.6010 C.2   1 <1>  -0.1500 
 28 C        9.1540    -0.4380     1.9210 C.3   1 <1>  -0.0600 
 29 H       -0.0040     2.8210    -2.4460 H     1 <1>   0.1500 
 30 H       -0.4290    -0.1720     2.5340 H     1 <1>   0.1500 
 31 H       -3.3090     1.3700    -0.2020 H     1 <1>   0.1500 
 32 H        2.8030     2.1640    -2.8490 H     1 <1>   0.0800 
 33 H        2.0870     0.7930    -3.6940 H     1 <1>   0.0800 
 34 H        2.4580    -1.2420     0.9890 H     1 <1>   0.0800 
 35 H        3.5010     0.1200     0.6720 H     1 <1>   0.0800 
 36 H        1.8010    -1.8910    -2.6890 H     1 <1>   0.0800 
 37 H        1.3530    -2.4560    -1.1130 H     1 <1>   0.0800 
 38 H        3.9220    -0.3580    -2.7500 H     1 <1>   0.0800 
 39 H        4.0600     0.8160    -1.4700 H     1 <1>   0.0800 
 40 H       -2.1900    -0.5070     4.1940 H     1 <1>   0.1500 
 41 H       -5.0640     1.0350     1.4620 H     1 <1>   0.1500 
 42 H        5.0210    -1.3590    -0.4760 H     1 <1>   0.4500 
 43 H        4.1070    -2.6730    -2.3620 H     1 <1>   0.0800 
 44 H        3.0190    -3.9650    -1.9880 H     1 <1>   0.0800 
 45 H       -4.5160     0.0940     3.6690 H     1 <1>   0.1500 
 46 H        3.2630    -3.5700     0.4000 H     1 <1>   0.0800 
 47 H        4.8440    -3.7610    -0.3290 H     1 <1>   0.0800 
 48 H        5.8180    -2.6870     1.4610 H     1 <1>   0.0800 
 49 H        4.4890    -1.9710     2.3300 H     1 <1>   0.0800 
 50 H        6.5660    -0.6820     2.6290 H     1 <1>   0.0800 
 51 H        5.3940     0.2930     1.7940 H     1 <1>   0.0800 
 52 H        7.6140     0.0520    -2.4510 H     1 <1>   0.1500 
 53 H        9.7640    -0.0330    -0.9570 H     1 <1>   0.1500 
 54 H        8.9000     0.3440     2.6150 H     1 <1>   0.0800 
 55 H       10.1970    -0.3420     1.6760 H     1 <1>   0.0800 
 56 H        9.0060    -1.3940     2.3920 H     1 <1>   0.0800 
@<TRIPOS>BOND
  1   1   2  ar  
  2   1   3  ar  
  3   2   4  ar  
  4   2   5  1   
  5   3   6  ar  
  6   3   7  1   
  7   4   8  ar  
  8   5   9  ar  
  9   5  10  ar  
 10   6   8  ar  
 11   6  11  1   
 12   7  12  1   
 13   7  13  1   
 14   7  14  1   
 15   8  29  1   
 16   9  15  ar  
 17   9  30  1   
 18  10  16  ar  
 19  10  31  1   
 20  11  14  1   
 21  11  32  1   
 22  11  33  1   
 23  12  17  1   
 24  12  34  1   
 25  12  35  1   
 26  13  18  1   
 27  13  36  1   
 28  13  37  1   
 29  14  38  1   
 30  14  39  1   
 31  15  19  ar  
 32  15  40  1   
 33  16  19  ar  
 34  16  41  1   
 35  17  20  1   
 36  17  21  1   
 37  17  42  1   
 38  18  20  1   
 39  18  43  1   
 40  18  44  1   
 41  19  45  1   
 42  20  46  1   
 43  20  47  1   
 44  21  22  1   
 45  21  48  1   
 46  21  49  1   
 47  22  23  1   
 48  22  50  1   
 49  22  51  1   
 50  23  24  1   
 51  23  25  1   
 52  24  26  2   
 53  25  27  2   
 54  25  28  1   
 55  26  27  1   
 56  26  52  1   
 57  27  53  1   
 58  28  54  1   
 59  28  55  1   
 60  28  56  1   
@<TRIPOS>SUBSTRUCTURE
  1 ****  12 GROUP 4 **** **** 0

# MOE 2024.06 (io_trps.svl 2023.06)
