@<TRIPOS>MOLECULE
NONAME
48 50 1 0 0 
SMALL
USER_CHARGES


@<TRIPOS>ATOM
  1 O        0.3720    -0.7680     0.9170 O.2   1 <1>  -0.5700 
  2 C        1.1910    -0.9860     0.0570 C.2   1 <1>   0.5690 
  3 N        2.0200    -0.0220    -0.4470 N.am  1 <1>  -0.5470 
  4 C        1.2750    -2.4250    -0.5200 C.3   1 <1>   0.4840 
  5 C        2.1510     1.3240    -0.1880 C.ar  1 <1>   0.4270 
  6 N       -0.0410    -3.1710    -0.5050 N.4   1 <1>  -0.9590 
  7 C        2.3180    -3.2330     0.2600 C.3   1 <1>  -0.2400 
  8 N        2.9710     1.9030    -1.0490 N.ar  1 <1>  -0.6200 
  9 C        1.5140     2.0060     0.8480 C.ar  1 <1>  -0.1500 
 10 C        0.0100    -4.5800    -1.0070 C.3   1 <1>   0.3430 
 11 C       -1.1710    -2.4050    -1.1030 C.3   1 <1>   0.3430 
 12 C        3.1620     3.2030    -0.8820 C.ar  1 <1>   0.1600 
 13 C        1.7220     3.3570     1.0090 C.ar  1 <1>  -0.1500 
 14 C       -1.3910    -5.1810    -1.1800 C.3   1 <1>  -0.1600 
 15 C       -2.5010    -2.9990    -0.6290 C.3   1 <1>  -0.1600 
 16 C        2.5730     3.9650     0.1110 C.ar  1 <1>  -0.1500 
 17 C       -2.4350    -4.4960    -0.2890 C.3   1 <1>   0.4240 
 18 O       -1.9690    -4.6140     1.0040 O.3   1 <1>  -0.6800 
 19 C       -3.8340    -5.1240    -0.2990 C.ar  1 <1>  -0.1440 
 20 C       -4.2090    -6.1160    -1.2020 C.ar  1 <1>  -0.1500 
 21 C       -4.7800    -4.6860     0.6250 C.ar  1 <1>  -0.1500 
 22 C       -5.4840    -6.6540    -1.1750 C.ar  1 <1>  -0.1500 
 23 C       -6.0540    -5.2240     0.6520 C.ar  1 <1>  -0.1500 
 24 C       -6.4080    -6.2100    -0.2490 C.ar  1 <1>  -0.1500 
 25 H        2.6780    -0.2690    -1.1840 H     1 <1>   0.3700 
 26 H        1.6060    -2.3390    -1.5410 H     1 <1>   0.0800 
 27 H       -0.3130    -3.2460     0.4960 H     1 <1>   0.4500 
 28 H        1.9820    -3.4100     1.2670 H     1 <1>   0.0800 
 29 H        3.2390    -2.6780     0.3150 H     1 <1>   0.0800 
 30 H        2.5380    -4.1690    -0.2200 H     1 <1>   0.0800 
 31 H        0.8640     1.4920     1.5290 H     1 <1>   0.1500 
 32 H        0.5510    -5.1810    -0.2930 H     1 <1>   0.0800 
 33 H        0.5350    -4.6250    -1.9470 H     1 <1>   0.0800 
 34 H       -1.1120    -2.4600    -2.1780 H     1 <1>   0.0800 
 35 H       -1.1330    -1.3670    -0.8120 H     1 <1>   0.0800 
 36 H        3.8270     3.6910    -1.5760 H     1 <1>   0.1500 
 37 H        1.2440     3.9120     1.7980 H     1 <1>   0.1500 
 38 H       -1.3530    -6.2340    -0.9660 H     1 <1>   0.0800 
 39 H       -1.6840    -5.0750    -2.2090 H     1 <1>   0.0800 
 40 H       -3.2180    -2.8500    -1.4160 H     1 <1>   0.0800 
 41 H       -2.8600    -2.4460     0.2220 H     1 <1>   0.0800 
 42 H        2.7790     5.0180     0.1810 H     1 <1>   0.1500 
 43 H       -2.5690    -5.2340     1.4720 H     1 <1>   0.4000 
 44 H       -3.5300    -6.4940    -1.9430 H     1 <1>   0.1500 
 45 H       -4.5360    -3.9170     1.3370 H     1 <1>   0.1500 
 46 H       -5.7610    -7.4220    -1.8780 H     1 <1>   0.1500 
 47 H       -6.7730    -4.8740     1.3740 H     1 <1>   0.1500 
 48 H       -7.3990    -6.6290    -0.2290 H     1 <1>   0.1500 
@<TRIPOS>BOND
  1   1   2  2   
  2   2   3  am  
  3   2   4  1   
  4   3   5  1   
  5   3  25  1   
  6   4   6  1   
  7   4   7  1   
  8   4  26  1   
  9   5   8  ar  
 10   5   9  ar  
 11   6  10  1   
 12   6  11  1   
 13   6  27  1   
 14   7  28  1   
 15   7  29  1   
 16   7  30  1   
 17   8  12  ar  
 18   9  13  ar  
 19   9  31  1   
 20  10  14  1   
 21  10  32  1   
 22  10  33  1   
 23  11  15  1   
 24  11  34  1   
 25  11  35  1   
 26  12  16  ar  
 27  12  36  1   
 28  13  16  ar  
 29  13  37  1   
 30  14  17  1   
 31  14  38  1   
 32  14  39  1   
 33  15  17  1   
 34  15  40  1   
 35  15  41  1   
 36  16  42  1   
 37  17  18  1   
 38  17  19  1   
 39  18  43  1   
 40  19  20  ar  
 41  19  21  ar  
 42  20  22  ar  
 43  20  44  1   
 44  21  23  ar  
 45  21  45  1   
 46  22  24  ar  
 47  22  46  1   
 48  23  24  ar  
 49  23  47  1   
 50  24  48  1   
@<TRIPOS>SUBSTRUCTURE
  1 ****  11 GROUP 4 **** **** 0

# MOE 2024.06 (io_trps.svl 2023.06)
