@<TRIPOS>MOLECULE
NONAME
48 51 1 0 0 
SMALL
USER_CHARGES


@<TRIPOS>ATOM
  1 O       -0.0830    -0.1130    -0.9070 O.2   1 <1>  -0.5700 
  2 C        0.8210    -0.6010    -0.2520 C.2   1 <1>   0.6160 
  3 N        1.7760     0.1970     0.3150 N.am  1 <1>  -0.4930 
  4 C        0.9050    -2.0370    -0.0710 C.2   1 <1>   0.0140 
  5 C        2.1350     1.5380     0.0370 C.2   1 <1>   0.0630 
  6 C       -0.2030    -2.8230    -0.0850 C.2   1 <1>  -0.1780 
  7 C        2.2240    -2.6120     0.0970 C.2   1 <1>  -0.1500 
  8 C        3.4660     1.9400    -0.1160 C.2   1 <1>   0.3720 
  9 C        1.4080     2.6650    -0.1240 C.2   1 <1>  -0.3320 
 10 C       -0.3040    -4.2520     0.0640 C.ar  1 <1>   0.0280 
 11 C        2.5390    -3.7250     0.7800 C.2   1 <1>  -0.0730 
 12 N        3.5770     3.2060    -0.3720 N.2   1 <1>  -0.7070 
 13 N        4.5670     1.0660    -0.0110 N.pl3 1 <1>  -0.8210 
 14 N        2.3010     3.6540    -0.3850 N.pl3 1 <1>   0.3140 
 15 C       -0.0960     2.8720    -0.0350 C.3   1 <1>  -0.0600 
 16 C        0.5990    -5.0360     0.8010 C.ar  1 <1>   0.0830 
 17 C       -1.3710    -4.9120    -0.5410 C.ar  1 <1>  -0.1500 
 18 O        1.6590    -4.4940     1.4630 O.3   1 <1>  -0.1590 
 19 C        5.6000     1.5680     0.9380 C.3   1 <1>   0.2090 
 20 C        5.2190     0.8630    -1.3330 C.3   1 <1>   0.2090 
 21 C        2.0030     5.0650    -0.6580 C.3   1 <1>   0.0160 
 22 C        0.4290    -6.4030     0.9190 C.ar  1 <1>  -0.1500 
 23 C       -1.5400    -6.2820    -0.4290 C.ar  1 <1>  -0.1500 
 24 C        6.8560     1.8270     0.1160 C.3   1 <1>  -0.1600 
 25 C        6.7170     0.8900    -1.0720 C.3   1 <1>  -0.1600 
 26 C       -0.6390    -7.0320     0.3020 C.ar  1 <1>  -0.1500 
 27 H        2.5540    -0.2990     0.7490 H     1 <1>   0.3700 
 28 H       -1.1530    -2.3420    -0.2460 H     1 <1>   0.1500 
 29 H        3.0140    -2.0680    -0.3940 H     1 <1>   0.1500 
 30 H        3.5440    -4.1010     0.8640 H     1 <1>   0.1500 
 31 H       -0.5640     2.0170     0.4180 H     1 <1>   0.0800 
 32 H       -0.5090     3.0040    -1.0190 H     1 <1>   0.0800 
 33 H       -0.3260     3.7330     0.5670 H     1 <1>   0.0800 
 34 H       -2.0830    -4.3450    -1.1140 H     1 <1>   0.1500 
 35 H        5.7910     0.8040     1.6710 H     1 <1>   0.0800 
 36 H        5.2800     2.4630     1.4470 H     1 <1>   0.0800 
 37 H        4.9530     1.6620    -2.0070 H     1 <1>   0.0800 
 38 H        4.9140    -0.0750    -1.7630 H     1 <1>   0.0800 
 39 H        1.2690     5.1270    -1.4380 H     1 <1>   0.0800 
 40 H        2.9040     5.5600    -0.9710 H     1 <1>   0.0800 
 41 H        1.6310     5.5240     0.2380 H     1 <1>   0.0800 
 42 H        1.1320    -6.9780     1.4950 H     1 <1>   0.1500 
 43 H       -2.3740    -6.7620    -0.9110 H     1 <1>   0.1500 
 44 H        7.7520     1.6520     0.6840 H     1 <1>   0.0800 
 45 H        6.8400     2.8490    -0.2190 H     1 <1>   0.0800 
 46 H        7.2660     1.2320    -1.9310 H     1 <1>   0.0800 
 47 H        7.0470    -0.0980    -0.8060 H     1 <1>   0.0800 
 48 H       -0.7670    -8.0970     0.3940 H     1 <1>   0.1500 
@<TRIPOS>BOND
  1   1   2  2   
  2   2   3  am  
  3   2   4  1   
  4   3   5  1   
  5   3  27  1   
  6   4   6  2   
  7   4   7  1   
  8   5   8  1   
  9   5   9  2   
 10   6  10  1   
 11   6  28  1   
 12   7  11  2   
 13   7  29  1   
 14   8  12  2   
 15   8  13  1   
 16   9  14  1   
 17   9  15  1   
 18  10  16  ar  
 19  10  17  ar  
 20  11  18  1   
 21  11  30  1   
 22  12  14  1   
 23  13  19  1   
 24  13  20  1   
 25  14  21  1   
 26  15  31  1   
 27  15  32  1   
 28  15  33  1   
 29  16  18  1   
 30  16  22  ar  
 31  17  23  ar  
 32  17  34  1   
 33  19  24  1   
 34  19  35  1   
 35  19  36  1   
 36  20  25  1   
 37  20  37  1   
 38  20  38  1   
 39  21  39  1   
 40  21  40  1   
 41  21  41  1   
 42  22  26  ar  
 43  22  42  1   
 44  23  26  ar  
 45  23  43  1   
 46  24  25  1   
 47  24  44  1   
 48  24  45  1   
 49  25  46  1   
 50  25  47  1   
 51  26  48  1   
@<TRIPOS>SUBSTRUCTURE
  1 ****   3 GROUP 4 **** **** 0

# MOE 2024.06 (io_trps.svl 2023.06)
