@<TRIPOS>MOLECULE
NONAME
51 53 1 0 0 
SMALL
USER_CHARGES


@<TRIPOS>ATOM
  1 S        0.9870     0.6240    -1.1780 S.o2  1 <1>   1.3330 
  2 O        2.0140     0.7510    -2.1870 O.2   1 <1>  -0.6500 
  3 O        0.0940    -0.5120    -1.2000 O.2   1 <1>  -0.6500 
  4 N        1.7420     0.6490     0.3430 N.am  1 <1>  -0.8490 
  5 C        0.0160     2.1340    -1.2000 C.3   1 <1>  -0.0550 
  6 C        3.0020    -0.1010     0.3500 C.3   1 <1>   0.1160 
  7 C        0.8800     0.1750     1.4320 C.3   1 <1>   0.1160 
  8 C        0.8540     3.4320    -1.1780 C.3   1 <1>  -0.0800 
  9 C        0.0440     4.7060    -1.4320 C.3   1 <1>   0.2000 
 10 C        1.5780     3.7010     0.1490 C.3   1 <1>   0.1400 
 11 O       -1.1270     4.6560    -0.6890 O.3   1 <1>  -0.6800 
 12 C        0.9210     5.8150    -0.8560 C.3   1 <1>   0.1400 
 13 N        1.5750     5.1780     0.3170 N.am  1 <1>  -0.6600 
 14 C        1.9700     5.7690     1.4920 C.2   1 <1>   0.5690 
 15 O        2.2940     5.0940     2.4410 O.2   1 <1>  -0.5700 
 16 C        2.0030     7.2950     1.6480 C.3   1 <1>   0.1810 
 17 O        3.2660     7.8620     1.3890 O.3   1 <1>  -0.5600 
 18 C        3.7290     7.7200     0.0750 C.3   1 <1>   0.3000 
 19 C        5.0220     8.4950    -0.0840 C.2   1 <1>   0.0070 
 20 N        5.4850     8.9410    -1.2030 N.2   1 <1>  -0.5650 
 21 N        5.8040     8.7770     0.9860 N.pl3 1 <1>   0.0330 
 22 C        6.6500     9.5610    -0.8610 C.ar  1 <1>   0.2270 
 23 C        6.8670     9.4690     0.5040 C.ar  1 <1>  -0.1520 
 24 C        7.5690    10.2220    -1.6720 C.ar  1 <1>  -0.1500 
 25 C        7.9960    10.0280     1.1130 C.ar  1 <1>  -0.1500 
 26 C        8.6740    10.7660    -1.0630 C.ar  1 <1>   0.1900 
 27 C        8.9070    10.6840     0.3140 C.ar  1 <1>  -0.1500 
 28 F        9.5580    11.3950    -1.7960 F     1 <1>  -0.1900 
 29 H       -0.5730     2.1350    -2.0970 H     1 <1>   0.0800 
 30 H       -0.6680     2.1290    -0.3740 H     1 <1>   0.0800 
 31 H        3.4610    -0.0520     1.3220 H     1 <1>   0.0800 
 32 H        3.6870     0.3210    -0.3670 H     1 <1>   0.0800 
 33 H        2.8240    -1.1320     0.0920 H     1 <1>   0.0800 
 34 H        1.3770     0.3010     2.3790 H     1 <1>   0.0800 
 35 H        0.6410    -0.8680     1.2970 H     1 <1>   0.0800 
 36 H       -0.0370     0.7380     1.4540 H     1 <1>   0.0800 
 37 H        1.6040     3.3670    -1.9480 H     1 <1>   0.0800 
 38 H       -0.2110     4.8570    -2.4670 H     1 <1>   0.0800 
 39 H        2.5880     3.3250     0.1290 H     1 <1>   0.0800 
 40 H        1.0540     3.2530     0.9760 H     1 <1>   0.0800 
 41 H       -0.8980     4.6510     0.2630 H     1 <1>   0.4000 
 42 H        0.3330     6.6760    -0.5910 H     1 <1>   0.0800 
 43 H        1.6740     6.0910    -1.5730 H     1 <1>   0.0800 
 44 H        1.7590     7.5320     2.6670 H     1 <1>   0.0800 
 45 H        1.2780     7.7710     1.0160 H     1 <1>   0.0800 
 46 H        3.9080     6.6780    -0.1250 H     1 <1>   0.0800 
 47 H        2.9900     8.1070    -0.6050 H     1 <1>   0.0800 
 48 H        5.5840     8.5340     1.9570 H     1 <1>   0.2700 
 49 H        7.4010    10.2930    -2.7290 H     1 <1>   0.1500 
 50 H        8.1400     9.9440     2.1760 H     1 <1>   0.1500 
 51 H        9.7940    11.1340     0.7240 H     1 <1>   0.1500 
@<TRIPOS>BOND
  1   1   2  2   
  2   1   3  2   
  3   1   4  am  
  4   1   5  1   
  5   4   6  1   
  6   4   7  1   
  7   5   8  1   
  8   5  29  1   
  9   5  30  1   
 10   6  31  1   
 11   6  32  1   
 12   6  33  1   
 13   7  34  1   
 14   7  35  1   
 15   7  36  1   
 16   8   9  1   
 17   8  10  1   
 18   8  37  1   
 19   9  11  1   
 20   9  12  1   
 21   9  38  1   
 22  10  13  1   
 23  10  39  1   
 24  10  40  1   
 25  11  41  1   
 26  12  13  1   
 27  12  42  1   
 28  12  43  1   
 29  13  14  am  
 30  14  15  2   
 31  14  16  1   
 32  16  17  1   
 33  16  44  1   
 34  16  45  1   
 35  17  18  1   
 36  18  19  1   
 37  18  46  1   
 38  18  47  1   
 39  19  20  2   
 40  19  21  1   
 41  20  22  1   
 42  21  23  1   
 43  21  48  1   
 44  22  23  ar  
 45  22  24  ar  
 46  23  25  ar  
 47  24  26  ar  
 48  24  49  1   
 49  25  27  ar  
 50  25  50  1   
 51  26  27  ar  
 52  26  28  1   
 53  27  51  1   
@<TRIPOS>SUBSTRUCTURE
  1 ****  18 GROUP 4 **** **** 0

# MOE 2024.06 (io_trps.svl 2023.06)
