@<TRIPOS>MOLECULE
NONAME
44 46 1 0 0 
SMALL
USER_CHARGES


@<TRIPOS>ATOM
  1 O       -0.8340     0.6020    -0.6390 O.co2 1 <1>  -0.9000 
  2 C       -1.2170     1.2350     0.3590 C.2   1 <1>   0.9060 
  3 O       -1.5460     0.6530     1.4010 O.co2 1 <1>  -0.9000 
  4 C       -1.1330     2.7700     0.3600 C.3   1 <1>   0.0940 
  5 O       -2.3200     3.4470    -0.0440 O.3   1 <1>  -0.5600 
  6 C        0.0450     3.1970    -0.5300 C.3   1 <1>   0.2090 
  7 C       -2.2220     4.8350     0.0590 C.3   1 <1>   0.1200 
  8 N        0.2050     4.6980    -0.5750 N.pl3 1 <1>  -0.8380 
  9 C       -1.1080     5.3710    -0.8570 C.3   1 <1>   0.2090 
 10 C        1.3660     5.3660    -0.3490 C.ar  1 <1>   0.4100 
 11 N        1.2950     6.6380    -0.0010 N.ar  1 <1>  -0.6200 
 12 C        2.6120     4.7230    -0.4880 C.ar  1 <1>  -0.1500 
 13 C        2.4150     7.2950     0.2580 C.ar  1 <1>   0.7710 
 14 C        3.7490     5.4080    -0.2250 C.ar  1 <1>   0.2180 
 15 N        3.6160     6.6990     0.1540 N.ar  1 <1>  -0.1790 
 16 N        2.3620     8.6050     0.6300 N.pl3 1 <1>  -0.8380 
 17 C        5.1400     4.8090    -0.3410 C.3   1 <1>  -0.0970 
 18 C        1.0740     9.3760     0.6110 C.3   1 <1>   0.2090 
 19 C        3.5010     9.4750     1.0610 C.3   1 <1>   0.2090 
 20 C        1.1910    10.5190    -0.4030 C.3   1 <1>  -0.1600 
 21 C        3.6780    10.6070     0.0460 C.3   1 <1>  -0.1600 
 22 C        2.3900    11.4310    -0.1020 C.3   1 <1>  -0.1600 
 23 H       -0.9280     3.0560     1.3740 H     1 <1>   0.0800 
 24 H       -0.1210     2.8250    -1.5270 H     1 <1>   0.0800 
 25 H        0.9250     2.7190    -0.1430 H     1 <1>   0.0800 
 26 H       -2.0240     5.0920     1.0850 H     1 <1>   0.0800 
 27 H       -3.1700     5.2500    -0.2280 H     1 <1>   0.0800 
 28 H       -1.0350     6.4360    -0.7330 H     1 <1>   0.0800 
 29 H       -1.3840     5.1790    -1.8790 H     1 <1>   0.0800 
 30 H        2.6420     3.7010    -0.8130 H     1 <1>   0.1500 
 31 H        4.4110     7.2900     0.3480 H     1 <1>   0.4570 
 32 H        5.0790     3.7810    -0.6540 H     1 <1>   0.0800 
 33 H        5.6430     4.8400     0.6080 H     1 <1>   0.0800 
 34 H        5.7220     5.3470    -1.0690 H     1 <1>   0.0800 
 35 H        0.8860     9.7790     1.5930 H     1 <1>   0.0800 
 36 H        0.2310     8.7590     0.3500 H     1 <1>   0.0800 
 37 H        4.4190     8.9260     1.1580 H     1 <1>   0.0800 
 38 H        3.2730     9.8970     2.0270 H     1 <1>   0.0800 
 39 H        0.2860    11.1000    -0.3860 H     1 <1>   0.0800 
 40 H        1.2890    10.0990    -1.3890 H     1 <1>   0.0800 
 41 H        3.9540    10.1940    -0.9090 H     1 <1>   0.0800 
 42 H        4.4760    11.2540     0.3660 H     1 <1>   0.0800 
 43 H        2.2040    11.9690     0.8120 H     1 <1>   0.0800 
 44 H        2.5050    12.1540    -0.8920 H     1 <1>   0.0800 
@<TRIPOS>BOND
  1   1   2  ar  
  2   2   3  ar  
  3   2   4  1   
  4   4   5  1   
  5   4   6  1   
  6   4  23  1   
  7   5   7  1   
  8   6   8  1   
  9   6  24  1   
 10   6  25  1   
 11   7   9  1   
 12   7  26  1   
 13   7  27  1   
 14   8   9  1   
 15   8  10  1   
 16   9  28  1   
 17   9  29  1   
 18  10  11  ar  
 19  10  12  ar  
 20  11  13  ar  
 21  12  14  ar  
 22  12  30  1   
 23  13  15  ar  
 24  13  16  1   
 25  14  15  ar  
 26  14  17  1   
 27  15  31  1   
 28  16  18  1   
 29  16  19  1   
 30  17  32  1   
 31  17  33  1   
 32  17  34  1   
 33  18  20  1   
 34  18  35  1   
 35  18  36  1   
 36  19  21  1   
 37  19  37  1   
 38  19  38  1   
 39  20  22  1   
 40  20  39  1   
 41  20  40  1   
 42  21  22  1   
 43  21  41  1   
 44  21  42  1   
 45  22  43  1   
 46  22  44  1   
@<TRIPOS>SUBSTRUCTURE
  1 ****  10 GROUP 4 **** **** 0

# MOE 2024.06 (io_trps.svl 2023.06)
