@<TRIPOS>MOLECULE
NONAME
54 56 1 0 0 
SMALL
USER_CHARGES


@<TRIPOS>ATOM
  1 O       -3.1820     2.1030    -2.1460 O.2   1 <1>  -0.5700 
  2 C       -2.8540     1.3510    -1.2480 C.2   1 <1>   0.5440 
  3 N       -3.6630     0.2610    -0.9710 N.am  1 <1>  -0.6600 
  4 C       -1.6330     1.6410    -0.5270 C.ar  1 <1>   0.0860 
  5 C       -3.2350    -0.9210    -0.1240 C.3   1 <1>   0.3640 
  6 C       -5.0820     0.2660    -1.4450 C.3   1 <1>   0.1400 
  7 C       -0.4360     1.7920    -1.2190 C.ar  1 <1>   0.1600 
  8 C       -1.5820     1.7600     0.8530 C.ar  1 <1>  -0.1500 
  9 C       -1.7830    -1.2840    -0.4560 C.ar  1 <1>  -0.1440 
 10 C       -4.1140    -2.2060    -0.2750 C.3   1 <1>   0.2000 
 11 C       -5.5740    -1.1410    -1.7740 C.3   1 <1>   0.1200 
 12 N        0.7530     2.0000    -0.6760 N.ar  1 <1>  -0.6200 
 13 C       -0.3550     1.9620     1.4520 C.ar  1 <1>  -0.1430 
 14 C       -0.8350    -1.3500     0.5570 C.ar  1 <1>  -0.1500 
 15 C       -1.3850    -1.5120    -1.7680 C.ar  1 <1>  -0.1500 
 16 O       -5.4400    -1.9390    -0.6440 O.3   1 <1>  -0.5600 
 17 C       -4.2100    -3.0300     1.0210 C.3   1 <1>   0.1200 
 18 C        0.7770     2.0670     0.6450 C.ar  1 <1>   0.1670 
 19 C       -0.2780     2.0440     2.9710 C.3   1 <1>  -0.0970 
 20 C        0.4960    -1.6010     0.2750 C.ar  1 <1>   0.0830 
 21 C       -0.0560    -1.7550    -2.0640 C.ar  1 <1>  -0.1500 
 22 O       -2.9620    -3.2970     1.5730 O.3   1 <1>  -0.6800 
 23 C        2.1540     2.2600     1.2510 C.3   1 <1>  -0.0970 
 24 O        1.3490    -1.6560     1.3310 O.3   1 <1>  -0.3620 
 25 C        0.8930    -1.7680    -1.0560 C.ar  1 <1>   0.0830 
 26 C        2.1500    -2.8100     1.4610 C.3   1 <1>   0.0400 
 27 O        2.1890    -1.9040    -1.4180 O.3   1 <1>  -0.3630 
 28 C        2.9440    -0.7150    -1.3410 C.3   1 <1>   0.0400 
 29 H       -3.2880    -0.6130     0.9050 H     1 <1>   0.0800 
 30 H       -5.7080     0.6880    -0.6780 H     1 <1>   0.0800 
 31 H       -5.1860     0.8750    -2.3250 H     1 <1>   0.0800 
 32 H       -0.4740     1.7250    -2.2920 H     1 <1>   0.1500 
 33 H       -2.4840     1.6800     1.4310 H     1 <1>   0.1500 
 34 H       -3.7010    -2.8310    -1.0460 H     1 <1>   0.0800 
 35 H       -5.0150    -1.5710    -2.5870 H     1 <1>   0.0800 
 36 H       -6.6160    -1.1160    -2.0380 H     1 <1>   0.0800 
 37 H       -1.1170    -1.1950     1.5830 H     1 <1>   0.1500 
 38 H       -2.1060    -1.4750    -2.5670 H     1 <1>   0.1500 
 39 H       -4.6960    -3.9700     0.8270 H     1 <1>   0.0800 
 40 H       -4.7750    -2.4860     1.7580 H     1 <1>   0.0800 
 41 H       -1.2370     1.8510     3.4170 H     1 <1>   0.0800 
 42 H        0.0440     3.0250     3.2720 H     1 <1>   0.0800 
 43 H        0.4180     1.3140     3.3440 H     1 <1>   0.0800 
 44 H        0.2570    -1.9110    -3.0810 H     1 <1>   0.1500 
 45 H       -2.3930    -3.7900     0.9480 H     1 <1>   0.4000 
 46 H        2.1380     3.0480     1.9810 H     1 <1>   0.0800 
 47 H        2.8650     2.5220     0.4890 H     1 <1>   0.0800 
 48 H        2.4710     1.3450     1.7160 H     1 <1>   0.0800 
 49 H        2.5320    -2.8410     2.4640 H     1 <1>   0.0800 
 50 H        2.9650    -2.7570     0.7630 H     1 <1>   0.0800 
 51 H        1.5460    -3.6790     1.2690 H     1 <1>   0.0800 
 52 H        3.9390    -0.9200    -1.6900 H     1 <1>   0.0800 
 53 H        2.9710    -0.3800    -0.3190 H     1 <1>   0.0800 
 54 H        2.4790     0.0340    -1.9590 H     1 <1>   0.0800 
@<TRIPOS>BOND
  1   1   2  2   
  2   2   3  am  
  3   2   4  1   
  4   3   5  1   
  5   3   6  1   
  6   4   7  ar  
  7   4   8  ar  
  8   5   9  1   
  9   5  10  1   
 10   5  29  1   
 11   6  11  1   
 12   6  30  1   
 13   6  31  1   
 14   7  12  ar  
 15   7  32  1   
 16   8  13  ar  
 17   8  33  1   
 18   9  14  ar  
 19   9  15  ar  
 20  10  16  1   
 21  10  17  1   
 22  10  34  1   
 23  11  16  1   
 24  11  35  1   
 25  11  36  1   
 26  12  18  ar  
 27  13  18  ar  
 28  13  19  1   
 29  14  20  ar  
 30  14  37  1   
 31  15  21  ar  
 32  15  38  1   
 33  17  22  1   
 34  17  39  1   
 35  17  40  1   
 36  18  23  1   
 37  19  41  1   
 38  19  42  1   
 39  19  43  1   
 40  20  24  1   
 41  20  25  ar  
 42  21  25  ar  
 43  21  44  1   
 44  22  45  1   
 45  23  46  1   
 46  23  47  1   
 47  23  48  1   
 48  24  26  1   
 49  25  27  1   
 50  26  49  1   
 51  26  50  1   
 52  26  51  1   
 53  27  28  1   
 54  28  52  1   
 55  28  53  1   
 56  28  54  1   
@<TRIPOS>SUBSTRUCTURE
  1 ****   9 GROUP 4 **** **** 0

# MOE 2024.06 (io_trps.svl 2023.06)
