@<TRIPOS>MOLECULE
NONAME
51 53 1 0 0 
SMALL
USER_CHARGES


@<TRIPOS>ATOM
  1 O       -1.3310     0.3960    -1.2450 O.2   1 <1>  -0.5700 
  2 C       -1.8650     0.8960    -0.2740 C.2   1 <1>   0.5440 
  3 N       -2.5420     0.0740     0.5800 N.am  1 <1>  -0.7300 
  4 C       -1.7780     2.3250    -0.0280 C.ar  1 <1>   0.0860 
  5 C       -2.7060    -1.3880     0.4140 C.3   1 <1>   0.2200 
  6 C       -0.7490     3.0840    -0.5850 C.ar  1 <1>  -0.1500 
  7 C       -2.7080     2.9940     0.7670 C.ar  1 <1>  -0.1500 
  8 C       -4.1270    -1.6770    -0.0370 C.3   1 <1>  -0.0800 
  9 C       -2.6690    -2.0650     1.7790 C.3   1 <1>   0.1200 
 10 C       -0.6420     4.4530    -0.3640 C.ar  1 <1>   0.0820 
 11 C       -2.6210     4.3510     1.0150 C.ar  1 <1>   0.0820 
 12 C       -4.8920    -1.6910     1.2910 C.3   1 <1>   0.1200 
 13 C       -4.2210    -3.0230    -0.7810 C.3   1 <1>  -0.0160 
 14 O       -3.9600    -1.9560     2.3010 O.3   1 <1>  -0.5600 
 15 O        0.3670     5.2000    -0.9020 O.3   1 <1>  -0.3630 
 16 C       -1.5910     5.0990     0.4320 C.ar  1 <1>   0.0820 
 17 O       -3.5890     4.8600     1.8260 O.3   1 <1>  -0.3630 
 18 C       -5.6400    -3.2960    -1.2570 C.ar  1 <1>  -0.1440 
 19 C        1.4100     4.6140    -1.6500 C.3   1 <1>   0.0400 
 20 O       -1.5090     6.4400     0.6250 O.3   1 <1>  -0.3630 
 21 C       -3.2530     5.8300     2.7960 C.3   1 <1>   0.0400 
 22 C       -6.1830    -2.6280    -2.3360 C.ar  1 <1>  -0.1500 
 23 C       -6.4570    -4.2220    -0.6400 C.ar  1 <1>  -0.1500 
 24 C       -1.9560     7.2460    -0.4410 C.3   1 <1>   0.0400 
 25 C       -7.4810    -2.9050    -2.7310 C.ar  1 <1>   0.1600 
 26 C       -7.7420    -4.4240    -1.1140 C.ar  1 <1>   0.1600 
 27 N       -8.2750    -3.7860    -2.1440 N.ar  1 <1>  -0.6200 
 28 H       -2.9640     0.4480     1.4320 H     1 <1>   0.3700 
 29 H       -1.9570    -1.7780    -0.2550 H     1 <1>   0.0800 
 30 H       -0.0360     2.5670    -1.1980 H     1 <1>   0.1500 
 31 H       -3.5270     2.4570     1.2070 H     1 <1>   0.1500 
 32 H       -4.4930    -0.9000    -0.6850 H     1 <1>   0.0800 
 33 H       -1.9660    -1.6060     2.4510 H     1 <1>   0.0800 
 34 H       -2.4460    -3.1120     1.6780 H     1 <1>   0.0800 
 35 H       -5.6670    -2.4350     1.3260 H     1 <1>   0.0800 
 36 H       -5.3190    -0.7240     1.4920 H     1 <1>   0.0800 
 37 H       -3.8930    -3.8260    -0.1450 H     1 <1>   0.0800 
 38 H       -3.5700    -3.0010    -1.6390 H     1 <1>   0.0800 
 39 H        2.0950     5.3920    -1.9320 H     1 <1>   0.0800 
 40 H        0.9950     4.1560    -2.5300 H     1 <1>   0.0800 
 41 H        1.9150     3.8880    -1.0370 H     1 <1>   0.0800 
 42 H       -3.9940     5.7960     3.5740 H     1 <1>   0.0800 
 43 H       -3.2570     6.8000     2.3340 H     1 <1>   0.0800 
 44 H       -2.2810     5.6060     3.2000 H     1 <1>   0.0800 
 45 H       -5.6090    -1.8950    -2.8730 H     1 <1>   0.1500 
 46 H       -6.1090    -4.7870     0.2050 H     1 <1>   0.1500 
 47 H       -1.8750     8.2750    -0.1420 H     1 <1>   0.0800 
 48 H       -2.9810     7.0010    -0.6550 H     1 <1>   0.0800 
 49 H       -1.3390     7.0650    -1.3030 H     1 <1>   0.0800 
 50 H       -7.8870    -2.3740    -3.5740 H     1 <1>   0.1500 
 51 H       -8.3660    -5.1490    -0.6200 H     1 <1>   0.1500 
@<TRIPOS>BOND
  1   1   2  2   
  2   2   3  am  
  3   2   4  1   
  4   3   5  1   
  5   3  28  1   
  6   4   6  ar  
  7   4   7  ar  
  8   5   8  1   
  9   5   9  1   
 10   5  29  1   
 11   6  10  ar  
 12   6  30  1   
 13   7  11  ar  
 14   7  31  1   
 15   8  12  1   
 16   8  13  1   
 17   8  32  1   
 18   9  14  1   
 19   9  33  1   
 20   9  34  1   
 21  10  15  1   
 22  10  16  ar  
 23  11  16  ar  
 24  11  17  1   
 25  12  14  1   
 26  12  35  1   
 27  12  36  1   
 28  13  18  1   
 29  13  37  1   
 30  13  38  1   
 31  15  19  1   
 32  16  20  1   
 33  17  21  1   
 34  18  22  ar  
 35  18  23  ar  
 36  19  39  1   
 37  19  40  1   
 38  19  41  1   
 39  20  24  1   
 40  21  42  1   
 41  21  43  1   
 42  21  44  1   
 43  22  25  ar  
 44  22  45  1   
 45  23  26  ar  
 46  23  46  1   
 47  24  47  1   
 48  24  48  1   
 49  24  49  1   
 50  25  27  ar  
 51  25  50  1   
 52  26  27  ar  
 53  26  51  1   
@<TRIPOS>SUBSTRUCTURE
  1 ****   3 GROUP 4 **** **** 0

# MOE 2024.06 (io_trps.svl 2023.06)
