@<TRIPOS>MOLECULE
NONAME
47 49 1 0 0 
SMALL
USER_CHARGES


@<TRIPOS>ATOM
  1 CL      -0.7780    -1.1510    -0.3150 Cl    1 <1>  -0.1770 
  2 C       -1.6630     0.3370    -0.0900 C.ar  1 <1>   0.1770 
  3 C       -1.2980     1.4590    -0.7980 C.ar  1 <1>  -0.1500 
  4 C       -2.7150     0.3690     0.8060 C.ar  1 <1>  -0.1500 
  5 C       -1.9820     2.6610    -0.6220 C.ar  1 <1>   0.0860 
  6 C       -3.4140     1.5470     0.9780 C.ar  1 <1>  -0.1500 
  7 C       -3.0780     2.6980     0.2640 C.ar  1 <1>   0.1000 
  8 C       -1.5450     3.8340    -1.3410 C.2   1 <1>   0.5440 
  9 N       -3.8050     3.8760     0.4320 N.pl3 1 <1>  -0.8690 
 10 O       -1.6750     3.8650    -2.5490 O.2   1 <1>  -0.5700 
 11 N       -0.9610     4.9260    -0.7200 N.am  1 <1>  -0.6600 
 12 C       -5.2340     3.8660     0.8470 C.3   1 <1>   0.1290 
 13 C       -0.7170     4.9700     0.7740 C.3   1 <1>   0.2200 
 14 C       -0.5930     6.1130    -1.5620 C.3   1 <1>   0.1400 
 15 C       -1.4010     6.1730     1.4390 C.3   1 <1>   0.1200 
 16 C        0.7870     4.9070     1.1310 C.3   1 <1>   0.3430 
 17 C        0.2410     7.2040    -0.8680 C.3   1 <1>  -0.0800 
 18 O       -0.5810     7.3020     1.4060 O.3   1 <1>  -0.5600 
 19 N        1.6850     5.2930     0.0030 N.4   1 <1>  -0.9590 
 20 C       -0.5460     7.9830     0.1960 C.3   1 <1>   0.1200 
 21 C        1.6220     6.7430    -0.3710 C.3   1 <1>   0.3430 
 22 C        3.1340     4.8950     0.2610 C.3   1 <1>   0.2370 
 23 C        4.1160     5.1720    -0.8830 C.2   1 <1>   0.9060 
 24 O        4.4630     6.3420    -1.0770 O.co2 1 <1>  -0.9000 
 25 O        4.4440     4.2340    -1.6100 O.co2 1 <1>  -0.9000 
 26 H       -0.4790     1.4060    -1.4940 H     1 <1>   0.1500 
 27 H       -2.9770    -0.5200     1.3530 H     1 <1>   0.1500 
 28 H       -4.2290     1.5680     1.6770 H     1 <1>   0.1500 
 29 H       -3.6410     4.5720    -0.3110 H     1 <1>   0.4000 
 30 H       -5.7700     3.1010     0.3100 H     1 <1>   0.0800 
 31 H       -5.6830     4.8200     0.6350 H     1 <1>   0.0800 
 32 H       -5.3080     3.6760     1.9040 H     1 <1>   0.0800 
 33 H       -1.1660     4.1100     1.2310 H     1 <1>   0.0800 
 34 H       -0.0420     5.7620    -2.4200 H     1 <1>   0.0800 
 35 H       -1.5020     6.5520    -1.9380 H     1 <1>   0.0800 
 36 H       -1.5690     5.9500     2.4780 H     1 <1>   0.0800 
 37 H       -2.3530     6.3900     0.9860 H     1 <1>   0.0800 
 38 H        1.0130     3.8960     1.4220 H     1 <1>   0.0800 
 39 H        0.9770     5.5380     1.9840 H     1 <1>   0.0800 
 40 H        0.4470     7.9310    -1.6340 H     1 <1>   0.0800 
 41 H        1.3740     4.7720    -0.8330 H     1 <1>   0.4500 
 42 H       -1.5530     8.1900    -0.1250 H     1 <1>   0.0800 
 43 H       -0.0560     8.9230     0.3870 H     1 <1>   0.0800 
 44 H        1.9280     7.3500     0.4640 H     1 <1>   0.0800 
 45 H        2.3250     6.9220    -1.1690 H     1 <1>   0.0800 
 46 H        3.5040     5.4220     1.1210 H     1 <1>   0.0800 
 47 H        3.1890     3.8400     0.4620 H     1 <1>   0.0800 
@<TRIPOS>BOND
  1   1   2  1   
  2   2   3  ar  
  3   2   4  ar  
  4   3   5  ar  
  5   3  26  1   
  6   4   6  ar  
  7   4  27  1   
  8   5   7  ar  
  9   5   8  1   
 10   6   7  ar  
 11   6  28  1   
 12   7   9  1   
 13   8  10  2   
 14   8  11  am  
 15   9  12  1   
 16   9  29  1   
 17  11  13  1   
 18  11  14  1   
 19  12  30  1   
 20  12  31  1   
 21  12  32  1   
 22  13  15  1   
 23  13  16  1   
 24  13  33  1   
 25  14  17  1   
 26  14  34  1   
 27  14  35  1   
 28  15  18  1   
 29  15  36  1   
 30  15  37  1   
 31  16  19  1   
 32  16  38  1   
 33  16  39  1   
 34  17  20  1   
 35  17  21  1   
 36  17  40  1   
 37  18  20  1   
 38  19  21  1   
 39  19  22  1   
 40  19  41  1   
 41  20  42  1   
 42  20  43  1   
 43  21  44  1   
 44  21  45  1   
 45  22  23  1   
 46  22  46  1   
 47  22  47  1   
 48  23  24  ar  
 49  23  25  ar  
@<TRIPOS>SUBSTRUCTURE
  1 ****  11 GROUP 4 **** **** 0

# MOE 2024.06 (io_trps.svl 2023.06)
