@<TRIPOS>MOLECULE
NONAME
64 68 1 0 0 
SMALL
USER_CHARGES


@<TRIPOS>ATOM
  1 O       -0.8080    -0.3230    -0.0580 O.2   1 <1>  -0.5700 
  2 C       -1.7460     0.4410     0.0700 C.2   1 <1>   0.7160 
  3 N       -2.9000    -0.0680     0.5850 N.am  1 <1>  -0.7300 
  4 C       -1.6720     1.8180    -0.3210 C.2   1 <1>  -0.0860 
  5 C       -3.1100    -1.4570     1.0400 C.3   1 <1>   0.1400 
  6 C       -2.6670     2.7870    -0.1270 C.2   1 <1>   0.3720 
  7 C       -0.7020     2.5060    -0.9870 C.2   1 <1>   0.0870 
  8 C       -3.3300    -2.3860    -0.1700 C.3   1 <1>  -0.0800 
  9 N       -2.3290     3.9150    -0.6430 N.2   1 <1>  -0.4100 
 10 N       -3.8790     2.5940     0.5550 N.pl3 1 <1>  -0.8210 
 11 O       -1.1450     3.7250    -1.1550 O.3   1 <1>  -0.0190 
 12 C        0.5990     2.1590    -1.5010 C.ar  1 <1>   0.0530 
 13 C       -3.2100    -3.9000     0.1620 C.3   1 <1>   0.4230 
 14 C       -4.6350    -2.0570    -0.9260 C.3   1 <1>  -0.1600 
 15 C       -3.8110     2.9640     2.0080 C.3   1 <1>   0.2090 
 16 C       -5.0890     3.1900    -0.1100 C.3   1 <1>   0.2090 
 17 C        1.5280     1.4450    -0.7470 C.ar  1 <1>  -0.1500 
 18 C        0.9770     2.5520    -2.7850 C.ar  1 <1>  -0.1500 
 19 N       -4.0390    -4.7280    -0.7720 N.4   1 <1>  -0.9590 
 20 C       -3.6130    -4.3070     1.5910 C.3   1 <1>  -0.1600 
 21 C       -4.7300    -2.8820    -2.2260 C.3   1 <1>  -0.1600 
 22 C       -4.1050     4.4560     2.2510 C.3   1 <1>   0.1200 
 23 C       -5.3370     4.6600     0.2850 C.3   1 <1>   0.1200 
 24 C        2.7740     1.1250    -1.2540 C.ar  1 <1>  -0.1500 
 25 C        2.2220     2.2370    -3.2980 C.ar  1 <1>  -0.1500 
 26 C       -3.9880    -4.2240    -2.1670 C.3   1 <1>   0.3430 
 27 C       -3.7070    -6.1720    -0.6670 C.3   1 <1>   0.3430 
 28 C       -3.4030    -5.8110     1.8290 C.3   1 <1>  -0.1600 
 29 O       -5.3270     4.8120     1.6750 O.3   1 <1>  -0.5600 
 30 C        3.1240     1.5200    -2.5320 C.ar  1 <1>  -0.1500 
 31 C       -4.0780    -6.6530     0.7370 C.3   1 <1>  -0.1600 
 32 H       -3.6650     0.6160     0.6940 H     1 <1>   0.3700 
 33 H       -2.2310    -1.7650     1.5830 H     1 <1>   0.0800 
 34 H       -3.9540    -1.4880     1.7090 H     1 <1>   0.0800 
 35 H       -2.5150    -2.1840    -0.8430 H     1 <1>   0.0800 
 36 H       -2.1720    -4.1670     0.0330 H     1 <1>   0.0800 
 37 H       -5.4780    -2.2750    -0.2930 H     1 <1>   0.0800 
 38 H       -4.6790    -1.0090    -1.1740 H     1 <1>   0.0800 
 39 H       -4.5270     2.3780     2.5560 H     1 <1>   0.0800 
 40 H       -2.8340     2.7330     2.3960 H     1 <1>   0.0800 
 41 H       -4.9790     3.1300    -1.1790 H     1 <1>   0.0800 
 42 H       -5.9560     2.6120     0.1600 H     1 <1>   0.0800 
 43 H        1.2720     1.1340     0.2500 H     1 <1>   0.1500 
 44 H        0.2840     3.1120    -3.3870 H     1 <1>   0.1500 
 45 H       -5.0090    -4.6170    -0.4580 H     1 <1>   0.4500 
 46 H       -3.0110    -3.7820     2.3110 H     1 <1>   0.0800 
 47 H       -4.6410    -4.0430     1.7700 H     1 <1>   0.0800 
 48 H       -4.3120    -2.3130    -3.0390 H     1 <1>   0.0800 
 49 H       -5.7650    -3.0520    -2.4660 H     1 <1>   0.0800 
 50 H       -3.3280     5.0700     1.8270 H     1 <1>   0.0800 
 51 H       -4.1670     4.6560     3.3050 H     1 <1>   0.0800 
 52 H       -6.2970     4.9830    -0.0740 H     1 <1>   0.0800 
 53 H       -4.5810     5.3000    -0.1370 H     1 <1>   0.0800 
 54 H        3.4720     0.5680    -0.6530 H     1 <1>   0.1500 
 55 H        2.4910     2.5490    -4.2920 H     1 <1>   0.1500 
 56 H       -2.9600    -4.0870    -2.4630 H     1 <1>   0.0800 
 57 H       -4.4500    -4.9240    -2.8450 H     1 <1>   0.0800 
 58 H       -4.2620    -6.7370    -1.3990 H     1 <1>   0.0800 
 59 H       -2.6540    -6.3220    -0.8420 H     1 <1>   0.0800 
 60 H       -2.3460    -6.0240     1.8350 H     1 <1>   0.0800 
 61 H       -3.7930    -6.0870     2.7960 H     1 <1>   0.0800 
 62 H        4.0930     1.2720    -2.9280 H     1 <1>   0.1500 
 63 H       -5.1470    -6.6130     0.8540 H     1 <1>   0.0800 
 64 H       -3.7830    -7.6820     0.8460 H     1 <1>   0.0800 
@<TRIPOS>BOND
  1   1   2  2   
  2   2   3  am  
  3   2   4  1   
  4   3   5  1   
  5   3  32  1   
  6   4   6  1   
  7   4   7  2   
  8   5   8  1   
  9   5  33  1   
 10   5  34  1   
 11   6   9  2   
 12   6  10  1   
 13   7  11  1   
 14   7  12  1   
 15   8  13  1   
 16   8  14  1   
 17   8  35  1   
 18   9  11  1   
 19  10  15  1   
 20  10  16  1   
 21  12  17  ar  
 22  12  18  ar  
 23  13  19  1   
 24  13  20  1   
 25  13  36  1   
 26  14  21  1   
 27  14  37  1   
 28  14  38  1   
 29  15  22  1   
 30  15  39  1   
 31  15  40  1   
 32  16  23  1   
 33  16  41  1   
 34  16  42  1   
 35  17  24  ar  
 36  17  43  1   
 37  18  25  ar  
 38  18  44  1   
 39  19  26  1   
 40  19  27  1   
 41  19  45  1   
 42  20  28  1   
 43  20  46  1   
 44  20  47  1   
 45  21  26  1   
 46  21  48  1   
 47  21  49  1   
 48  22  29  1   
 49  22  50  1   
 50  22  51  1   
 51  23  29  1   
 52  23  52  1   
 53  23  53  1   
 54  24  30  ar  
 55  24  54  1   
 56  25  30  ar  
 57  25  55  1   
 58  26  56  1   
 59  26  57  1   
 60  27  31  1   
 61  27  58  1   
 62  27  59  1   
 63  28  31  1   
 64  28  60  1   
 65  28  61  1   
 66  30  62  1   
 67  31  63  1   
 68  31  64  1   
@<TRIPOS>SUBSTRUCTURE
  1 ****   2 GROUP 4 **** **** 0

# MOE 2024.06 (io_trps.svl 2023.06)
