@<TRIPOS>MOLECULE
NONAME
61 64 1 0 0 
SMALL
USER_CHARGES


@<TRIPOS>ATOM
  1 O        0.7850     0.5770    -0.7820 O.3   1 <1>  -0.5600 
  2 C        0.7940    -0.5320     0.0740 C.3   1 <1>   0.2000 
  3 C       -0.0860     1.6110    -0.4300 C.3   1 <1>   0.0400 
  4 C        2.1970    -1.2680    -0.1220 C.3   1 <1>   0.0000 
  5 C       -0.4480    -1.3610    -0.2470 C.3   1 <1>  -0.1600 
  6 C        3.5840    -1.9730    -0.3840 C.3   1 <1>   0.3430 
  7 C        2.9650    -0.1520     0.7370 C.3   1 <1>  -0.1600 
  8 C        1.4860    -2.4360    -0.9340 C.3   1 <1>  -0.1600 
  9 C        0.1010    -2.7350    -0.4000 C.3   1 <1>  -0.1600 
 10 N        4.0090    -2.7730     0.8110 N.4   1 <1>  -0.9590 
 11 C        3.4730    -0.7330     2.0740 C.3   1 <1>  -0.1600 
 12 C        4.5020    -1.8420     1.8600 C.3   1 <1>   0.3430 
 13 C        5.0290    -3.8110     0.4720 C.3   1 <1>   0.5240 
 14 C        6.2600    -3.1670    -0.1370 C.2   1 <1>  -0.1810 
 15 C        6.4710    -2.9490    -1.4930 C.2   1 <1>   0.1390 
 16 C        7.3800    -2.6930     0.4550 C.2   1 <1>  -0.3020 
 17 N        7.6030    -2.3730    -1.7220 N.2   1 <1>  -0.7070 
 18 N        8.1990    -2.2050    -0.5140 N.pl3 1 <1>   0.5930 
 19 C        9.4830    -1.6120    -0.3380 C.ar  1 <1>  -0.0230 
 20 C        9.7980    -0.8900     0.8110 C.ar  1 <1>  -0.1500 
 21 C       10.4620    -1.7410    -1.3190 C.ar  1 <1>  -0.1500 
 22 C       11.0510    -0.3280     0.9740 C.ar  1 <1>  -0.1500 
 23 C       11.7140    -1.1780    -1.1550 C.ar  1 <1>  -0.1500 
 24 C       12.0240    -0.4670    -0.0060 C.ar  1 <1>  -0.1440 
 25 C       13.4120     0.1470     0.1590 C.3   1 <1>   0.0630 
 26 C       14.1340    -0.4460     1.3730 C.3   1 <1>  -0.2400 
 27 C       13.3260     1.6730     0.2690 C.3   1 <1>  -0.2400 
 28 H        0.6540    -0.2000     1.0920 H     1 <1>   0.0800 
 29 H        0.0180     2.3960    -1.1580 H     1 <1>   0.0800 
 30 H        0.1780     1.9840     0.5440 H     1 <1>   0.0800 
 31 H       -1.1000     1.2500    -0.4350 H     1 <1>   0.0800 
 32 H       -1.1790    -1.3180     0.5410 H     1 <1>   0.0800 
 33 H       -0.8930    -1.0480    -1.1770 H     1 <1>   0.0800 
 34 H        4.3530    -1.2550    -0.6160 H     1 <1>   0.0800 
 35 H        3.5700    -2.6030    -1.2590 H     1 <1>   0.0800 
 36 H        3.7840     0.2920     0.1910 H     1 <1>   0.0800 
 37 H        2.4170     0.7370     1.0100 H     1 <1>   0.0800 
 38 H        1.3920    -2.1210    -1.9630 H     1 <1>   0.0800 
 39 H        1.9470    -3.4140    -0.9470 H     1 <1>   0.0800 
 40 H        0.1580    -3.2270     0.5560 H     1 <1>   0.0800 
 41 H       -0.4870    -3.3270    -1.0820 H     1 <1>   0.0800 
 42 H        3.1680    -3.2410     1.1710 H     1 <1>   0.4500 
 43 H        2.6440    -1.1160     2.6430 H     1 <1>   0.0800 
 44 H        3.9270     0.0500     2.6570 H     1 <1>   0.0800 
 45 H        4.6820    -2.3670     2.7840 H     1 <1>   0.0800 
 46 H        5.4270    -1.3940     1.5350 H     1 <1>   0.0800 
 47 H        5.3130    -4.3460     1.3630 H     1 <1>   0.0800 
 48 H        4.6150    -4.5210    -0.2260 H     1 <1>   0.0800 
 49 H        5.7890    -3.2180    -2.2850 H     1 <1>   0.1500 
 50 H        7.6650    -2.6740     1.4900 H     1 <1>   0.1500 
 51 H        9.0680    -0.7550     1.5870 H     1 <1>   0.1500 
 52 H       10.2420    -2.2870    -2.2220 H     1 <1>   0.1500 
 53 H       11.2700     0.2230     1.8710 H     1 <1>   0.1500 
 54 H       12.4480    -1.2980    -1.9320 H     1 <1>   0.1500 
 55 H       13.9980    -0.0850    -0.7150 H     1 <1>   0.0800 
 56 H       13.6180    -0.2010     2.2840 H     1 <1>   0.0800 
 57 H       15.1370    -0.0660     1.4330 H     1 <1>   0.0800 
 58 H       14.1780    -1.5170     1.2830 H     1 <1>   0.0800 
 59 H       12.7930     1.9640     1.1550 H     1 <1>   0.0800 
 60 H       12.8110     2.0710    -0.5870 H     1 <1>   0.0800 
 61 H       14.3120     2.1000     0.3040 H     1 <1>   0.0800 
@<TRIPOS>BOND
  1   1   2  1   
  2   1   3  1   
  3   2   4  1   
  4   2   5  1   
  5   2  28  1   
  6   3  29  1   
  7   3  30  1   
  8   3  31  1   
  9   4   6  1   
 10   4   7  1   
 11   4   8  1   
 12   5   9  1   
 13   5  32  1   
 14   5  33  1   
 15   6  10  1   
 16   6  34  1   
 17   6  35  1   
 18   7  11  1   
 19   7  36  1   
 20   7  37  1   
 21   8   9  1   
 22   8  38  1   
 23   8  39  1   
 24   9  40  1   
 25   9  41  1   
 26  10  12  1   
 27  10  13  1   
 28  10  42  1   
 29  11  12  1   
 30  11  43  1   
 31  11  44  1   
 32  12  45  1   
 33  12  46  1   
 34  13  14  1   
 35  13  47  1   
 36  13  48  1   
 37  14  15  1   
 38  14  16  2   
 39  15  17  2   
 40  15  49  1   
 41  16  18  1   
 42  16  50  1   
 43  17  18  1   
 44  18  19  1   
 45  19  20  ar  
 46  19  21  ar  
 47  20  22  ar  
 48  20  51  1   
 49  21  23  ar  
 50  21  52  1   
 51  22  24  ar  
 52  22  53  1   
 53  23  24  ar  
 54  23  54  1   
 55  24  25  1   
 56  25  26  1   
 57  25  27  1   
 58  25  55  1   
 59  26  56  1   
 60  26  57  1   
 61  26  58  1   
 62  27  59  1   
 63  27  60  1   
 64  27  61  1   
@<TRIPOS>SUBSTRUCTURE
  1 ****  16 GROUP 4 **** **** 0

# MOE 2024.06 (io_trps.svl 2023.06)
