@<TRIPOS>MOLECULE
NONAME
52 54 1 0 0 
SMALL
USER_CHARGES


@<TRIPOS>ATOM
  1 O        0.2160    -0.5490     1.5900 O.2   1 <1>  -0.5700 
  2 C        1.2010    -1.0180     1.0530 C.2   1 <1>   0.5440 
  3 N        2.1400    -0.1610     0.5250 N.am  1 <1>  -0.6600 
  4 C        1.3570    -2.4570     0.9740 C.ar  1 <1>   0.0860 
  5 C        3.1470    -0.5360    -0.4940 C.3   1 <1>   0.1400 
  6 C        1.9930     1.3090     0.6040 C.3   1 <1>   0.1400 
  7 C        0.3460    -3.2840     0.5230 C.ar  1 <1>  -0.1500 
  8 C        2.5250    -3.1090     1.3480 C.ar  1 <1>  -0.1500 
  9 C        3.4130     0.7500    -1.2670 C.3   1 <1>  -0.1600 
 10 C        3.1120     1.8650    -0.2690 C.3   1 <1>  -0.1600 
 11 C        0.5270    -4.6570     0.4420 C.ar  1 <1>   0.4100 
 12 C        2.6170    -4.4800     1.2350 C.ar  1 <1>   0.1600 
 13 N        1.6540    -5.2650     0.7870 N.ar  1 <1>  -0.6200 
 14 N       -0.4970    -5.4440    -0.0240 N.pl3 1 <1>  -0.8690 
 15 C       -0.5110    -6.9090     0.2080 C.3   1 <1>   0.2090 
 16 C       -1.8110    -7.5370    -0.3230 C.3   1 <1>   0.2000 
 17 O       -2.9190    -6.8690     0.1980 O.3   1 <1>  -0.6800 
 18 C       -1.9140    -9.0230     0.0370 C.3   1 <1>   0.1200 
 19 O       -3.1790    -9.5160    -0.3650 O.3   1 <1>  -0.3630 
 20 C       -3.5130   -10.8190    -0.1710 C.ar  1 <1>   0.0820 
 21 C       -2.6940   -11.7420     0.4730 C.ar  1 <1>  -0.1500 
 22 C       -4.7480   -11.2230    -0.6540 C.ar  1 <1>  -0.1500 
 23 C       -3.1170   -13.0510     0.6250 C.ar  1 <1>  -0.1500 
 24 C       -5.1710   -12.5320    -0.5020 C.ar  1 <1>  -0.1500 
 25 C       -4.3510   -13.4560     0.1420 C.ar  1 <1>   0.0820 
 26 O       -4.6840   -14.7580     0.3350 O.3   1 <1>  -0.3620 
 27 C       -5.9190   -15.2680    -0.1160 C.3   1 <1>   0.0400 
 28 H        2.7810    -1.3150    -1.1410 H     1 <1>   0.0800 
 29 H        4.0450    -0.8630     0.0020 H     1 <1>   0.0800 
 30 H        2.0750     1.6440     1.6240 H     1 <1>   0.0800 
 31 H        1.0300     1.5880     0.2110 H     1 <1>   0.0800 
 32 H       -0.5940    -2.8580     0.2290 H     1 <1>   0.1500 
 33 H        3.3520    -2.5390     1.7300 H     1 <1>   0.1500 
 34 H        2.7280     0.8070    -2.0950 H     1 <1>   0.0800 
 35 H        4.4200     0.7930    -1.6410 H     1 <1>   0.0800 
 36 H        3.9750     2.0500     0.3460 H     1 <1>   0.0800 
 37 H        2.8230     2.7820    -0.7510 H     1 <1>   0.0800 
 38 H        3.5340    -4.9630     1.5300 H     1 <1>   0.1500 
 39 H       -1.4440    -5.0640     0.0950 H     1 <1>   0.4000 
 40 H       -0.4200    -7.1000     1.2640 H     1 <1>   0.0800 
 41 H        0.3350    -7.3520    -0.2880 H     1 <1>   0.0800 
 42 H       -1.8370    -7.4310    -1.3940 H     1 <1>   0.0800 
 43 H       -3.7160    -7.4100     0.0140 H     1 <1>   0.4000 
 44 H       -1.8180    -9.1550     1.1010 H     1 <1>   0.0800 
 45 H       -1.1510    -9.5840    -0.4730 H     1 <1>   0.0800 
 46 H       -1.7320   -11.4690     0.8630 H     1 <1>   0.1500 
 47 H       -5.3760   -10.5060    -1.1500 H     1 <1>   0.1500 
 48 H       -2.4930   -13.7720     1.1210 H     1 <1>   0.1500 
 49 H       -6.1320   -12.8110    -0.8880 H     1 <1>   0.1500 
 50 H       -5.9650   -16.3100     0.1460 H     1 <1>   0.0800 
 51 H       -5.9730   -15.1570    -1.1840 H     1 <1>   0.0800 
 52 H       -6.7160   -14.7340     0.3700 H     1 <1>   0.0800 
@<TRIPOS>BOND
  1   1   2  2   
  2   2   3  am  
  3   2   4  1   
  4   3   5  1   
  5   3   6  1   
  6   4   7  ar  
  7   4   8  ar  
  8   5   9  1   
  9   5  28  1   
 10   5  29  1   
 11   6  10  1   
 12   6  30  1   
 13   6  31  1   
 14   7  11  ar  
 15   7  32  1   
 16   8  12  ar  
 17   8  33  1   
 18   9  10  1   
 19   9  34  1   
 20   9  35  1   
 21  10  36  1   
 22  10  37  1   
 23  11  13  ar  
 24  11  14  1   
 25  12  13  ar  
 26  12  38  1   
 27  14  15  1   
 28  14  39  1   
 29  15  16  1   
 30  15  40  1   
 31  15  41  1   
 32  16  17  1   
 33  16  18  1   
 34  16  42  1   
 35  17  43  1   
 36  18  19  1   
 37  18  44  1   
 38  18  45  1   
 39  19  20  1   
 40  20  21  ar  
 41  20  22  ar  
 42  21  23  ar  
 43  21  46  1   
 44  22  24  ar  
 45  22  47  1   
 46  23  25  ar  
 47  23  48  1   
 48  24  25  ar  
 49  24  49  1   
 50  25  26  1   
 51  26  27  1   
 52  27  50  1   
 53  27  51  1   
 54  27  52  1   
@<TRIPOS>SUBSTRUCTURE
  1 ****  15 GROUP 4 **** **** 0

# MOE 2024.06 (io_trps.svl 2023.06)
