@<TRIPOS>MOLECULE
NONAME
47 49 1 0 0 
SMALL
USER_CHARGES


@<TRIPOS>ATOM
  1 S        0.3790     0.1600    -0.5920 S.3   1 <1>  -0.4600 
  2 C        2.1730     0.3800    -0.8470 C.3   1 <1>   0.2510 
  3 C       -0.0530    -1.1670    -1.7470 C.3   1 <1>  -0.0100 
  4 C        2.7000     1.5210     0.0100 C.2   1 <1>   0.3350 
  5 N        3.3210     1.3760     1.1130 N.2   1 <1>  -0.4100 
  6 N        2.5620     2.7900    -0.3560 N.2   1 <1>  -0.5650 
  7 O        3.6200     2.5640     1.5420 O.3   1 <1>  -0.0190 
  8 C        3.1460     3.3660     0.6200 C.2   1 <1>   0.2980 
  9 C        3.2970     4.8740     0.8100 C.3   1 <1>   0.2900 
 10 N        4.6270     5.4190     0.4250 N.3   1 <1>  -0.8100 
 11 C        5.7050     4.9500     1.3280 C.3   1 <1>   0.1100 
 12 C        4.5830     6.8840     0.3490 C.3   1 <1>   0.1100 
 13 C        7.0800     5.4550     0.8700 C.3   1 <1>   0.2000 
 14 C        5.9010     7.4090    -0.2240 C.3   1 <1>  -0.1600 
 15 O        8.0140     5.1230     1.8430 O.3   1 <1>  -0.6800 
 16 C        7.0800     6.9810     0.6500 C.3   1 <1>   0.2200 
 17 N        8.3370     7.4440     0.0060 N.am  1 <1>  -0.7300 
 18 C        9.5280     7.6490     0.6400 C.2   1 <1>   0.5440 
 19 O        9.6020     7.3550     1.8170 O.2   1 <1>  -0.5700 
 20 C       10.6800     8.1640    -0.0800 C.ar  1 <1>   0.0860 
 21 C       11.9770     7.8420     0.3210 C.ar  1 <1>  -0.1500 
 22 C       10.5430     8.9960    -1.1940 C.ar  1 <1>  -0.1500 
 23 C       13.0850     8.3130    -0.3610 C.ar  1 <1>  -0.1500 
 24 C       11.6470     9.4700    -1.8810 C.ar  1 <1>  -0.1500 
 25 C       12.9210     9.1280    -1.4660 C.ar  1 <1>  -0.1500 
 26 H        2.6490    -0.5440    -0.5780 H     1 <1>   0.0800 
 27 H        2.3290     0.5910    -1.8890 H     1 <1>   0.0800 
 28 H       -1.1070    -1.3550    -1.6480 H     1 <1>   0.0800 
 29 H        0.5170    -2.0400    -1.4820 H     1 <1>   0.0800 
 30 H        0.1830    -0.8340    -2.7420 H     1 <1>   0.0800 
 31 H        3.0840     5.1200     1.8350 H     1 <1>   0.0800 
 32 H        2.5440     5.3390     0.1970 H     1 <1>   0.0800 
 33 H        5.5150     5.2960     2.3300 H     1 <1>   0.0800 
 34 H        5.7390     3.8750     1.3320 H     1 <1>   0.0800 
 35 H        3.7780     7.1880    -0.3000 H     1 <1>   0.0800 
 36 H        4.4100     7.3000     1.3280 H     1 <1>   0.0800 
 37 H        7.3540     4.9520    -0.0400 H     1 <1>   0.0800 
 38 H        5.8590     8.4820    -0.2700 H     1 <1>   0.0800 
 39 H        6.0160     7.0230    -1.2210 H     1 <1>   0.0800 
 40 H        8.7030     5.8380     1.8810 H     1 <1>   0.4000 
 41 H        6.9800     7.4590     1.6110 H     1 <1>   0.0800 
 42 H        8.3130     7.4730    -1.0140 H     1 <1>   0.3700 
 43 H       12.1140     7.2100     1.1830 H     1 <1>   0.1500 
 44 H        9.5620     9.2850    -1.5250 H     1 <1>   0.1500 
 45 H       14.0740     8.0470    -0.0300 H     1 <1>   0.1500 
 46 H       11.5180    10.1090    -2.7380 H     1 <1>   0.1500 
 47 H       13.7810     9.4950    -1.9990 H     1 <1>   0.1500 
@<TRIPOS>BOND
  1   1   2  1   
  2   1   3  1   
  3   2   4  1   
  4   2  26  1   
  5   2  27  1   
  6   3  28  1   
  7   3  29  1   
  8   3  30  1   
  9   4   5  2   
 10   4   6  1   
 11   5   7  1   
 12   6   8  2   
 13   7   8  1   
 14   8   9  1   
 15   9  10  1   
 16   9  31  1   
 17   9  32  1   
 18  10  11  1   
 19  10  12  1   
 20  11  13  1   
 21  11  33  1   
 22  11  34  1   
 23  12  14  1   
 24  12  35  1   
 25  12  36  1   
 26  13  15  1   
 27  13  16  1   
 28  13  37  1   
 29  14  16  1   
 30  14  38  1   
 31  14  39  1   
 32  15  40  1   
 33  16  17  1   
 34  16  41  1   
 35  17  18  am  
 36  17  42  1   
 37  18  19  2   
 38  18  20  1   
 39  20  21  ar  
 40  20  22  ar  
 41  21  23  ar  
 42  21  43  1   
 43  22  24  ar  
 44  22  44  1   
 45  23  25  ar  
 46  23  45  1   
 47  24  25  ar  
 48  24  46  1   
 49  25  47  1   
@<TRIPOS>SUBSTRUCTURE
  1 ****  13 GROUP 4 **** **** 0

# MOE 2024.06 (io_trps.svl 2023.06)
