@<TRIPOS>MOLECULE
NONAME
44 45 1 0 0 
SMALL
USER_CHARGES


@<TRIPOS>ATOM
  1 CL       2.4390     0.1730    -0.7180 Cl    1 <1>  -0.1770 
  2 C        3.5480    -0.1550     0.5930 C.ar  1 <1>   0.1770 
  3 C        4.7570     0.5210     0.6990 C.ar  1 <1>   0.0860 
  4 C        3.1940    -1.1170     1.5220 C.ar  1 <1>   0.1600 
  5 C        5.1940     1.5510    -0.2180 C.2   1 <1>   0.5440 
  6 C        5.5460     0.1250     1.7720 C.ar  1 <1>  -0.1500 
  7 N        3.9430    -1.4730     2.5540 N.ar  1 <1>  -0.6200 
  8 O        6.3450     1.5720    -0.6100 O.2   1 <1>  -0.5700 
  9 N        4.3920     2.5980    -0.6060 N.am  1 <1>  -0.6600 
 10 C        5.1060    -0.8490     2.6500 C.ar  1 <1>   0.1600 
 11 C        4.6030     3.2750    -1.9280 C.3   1 <1>   0.1400 
 12 C        3.5490     3.3420     0.3620 C.3   1 <1>   0.1400 
 13 C        5.8330     4.2090    -1.9250 C.3   1 <1>   0.3430 
 14 C        4.4010     4.3760     1.1130 C.3   1 <1>  -0.1600 
 15 N        6.2400     4.5840    -0.5370 N.4   1 <1>  -0.9590 
 16 C        5.2010     5.3350     0.2200 C.3   1 <1>   0.3430 
 17 C        7.5910     5.1700    -0.4720 C.3   1 <1>   0.4810 
 18 C        8.0510     5.0310     0.9600 C.2   1 <1>  -0.2880 
 19 C        8.7250     4.0030     1.4880 C.2   1 <1>  -0.2760 
 20 C        9.1430     3.9780     2.9500 C.3   1 <1>  -0.1020 
 21 C        9.1630     2.7500     0.7380 C.3   1 <1>  -0.1020 
 22 H        2.2470    -1.6160     1.4070 H     1 <1>   0.1500 
 23 H        6.5100     0.5780     1.9210 H     1 <1>   0.1500 
 24 H        5.7410    -1.1330     3.4740 H     1 <1>   0.1500 
 25 H        4.7390     2.5260    -2.6910 H     1 <1>   0.0800 
 26 H        3.7240     3.8370    -2.1920 H     1 <1>   0.0800 
 27 H        2.7420     3.8280    -0.1600 H     1 <1>   0.0800 
 28 H        3.1090     2.6570     1.0690 H     1 <1>   0.0800 
 29 H        5.6300     5.0860    -2.5160 H     1 <1>   0.0800 
 30 H        6.6450     3.6760    -2.3930 H     1 <1>   0.0800 
 31 H        5.0730     3.8720     1.7860 H     1 <1>   0.0800 
 32 H        3.7400     4.9640     1.7230 H     1 <1>   0.0800 
 33 H        6.3380     3.6640    -0.0670 H     1 <1>   0.4500 
 34 H        5.6720     6.0720     0.8490 H     1 <1>   0.0800 
 35 H        4.5410     5.8490    -0.4590 H     1 <1>   0.0800 
 36 H        8.2570     4.6140    -1.1120 H     1 <1>   0.0800 
 37 H        7.5910     6.2020    -0.7830 H     1 <1>   0.0800 
 38 H        7.7720     5.8850     1.5530 H     1 <1>   0.1500 
 39 H        8.7060     3.1320     3.4500 H     1 <1>   0.0800 
 40 H        8.8270     4.8720     3.4580 H     1 <1>   0.0800 
 41 H       10.2140     3.9080     3.0290 H     1 <1>   0.0800 
 42 H        8.7370     1.8760     1.1960 H     1 <1>   0.0800 
 43 H       10.2340     2.6590     0.7680 H     1 <1>   0.0800 
 44 H        8.8580     2.7620    -0.2920 H     1 <1>   0.0800 
@<TRIPOS>BOND
  1   1   2  1   
  2   2   3  ar  
  3   2   4  ar  
  4   3   5  1   
  5   3   6  ar  
  6   4   7  ar  
  7   4  22  1   
  8   5   8  2   
  9   5   9  am  
 10   6  10  ar  
 11   6  23  1   
 12   7  10  ar  
 13   9  11  1   
 14   9  12  1   
 15  10  24  1   
 16  11  13  1   
 17  11  25  1   
 18  11  26  1   
 19  12  14  1   
 20  12  27  1   
 21  12  28  1   
 22  13  15  1   
 23  13  29  1   
 24  13  30  1   
 25  14  16  1   
 26  14  31  1   
 27  14  32  1   
 28  15  16  1   
 29  15  17  1   
 30  15  33  1   
 31  16  34  1   
 32  16  35  1   
 33  17  18  1   
 34  17  36  1   
 35  17  37  1   
 36  18  19  2   
 37  18  38  1   
 38  19  20  1   
 39  19  21  1   
 40  20  39  1   
 41  20  40  1   
 42  20  41  1   
 43  21  42  1   
 44  21  43  1   
 45  21  44  1   
@<TRIPOS>SUBSTRUCTURE
  1 ****   5 GROUP 4 **** **** 0

# MOE 2024.06 (io_trps.svl 2023.06)
