@<TRIPOS>MOLECULE
NONAME
62 66 1 0 0 
SMALL
USER_CHARGES


@<TRIPOS>ATOM
  1 O       -0.6530    -1.4670     1.9790 O.2   1 <1>  -0.5700 
  2 C       -0.9700    -1.4130     0.8080 C.2   1 <1>   0.5440 
  3 N       -0.3460    -2.2620    -0.0650 N.am  1 <1>  -0.7300 
  4 C       -1.9670    -0.4650     0.3530 C.ar  1 <1>   0.0860 
  5 C        0.7740    -3.1480     0.3210 C.3   1 <1>   0.1400 
  6 C       -2.1990     0.7060     1.0720 C.ar  1 <1>   0.1600 
  7 C       -2.7280    -0.6580    -0.7950 C.ar  1 <1>  -0.1500 
  8 C        0.2300    -4.4600     0.9040 C.3   1 <1>  -0.0800 
  9 N       -3.0640     1.6580     0.7520 N.ar  1 <1>  -0.6200 
 10 C       -3.6370     0.3170    -1.1440 C.ar  1 <1>  -0.1500 
 11 C       -0.3160    -5.3810    -0.1970 C.3   1 <1>   0.2000 
 12 C        1.2870    -5.3870     1.5470 C.3   1 <1>  -0.0800 
 13 C       -3.7640     1.4420    -0.3490 C.ar  1 <1>   0.1600 
 14 O        0.8340    -6.0640    -0.5400 O.3   1 <1>  -0.5600 
 15 C       -1.1700    -6.5130     0.3900 C.3   1 <1>  -0.1600 
 16 C        1.1590    -6.6310     0.6790 C.3   1 <1>   0.2800 
 17 C        2.7780    -5.0120     1.4590 C.3   1 <1>   0.3430 
 18 C       -0.1030    -7.4330     0.9940 C.3   1 <1>  -0.1600 
 19 C        2.5450    -7.2700     0.6630 C.3   1 <1>   0.3430 
 20 N        3.4940    -6.1140     0.7270 N.4   1 <1>  -0.9590 
 21 C        3.8800    -5.6920    -0.6540 C.3   1 <1>   0.4860 
 22 C        4.7550    -4.4540    -0.5750 C.ar  1 <1>  -0.1430 
 23 C        4.3170    -3.2690    -1.1450 C.ar  1 <1>  -0.1500 
 24 C        5.9830    -4.4830     0.0690 C.ar  1 <1>  -0.1500 
 25 C        5.0840    -2.1220    -1.0480 C.ar  1 <1>  -0.1500 
 26 C        6.7470    -3.3330     0.1620 C.ar  1 <1>  -0.1500 
 27 C        6.3040    -2.1410    -0.3900 C.ar  1 <1>  -0.1430 
 28 C        7.1600    -0.8810    -0.2720 C.3   1 <1>   0.0630 
 29 C        6.4190     0.2130     0.5050 C.3   1 <1>  -0.2400 
 30 C        7.5820    -0.3750    -1.6550 C.3   1 <1>  -0.2400 
 31 H       -0.5190    -2.1570    -1.0670 H     1 <1>   0.3700 
 32 H        1.3890    -3.3410    -0.5400 H     1 <1>   0.0800 
 33 H        1.3690    -2.6370     1.0610 H     1 <1>   0.0800 
 34 H       -1.6250     0.8630     1.9710 H     1 <1>   0.1500 
 35 H       -2.6230    -1.5440    -1.3950 H     1 <1>   0.1500 
 36 H       -0.5400    -4.2260     1.6210 H     1 <1>   0.0800 
 37 H       -4.2470     0.2120    -2.0230 H     1 <1>   0.1500 
 38 H       -0.7530    -4.8810    -1.0460 H     1 <1>   0.0800 
 39 H        1.0380    -5.6000     2.5720 H     1 <1>   0.0800 
 40 H       -4.4760     2.2010    -0.6290 H     1 <1>   0.1500 
 41 H       -1.8710    -6.1480     1.1210 H     1 <1>   0.0800 
 42 H       -1.7100    -7.0130    -0.3960 H     1 <1>   0.0800 
 43 H        3.1770    -4.9160     2.4560 H     1 <1>   0.0800 
 44 H        2.9180    -4.0700     0.9580 H     1 <1>   0.0800 
 45 H       -0.0850    -8.3830     0.4880 H     1 <1>   0.0800 
 46 H       -0.2400    -7.5880     2.0500 H     1 <1>   0.0800 
 47 H        2.6840    -7.8760    -0.2170 H     1 <1>   0.0800 
 48 H        2.6570    -7.8820     1.5430 H     1 <1>   0.0800 
 49 H        4.3570    -6.3580     1.2270 H     1 <1>   0.4500 
 50 H        4.4210    -6.4820    -1.1480 H     1 <1>   0.0800 
 51 H        2.9980    -5.4740    -1.2330 H     1 <1>   0.0800 
 52 H        3.3810    -3.2200    -1.6740 H     1 <1>   0.1500 
 53 H        6.3650    -5.3900     0.5030 H     1 <1>   0.1500 
 54 H        4.7280    -1.2090    -1.4930 H     1 <1>   0.1500 
 55 H        7.6980    -3.3700     0.6670 H     1 <1>   0.1500 
 56 H        8.0560    -1.1200     0.2760 H     1 <1>   0.0800 
 57 H        5.5380     0.5310    -0.0230 H     1 <1>   0.0800 
 58 H        7.0590     1.0650     0.6460 H     1 <1>   0.0800 
 59 H        6.1260    -0.1580     1.4710 H     1 <1>   0.0800 
 60 H        6.7280    -0.0690    -2.2310 H     1 <1>   0.0800 
 61 H        8.0940    -1.1560    -2.1890 H     1 <1>   0.0800 
 62 H        8.2480     0.4640    -1.5570 H     1 <1>   0.0800 
@<TRIPOS>BOND
  1   1   2  2   
  2   2   3  am  
  3   2   4  1   
  4   3   5  1   
  5   3  31  1   
  6   4   6  ar  
  7   4   7  ar  
  8   5   8  1   
  9   5  32  1   
 10   5  33  1   
 11   6   9  ar  
 12   6  34  1   
 13   7  10  ar  
 14   7  35  1   
 15   8  11  1   
 16   8  12  1   
 17   8  36  1   
 18   9  13  ar  
 19  10  13  ar  
 20  10  37  1   
 21  11  14  1   
 22  11  15  1   
 23  11  38  1   
 24  12  16  1   
 25  12  17  1   
 26  12  39  1   
 27  13  40  1   
 28  14  16  1   
 29  15  18  1   
 30  15  41  1   
 31  15  42  1   
 32  16  18  1   
 33  16  19  1   
 34  17  20  1   
 35  17  43  1   
 36  17  44  1   
 37  18  45  1   
 38  18  46  1   
 39  19  20  1   
 40  19  47  1   
 41  19  48  1   
 42  20  21  1   
 43  20  49  1   
 44  21  22  1   
 45  21  50  1   
 46  21  51  1   
 47  22  23  ar  
 48  22  24  ar  
 49  23  25  ar  
 50  23  52  1   
 51  24  26  ar  
 52  24  53  1   
 53  25  27  ar  
 54  25  54  1   
 55  26  27  ar  
 56  26  55  1   
 57  27  28  1   
 58  28  29  1   
 59  28  30  1   
 60  28  56  1   
 61  29  57  1   
 62  29  58  1   
 63  29  59  1   
 64  30  60  1   
 65  30  61  1   
 66  30  62  1   
@<TRIPOS>SUBSTRUCTURE
  1 ****   5 GROUP 4 **** **** 0

# MOE 2024.06 (io_trps.svl 2023.06)
