@<TRIPOS>MOLECULE
NONAME
44 46 1 0 0 
SMALL
USER_CHARGES


@<TRIPOS>ATOM
  1 S        0.7290     0.0950     0.7980 S.o2  1 <1>   1.3330 
  2 O        0.8870    -1.3070     0.4810 O.2   1 <1>  -0.6500 
  3 O        0.7610     0.5180     2.1790 O.2   1 <1>  -0.6500 
  4 N       -0.7430     0.6070     0.1230 N.am  1 <1>  -0.8490 
  5 C        1.9540     1.0430    -0.1040 C.3   1 <1>  -0.0550 
  6 C       -1.0460    -0.0230    -1.1660 C.3   1 <1>   0.1160 
  7 C       -1.8660     0.4200     1.0460 C.3   1 <1>   0.1160 
  8 C        3.3870     0.8530     0.4240 C.3   1 <1>  -0.0800 
  9 C        4.4120     1.6030    -0.4000 C.3   1 <1>   0.2200 
 10 C        3.9090    -0.5810     0.3490 C.3   1 <1>   0.1200 
 11 N        4.5090     3.0170     0.0150 N.am  1 <1>  -0.7300 
 12 C        5.6880     0.8130    -0.1430 C.3   1 <1>   0.1200 
 13 O        5.2880    -0.4950     0.1430 O.3   1 <1>  -0.5600 
 14 C        3.8670     4.0530    -0.5770 C.2   1 <1>   0.5690 
 15 O        3.0760     3.8760    -1.4730 O.2   1 <1>  -0.5700 
 16 C        4.1300     5.4650    -0.0880 C.3   1 <1>   0.0820 
 17 C        5.6070     5.7310     0.1660 C.2   1 <1>   0.0460 
 18 N        6.2700     5.1030     1.1690 N.2   1 <1>  -0.5650 
 19 C        6.4200     6.5800    -0.5160 C.2   1 <1>  -0.3020 
 20 C        7.4540     5.6040     1.0430 C.2   1 <1>   0.2420 
 21 N        7.6410     6.5020     0.0560 N.pl3 1 <1>   0.3340 
 22 S        8.9670     5.3480     1.9330 S.3   1 <1>  -0.1570 
 23 C        8.9520     7.0160    -0.0360 C.2   1 <1>  -0.1810 
 24 C        9.8030     6.5210     0.8790 C.2   1 <1>  -0.0490 
 25 H        1.9190     0.7740    -1.1410 H     1 <1>   0.0800 
 26 H        1.7010     2.0830    -0.0320 H     1 <1>   0.0800 
 27 H       -1.9460     0.3980    -1.5800 H     1 <1>   0.0800 
 28 H       -1.1800    -1.0860    -1.0450 H     1 <1>   0.0800 
 29 H       -0.2430     0.1470    -1.8610 H     1 <1>   0.0800 
 30 H       -2.7800     0.7720     0.5980 H     1 <1>   0.0800 
 31 H       -1.6980     0.9830     1.9490 H     1 <1>   0.0800 
 32 H       -1.9720    -0.6210     1.3010 H     1 <1>   0.0800 
 33 H        3.4410     1.1710     1.4520 H     1 <1>   0.0800 
 34 H        4.1720     1.5440    -1.4500 H     1 <1>   0.0800 
 35 H        3.4900    -1.1110    -0.4890 H     1 <1>   0.0800 
 36 H        3.7220    -1.1310     1.2550 H     1 <1>   0.0800 
 37 H        5.2110     3.2510     0.7320 H     1 <1>   0.3700 
 38 H        6.2110     1.1870     0.7190 H     1 <1>   0.0800 
 39 H        6.3350     0.8010    -1.0020 H     1 <1>   0.0800 
 40 H        3.7640     6.1580    -0.8220 H     1 <1>   0.0800 
 41 H        3.5810     5.6210     0.8210 H     1 <1>   0.0800 
 42 H        6.2130     7.2200    -1.3530 H     1 <1>   0.1500 
 43 H        9.1570     7.7370    -0.8040 H     1 <1>   0.1500 
 44 H       10.8460     6.6960     1.0820 H     1 <1>   0.1500 
@<TRIPOS>BOND
  1   1   2  2   
  2   1   3  2   
  3   1   4  am  
  4   1   5  1   
  5   4   6  1   
  6   4   7  1   
  7   5   8  1   
  8   5  25  1   
  9   5  26  1   
 10   6  27  1   
 11   6  28  1   
 12   6  29  1   
 13   7  30  1   
 14   7  31  1   
 15   7  32  1   
 16   8   9  1   
 17   8  10  1   
 18   8  33  1   
 19   9  11  1   
 20   9  12  1   
 21   9  34  1   
 22  10  13  1   
 23  10  35  1   
 24  10  36  1   
 25  11  14  am  
 26  11  37  1   
 27  12  13  1   
 28  12  38  1   
 29  12  39  1   
 30  14  15  2   
 31  14  16  1   
 32  16  17  1   
 33  16  40  1   
 34  16  41  1   
 35  17  18  1   
 36  17  19  2   
 37  18  20  2   
 38  19  21  1   
 39  19  42  1   
 40  20  21  1   
 41  20  22  1   
 42  21  23  1   
 43  22  24  1   
 44  23  24  2   
 45  23  43  1   
 46  24  44  1   
@<TRIPOS>SUBSTRUCTURE
  1 ****  11 GROUP 4 **** **** 0

# MOE 2024.06 (io_trps.svl 2023.06)
