@<TRIPOS>MOLECULE
NONAME
37 39 1 0 0 
SMALL
USER_CHARGES


@<TRIPOS>ATOM
  1 S        0.1710     0.6610     0.7850 S.3   1 <1>  -0.0800 
  2 C        0.0150    -0.8480    -0.0850 C.2   1 <1>  -0.1100 
  3 C        0.8770    -0.1630     2.1590 C.2   1 <1>  -0.1100 
  4 C        0.4550    -1.9040     0.6430 C.2   1 <1>  -0.0860 
  5 C        0.9580    -1.4850     1.9270 C.2   1 <1>  -0.1500 
  6 C        0.4650    -3.2990     0.2460 C.2   1 <1>   0.7160 
  7 O        1.4470    -3.9740     0.4920 O.2   1 <1>  -0.5700 
  8 N       -0.6090    -3.8910    -0.3920 N.am  1 <1>  -0.6600 
  9 C       -1.9950    -3.3520    -0.2520 C.3   1 <1>   0.2200 
 10 C       -0.4320    -5.2310    -1.0340 C.3   1 <1>   0.0600 
 11 C       -2.9990    -4.3460     0.3290 C.3   1 <1>  -0.1600 
 12 C       -2.6130    -2.9260    -1.5810 C.3   1 <1>  -0.1600 
 13 C       -4.3670    -3.7830    -0.0780 C.3   1 <1>  -0.0800 
 14 C       -4.1210    -2.8830    -1.3030 C.3   1 <1>  -0.0800 
 15 C       -5.0030    -2.8880     0.9960 C.3   1 <1>  -0.1600 
 16 C       -4.6310    -1.4850    -0.9240 C.3   1 <1>  -0.1600 
 17 C       -5.6030    -1.7280     0.2190 C.3   1 <1>   0.2000 
 18 O       -5.6850    -0.6110     1.0200 O.3   1 <1>  -0.6800 
 19 H       -0.3930    -0.8020    -1.0780 H     1 <1>   0.1500 
 20 H        1.1640     0.4380     3.0040 H     1 <1>   0.1500 
 21 H        1.3620    -2.2140     2.6090 H     1 <1>   0.1500 
 22 H       -1.9920    -2.4970     0.4030 H     1 <1>   0.0800 
 23 H       -1.1170    -5.3590    -1.8520 H     1 <1>   0.0800 
 24 H       -0.5980    -6.0050    -0.3050 H     1 <1>   0.0800 
 25 H        0.5710    -5.3280    -1.4140 H     1 <1>   0.0800 
 26 H       -2.8900    -5.3120    -0.1280 H     1 <1>   0.0800 
 27 H       -2.8930    -4.4450     1.3950 H     1 <1>   0.0800 
 28 H       -2.2330    -1.9800    -1.9200 H     1 <1>   0.0800 
 29 H       -2.4250    -3.6680    -2.3340 H     1 <1>   0.0800 
 30 H       -5.0460    -4.5800    -0.3320 H     1 <1>   0.0800 
 31 H       -4.6740    -3.2530    -2.1520 H     1 <1>   0.0800 
 32 H       -4.2500    -2.5230     1.6720 H     1 <1>   0.0800 
 33 H       -5.7580    -3.4170     1.5510 H     1 <1>   0.0800 
 34 H       -5.1190    -1.0060    -1.7540 H     1 <1>   0.0800 
 35 H       -3.8160    -0.8710    -0.5820 H     1 <1>   0.0800 
 36 H       -6.5860    -1.9710    -0.1490 H     1 <1>   0.0800 
 37 H       -4.8010    -0.3770     1.3580 H     1 <1>   0.4000 
@<TRIPOS>BOND
  1   1   2  1   
  2   1   3  1   
  3   2   4  2   
  4   2  19  1   
  5   3   5  2   
  6   3  20  1   
  7   4   5  1   
  8   4   6  1   
  9   5  21  1   
 10   6   7  2   
 11   6   8  am  
 12   8   9  1   
 13   8  10  1   
 14   9  11  1   
 15   9  12  1   
 16   9  22  1   
 17  10  23  1   
 18  10  24  1   
 19  10  25  1   
 20  11  13  1   
 21  11  26  1   
 22  11  27  1   
 23  12  14  1   
 24  12  28  1   
 25  12  29  1   
 26  13  14  1   
 27  13  15  1   
 28  13  30  1   
 29  14  16  1   
 30  14  31  1   
 31  15  17  1   
 32  15  32  1   
 33  15  33  1   
 34  16  17  1   
 35  16  34  1   
 36  16  35  1   
 37  17  18  1   
 38  17  36  1   
 39  18  37  1   
@<TRIPOS>SUBSTRUCTURE
  1 ****   9 GROUP 4 **** **** 0

# MOE 2024.06 (io_trps.svl 2023.06)
