@<TRIPOS>MOLECULE
NONAME
55 59 1 0 0 
SMALL
USER_CHARGES


@<TRIPOS>ATOM
  1 O       -1.4320    -0.9600     1.3390 O.2   1 <1>  -0.5700 
  2 C       -2.0330    -0.0260     0.8400 C.2   1 <1>   0.5440 
  3 N       -1.3840     1.1870     0.7000 N.am  1 <1>  -0.6600 
  4 C       -3.4020    -0.2200     0.4270 C.ar  1 <1>   0.0860 
  5 C       -2.0910     2.4910     0.5710 C.3   1 <1>   0.0600 
  6 C        0.0900     1.3000     0.8820 C.3   1 <1>   0.0600 
  7 C       -4.2920    -0.8980     1.2540 C.ar  1 <1>   0.1600 
  8 C       -3.9000     0.2340    -0.7910 C.ar  1 <1>  -0.1500 
  9 N       -5.5670    -1.1350     0.9980 N.ar  1 <1>  -0.6200 
 10 C       -5.2210    -0.0070    -1.0760 C.ar  1 <1>  -0.1500 
 11 C       -6.0260    -0.6940    -0.1700 C.ar  1 <1>   0.4100 
 12 N       -7.3420    -0.9580    -0.4780 N.pl3 1 <1>  -0.8380 
 13 C       -8.3710    -1.0630     0.5930 C.3   1 <1>   0.2090 
 14 C       -7.6630    -1.7580    -1.6860 C.3   1 <1>   0.2090 
 15 C       -8.5310    -2.5240     1.0140 C.3   1 <1>  -0.1600 
 16 C       -7.7630    -3.2270    -1.2880 C.3   1 <1>  -0.1600 
 17 C       -8.8040    -3.4360    -0.1860 C.3   1 <1>   0.4600 
 18 O      -10.0530    -3.1000    -0.7550 O.3   1 <1>  -0.5600 
 19 C       -8.8210    -4.9000     0.2380 C.2   1 <1>  -0.3320 
 20 C      -11.2150    -3.6340    -0.1660 C.3   1 <1>   0.1200 
 21 N       -7.7560    -5.6110     0.7170 N.pl3 1 <1>   0.0330 
 22 C       -9.9070    -5.6950     0.1980 C.2   1 <1>  -0.1810 
 23 C      -11.2400    -5.1680    -0.2730 C.3   1 <1>   0.0210 
 24 C       -8.1840    -6.8910     0.9740 C.ar  1 <1>  -0.1520 
 25 C       -9.5370    -6.9770     0.6540 C.ar  1 <1>   0.0000 
 26 C       -7.4930    -8.0010     1.4670 C.ar  1 <1>  -0.1500 
 27 C      -10.2130    -8.1890     0.8260 C.ar  1 <1>  -0.1500 
 28 C       -8.1710    -9.1870     1.6320 C.ar  1 <1>  -0.1500 
 29 C       -9.5310    -9.2810     1.3110 C.ar  1 <1>  -0.1500 
 30 H       -3.1420     2.3830     0.7770 H     1 <1>   0.0800 
 31 H       -1.9640     2.8750    -0.4260 H     1 <1>   0.0800 
 32 H       -1.6830     3.1970     1.2730 H     1 <1>   0.0800 
 33 H        0.5590     0.3370     0.7740 H     1 <1>   0.0800 
 34 H        0.3050     1.6810     1.8650 H     1 <1>   0.0800 
 35 H        0.5010     1.9640     0.1430 H     1 <1>   0.0800 
 36 H       -3.9110    -1.2640     2.1920 H     1 <1>   0.1500 
 37 H       -3.2600     0.7530    -1.4820 H     1 <1>   0.1500 
 38 H       -5.6570     0.3320    -1.9970 H     1 <1>   0.1500 
 39 H       -9.3070    -0.6850     0.2190 H     1 <1>   0.0800 
 40 H       -8.0800    -0.4660     1.4400 H     1 <1>   0.0800 
 41 H       -6.8980    -1.6370    -2.4320 H     1 <1>   0.0800 
 42 H       -8.5980    -1.4190    -2.1020 H     1 <1>   0.0800 
 43 H       -9.3140    -2.6160     1.7410 H     1 <1>   0.0800 
 44 H       -7.6210    -2.8360     1.4910 H     1 <1>   0.0800 
 45 H       -6.7990    -3.5500    -0.9440 H     1 <1>   0.0800 
 46 H       -8.0270    -3.8240    -2.1410 H     1 <1>   0.0800 
 47 H      -12.0640    -3.2120    -0.6750 H     1 <1>   0.0800 
 48 H      -11.2450    -3.3320     0.8660 H     1 <1>   0.0800 
 49 H       -6.8040    -5.2590     0.8630 H     1 <1>   0.2700 
 50 H      -11.4090    -5.4640    -1.2920 H     1 <1>   0.0800 
 51 H      -12.0310    -5.5620     0.3390 H     1 <1>   0.0800 
 52 H       -6.4490    -7.9190     1.7110 H     1 <1>   0.1500 
 53 H      -11.2560    -8.2460     0.5740 H     1 <1>   0.1500 
 54 H       -7.6620   -10.0560     2.0100 H     1 <1>   0.1500 
 55 H      -10.0380   -10.2200     1.4480 H     1 <1>   0.1500 
@<TRIPOS>BOND
  1   1   2  2   
  2   2   3  am  
  3   2   4  1   
  4   3   5  1   
  5   3   6  1   
  6   4   7  ar  
  7   4   8  ar  
  8   5  30  1   
  9   5  31  1   
 10   5  32  1   
 11   6  33  1   
 12   6  34  1   
 13   6  35  1   
 14   7   9  ar  
 15   7  36  1   
 16   8  10  ar  
 17   8  37  1   
 18   9  11  ar  
 19  10  11  ar  
 20  10  38  1   
 21  11  12  1   
 22  12  13  1   
 23  12  14  1   
 24  13  15  1   
 25  13  39  1   
 26  13  40  1   
 27  14  16  1   
 28  14  41  1   
 29  14  42  1   
 30  15  17  1   
 31  15  43  1   
 32  15  44  1   
 33  16  17  1   
 34  16  45  1   
 35  16  46  1   
 36  17  18  1   
 37  17  19  1   
 38  18  20  1   
 39  19  21  1   
 40  19  22  2   
 41  20  23  1   
 42  20  47  1   
 43  20  48  1   
 44  21  24  1   
 45  21  49  1   
 46  22  23  1   
 47  22  25  1   
 48  23  50  1   
 49  23  51  1   
 50  24  25  ar  
 51  24  26  ar  
 52  25  27  ar  
 53  26  28  ar  
 54  26  52  1   
 55  27  29  ar  
 56  27  53  1   
 57  28  29  ar  
 58  28  54  1   
 59  29  55  1   
@<TRIPOS>SUBSTRUCTURE
  1 ****  16 GROUP 4 **** **** 0

# MOE 2024.06 (io_trps.svl 2023.06)
