@<TRIPOS>MOLECULE
NONAME
52 55 1 0 0 
SMALL
USER_CHARGES


@<TRIPOS>ATOM
  1 O        0.6960     0.9410    -0.6180 O.2   1 <1>  -0.5700 
  2 C       -0.0170     1.8910    -0.3500 C.2   1 <1>   0.7160 
  3 N       -1.3720     1.8010    -0.6040 N.am  1 <1>  -0.6600 
  4 C        0.5720     3.0700     0.2420 C.2   1 <1>  -0.0860 
  5 C       -2.3840     2.7350    -0.0140 C.3   1 <1>   0.1400 
  6 C       -1.9650     0.5940    -1.2500 C.3   1 <1>   0.1400 
  7 C        1.3990     3.0980     1.3700 C.2   1 <1>   0.1080 
  8 C        0.4970     4.3860    -0.1090 C.2   1 <1>  -0.3020 
  9 C       -3.4100     3.1900    -1.0690 C.3   1 <1>   0.1440 
 10 C       -3.0030     1.0030    -2.3030 C.3   1 <1>  -0.1600 
 11 N        1.7770     4.2930     1.6910 N.2   1 <1>  -0.7070 
 12 C        1.8250     1.8810     2.1620 C.3   1 <1>  -0.0590 
 13 N        1.2200     5.0900     0.7720 N.pl3 1 <1>   0.3140 
 14 C       -4.4210     4.0920    -0.3880 C.ar  1 <1>   0.1660 
 15 C       -4.0640     1.9540    -1.7220 C.3   1 <1>  -0.1600 
 16 C       -2.7800     4.1360    -2.1270 C.3   1 <1>  -0.1600 
 17 C        1.4340     6.5400     0.7970 C.3   1 <1>   0.0160 
 18 N       -5.3510     3.6940     0.4440 N.ar  1 <1>  -0.6200 
 19 C       -4.2380     5.3980    -0.7280 C.ar  1 <1>  -0.1430 
 20 C       -3.0840     5.5770    -1.6820 C.3   1 <1>  -0.0160 
 21 C       -6.1280     4.6630     0.9360 C.ar  1 <1>   0.7200 
 22 C       -5.0830     6.3250    -0.1730 C.ar  1 <1>   0.1600 
 23 N       -6.0320     5.9680     0.6600 N.ar  1 <1>  -0.6200 
 24 N       -7.1210     4.2790     1.8150 N.pl3 1 <1>  -0.8380 
 25 C       -7.8650     5.2650     2.6470 C.3   1 <1>   0.1290 
 26 C       -7.5500     2.8600     1.9540 C.3   1 <1>   0.1290 
 27 H       -1.9150     3.5950     0.4260 H     1 <1>   0.0800 
 28 H       -2.9050     2.2190     0.7750 H     1 <1>   0.0800 
 29 H       -2.4340    -0.0100    -0.4920 H     1 <1>   0.0800 
 30 H       -1.2000    -0.0010    -1.7220 H     1 <1>   0.0800 
 31 H       -0.0230     4.8330    -0.9320 H     1 <1>   0.1500 
 32 H       -3.4850     0.1190    -2.6820 H     1 <1>   0.0800 
 33 H       -2.4950     1.4720    -3.1270 H     1 <1>   0.0800 
 34 H        0.9620     1.3140     2.4580 H     1 <1>   0.0800 
 35 H        2.3640     2.1840     3.0410 H     1 <1>   0.0800 
 36 H        2.4640     1.2630     1.5580 H     1 <1>   0.0800 
 37 H       -4.7520     2.2600    -2.4900 H     1 <1>   0.0800 
 38 H       -4.6320     1.4260    -0.9750 H     1 <1>   0.0800 
 39 H       -3.2610     3.9770    -3.0760 H     1 <1>   0.0800 
 40 H       -1.7270     3.9650    -2.2580 H     1 <1>   0.0800 
 41 H        0.9330     6.9950    -0.0360 H     1 <1>   0.0800 
 42 H        2.4880     6.7350     0.7430 H     1 <1>   0.0800 
 43 H        1.0440     6.9310     1.7190 H     1 <1>   0.0800 
 44 H       -3.3510     6.2010    -2.5170 H     1 <1>   0.0800 
 45 H       -2.2460     6.0010    -1.1580 H     1 <1>   0.0800 
 46 H       -4.9820     7.3690    -0.4130 H     1 <1>   0.1500 
 47 H       -7.2460     6.1180     2.8670 H     1 <1>   0.0800 
 48 H       -8.1620     4.8150     3.5780 H     1 <1>   0.0800 
 49 H       -8.7400     5.5960     2.1160 H     1 <1>   0.0800 
 50 H       -7.3860     2.3240     1.0350 H     1 <1>   0.0800 
 51 H       -8.5980     2.8110     2.1910 H     1 <1>   0.0800 
 52 H       -6.9850     2.3900     2.7390 H     1 <1>   0.0800 
@<TRIPOS>BOND
  1   1   2  2   
  2   2   3  am  
  3   2   4  1   
  4   3   5  1   
  5   3   6  1   
  6   4   7  1   
  7   4   8  2   
  8   5   9  1   
  9   5  27  1   
 10   5  28  1   
 11   6  10  1   
 12   6  29  1   
 13   6  30  1   
 14   7  11  2   
 15   7  12  1   
 16   8  13  1   
 17   8  31  1   
 18   9  14  1   
 19   9  15  1   
 20   9  16  1   
 21  10  15  1   
 22  10  32  1   
 23  10  33  1   
 24  11  13  1   
 25  12  34  1   
 26  12  35  1   
 27  12  36  1   
 28  13  17  1   
 29  14  18  ar  
 30  14  19  ar  
 31  15  37  1   
 32  15  38  1   
 33  16  20  1   
 34  16  39  1   
 35  16  40  1   
 36  17  41  1   
 37  17  42  1   
 38  17  43  1   
 39  18  21  ar  
 40  19  20  1   
 41  19  22  ar  
 42  20  44  1   
 43  20  45  1   
 44  21  23  ar  
 45  21  24  1   
 46  22  23  ar  
 47  22  46  1   
 48  24  25  1   
 49  24  26  1   
 50  25  47  1   
 51  25  48  1   
 52  25  49  1   
 53  26  50  1   
 54  26  51  1   
 55  26  52  1   
@<TRIPOS>SUBSTRUCTURE
  1 ****   5 GROUP 4 **** **** 0

# MOE 2024.06 (io_trps.svl 2023.06)
