@<TRIPOS>MOLECULE
NONAME
49 52 1 0 0 
SMALL
USER_CHARGES


@<TRIPOS>ATOM
  1 O       -0.6010    -0.0680    -0.3770 O.2   1 <1>  -0.5700 
  2 C       -1.5060     0.7110    -0.1150 C.2   1 <1>   0.7160 
  3 N       -2.6950     0.1790     0.3560 N.am  1 <1>  -0.6600 
  4 C       -1.2700     2.1430    -0.3040 C.2   1 <1>   0.2030 
  5 C       -3.0770    -1.2500     0.1380 C.3   1 <1>   0.1400 
  6 C       -3.7500     0.9600     1.0590 C.3   1 <1>   0.1400 
  7 N       -2.1540     3.0900    -0.5860 N.2   1 <1>  -0.7070 
  8 C        0.0110     2.7090    -0.2230 C.2   1 <1>  -0.1500 
  9 C       -4.3660    -1.3010    -0.6960 C.3   1 <1>   0.2000 
 10 C       -5.0500     0.9140     0.2440 C.3   1 <1>  -0.1600 
 11 N       -1.4500     4.2260    -0.6730 N.pl3 1 <1>   0.3000 
 12 C       -0.1370     4.0270    -0.4580 C.2   1 <1>  -0.2370 
 13 O       -4.7130    -2.6230    -0.9230 O.3   1 <1>  -0.6800 
 14 C       -5.5380    -0.5430    -0.0180 C.3   1 <1>  -0.1060 
 15 C        0.8920     5.1360    -0.4980 C.3   1 <1>  -0.0150 
 16 C       -5.9130    -1.2680     1.2910 C.2   1 <1>   0.9060 
 17 C       -6.7610    -0.5420    -0.9760 C.3   1 <1>  -0.0170 
 18 C        2.1020     5.0700     0.3760 C.3   1 <1>  -0.2000 
 19 C        1.0170     6.0650     0.6660 C.3   1 <1>  -0.2000 
 20 O       -6.0650    -2.5000     1.2630 O.co2 1 <1>  -0.9000 
 21 O       -6.0500    -0.6420     2.3480 O.co2 1 <1>  -0.9000 
 22 C       -7.8240     0.5120    -0.6750 C.ar  1 <1>  -0.1440 
 23 C       -8.0190     1.5770    -1.5420 C.ar  1 <1>  -0.1500 
 24 C       -8.6060     0.4200     0.4660 C.ar  1 <1>  -0.1500 
 25 C       -8.9820     2.5360    -1.2740 C.ar  1 <1>  -0.1500 
 26 C       -9.5670     1.3790     0.7380 C.ar  1 <1>  -0.1500 
 27 C       -9.7560     2.4380    -0.1320 C.ar  1 <1>  -0.1500 
 28 H       -2.2980    -1.7750    -0.3850 H     1 <1>   0.0800 
 29 H       -3.2350    -1.7230     1.0920 H     1 <1>   0.0800 
 30 H       -3.9120     0.5290     2.0320 H     1 <1>   0.0800 
 31 H       -3.4490     1.9790     1.2130 H     1 <1>   0.0800 
 32 H        0.9100     2.1570    -0.0150 H     1 <1>   0.1500 
 33 H       -4.1530    -0.8680    -1.6580 H     1 <1>   0.0800 
 34 H       -5.8020     1.4540     0.7920 H     1 <1>   0.0800 
 35 H       -4.8930     1.4300    -0.6860 H     1 <1>   0.0800 
 36 H       -1.8860     5.1320    -0.8790 H     1 <1>   0.2700 
 37 H       -5.2470    -2.9000    -0.1150 H     1 <1>   0.4000 
 38 H        1.0270     5.5460    -1.4850 H     1 <1>   0.1000 
 39 H       -6.4130    -0.3920    -1.9820 H     1 <1>   0.0800 
 40 H       -7.2260    -1.5130    -0.9560 H     1 <1>   0.0800 
 41 H        2.2200     4.2300     1.0390 H     1 <1>   0.1000 
 42 H        3.0400     5.4190    -0.0180 H     1 <1>   0.1000 
 43 H        1.2100     7.1070     0.4800 H     1 <1>   0.1000 
 44 H        0.3970     5.9040     1.5300 H     1 <1>   0.1000 
 45 H       -7.4190     1.6650    -2.4300 H     1 <1>   0.1500 
 46 H       -8.4620    -0.3960     1.1550 H     1 <1>   0.1500 
 47 H       -9.1250     3.3580    -1.9530 H     1 <1>   0.1500 
 48 H      -10.1580     1.2950     1.6320 H     1 <1>   0.1500 
 49 H      -10.5020     3.1820     0.0820 H     1 <1>   0.1500 
@<TRIPOS>BOND
  1   1   2  2   
  2   2   3  am  
  3   2   4  1   
  4   3   5  1   
  5   3   6  1   
  6   4   7  2   
  7   4   8  1   
  8   5   9  1   
  9   5  28  1   
 10   5  29  1   
 11   6  10  1   
 12   6  30  1   
 13   6  31  1   
 14   7  11  1   
 15   8  12  2   
 16   8  32  1   
 17   9  13  1   
 18   9  14  1   
 19   9  33  1   
 20  10  14  1   
 21  10  34  1   
 22  10  35  1   
 23  11  12  1   
 24  11  36  1   
 25  12  15  1   
 26  13  37  1   
 27  14  16  1   
 28  14  17  1   
 29  15  18  1   
 30  15  19  1   
 31  15  38  1   
 32  16  20  ar  
 33  16  21  ar  
 34  17  22  1   
 35  17  39  1   
 36  17  40  1   
 37  18  19  1   
 38  18  41  1   
 39  18  42  1   
 40  19  43  1   
 41  19  44  1   
 42  22  23  ar  
 43  22  24  ar  
 44  23  25  ar  
 45  23  45  1   
 46  24  26  ar  
 47  24  46  1   
 48  25  27  ar  
 49  25  47  1   
 50  26  27  ar  
 51  26  48  1   
 52  27  49  1   
@<TRIPOS>SUBSTRUCTURE
  1 ****  10 GROUP 4 **** **** 0

# MOE 2024.06 (io_trps.svl 2023.06)
