@<TRIPOS>MOLECULE
NONAME
43 45 1 0 0 
SMALL
USER_CHARGES


@<TRIPOS>ATOM
  1 O       -1.2190     0.5070     2.2720 O.2   1 <1>  -0.5700 
  2 C       -1.6610     0.8630     1.2050 C.2   1 <1>   0.5690 
  3 N       -2.3870     0.0090     0.4290 N.am  1 <1>  -0.5100 
  4 C       -1.3690     2.3000     0.7590 C.3   1 <1>  -0.0190 
  5 C       -3.0090    -1.2750     0.8760 C.3   1 <1>   0.2250 
  6 C       -3.5420     0.2580    -0.4890 C.3   1 <1>   0.2250 
  7 C       -2.5970     3.2240     0.8770 C.3   1 <1>  -0.1600 
  8 C       -0.7160     2.3870    -0.6440 C.3   1 <1>  -0.1600 
  9 C       -3.8440    -1.2590    -0.4280 C.3   1 <1>   0.1080 
 10 C       -2.2300     4.7040     0.6450 C.3   1 <1>   0.2000 
 11 C       -0.8940     3.7610    -1.3210 C.3   1 <1>  -0.1600 
 12 C       -5.3220    -1.6080    -0.2700 C.ar  1 <1>  -0.1080 
 13 O       -3.3470     5.3390     0.0700 O.3   1 <1>  -0.5600 
 14 C       -1.0020     4.8850    -0.2870 C.3   1 <1>   0.2000 
 15 C       -5.7680    -2.5560     0.6310 C.ar  1 <1>  -0.1500 
 16 C       -6.2970    -1.0000    -1.0380 C.ar  1 <1>  -0.1500 
 17 C       -4.3280     5.7430     0.9750 C.3   1 <1>   0.0400 
 18 O       -1.1190     6.0800    -0.9670 O.3   1 <1>  -0.6800 
 19 C       -7.1220    -2.8320     0.7260 C.ar  1 <1>   0.1600 
 20 C       -7.6260    -1.3490    -0.8660 C.ar  1 <1>   0.1600 
 21 N       -8.0610    -2.2490     0.0000 N.ar  1 <1>  -0.6200 
 22 H       -0.6420     2.6770     1.4590 H     1 <1>   0.0800 
 23 H       -2.2930    -2.0760     0.9250 H     1 <1>   0.0000 
 24 H       -3.5840    -1.1340     1.7750 H     1 <1>   0.0000 
 25 H       -4.2930     0.8690    -0.0180 H     1 <1>   0.0000 
 26 H       -3.2310     0.6000    -1.4600 H     1 <1>   0.0000 
 27 H       -3.0330     3.1160     1.8540 H     1 <1>   0.0800 
 28 H       -3.3260     2.9300     0.1440 H     1 <1>   0.0800 
 29 H        0.3340     2.1770    -0.5370 H     1 <1>   0.0800 
 30 H       -1.1180     1.6380    -1.3020 H     1 <1>   0.0800 
 31 H       -3.3690    -1.8030    -1.2260 H     1 <1>   0.0000 
 32 H       -2.0010     5.1820     1.5830 H     1 <1>   0.0800 
 33 H       -1.7970     3.7500    -1.9070 H     1 <1>   0.0800 
 34 H       -0.0640     3.9480    -1.9800 H     1 <1>   0.0800 
 35 H       -0.0950     4.9230     0.2930 H     1 <1>   0.0800 
 36 H       -5.0810    -3.0900     1.2620 H     1 <1>   0.1500 
 37 H       -6.0400    -0.2600    -1.7740 H     1 <1>   0.1500 
 38 H       -5.1210     6.2120     0.4200 H     1 <1>   0.0800 
 39 H       -3.9040     6.4500     1.6660 H     1 <1>   0.0800 
 40 H       -4.7130     4.8850     1.4980 H     1 <1>   0.0800 
 41 H       -2.0860     6.2440    -1.0510 H     1 <1>   0.4000 
 42 H       -7.4490    -3.5720     1.4360 H     1 <1>   0.1500 
 43 H       -8.3700    -0.8630    -1.4730 H     1 <1>   0.1500 
@<TRIPOS>BOND
  1   1   2  2   
  2   2   3  am  
  3   2   4  1   
  4   3   5  1   
  5   3   6  1   
  6   4   7  1   
  7   4   8  1   
  8   4  22  1   
  9   5   9  1   
 10   5  23  1   
 11   5  24  1   
 12   6   9  1   
 13   6  25  1   
 14   6  26  1   
 15   7  10  1   
 16   7  27  1   
 17   7  28  1   
 18   8  11  1   
 19   8  29  1   
 20   8  30  1   
 21   9  12  1   
 22   9  31  1   
 23  10  13  1   
 24  10  14  1   
 25  10  32  1   
 26  11  14  1   
 27  11  33  1   
 28  11  34  1   
 29  12  15  ar  
 30  12  16  ar  
 31  13  17  1   
 32  14  18  1   
 33  14  35  1   
 34  15  19  ar  
 35  15  36  1   
 36  16  20  ar  
 37  16  37  1   
 38  17  38  1   
 39  17  39  1   
 40  17  40  1   
 41  18  41  1   
 42  19  21  ar  
 43  19  42  1   
 44  20  21  ar  
 45  20  43  1   
@<TRIPOS>SUBSTRUCTURE
  1 ****   6 GROUP 4 **** **** 0

# MOE 2024.06 (io_trps.svl 2023.06)
