@<TRIPOS>MOLECULE
NONAME
53 55 1 0 0 
SMALL
USER_CHARGES


@<TRIPOS>ATOM
  1 O       -0.5660     0.3040    -0.9620 O.2   1 <1>  -0.5700 
  2 C       -0.4570     1.3930    -0.4460 C.2   1 <1>   0.5690 
  3 N       -1.5430     2.1220    -0.0310 N.am  1 <1>  -0.6600 
  4 C        0.9610     1.9490    -0.2810 C.3   1 <1>   0.1810 
  5 C       -1.3450     3.5140     0.5220 C.3   1 <1>   0.3640 
  6 C       -2.8680     1.4410     0.1190 C.3   1 <1>   0.2200 
  7 O        1.0430     2.9890     0.6600 O.3   1 <1>  -0.5600 
  8 C       -2.2180     4.5440    -0.1980 C.ar  1 <1>  -0.1440 
  9 C        0.1110     4.0220     0.4270 C.3   1 <1>   0.2610 
 10 C       -3.7950     1.7750    -1.0480 C.3   1 <1>  -0.2400 
 11 C       -3.5340     1.7470     1.4620 C.3   1 <1>  -0.2400 
 12 C       -2.2580     4.6080    -1.5860 C.ar  1 <1>  -0.1500 
 13 C       -2.9490     5.4630     0.5400 C.ar  1 <1>  -0.1500 
 14 C        0.2860     5.2000     1.4010 C.2   1 <1>   0.5690 
 15 C       -3.0180     5.5740    -2.2220 C.ar  1 <1>  -0.1500 
 16 C       -3.7080     6.4290    -0.0950 C.ar  1 <1>  -0.1500 
 17 O        0.0970     4.9890     2.5810 O.2   1 <1>  -0.5700 
 18 N        0.5770     6.4700     0.9570 N.am  1 <1>  -0.6600 
 19 C       -3.7430     6.4860    -1.4770 C.ar  1 <1>  -0.1500 
 20 C        0.4620     7.6320     1.8610 C.3   1 <1>   0.2200 
 21 C        0.6220     6.9150    -0.4570 C.3   1 <1>   0.2200 
 22 C       -0.1230     8.7280     0.9790 C.3   1 <1>  -0.1600 
 23 C        1.8480     7.9840     2.4000 C.3   1 <1>  -0.2400 
 24 C        0.4120     8.4310    -0.4180 C.3   1 <1>  -0.1600 
 25 C        1.9670     6.5460    -1.0870 C.3   1 <1>  -0.2400 
 26 H        1.3170     2.3140    -1.2260 H     1 <1>   0.0800 
 27 H        1.6110     1.1610     0.0510 H     1 <1>   0.0800 
 28 H       -1.6090     3.4950     1.5640 H     1 <1>   0.0800 
 29 H       -2.7020     0.3750     0.0940 H     1 <1>   0.0800 
 30 H        0.2810     4.3620    -0.5730 H     1 <1>   0.0800 
 31 H       -4.1490     2.7860    -0.9880 H     1 <1>   0.0800 
 32 H       -4.6500     1.1240    -1.0240 H     1 <1>   0.0800 
 33 H       -3.2830     1.6220    -1.9800 H     1 <1>   0.0800 
 34 H       -3.8490     2.7730     1.5170 H     1 <1>   0.0800 
 35 H       -2.8590     1.5260     2.2700 H     1 <1>   0.0800 
 36 H       -4.4060     1.1290     1.5770 H     1 <1>   0.0800 
 37 H       -1.7040     3.8990    -2.1760 H     1 <1>   0.1500 
 38 H       -2.9240     5.4370     1.6170 H     1 <1>   0.1500 
 39 H       -3.0480     5.6130    -3.2980 H     1 <1>   0.1500 
 40 H       -4.2730     7.1380     0.4860 H     1 <1>   0.1500 
 41 H       -4.3350     7.2360    -1.9710 H     1 <1>   0.1500 
 42 H       -0.2040     7.4190     2.6820 H     1 <1>   0.0800 
 43 H       -0.1920     6.4650    -1.0010 H     1 <1>   0.0800 
 44 H       -1.1950     8.6320     0.9830 H     1 <1>   0.0800 
 45 H        0.1380     9.7140     1.3210 H     1 <1>   0.0800 
 46 H        2.5290     8.2140     1.6010 H     1 <1>   0.0800 
 47 H        2.2340     7.1560     2.9660 H     1 <1>   0.0800 
 48 H        1.7810     8.8360     3.0510 H     1 <1>   0.0800 
 49 H        1.3470     8.9440    -0.5600 H     1 <1>   0.0800 
 50 H       -0.2720     8.7500    -1.1850 H     1 <1>   0.0800 
 51 H        2.7740     6.9960    -0.5370 H     1 <1>   0.0800 
 52 H        2.0040     6.9030    -2.1000 H     1 <1>   0.0800 
 53 H        2.1130     5.4830    -1.0990 H     1 <1>   0.0800 
@<TRIPOS>BOND
  1   1   2  2   
  2   2   3  am  
  3   2   4  1   
  4   3   5  1   
  5   3   6  1   
  6   4   7  1   
  7   4  26  1   
  8   4  27  1   
  9   5   8  1   
 10   5   9  1   
 11   5  28  1   
 12   6  10  1   
 13   6  11  1   
 14   6  29  1   
 15   7   9  1   
 16   8  12  ar  
 17   8  13  ar  
 18   9  14  1   
 19   9  30  1   
 20  10  31  1   
 21  10  32  1   
 22  10  33  1   
 23  11  34  1   
 24  11  35  1   
 25  11  36  1   
 26  12  15  ar  
 27  12  37  1   
 28  13  16  ar  
 29  13  38  1   
 30  14  17  2   
 31  14  18  am  
 32  15  19  ar  
 33  15  39  1   
 34  16  19  ar  
 35  16  40  1   
 36  18  20  1   
 37  18  21  1   
 38  19  41  1   
 39  20  22  1   
 40  20  23  1   
 41  20  42  1   
 42  21  24  1   
 43  21  25  1   
 44  21  43  1   
 45  22  24  1   
 46  22  44  1   
 47  22  45  1   
 48  23  46  1   
 49  23  47  1   
 50  23  48  1   
 51  24  49  1   
 52  24  50  1   
 53  25  51  1   
 54  25  52  1   
 55  25  53  1   
@<TRIPOS>SUBSTRUCTURE
  1 ****   9 GROUP 4 **** **** 0

# MOE 2024.06 (io_trps.svl 2023.06)
