@<TRIPOS>MOLECULE
NONAME
42 45 1 0 0 
SMALL
USER_CHARGES


@<TRIPOS>ATOM
  1 S        1.6210    -1.7860     2.1810 S.3   1 <1>  -0.0800 
  2 C        1.4910    -1.6040     0.4120 C.2   1 <1>  -0.0450 
  3 C        1.9740    -0.0800     2.4190 C.2   1 <1>  -0.1100 
  4 C        1.7110    -0.2970     0.1080 C.2   1 <1>   0.0620 
  5 C        1.1880    -2.7590    -0.3830 C.2   1 <1>   0.7150 
  6 C        1.9870     0.5500     1.2320 C.2   1 <1>   0.0620 
  7 O        1.6850     0.2200    -1.1390 O.3   1 <1>  -0.3420 
  8 O        1.0560    -2.7010    -1.5920 O.2   1 <1>  -0.5700 
  9 N        1.0150    -3.9750     0.2110 N.am  1 <1>  -0.7300 
 10 O        2.2360     1.8770     1.0700 O.3   1 <1>  -0.3420 
 11 C        1.6430     1.6280    -1.2690 C.3   1 <1>   0.1200 
 12 C        0.6910    -5.2440    -0.4820 C.3   1 <1>   0.2200 
 13 C        2.5760     2.2870    -0.2420 C.3   1 <1>   0.1200 
 14 C       -0.7790    -5.6050    -0.3140 C.3   1 <1>  -0.0800 
 15 C        1.3470    -6.3950     0.2680 C.3   1 <1>   0.1200 
 16 C       -0.8080    -6.3070     1.0480 C.3   1 <1>   0.1200 
 17 C       -1.7800    -4.4430    -0.4500 C.3   1 <1>  -0.0160 
 18 O        0.5140    -6.6410     1.3600 O.3   1 <1>  -0.5600 
 19 C       -3.2110    -4.9450    -0.3380 C.ar  1 <1>  -0.1430 
 20 C       -3.8620    -5.5280    -1.4060 C.ar  1 <1>  -0.1500 
 21 C       -3.9330    -4.8440     0.8350 C.ar  1 <1>  -0.1500 
 22 C       -5.1630    -5.9770    -1.2530 C.ar  1 <1>   0.1600 
 23 C       -5.2310    -5.3250     0.8820 C.ar  1 <1>   0.1600 
 24 N       -5.8630    -5.8920    -0.1330 N.ar  1 <1>  -0.6200 
 25 H        2.1370     0.2750     3.4190 H     1 <1>   0.1500 
 26 H        1.0900    -4.0500     1.2280 H     1 <1>   0.3700 
 27 H        1.9420     1.8750    -2.2710 H     1 <1>   0.0800 
 28 H        0.6280     1.9470    -1.1140 H     1 <1>   0.0800 
 29 H        0.9960    -5.2040    -1.5150 H     1 <1>   0.0800 
 30 H        2.4940     3.3580    -0.2850 H     1 <1>   0.0800 
 31 H        3.5970     2.0030    -0.4280 H     1 <1>   0.0800 
 32 H       -1.0200    -6.3430    -1.0590 H     1 <1>   0.0800 
 33 H        2.3400    -6.1610     0.6110 H     1 <1>   0.0800 
 34 H        1.3680    -7.2840    -0.3390 H     1 <1>   0.0800 
 35 H       -1.4010    -7.2050     1.0210 H     1 <1>   0.0800 
 36 H       -1.1690    -5.6550     1.8240 H     1 <1>   0.0800 
 37 H       -1.6440    -3.9630    -1.4050 H     1 <1>   0.0800 
 38 H       -1.6050    -3.7020     0.3090 H     1 <1>   0.0800 
 39 H       -3.3690    -5.6380    -2.3540 H     1 <1>   0.1500 
 40 H       -3.5010    -4.3970     1.7110 H     1 <1>   0.1500 
 41 H       -5.6550    -6.4300    -2.0970 H     1 <1>   0.1500 
 42 H       -5.7790    -5.2390     1.8050 H     1 <1>   0.1500 
@<TRIPOS>BOND
  1   1   2  1   
  2   1   3  1   
  3   2   4  2   
  4   2   5  1   
  5   3   6  2   
  6   3  25  1   
  7   4   6  1   
  8   4   7  1   
  9   5   8  2   
 10   5   9  am  
 11   6  10  1   
 12   7  11  1   
 13   9  12  1   
 14   9  26  1   
 15  10  13  1   
 16  11  13  1   
 17  11  27  1   
 18  11  28  1   
 19  12  14  1   
 20  12  15  1   
 21  12  29  1   
 22  13  30  1   
 23  13  31  1   
 24  14  16  1   
 25  14  17  1   
 26  14  32  1   
 27  15  18  1   
 28  15  33  1   
 29  15  34  1   
 30  16  18  1   
 31  16  35  1   
 32  16  36  1   
 33  17  19  1   
 34  17  37  1   
 35  17  38  1   
 36  19  20  ar  
 37  19  21  ar  
 38  20  22  ar  
 39  20  39  1   
 40  21  23  ar  
 41  21  40  1   
 42  22  24  ar  
 43  22  41  1   
 44  23  24  ar  
 45  23  42  1   
@<TRIPOS>SUBSTRUCTURE
  1 ****   9 GROUP 4 **** **** 0

# MOE 2024.06 (io_trps.svl 2023.06)
