@<TRIPOS>MOLECULE
NONAME
50 51 1 0 0 
SMALL
USER_CHARGES


@<TRIPOS>ATOM
  1 N        0.1220    -0.2260     0.6290 N.ar  1 <1>  -0.1790 
  2 C        1.1170     0.5160     0.0140 C.ar  1 <1>   0.3610 
  3 C        0.0480    -1.5600     0.6310 C.ar  1 <1>   0.4610 
  4 C        2.1360    -0.1790    -0.6640 C.ar  1 <1>   0.0000 
  5 C        1.1060     1.9240     0.0690 C.ar  1 <1>  -0.1440 
  6 N       -0.9750    -2.1630     1.2650 N.pl3 1 <1>  -0.8690 
  7 C        1.0740    -2.2570    -0.0540 C.ar  1 <1>  -0.1500 
  8 C        2.0900    -1.6070    -0.6840 C.ar  1 <1>  -0.1430 
  9 C        3.1400     0.5800    -1.2810 C.ar  1 <1>  -0.1500 
 10 C        2.1170     2.6360    -0.5530 C.ar  1 <1>  -0.1430 
 11 C       -0.0260     2.6380     0.8190 C.3   1 <1>  -0.0970 
 12 C       -1.1880    -3.6180     1.4910 C.3   1 <1>   0.2090 
 13 C        3.1750    -2.3980    -1.4070 C.3   1 <1>  -0.0970 
 14 C        3.1270     1.9490    -1.2250 C.ar  1 <1>  -0.1500 
 15 C        2.1990     4.1590    -0.5510 C.3   1 <1>  -0.0970 
 16 C       -2.2440    -4.1300     0.5020 C.3   1 <1>  -0.1600 
 17 C       -2.4390    -5.6620     0.5310 C.3   1 <1>   0.4230 
 18 N       -3.5140    -6.0800    -0.4290 N.4   1 <1>  -0.9590 
 19 C       -2.8250    -6.1420     1.9360 C.3   1 <1>  -0.2400 
 20 C       -3.6630    -7.5720    -0.5190 C.3   1 <1>   0.2630 
 21 C       -3.3360    -5.5590    -1.8260 C.3   1 <1>   0.2630 
 22 H       -0.5890     0.3010     1.1210 H     1 <1>   0.4570 
 23 H       -1.7100    -1.6130     1.7280 H     1 <1>   0.4000 
 24 H        1.0360    -3.3290    -0.0720 H     1 <1>   0.1500 
 25 H        3.9400     0.0930    -1.8110 H     1 <1>   0.1500 
 26 H       -0.0140     2.3700     1.8610 H     1 <1>   0.0800 
 27 H       -0.9800     2.3830     0.3920 H     1 <1>   0.0800 
 28 H        0.0560     3.7080     0.7720 H     1 <1>   0.0800 
 29 H       -1.5200    -3.7570     2.5070 H     1 <1>   0.0800 
 30 H       -0.2650    -4.1600     1.3740 H     1 <1>   0.0800 
 31 H        3.1960    -2.1350    -2.4500 H     1 <1>   0.0800 
 32 H        3.0030    -3.4570    -1.3340 H     1 <1>   0.0800 
 33 H        4.1380    -2.1880    -0.9750 H     1 <1>   0.0800 
 34 H        3.9160     2.5000    -1.7110 H     1 <1>   0.1500 
 35 H        1.3340     4.5800    -1.0310 H     1 <1>   0.0800 
 36 H        3.0690     4.5060    -1.0790 H     1 <1>   0.0800 
 37 H        2.2590     4.5280     0.4580 H     1 <1>   0.0800 
 38 H       -1.9140    -3.8340    -0.4770 H     1 <1>   0.0800 
 39 H       -3.1800    -3.6460     0.7190 H     1 <1>   0.0800 
 40 H       -1.5110    -6.1340     0.2460 H     1 <1>   0.0800 
 41 H       -4.4040    -5.7060    -0.0660 H     1 <1>   0.4500 
 42 H       -3.7480    -5.6920     2.2580 H     1 <1>   0.0800 
 43 H       -2.0620    -5.8890     2.6490 H     1 <1>   0.0800 
 44 H       -2.9180    -7.2110     1.9820 H     1 <1>   0.0800 
 45 H       -2.7310    -8.0270    -0.8130 H     1 <1>   0.0800 
 46 H       -4.4150    -7.8290    -1.2480 H     1 <1>   0.0800 
 47 H       -3.9660    -7.9840     0.4300 H     1 <1>   0.0800 
 48 H       -2.3870    -5.8760    -2.2270 H     1 <1>   0.0800 
 49 H       -3.3770    -4.4820    -1.8390 H     1 <1>   0.0800 
 50 H       -4.1200    -5.9310    -2.4660 H     1 <1>   0.0800 
@<TRIPOS>BOND
  1   1   2  ar  
  2   1   3  ar  
  3   1  22  1   
  4   2   4  ar  
  5   2   5  ar  
  6   3   6  1   
  7   3   7  ar  
  8   4   8  ar  
  9   4   9  ar  
 10   5  10  ar  
 11   5  11  1   
 12   6  12  1   
 13   6  23  1   
 14   7   8  ar  
 15   7  24  1   
 16   8  13  1   
 17   9  14  ar  
 18   9  25  1   
 19  10  14  ar  
 20  10  15  1   
 21  11  26  1   
 22  11  27  1   
 23  11  28  1   
 24  12  16  1   
 25  12  29  1   
 26  12  30  1   
 27  13  31  1   
 28  13  32  1   
 29  13  33  1   
 30  14  34  1   
 31  15  35  1   
 32  15  36  1   
 33  15  37  1   
 34  16  17  1   
 35  16  38  1   
 36  16  39  1   
 37  17  18  1   
 38  17  19  1   
 39  17  40  1   
 40  18  20  1   
 41  18  21  1   
 42  18  41  1   
 43  19  42  1   
 44  19  43  1   
 45  19  44  1   
 46  20  45  1   
 47  20  46  1   
 48  20  47  1   
 49  21  48  1   
 50  21  49  1   
 51  21  50  1   
@<TRIPOS>SUBSTRUCTURE
  1 ****   3 GROUP 4 **** **** 0

# MOE 2024.06 (io_trps.svl 2023.06)
