@<TRIPOS>MOLECULE
NONAME
52 54 1 0 0 
SMALL
USER_CHARGES


@<TRIPOS>ATOM
  1 O       -0.8480     1.0220     1.3890 O.2   1 <1>  -0.5700 
  2 C       -0.6140     2.1690     1.0860 C.2   1 <1>   0.5690 
  3 N       -1.5710     3.1470     1.1190 N.am  1 <1>  -0.6600 
  4 C        0.8030     2.5210     0.6320 C.3   1 <1>   0.1810 
  5 C       -1.2620     4.5530     0.6970 C.3   1 <1>   0.3640 
  6 C       -2.9490     2.9010     1.6350 C.3   1 <1>   0.0600 
  7 O        1.1030     3.8840     0.8100 O.3   1 <1>  -0.5600 
  8 C       -2.2990     5.0710    -0.3140 C.ar  1 <1>  -0.1430 
  9 C        0.1840     4.7630     0.1770 C.3   1 <1>   0.2610 
 10 C       -2.6650     4.4080    -1.4910 C.ar  1 <1>  -0.1430 
 11 C       -2.9010     6.2890    -0.0180 C.ar  1 <1>  -0.1500 
 12 C        0.6020     6.2170     0.4140 C.2   1 <1>   0.5690 
 13 C       -3.6160     4.9770    -2.3250 C.ar  1 <1>  -0.1500 
 14 C       -2.0860     3.0650    -1.9240 C.3   1 <1>  -0.0960 
 15 C       -3.8470     6.8460    -0.8580 C.ar  1 <1>  -0.1500 
 16 O        0.2290     7.0830    -0.3410 O.2   1 <1>  -0.5700 
 17 N        1.4010     6.5140     1.4760 N.am  1 <1>  -0.7300 
 18 C       -4.2060     6.1870    -2.0150 C.ar  1 <1>  -0.1500 
 19 C        1.8570     7.8770     1.8340 C.3   1 <1>   0.1400 
 20 C        3.0590     8.2760     0.9780 C.3   1 <1>   0.0200 
 21 C        3.2310     9.7820     1.0100 C.2   1 <1>   0.0060 
 22 N        4.0160    10.3980     1.8240 N.2   1 <1>  -0.3380 
 23 N        2.5820    10.6360     0.2090 N.pl3 1 <1>   0.0480 
 24 N        3.8990    11.7020     1.5700 N.2   1 <1>  -0.3380 
 25 C        3.0470    11.8190     0.6110 C.2   1 <1>   0.0360 
 26 C        1.5870    10.3740    -0.8550 C.3   1 <1>   0.0960 
 27 C        2.2770    10.2030    -2.2120 C.3   1 <1>  -0.2400 
 28 H        0.9240     2.2720    -0.4060 H     1 <1>   0.0800 
 29 H        1.5090     1.9520     1.2090 H     1 <1>   0.0800 
 30 H       -1.3500     5.1500     1.5880 H     1 <1>   0.0800 
 31 H       -3.1760     3.5980     2.4220 H     1 <1>   0.0800 
 32 H       -3.0360     1.9020     2.0270 H     1 <1>   0.0800 
 33 H       -3.6670     3.0200     0.8420 H     1 <1>   0.0800 
 34 H        0.2290     4.5810    -0.8800 H     1 <1>   0.0800 
 35 H       -2.6340     6.8280     0.8740 H     1 <1>   0.1500 
 36 H       -3.9120     4.4780    -3.2320 H     1 <1>   0.1500 
 37 H       -2.3300     2.8530    -2.9490 H     1 <1>   0.0800 
 38 H       -2.4940     2.2760    -1.3170 H     1 <1>   0.0800 
 39 H       -1.0180     3.0540    -1.8390 H     1 <1>   0.0800 
 40 H       -4.3000     7.7900    -0.6120 H     1 <1>   0.1500 
 41 H        1.7990     5.7280     2.0020 H     1 <1>   0.3700 
 42 H       -4.9420     6.6140    -2.6740 H     1 <1>   0.1500 
 43 H        1.0470     8.5660     1.6600 H     1 <1>   0.0800 
 44 H        2.1140     7.9220     2.8780 H     1 <1>   0.0800 
 45 H        2.9200     7.9580    -0.0390 H     1 <1>   0.0800 
 46 H        3.9460     7.8070     1.3630 H     1 <1>   0.0800 
 47 H        2.7380    12.7520     0.1770 H     1 <1>   0.1500 
 48 H        1.0320     9.4860    -0.6100 H     1 <1>   0.0800 
 49 H        0.8970    11.1980    -0.8950 H     1 <1>   0.0800 
 50 H        2.9600     9.3730    -2.1840 H     1 <1>   0.0800 
 51 H        2.8120    11.0970    -2.4780 H     1 <1>   0.0800 
 52 H        1.5390    10.0070    -2.9690 H     1 <1>   0.0800 
@<TRIPOS>BOND
  1   1   2  2   
  2   2   3  am  
  3   2   4  1   
  4   3   5  1   
  5   3   6  1   
  6   4   7  1   
  7   4  28  1   
  8   4  29  1   
  9   5   8  1   
 10   5   9  1   
 11   5  30  1   
 12   6  31  1   
 13   6  32  1   
 14   6  33  1   
 15   7   9  1   
 16   8  10  ar  
 17   8  11  ar  
 18   9  12  1   
 19   9  34  1   
 20  10  13  ar  
 21  10  14  1   
 22  11  15  ar  
 23  11  35  1   
 24  12  16  2   
 25  12  17  am  
 26  13  18  ar  
 27  13  36  1   
 28  14  37  1   
 29  14  38  1   
 30  14  39  1   
 31  15  18  ar  
 32  15  40  1   
 33  17  19  1   
 34  17  41  1   
 35  18  42  1   
 36  19  20  1   
 37  19  43  1   
 38  19  44  1   
 39  20  21  1   
 40  20  45  1   
 41  20  46  1   
 42  21  22  2   
 43  21  23  1   
 44  22  24  1   
 45  23  25  1   
 46  23  26  1   
 47  24  25  2   
 48  25  47  1   
 49  26  27  1   
 50  26  48  1   
 51  26  49  1   
 52  27  50  1   
 53  27  51  1   
 54  27  52  1   
@<TRIPOS>SUBSTRUCTURE
  1 ****  12 GROUP 4 **** **** 0

# MOE 2024.06 (io_trps.svl 2023.06)
