@<TRIPOS>MOLECULE
NONAME
40 42 1 0 0 
SMALL
USER_CHARGES


@<TRIPOS>ATOM
  1 CL       1.8930     0.1520    -1.2190 Cl    1 <1>  -0.1770 
  2 C        2.3320     1.2330     0.0870 C.ar  1 <1>   0.1770 
  3 C        2.2480     2.6170    -0.0700 C.ar  1 <1>   0.0820 
  4 C        2.7690     0.6710     1.2700 C.ar  1 <1>  -0.1500 
  5 O        1.8040     3.1520    -1.2320 O.3   1 <1>  -0.3630 
  6 C        2.6410     3.4580     0.9720 C.ar  1 <1>  -0.1440 
  7 C        3.1290     1.5150     2.3020 C.ar  1 <1>   0.1770 
  8 C        0.4090     3.1520    -1.4380 C.3   1 <1>   0.0400 
  9 C        3.0680     2.8900     2.1660 C.ar  1 <1>  -0.1500 
 10 C        2.6010     4.9810     0.8330 C.3   1 <1>   0.2540 
 11 CL       3.6790     0.8350     3.8110 Cl    1 <1>  -0.1770 
 12 N        3.8860     5.5590     0.3950 N.3   1 <1>  -0.8100 
 13 C        4.9790     5.3830     1.3840 C.3   1 <1>   0.1100 
 14 C        4.2330     5.1490    -0.9840 C.3   1 <1>   0.1100 
 15 C        6.2610     6.2270     1.1400 C.3   1 <1>   0.2200 
 16 C        5.3680     5.9700    -1.6310 C.3   1 <1>  -0.0190 
 17 N        6.0190     7.4130     0.2770 N.am  1 <1>  -0.7300 
 18 C        7.4120     5.3760     0.5640 C.3   1 <1>   0.1200 
 19 C        5.5620     7.3310    -0.9900 C.2   1 <1>   0.5690 
 20 C        6.7010     5.2060    -1.6990 C.3   1 <1>   0.1200 
 21 O        7.0130     4.5600    -0.5010 O.3   1 <1>  -0.5600 
 22 O        5.3390     8.3330    -1.6230 O.2   1 <1>  -0.5700 
 23 H        2.8290    -0.3950     1.3860 H     1 <1>   0.1500 
 24 H        0.2080     3.6470    -2.3720 H     1 <1>   0.0800 
 25 H       -0.0640     3.6830    -0.6310 H     1 <1>   0.0800 
 26 H        0.0540     2.1380    -1.4790 H     1 <1>   0.0800 
 27 H        3.3590     3.5080     2.9950 H     1 <1>   0.1500 
 28 H        2.3310     5.4170     1.7790 H     1 <1>   0.0800 
 29 H        1.8360     5.2660     0.1320 H     1 <1>   0.0800 
 30 H        4.6000     5.6610     2.3520 H     1 <1>   0.0800 
 31 H        5.2500     4.3430     1.4380 H     1 <1>   0.0800 
 32 H        4.4810     4.1010    -1.0030 H     1 <1>   0.0800 
 33 H        3.3570     5.2810    -1.5970 H     1 <1>   0.0800 
 34 H        6.5990     6.5890     2.0940 H     1 <1>   0.0800 
 35 H        5.0820     6.1510    -2.6500 H     1 <1>   0.0800 
 36 H        5.9870     8.3330     0.7140 H     1 <1>   0.3700 
 37 H        7.7730     4.7150     1.3320 H     1 <1>   0.0800 
 38 H        8.2300     5.9990     0.2450 H     1 <1>   0.0800 
 39 H        7.5120     5.8630    -1.9670 H     1 <1>   0.0800 
 40 H        6.6280     4.4380    -2.4490 H     1 <1>   0.0800 
@<TRIPOS>BOND
  1   1   2  1   
  2   2   3  ar  
  3   2   4  ar  
  4   3   5  1   
  5   3   6  ar  
  6   4   7  ar  
  7   4  23  1   
  8   5   8  1   
  9   6   9  ar  
 10   6  10  1   
 11   7   9  ar  
 12   7  11  1   
 13   8  24  1   
 14   8  25  1   
 15   8  26  1   
 16   9  27  1   
 17  10  12  1   
 18  10  28  1   
 19  10  29  1   
 20  12  13  1   
 21  12  14  1   
 22  13  15  1   
 23  13  30  1   
 24  13  31  1   
 25  14  16  1   
 26  14  32  1   
 27  14  33  1   
 28  15  17  1   
 29  15  18  1   
 30  15  34  1   
 31  16  19  1   
 32  16  20  1   
 33  16  35  1   
 34  17  19  am  
 35  17  36  1   
 36  18  21  1   
 37  18  37  1   
 38  18  38  1   
 39  19  22  2   
 40  20  21  1   
 41  20  39  1   
 42  20  40  1   
@<TRIPOS>SUBSTRUCTURE
  1 ****  12 GROUP 4 **** **** 0

# MOE 2024.06 (io_trps.svl 2023.06)
