@<TRIPOS>MOLECULE
NONAME
46 49 1 0 0 
SMALL
USER_CHARGES


@<TRIPOS>ATOM
  1 O        0.4210     3.1560     1.9200 O.3   1 <1>  -0.3630 
  2 C       -0.0940     3.1440     0.6670 C.ar  1 <1>   0.0830 
  3 C        1.6350     2.5040     2.2220 C.3   1 <1>   0.0400 
  4 C       -1.3030     3.7950     0.4930 C.ar  1 <1>  -0.1500 
  5 C        0.5180     2.5290    -0.4200 C.ar  1 <1>  -0.1500 
  6 C       -1.9110     3.8480    -0.7550 C.ar  1 <1>  -0.1430 
  7 C       -0.0850     2.5730    -1.6640 C.ar  1 <1>  -0.1500 
  8 C       -1.2920     3.2280    -1.8320 C.ar  1 <1>  -0.1500 
  9 C       -3.2280     4.5810    -0.9680 C.3   1 <1>   0.5660 
 10 N       -3.1120     5.9840    -0.5020 N.4   1 <1>  -0.9590 
 11 C       -4.3760     3.8850    -0.2270 C.3   1 <1>  -0.1600 
 12 C       -4.3560     6.7770    -0.7030 C.3   1 <1>   0.3430 
 13 C       -1.9040     6.6970    -1.0480 C.3   1 <1>   0.5240 
 14 C       -5.7000     4.6480    -0.3750 C.3   1 <1>  -0.1600 
 15 C       -5.5170     6.1130     0.0400 C.3   1 <1>  -0.1600 
 16 C       -1.6360     7.9860    -0.2620 C.2   1 <1>   0.3350 
 17 N       -1.1730     9.0680    -0.8070 N.2   1 <1>  -0.7070 
 18 N       -1.9110     8.0300     1.0440 N.2   1 <1>  -0.5650 
 19 N       -1.1100     9.8970     0.2330 N.pl3 1 <1>   0.6010 
 20 C       -1.5740     9.2460     1.3400 C.2   1 <1>   0.3120 
 21 C       -0.6990    11.2080     0.3230 C.2   1 <1>  -0.1810 
 22 N       -1.6680     9.8320     2.5760 N.2   1 <1>  -0.5760 
 23 C       -0.7800    11.8030     1.5430 C.2   1 <1>  -0.1360 
 24 C       -1.2780    11.0630     2.6540 C.2   1 <1>   0.3760 
 25 H        1.8340     2.6380     3.2700 H     1 <1>   0.0800 
 26 H        2.4240     2.9470     1.6410 H     1 <1>   0.0800 
 27 H        1.5340     1.4560     2.0010 H     1 <1>   0.0800 
 28 H       -1.7480     4.2520     1.3590 H     1 <1>   0.1500 
 29 H        1.4550     2.0150    -0.3160 H     1 <1>   0.1500 
 30 H        0.3890     2.0910    -2.5030 H     1 <1>   0.1500 
 31 H       -1.7390     3.2430    -2.8130 H     1 <1>   0.1500 
 32 H       -3.4550     4.5810    -2.0220 H     1 <1>   0.0800 
 33 H       -2.9430     5.9580     0.5130 H     1 <1>   0.4500 
 34 H       -4.1310     3.7880     0.8160 H     1 <1>   0.0800 
 35 H       -4.4920     2.8890    -0.6200 H     1 <1>   0.0800 
 36 H       -4.5880     6.8400    -1.7540 H     1 <1>   0.0800 
 37 H       -4.2220     7.7790    -0.3240 H     1 <1>   0.0800 
 38 H       -2.0440     6.9380    -2.0870 H     1 <1>   0.0800 
 39 H       -1.0300     6.0740    -0.9580 H     1 <1>   0.0800 
 40 H       -6.4580     4.1860     0.2370 H     1 <1>   0.0800 
 41 H       -6.0330     4.6010    -1.3990 H     1 <1>   0.0800 
 42 H       -6.4220     6.6580    -0.1640 H     1 <1>   0.0800 
 43 H       -5.3400     6.1760     1.1000 H     1 <1>   0.0800 
 44 H       -0.3420    11.6710    -0.5780 H     1 <1>   0.1500 
 45 H       -0.4800    12.8230     1.7080 H     1 <1>   0.1500 
 46 H       -1.3280    11.5660     3.6050 H     1 <1>   0.0600 
@<TRIPOS>BOND
  1   1   2  1   
  2   1   3  1   
  3   2   4  ar  
  4   2   5  ar  
  5   3  25  1   
  6   3  26  1   
  7   3  27  1   
  8   4   6  ar  
  9   4  28  1   
 10   5   7  ar  
 11   5  29  1   
 12   6   8  ar  
 13   6   9  1   
 14   7   8  ar  
 15   7  30  1   
 16   8  31  1   
 17   9  10  1   
 18   9  11  1   
 19   9  32  1   
 20  10  12  1   
 21  10  13  1   
 22  10  33  1   
 23  11  14  1   
 24  11  34  1   
 25  11  35  1   
 26  12  15  1   
 27  12  36  1   
 28  12  37  1   
 29  13  16  1   
 30  13  38  1   
 31  13  39  1   
 32  14  15  1   
 33  14  40  1   
 34  14  41  1   
 35  15  42  1   
 36  15  43  1   
 37  16  17  2   
 38  16  18  1   
 39  17  19  1   
 40  18  20  2   
 41  19  20  1   
 42  19  21  1   
 43  20  22  1   
 44  21  23  2   
 45  21  44  1   
 46  22  24  2   
 47  23  24  1   
 48  23  45  1   
 49  24  46  1   
@<TRIPOS>SUBSTRUCTURE
  1 ****  13 GROUP 4 **** **** 0

# MOE 2024.06 (io_trps.svl 2023.06)
