@<TRIPOS>MOLECULE
NONAME
38 39 1 0 0 
SMALL
USER_CHARGES


@<TRIPOS>ATOM
  1 CL       2.4910     0.4500     1.0160 Cl    1 <1>  -0.1770 
  2 C        2.4360    -1.2910     0.9640 C.ar  1 <1>   0.1770 
  3 C        2.7670    -2.0140     2.0930 C.ar  1 <1>  -0.1500 
  4 C        2.0570    -1.9160    -0.2120 C.ar  1 <1>  -0.1500 
  5 C        2.7130    -3.3920     2.0210 C.ar  1 <1>   0.1770 
  6 C        2.0030    -3.3030    -0.2730 C.ar  1 <1>  -0.1440 
  7 CL       3.1190    -4.3400     3.4260 Cl    1 <1>  -0.1770 
  8 C        2.3390    -4.0420     0.8570 C.ar  1 <1>  -0.1500 
  9 C        1.5770    -4.0100    -1.5460 C.3   1 <1>   0.4870 
 10 N        0.2630    -4.6380    -1.2950 N.4   1 <1>  -0.9590 
 11 C       -0.0170    -5.7850    -2.1980 C.3   1 <1>   0.5240 
 12 C       -0.8630    -3.6640    -1.1520 C.3   1 <1>   0.3430 
 13 C       -0.3650    -6.9570    -1.2900 C.2   1 <1>   0.0460 
 14 C       -2.0760    -4.2680    -0.4300 C.3   1 <1>   0.1200 
 15 N        0.1700    -7.0290    -0.0500 N.2   1 <1>  -0.5650 
 16 C       -1.1900    -8.0030    -1.5160 C.2   1 <1>  -0.3020 
 17 O       -3.0680    -3.3040    -0.3990 O.3   1 <1>  -0.6800 
 18 C       -0.3280    -8.1160     0.4430 C.2   1 <1>   0.0060 
 19 N       -1.1640    -8.7570    -0.4010 N.pl3 1 <1>   0.0330 
 20 C       -0.0120    -8.6370     1.8300 C.3   1 <1>  -0.0600 
 21 H        3.0590    -1.5190     3.0010 H     1 <1>   0.1500 
 22 H        1.8110    -1.3020    -1.0620 H     1 <1>   0.1500 
 23 H        2.3170    -5.1200     0.8560 H     1 <1>   0.1500 
 24 H        2.3090    -4.7640    -1.7870 H     1 <1>   0.0800 
 25 H        1.5130    -3.3120    -2.3650 H     1 <1>   0.0800 
 26 H        0.3620    -5.1290    -0.3840 H     1 <1>   0.4500 
 27 H        0.8610    -6.0390    -2.7670 H     1 <1>   0.0800 
 28 H       -0.8290    -5.5680    -2.8720 H     1 <1>   0.0800 
 29 H       -1.1700    -3.3160    -2.1240 H     1 <1>   0.0800 
 30 H       -0.5310    -2.8150    -0.5770 H     1 <1>   0.0800 
 31 H       -1.8280    -4.5310     0.5840 H     1 <1>   0.0800 
 32 H       -2.4670    -5.1240    -0.9520 H     1 <1>   0.0800 
 33 H       -1.7790    -8.2610    -2.3800 H     1 <1>   0.1500 
 34 H       -3.8540    -3.6110     0.1030 H     1 <1>   0.4000 
 35 H       -1.6630    -9.6360    -0.2230 H     1 <1>   0.2700 
 36 H        0.6690    -7.9700     2.3290 H     1 <1>   0.0800 
 37 H        0.4460    -9.6070     1.7660 H     1 <1>   0.0800 
 38 H       -0.9110    -8.7090     2.4150 H     1 <1>   0.0800 
@<TRIPOS>BOND
  1   1   2  1   
  2   2   3  ar  
  3   2   4  ar  
  4   3   5  ar  
  5   3  21  1   
  6   4   6  ar  
  7   4  22  1   
  8   5   7  1   
  9   5   8  ar  
 10   6   8  ar  
 11   6   9  1   
 12   8  23  1   
 13   9  10  1   
 14   9  24  1   
 15   9  25  1   
 16  10  11  1   
 17  10  12  1   
 18  10  26  1   
 19  11  13  1   
 20  11  27  1   
 21  11  28  1   
 22  12  14  1   
 23  12  29  1   
 24  12  30  1   
 25  13  15  1   
 26  13  16  2   
 27  14  17  1   
 28  14  31  1   
 29  14  32  1   
 30  15  18  2   
 31  16  19  1   
 32  16  33  1   
 33  17  34  1   
 34  18  19  1   
 35  18  20  1   
 36  19  35  1   
 37  20  36  1   
 38  20  37  1   
 39  20  38  1   
@<TRIPOS>SUBSTRUCTURE
  1 ****  10 GROUP 4 **** **** 0

# MOE 2024.06 (io_trps.svl 2023.06)
