@<TRIPOS>MOLECULE
NONAME
47 48 1 0 0 
SMALL
USER_CHARGES


@<TRIPOS>ATOM
  1 O        1.4150     0.4830     1.6200 O.3   1 <1>  -0.6800 
  2 C        1.7250     0.3590     0.2700 C.3   1 <1>   0.2000 
  3 C        3.3270     0.2710     0.0720 C.3   1 <1>   0.0000 
  4 C        0.9960     1.4650    -0.5210 C.3   1 <1>  -0.1600 
  5 C        3.4690     1.7890     0.5300 C.3   1 <1>   0.3430 
  6 C        3.1990    -1.2660    -0.3250 C.3   1 <1>   0.1200 
  7 C        4.9080     0.2200    -0.1820 C.3   1 <1>  -0.1600 
  8 C        1.9790     2.2250    -1.3920 C.3   1 <1>   0.3430 
  9 N        2.9940     2.8020    -0.4860 N.4   1 <1>  -0.9590 
 10 O        2.7930    -1.3450    -1.6580 O.3   1 <1>  -0.6800 
 11 C        5.6960    -0.1870     1.0830 C.3   1 <1>  -0.1600 
 12 C        4.0800     3.5080    -1.2140 C.3   1 <1>   0.4860 
 13 C        7.1820    -0.3830     0.7710 C.3   1 <1>  -0.2400 
 14 C        4.5740     4.6270    -0.3170 C.ar  1 <1>  -0.1440 
 15 C        5.8330     4.6230     0.2810 C.ar  1 <1>   0.1670 
 16 C        3.7280     5.6970    -0.0810 C.ar  1 <1>  -0.1500 
 17 N        6.2580     5.5680     1.0990 N.ar  1 <1>  -0.6200 
 18 C        6.8540     3.5210     0.0560 C.3   1 <1>  -0.0970 
 19 C        4.1780     6.6900     0.7610 C.ar  1 <1>  -0.1500 
 20 C        5.4350     6.5760     1.3220 C.ar  1 <1>   0.1600 
 21 H        0.4750     0.2590     1.7870 H     1 <1>   0.4000 
 22 H        1.1650    -0.5140    -0.0290 H     1 <1>   0.0800 
 23 H        0.2700     1.0090    -1.1720 H     1 <1>   0.0800 
 24 H        0.4730     2.1450     0.1290 H     1 <1>   0.0800 
 25 H        4.4700     2.0470     0.8330 H     1 <1>   0.0800 
 26 H        2.9090     1.9470     1.4340 H     1 <1>   0.0800 
 27 H        2.5030    -1.8180     0.2880 H     1 <1>   0.0800 
 28 H        4.0870    -1.8700    -0.2300 H     1 <1>   0.0800 
 29 H        5.2020    -0.4310    -0.9950 H     1 <1>   0.0800 
 30 H        5.3390     1.1320    -0.5520 H     1 <1>   0.0800 
 31 H        1.4740     3.0000    -1.9460 H     1 <1>   0.0800 
 32 H        2.4450     1.5420    -2.0870 H     1 <1>   0.0800 
 33 H        2.5330     3.5340     0.0690 H     1 <1>   0.4500 
 34 H        2.7740    -2.2790    -1.9590 H     1 <1>   0.4000 
 35 H        5.5980     0.5620     1.8510 H     1 <1>   0.0800 
 36 H        5.3110    -1.1080     1.4900 H     1 <1>   0.0800 
 37 H        4.8680     2.8290    -1.4840 H     1 <1>   0.0800 
 38 H        3.6910     3.9450    -2.1190 H     1 <1>   0.0800 
 39 H        7.6190     0.5170     0.3770 H     1 <1>   0.0800 
 40 H        7.3170    -1.1740     0.0530 H     1 <1>   0.0800 
 41 H        7.7130    -0.6510     1.6680 H     1 <1>   0.0800 
 42 H        2.7520     5.7780    -0.5290 H     1 <1>   0.1500 
 43 H        6.7780     3.0850    -0.9200 H     1 <1>   0.0800 
 44 H        6.7400     2.7650     0.8100 H     1 <1>   0.0800 
 45 H        7.8470     3.9280     0.1470 H     1 <1>   0.0800 
 46 H        3.5670     7.5470     0.9840 H     1 <1>   0.1500 
 47 H        5.7820     7.3530     1.9830 H     1 <1>   0.1500 
@<TRIPOS>BOND
  1   1   2  1   
  2   1  21  1   
  3   2   3  1   
  4   2   4  1   
  5   2  22  1   
  6   3   5  1   
  7   3   6  1   
  8   3   7  1   
  9   4   8  1   
 10   4  23  1   
 11   4  24  1   
 12   5   9  1   
 13   5  25  1   
 14   5  26  1   
 15   6  10  1   
 16   6  27  1   
 17   6  28  1   
 18   7  11  1   
 19   7  29  1   
 20   7  30  1   
 21   8   9  1   
 22   8  31  1   
 23   8  32  1   
 24   9  12  1   
 25   9  33  1   
 26  10  34  1   
 27  11  13  1   
 28  11  35  1   
 29  11  36  1   
 30  12  14  1   
 31  12  37  1   
 32  12  38  1   
 33  13  39  1   
 34  13  40  1   
 35  13  41  1   
 36  14  15  ar  
 37  14  16  ar  
 38  15  17  ar  
 39  15  18  1   
 40  16  19  ar  
 41  16  42  1   
 42  17  20  ar  
 43  18  43  1   
 44  18  44  1   
 45  18  45  1   
 46  19  20  ar  
 47  19  46  1   
 48  20  47  1   
@<TRIPOS>SUBSTRUCTURE
  1 ****   5 GROUP 4 **** **** 0

# MOE 2024.06 (io_trps.svl 2023.06)
