@<TRIPOS>MOLECULE
NONAME
40 41 1 0 0 
SMALL
USER_CHARGES


@<TRIPOS>ATOM
  1 S       -0.3420    -0.1020    -1.1790 S.o2  1 <1>   1.3330 
  2 O       -1.2180    -1.2030    -0.8540 O.2   1 <1>  -0.6500 
  3 O        0.1590     0.0390    -2.5280 O.2   1 <1>  -0.6500 
  4 N        1.0000    -0.2080    -0.1420 N.am  1 <1>  -0.8490 
  5 C       -1.1410     1.4390    -0.7240 C.3   1 <1>  -0.0550 
  6 C        0.6500    -0.6560     1.2120 C.3   1 <1>   0.1160 
  7 C        2.0440    -1.0800    -0.6900 C.3   1 <1>   0.1160 
  8 C       -0.3360     2.7040    -1.0910 C.3   1 <1>  -0.0800 
  9 C       -1.1040     4.0110    -0.9110 C.3   1 <1>   0.2000 
 10 C        0.9520     2.9040    -0.2740 C.3   1 <1>   0.1100 
 11 O       -1.7880     3.9730     0.2910 O.3   1 <1>  -0.6800 
 12 C        0.0250     5.0210    -0.7600 C.3   1 <1>   0.1100 
 13 N        1.0060     4.3300     0.0920 N.3   1 <1>  -0.8100 
 14 C        2.3670     4.9010    -0.0100 C.3   1 <1>   0.2900 
 15 C        2.4240     6.3680     0.4020 C.2   1 <1>   0.2980 
 16 O        2.2120     6.6770     1.6550 O.3   1 <1>  -0.0190 
 17 N        2.6630     7.3530    -0.3720 N.2   1 <1>  -0.5650 
 18 N        2.3250     7.9700     1.6870 N.2   1 <1>  -0.4100 
 19 C        2.5880     8.3730     0.4970 C.2   1 <1>   0.3350 
 20 C        2.8000     9.8610     0.0780 C.3   1 <1>   1.2010 
 21 F        2.6690    10.7220     1.0860 F     1 <1>  -0.3400 
 22 F        4.0110    10.0830    -0.4300 F     1 <1>  -0.3400 
 23 F        1.9340    10.2600    -0.8520 F     1 <1>  -0.3400 
 24 H       -2.0820     1.4900    -1.2360 H     1 <1>   0.0800 
 25 H       -1.3550     1.4380     0.3270 H     1 <1>   0.0800 
 26 H        1.5190    -0.6290     1.8460 H     1 <1>   0.0800 
 27 H        0.2630    -1.6620     1.1890 H     1 <1>   0.0800 
 28 H       -0.0980    -0.0090     1.6370 H     1 <1>   0.0800 
 29 H        2.8860    -1.1220    -0.0220 H     1 <1>   0.0800 
 30 H        2.3850    -0.6970    -1.6370 H     1 <1>   0.0800 
 31 H        1.6590    -2.0760    -0.8400 H     1 <1>   0.0800 
 32 H       -0.0540     2.6380    -2.1280 H     1 <1>   0.0800 
 33 H       -1.7930     4.2330    -1.7080 H     1 <1>   0.0800 
 34 H        1.8070     2.6080    -0.8600 H     1 <1>   0.0800 
 35 H        0.9340     2.3210     0.6310 H     1 <1>   0.0800 
 36 H       -1.1110     4.0660     0.9960 H     1 <1>   0.4000 
 37 H       -0.3170     5.9400    -0.3130 H     1 <1>   0.0800 
 38 H        0.4510     5.2300    -1.7270 H     1 <1>   0.0800 
 39 H        3.0320     4.3440     0.6270 H     1 <1>   0.0800 
 40 H        2.7210     4.8130    -1.0230 H     1 <1>   0.0800 
@<TRIPOS>BOND
  1   1   2  2   
  2   1   3  2   
  3   1   4  am  
  4   1   5  1   
  5   4   6  1   
  6   4   7  1   
  7   5   8  1   
  8   5  24  1   
  9   5  25  1   
 10   6  26  1   
 11   6  27  1   
 12   6  28  1   
 13   7  29  1   
 14   7  30  1   
 15   7  31  1   
 16   8   9  1   
 17   8  10  1   
 18   8  32  1   
 19   9  11  1   
 20   9  12  1   
 21   9  33  1   
 22  10  13  1   
 23  10  34  1   
 24  10  35  1   
 25  11  36  1   
 26  12  13  1   
 27  12  37  1   
 28  12  38  1   
 29  13  14  1   
 30  14  15  1   
 31  14  39  1   
 32  14  40  1   
 33  15  16  1   
 34  15  17  2   
 35  16  18  1   
 36  17  19  1   
 37  18  19  2   
 38  19  20  1   
 39  20  21  1   
 40  20  22  1   
 41  20  23  1   
@<TRIPOS>SUBSTRUCTURE
  1 ****  13 GROUP 4 **** **** 0

# MOE 2024.06 (io_trps.svl 2023.06)
