@<TRIPOS>MOLECULE
NONAME
54 57 1 0 0 
SMALL
USER_CHARGES


@<TRIPOS>ATOM
  1 O        1.8810     1.4080    -1.4010 O.3   1 <1>  -0.0190 
  2 N        2.7570     0.4630    -1.2340 N.2   1 <1>  -0.4100 
  3 C        1.2300     1.6670    -0.2990 C.2   1 <1>  -0.0400 
  4 C        2.6530     0.0890    -0.0090 C.2   1 <1>   0.1080 
  5 C        1.6820     0.8360     0.6520 C.2   1 <1>  -0.1500 
  6 C        0.1920     2.7720    -0.2790 C.3   1 <1>   0.0200 
  7 C        3.4790    -1.0140     0.6160 C.3   1 <1>  -0.0590 
  8 C        0.7570     4.0450    -0.9430 C.3   1 <1>  -0.0800 
  9 C       -0.0850     5.3140    -0.8280 C.3   1 <1>   0.2000 
 10 C        2.1350     4.4460    -0.4010 C.3   1 <1>   0.3430 
 11 O       -0.5280     5.4720     0.4850 O.3   1 <1>  -0.6800 
 12 C        0.9460     6.4050    -1.1270 C.3   1 <1>   0.3430 
 13 N        2.2210     5.9350    -0.4920 N.4   1 <1>  -0.9590 
 14 C        2.3910     6.5410     0.8550 C.3   1 <1>   0.5240 
 15 C        2.5880     8.0280     0.6700 C.2   1 <1>  -0.1810 
 16 C        1.6510     9.0120     0.9730 C.2   1 <1>   0.1080 
 17 C        3.6560     8.7050     0.1880 C.2   1 <1>  -0.3320 
 18 N        2.0830    10.1910     0.6870 N.2   1 <1>  -0.7070 
 19 C        0.2710     8.8100     1.5680 C.3   1 <1>  -0.0590 
 20 N        3.3360    10.0320     0.2000 N.pl3 1 <1>   0.5930 
 21 C        5.0120     8.1860    -0.2760 C.3   1 <1>  -0.0600 
 22 C        4.1600    11.1230    -0.1900 C.ar  1 <1>  -0.0230 
 23 C        4.6040    12.0400     0.7580 C.ar  1 <1>  -0.1500 
 24 C        4.5400    11.2960    -1.5180 C.ar  1 <1>  -0.1500 
 25 C        5.4220    13.0930     0.3920 C.ar  1 <1>  -0.1500 
 26 C        5.3580    12.3500    -1.8850 C.ar  1 <1>  -0.1500 
 27 C        5.8020    13.2470    -0.9300 C.ar  1 <1>  -0.1500 
 28 H        1.3960     0.7340     1.6840 H     1 <1>   0.1500 
 29 H       -0.6820     2.4420    -0.8130 H     1 <1>   0.0800 
 30 H       -0.0870     2.9550     0.7430 H     1 <1>   0.0800 
 31 H        4.0340    -0.6300     1.4510 H     1 <1>   0.0800 
 32 H        4.1680    -1.4120    -0.1070 H     1 <1>   0.0800 
 33 H        2.8350    -1.8060     0.9520 H     1 <1>   0.0800 
 34 H        0.8860     3.8340    -1.9910 H     1 <1>   0.0800 
 35 H       -0.9300     5.3470    -1.4960 H     1 <1>   0.0800 
 36 H        2.9160     3.9700    -0.9740 H     1 <1>   0.0800 
 37 H        2.2210     4.1320     0.6270 H     1 <1>   0.0800 
 38 H       -1.3860     5.0160     0.6240 H     1 <1>   0.4000 
 39 H        0.6250     7.3640    -0.7570 H     1 <1>   0.0800 
 40 H        1.0840     6.4720    -2.1930 H     1 <1>   0.0800 
 41 H        3.0200     6.2470    -1.0560 H     1 <1>   0.4500 
 42 H        1.5250     6.3490     1.4670 H     1 <1>   0.0800 
 43 H        3.2580     6.1270     1.3420 H     1 <1>   0.0800 
 44 H        0.2320     7.9260     2.1750 H     1 <1>   0.0800 
 45 H       -0.4590     8.7390     0.7840 H     1 <1>   0.0800 
 46 H        0.0240     9.6560     2.1850 H     1 <1>   0.0800 
 47 H        5.1070     7.1300    -0.1020 H     1 <1>   0.0800 
 48 H        5.7990     8.6850     0.2650 H     1 <1>   0.0800 
 49 H        5.1500     8.3790    -1.3250 H     1 <1>   0.0800 
 50 H        4.3030    11.9270     1.7850 H     1 <1>   0.1500 
 51 H        4.1920    10.6100    -2.2690 H     1 <1>   0.1500 
 52 H        5.7610    13.7950     1.1340 H     1 <1>   0.1500 
 53 H        5.6490    12.4760    -2.9140 H     1 <1>   0.1500 
 54 H        6.4380    14.0680    -1.2150 H     1 <1>   0.1500 
@<TRIPOS>BOND
  1   1   2  1   
  2   1   3  1   
  3   2   4  2   
  4   3   5  2   
  5   3   6  1   
  6   4   5  1   
  7   4   7  1   
  8   5  28  1   
  9   6   8  1   
 10   6  29  1   
 11   6  30  1   
 12   7  31  1   
 13   7  32  1   
 14   7  33  1   
 15   8   9  1   
 16   8  10  1   
 17   8  34  1   
 18   9  11  1   
 19   9  12  1   
 20   9  35  1   
 21  10  13  1   
 22  10  36  1   
 23  10  37  1   
 24  11  38  1   
 25  12  13  1   
 26  12  39  1   
 27  12  40  1   
 28  13  14  1   
 29  13  41  1   
 30  14  15  1   
 31  14  42  1   
 32  14  43  1   
 33  15  16  1   
 34  15  17  2   
 35  16  18  2   
 36  16  19  1   
 37  17  20  1   
 38  17  21  1   
 39  18  20  1   
 40  19  44  1   
 41  19  45  1   
 42  19  46  1   
 43  20  22  1   
 44  21  47  1   
 45  21  48  1   
 46  21  49  1   
 47  22  23  ar  
 48  22  24  ar  
 49  23  25  ar  
 50  23  50  1   
 51  24  26  ar  
 52  24  51  1   
 53  25  27  ar  
 54  25  52  1   
 55  26  27  ar  
 56  26  53  1   
 57  27  54  1   
@<TRIPOS>SUBSTRUCTURE
  1 ****  13 GROUP 4 **** **** 0

# MOE 2024.06 (io_trps.svl 2023.06)
