@<TRIPOS>MOLECULE
NONAME
43 45 1 0 0 
SMALL
USER_CHARGES


@<TRIPOS>ATOM
  1 O       -0.7150     1.2210    -0.2940 O.co2 1 <1>  -0.9000 
  2 C       -0.8210     2.3100    -0.8950 C.2   1 <1>   1.0330 
  3 O       -1.5010     2.3360    -1.9390 O.co2 1 <1>  -0.9000 
  4 C       -0.1530     3.4890    -0.3370 C.2   1 <1>  -0.0060 
  5 N       -0.1020     4.7750    -0.8290 N.2   1 <1>  -0.5650 
  6 C        0.5500     3.4870     0.8140 C.2   1 <1>  -0.0100 
  7 C        0.6060     5.4120     0.0300 C.2   1 <1>   0.2980 
  8 O        1.0150     4.6810     1.0420 O.3   1 <1>  -0.2800 
  9 C        0.9650     6.8980     0.0030 C.3   1 <1>   0.2900 
 10 N        2.3450     7.2570    -0.4600 N.3   1 <1>  -0.8100 
 11 C        2.6340     8.6870    -0.1720 C.3   1 <1>   0.3700 
 12 C        3.3770     6.3650     0.0990 C.3   1 <1>   0.1100 
 13 C        1.5440     9.6400    -0.6760 C.2   1 <1>   0.2980 
 14 C        4.0010     9.0760    -0.7590 C.3   1 <1>  -0.1600 
 15 C        4.7560     6.7100    -0.4690 C.3   1 <1>  -0.1600 
 16 O        1.3630     9.7810    -1.9670 O.3   1 <1>  -0.0190 
 17 N        0.7610    10.3250     0.0630 N.2   1 <1>  -0.5650 
 18 C        5.1220     8.1770    -0.2270 C.3   1 <1>  -0.1600 
 19 N        0.3820    10.6280    -2.0560 N.2   1 <1>  -0.4100 
 20 C        0.0390    10.9310    -0.8700 C.2   1 <1>   0.3350 
 21 C       -1.0800    11.8830    -0.5060 C.3   1 <1>   0.0210 
 22 C       -0.5230    13.1110     0.2060 C.3   1 <1>   0.1200 
 23 O       -1.5850    13.9560     0.5150 O.3   1 <1>  -0.5600 
 24 C       -1.2050    15.1200     1.1750 C.3   1 <1>   0.0400 
 25 H        0.7440     2.6770     1.4950 H     1 <1>   0.1500 
 26 H        0.8080     7.2820     0.9960 H     1 <1>   0.0800 
 27 H        0.2520     7.3740    -0.6470 H     1 <1>   0.0800 
 28 H        2.6860     8.8080     0.8970 H     1 <1>   0.0800 
 29 H        3.1600     5.3440    -0.1710 H     1 <1>   0.0800 
 30 H        3.3860     6.4380     1.1730 H     1 <1>   0.0800 
 31 H        4.2150    10.1010    -0.5150 H     1 <1>   0.0800 
 32 H        3.9550     8.9950    -1.8320 H     1 <1>   0.0800 
 33 H        4.7510     6.5060    -1.5260 H     1 <1>   0.0800 
 34 H        5.4950     6.0720    -0.0180 H     1 <1>   0.0800 
 35 H        5.2520     8.3470     0.8290 H     1 <1>   0.0800 
 36 H        6.0490     8.4110    -0.7220 H     1 <1>   0.0800 
 37 H       -1.7730    11.3740     0.1390 H     1 <1>   0.0800 
 38 H       -1.5910    12.1870    -1.4000 H     1 <1>   0.0800 
 39 H        0.1650    13.6350    -0.4350 H     1 <1>   0.0800 
 40 H       -0.0290    12.8240     1.1190 H     1 <1>   0.0800 
 41 H       -2.0900    15.6990     1.3680 H     1 <1>   0.0800 
 42 H       -0.5340    15.6810     0.5480 H     1 <1>   0.0800 
 43 H       -0.7300    14.8620     2.1060 H     1 <1>   0.0800 
@<TRIPOS>BOND
  1   1   2  ar  
  2   2   3  ar  
  3   2   4  1   
  4   4   5  1   
  5   4   6  2   
  6   5   7  2   
  7   6   8  1   
  8   6  25  1   
  9   7   8  1   
 10   7   9  1   
 11   9  10  1   
 12   9  26  1   
 13   9  27  1   
 14  10  11  1   
 15  10  12  1   
 16  11  13  1   
 17  11  14  1   
 18  11  28  1   
 19  12  15  1   
 20  12  29  1   
 21  12  30  1   
 22  13  16  1   
 23  13  17  2   
 24  14  18  1   
 25  14  31  1   
 26  14  32  1   
 27  15  18  1   
 28  15  33  1   
 29  15  34  1   
 30  16  19  1   
 31  17  20  1   
 32  18  35  1   
 33  18  36  1   
 34  19  20  2   
 35  20  21  1   
 36  21  22  1   
 37  21  37  1   
 38  21  38  1   
 39  22  23  1   
 40  22  39  1   
 41  22  40  1   
 42  23  24  1   
 43  24  41  1   
 44  24  42  1   
 45  24  43  1   
@<TRIPOS>SUBSTRUCTURE
  1 ****   9 GROUP 4 **** **** 0

# MOE 2024.06 (io_trps.svl 2023.06)
