@<TRIPOS>MOLECULE
NONAME
49 51 1 0 0 
SMALL
USER_CHARGES


@<TRIPOS>ATOM
  1 S        0.2140     1.3630     1.2330 S.3   1 <1>  -0.0800 
  2 C       -1.3170     0.8250     0.5950 C.2   1 <1>  -0.1400 
  3 C        0.9150     1.1560    -0.3540 C.2   1 <1>   0.2280 
  4 C       -1.1600     0.5380    -0.7090 C.2   1 <1>   0.0460 
  5 C       -2.5100     0.7670     1.5280 C.3   1 <1>   0.2900 
  6 N        0.1040     0.7310    -1.2380 N.2   1 <1>  -0.5650 
  7 C       -2.2180     0.0360    -1.6700 C.3   1 <1>  -0.0590 
  8 N       -3.1130     2.1070     1.5950 N.3   1 <1>  -0.8100 
  9 C       -4.5820     2.1190     1.6110 C.3   1 <1>   0.2530 
 10 C       -2.4980     3.0200     2.6050 C.3   1 <1>   0.1710 
 11 C       -5.1070     1.6610     0.2590 C.ar  1 <1>  -0.1430 
 12 C       -1.9710     4.3090     1.9740 C.2   1 <1>   0.5690 
 13 C       -4.8510     2.4220    -0.8710 C.ar  1 <1>  -0.1500 
 14 C       -5.8380     0.4880     0.1370 C.ar  1 <1>  -0.1500 
 15 O       -1.8430     5.2920     2.6680 O.2   1 <1>  -0.5700 
 16 N       -1.6750     4.2560     0.6470 N.am  1 <1>  -0.4930 
 17 C       -5.3130     2.0160    -2.1110 C.ar  1 <1>  -0.1500 
 18 C       -6.3000     0.0800    -1.1030 C.ar  1 <1>  -0.1500 
 19 C       -1.1800     5.2510    -0.2300 C.2   1 <1>   0.0630 
 20 C       -6.0370     0.8430    -2.2270 C.ar  1 <1>  -0.1500 
 21 C       -0.8860     5.1090    -1.5890 C.2   1 <1>   0.1080 
 22 C       -0.8850     6.5370     0.0430 C.2   1 <1>  -0.3020 
 23 N       -0.4480     6.2120    -2.1150 N.2   1 <1>  -0.7070 
 24 C       -1.0400     3.8400    -2.3980 C.3   1 <1>  -0.0590 
 25 N       -0.4470     7.0950    -1.1020 N.pl3 1 <1>   0.3140 
 26 C       -0.0140     8.4840    -1.2810 C.3   1 <1>   0.0160 
 27 H        1.9570     1.3990    -0.4650 H     1 <1>   0.1500 
 28 H       -2.2190     0.4210     2.5050 H     1 <1>   0.0800 
 29 H       -3.2170     0.0620     1.1260 H     1 <1>   0.0800 
 30 H       -3.1650    -0.0780    -1.1790 H     1 <1>   0.0800 
 31 H       -1.9180    -0.9140    -2.0720 H     1 <1>   0.0800 
 32 H       -2.3330     0.7330    -2.4790 H     1 <1>   0.0800 
 33 H       -4.9340     3.1220     1.7850 H     1 <1>   0.0800 
 34 H       -4.9510     1.4900     2.4030 H     1 <1>   0.0800 
 35 H       -1.6690     2.5390     3.0930 H     1 <1>   0.0800 
 36 H       -3.2140     3.2770     3.3650 H     1 <1>   0.0800 
 37 H       -4.2860     3.3360    -0.7850 H     1 <1>   0.1500 
 38 H       -6.0510    -0.1140     1.0030 H     1 <1>   0.1500 
 39 H       -1.8680     3.3360     0.2360 H     1 <1>   0.3700 
 40 H       -5.1100     2.6140    -2.9820 H     1 <1>   0.1500 
 41 H       -6.8670    -0.8310    -1.1930 H     1 <1>   0.1500 
 42 H       -6.3980     0.5270    -3.1900 H     1 <1>   0.1500 
 43 H       -0.9660     7.0640     0.9750 H     1 <1>   0.1500 
 44 H       -1.7870     3.2030    -1.9660 H     1 <1>   0.0800 
 45 H       -0.1020     3.3180    -2.4270 H     1 <1>   0.0800 
 46 H       -1.3310     4.0860    -3.4020 H     1 <1>   0.0800 
 47 H        0.7220     8.7220    -0.5380 H     1 <1>   0.0800 
 48 H       -0.8640     9.1310    -1.1790 H     1 <1>   0.0800 
 49 H        0.4110     8.5950    -2.2610 H     1 <1>   0.0800 
@<TRIPOS>BOND
  1   1   2  1   
  2   1   3  1   
  3   2   4  2   
  4   2   5  1   
  5   3   6  2   
  6   3  27  1   
  7   4   6  1   
  8   4   7  1   
  9   5   8  1   
 10   5  28  1   
 11   5  29  1   
 12   7  30  1   
 13   7  31  1   
 14   7  32  1   
 15   8   9  1   
 16   8  10  1   
 17   9  11  1   
 18   9  33  1   
 19   9  34  1   
 20  10  12  1   
 21  10  35  1   
 22  10  36  1   
 23  11  13  ar  
 24  11  14  ar  
 25  12  15  2   
 26  12  16  am  
 27  13  17  ar  
 28  13  37  1   
 29  14  18  ar  
 30  14  38  1   
 31  16  19  1   
 32  16  39  1   
 33  17  20  ar  
 34  17  40  1   
 35  18  20  ar  
 36  18  41  1   
 37  19  21  1   
 38  19  22  2   
 39  20  42  1   
 40  21  23  2   
 41  21  24  1   
 42  22  25  1   
 43  22  43  1   
 44  23  25  1   
 45  24  44  1   
 46  24  45  1   
 47  24  46  1   
 48  25  26  1   
 49  26  47  1   
 50  26  48  1   
 51  26  49  1   
@<TRIPOS>SUBSTRUCTURE
  1 ****  16 GROUP 4 **** **** 0

# MOE 2024.06 (io_trps.svl 2023.06)
