@<TRIPOS>MOLECULE
NONAME
43 46 1 0 0 
SMALL
USER_CHARGES


@<TRIPOS>ATOM
  1 S       -0.4540     0.3740     1.5030 S.3   1 <1>  -0.0800 
  2 C       -0.4150     1.9470     0.7340 C.2   1 <1>  -0.1400 
  3 C        1.2990     0.3760     1.6370 C.2   1 <1>  -0.1100 
  4 C        0.8350     2.4050     0.5930 C.2   1 <1>  -0.1810 
  5 C       -1.6610     2.6680     0.3000 C.3   1 <1>   0.0200 
  6 C        1.8220     1.5040     1.1170 C.2   1 <1>  -0.1500 
  7 C        1.1130     3.7550    -0.0770 C.3   1 <1>   0.4610 
  8 C       -1.2850     4.1480     0.1230 C.3   1 <1>   0.1200 
  9 O       -0.0860     4.2920    -0.6050 O.3   1 <1>  -0.5600 
 10 C        2.0400     3.5710    -1.2950 C.3   1 <1>  -0.1600 
 11 C        1.6790     4.7580     0.9420 C.3   1 <1>  -0.1600 
 12 C        3.4820     4.0090    -1.0290 C.3   1 <1>   0.1400 
 13 C        2.3610     5.9250     0.2320 C.3   1 <1>   0.1400 
 14 N        3.5250     5.4270    -0.5620 N.am  1 <1>  -0.6600 
 15 C        4.6330     6.2090    -0.8090 C.2   1 <1>   0.5440 
 16 O        5.6290     5.6940    -1.2790 O.2   1 <1>  -0.5700 
 17 C        4.6290     7.6260    -0.5140 C.ar  1 <1>   0.0860 
 18 C        5.3830     8.1720     0.5300 C.ar  1 <1>   0.1670 
 19 C        3.8500     8.4960    -1.2660 C.ar  1 <1>  -0.1500 
 20 N        5.3970     9.4550     0.8610 N.ar  1 <1>  -0.6200 
 21 C        6.2660     7.2770     1.3840 C.3   1 <1>  -0.0970 
 22 C        3.8630     9.8320    -0.9350 C.ar  1 <1>  -0.1500 
 23 C        4.6440    10.2550     0.1250 C.ar  1 <1>   0.1600 
 24 H        1.7580    -0.4810     2.0970 H     1 <1>   0.1500 
 25 H       -2.4300     2.5740     1.0440 H     1 <1>   0.0800 
 26 H       -2.0190     2.2590    -0.6270 H     1 <1>   0.0800 
 27 H        2.8710     1.7390     1.0810 H     1 <1>   0.1500 
 28 H       -1.1630     4.6170     1.0820 H     1 <1>   0.0800 
 29 H       -2.0600     4.6650    -0.4160 H     1 <1>   0.0800 
 30 H        1.6750     4.1520    -2.1220 H     1 <1>   0.0800 
 31 H        2.0360     2.5420    -1.6030 H     1 <1>   0.0800 
 32 H        2.4070     4.2730     1.5670 H     1 <1>   0.0800 
 33 H        0.9040     5.1190     1.5880 H     1 <1>   0.0800 
 34 H        4.0570     3.9070    -1.9350 H     1 <1>   0.0800 
 35 H        3.9310     3.3810    -0.2790 H     1 <1>   0.0800 
 36 H        2.6940     6.6410     0.9640 H     1 <1>   0.0800 
 37 H        1.6610     6.4090    -0.4290 H     1 <1>   0.0800 
 38 H        3.2590     8.1250    -2.0850 H     1 <1>   0.1500 
 39 H        5.7160     6.4210     1.7270 H     1 <1>   0.0800 
 40 H        6.6320     7.8130     2.2410 H     1 <1>   0.0800 
 41 H        7.1080     6.9440     0.8040 H     1 <1>   0.0800 
 42 H        3.2780    10.5420    -1.4910 H     1 <1>   0.1500 
 43 H        4.6510    11.3010     0.3810 H     1 <1>   0.1500 
@<TRIPOS>BOND
  1   1   2  1   
  2   1   3  1   
  3   2   4  2   
  4   2   5  1   
  5   3   6  2   
  6   3  24  1   
  7   4   6  1   
  8   4   7  1   
  9   5   8  1   
 10   5  25  1   
 11   5  26  1   
 12   6  27  1   
 13   7   9  1   
 14   7  10  1   
 15   7  11  1   
 16   8   9  1   
 17   8  28  1   
 18   8  29  1   
 19  10  12  1   
 20  10  30  1   
 21  10  31  1   
 22  11  13  1   
 23  11  32  1   
 24  11  33  1   
 25  12  14  1   
 26  12  34  1   
 27  12  35  1   
 28  13  14  1   
 29  13  36  1   
 30  13  37  1   
 31  14  15  am  
 32  15  16  2   
 33  15  17  1   
 34  17  18  ar  
 35  17  19  ar  
 36  18  20  ar  
 37  18  21  1   
 38  19  22  ar  
 39  19  38  1   
 40  20  23  ar  
 41  21  39  1   
 42  21  40  1   
 43  21  41  1   
 44  22  23  ar  
 45  22  42  1   
 46  23  43  1   
@<TRIPOS>SUBSTRUCTURE
  1 ****  13 GROUP 4 **** **** 0

# MOE 2024.06 (io_trps.svl 2023.06)
