@<TRIPOS>MOLECULE
NONAME
54 57 1 0 0 
SMALL
USER_CHARGES


@<TRIPOS>ATOM
  1 O       -0.6360    -0.3790    -0.3700 O.2   1 <1>  -0.5700 
  2 C       -0.5240    -1.3970     0.2740 C.2   1 <1>   0.5690 
  3 N        0.3690    -1.5050     1.2930 N.am  1 <1>  -0.7300 
  4 C       -1.4390    -2.5770    -0.1050 C.3   1 <1>   0.4040 
  5 C        1.3180    -0.4510     1.6850 C.3   1 <1>   0.2780 
  6 N       -2.5600    -2.1690    -1.0320 N.4   1 <1>  -0.9590 
  7 C        2.6020    -1.1480     2.0740 C.2   1 <1>  -0.2880 
  8 C       -3.6090    -1.3770    -0.3000 C.3   1 <1>   0.3430 
  9 C       -3.1470    -3.3060    -1.7920 C.3   1 <1>   0.3430 
 10 C        3.1070    -1.2050     3.3110 C.2   1 <1>  -0.3000 
 11 C       -4.6540    -0.7920    -1.2660 C.3   1 <1>   0.1430 
 12 C       -4.1580    -2.7720    -2.8110 C.3   1 <1>  -0.1600 
 13 C       -5.7470    -0.1350    -0.4550 C.ar  1 <1>   0.1670 
 14 C       -5.2490    -1.9070    -2.1530 C.3   1 <1>  -0.1600 
 15 C       -4.0970     0.3910    -2.1040 C.3   1 <1>  -0.1600 
 16 N       -6.3470    -0.6900     0.5680 N.ar  1 <1>  -0.6200 
 17 C       -6.0320     1.1150    -0.9060 C.ar  1 <1>  -0.1440 
 18 C       -5.1770     1.4920    -2.0900 C.3   1 <1>  -0.0170 
 19 C       -7.2930     0.0590     1.1560 C.ar  1 <1>   0.6200 
 20 C       -7.0080     1.8180    -0.2480 C.ar  1 <1>   0.1600 
 21 N       -7.6390     1.2980     0.7800 N.ar  1 <1>  -0.6200 
 22 C       -7.9920    -0.5180     2.2950 C.ar  1 <1>   0.0000 
 23 C       -8.4270     0.2720     3.3620 C.ar  1 <1>  -0.1500 
 24 C       -8.2580    -1.8880     2.3730 C.ar  1 <1>  -0.1500 
 25 C       -9.0870    -0.2730     4.4490 C.ar  1 <1>  -0.1500 
 26 C       -8.9180    -2.4400     3.4570 C.ar  1 <1>  -0.1500 
 27 C       -9.3330    -1.6320     4.4990 C.ar  1 <1>  -0.1500 
 28 H        0.4890    -2.3570     1.8470 H     1 <1>   0.3700 
 29 H       -1.8440    -3.0110     0.7930 H     1 <1>   0.0800 
 30 H       -0.8250    -3.3170    -0.5900 H     1 <1>   0.0800 
 31 H        0.9200     0.0980     2.5220 H     1 <1>   0.0800 
 32 H        1.4930     0.2340     0.8710 H     1 <1>   0.0800 
 33 H       -2.1230    -1.5070    -1.6960 H     1 <1>   0.4500 
 34 H        3.0890    -1.6070     1.2310 H     1 <1>   0.1500 
 35 H       -3.1520    -0.5680     0.2470 H     1 <1>   0.0800 
 36 H       -4.1170    -2.0120     0.4080 H     1 <1>   0.0800 
 37 H       -3.6450    -3.9800    -1.1130 H     1 <1>   0.0800 
 38 H       -2.3710    -3.8500    -2.3070 H     1 <1>   0.0800 
 39 H        4.0270    -1.7070     3.5600 H     1 <1>   0.1500 
 40 H        2.6530    -0.7570     4.1790 H     1 <1>   0.1500 
 41 H       -4.6230    -3.6060    -3.3080 H     1 <1>   0.0800 
 42 H       -3.6370    -2.2080    -3.5660 H     1 <1>   0.0800 
 43 H       -5.8870    -1.4780    -2.9070 H     1 <1>   0.0800 
 44 H       -5.8680    -2.5430    -1.5410 H     1 <1>   0.0800 
 45 H       -3.8450     0.1140    -3.1110 H     1 <1>   0.0800 
 46 H       -3.2140     0.7880    -1.6310 H     1 <1>   0.0800 
 47 H       -5.7690     1.4600    -2.9880 H     1 <1>   0.0800 
 48 H       -4.7450     2.4720    -1.9730 H     1 <1>   0.0800 
 49 H       -7.2750     2.8120    -0.5640 H     1 <1>   0.1500 
 50 H       -8.2450     1.3330     3.3380 H     1 <1>   0.1500 
 51 H       -7.9470    -2.5310     1.5690 H     1 <1>   0.1500 
 52 H       -9.4100     0.3620     5.2550 H     1 <1>   0.1500 
 53 H       -9.1100    -3.4980     3.4900 H     1 <1>   0.1500 
 54 H       -9.8470    -2.0580     5.3430 H     1 <1>   0.1500 
@<TRIPOS>BOND
  1   1   2  2   
  2   2   3  am  
  3   2   4  1   
  4   3   5  1   
  5   3  28  1   
  6   4   6  1   
  7   4  29  1   
  8   4  30  1   
  9   5   7  1   
 10   5  31  1   
 11   5  32  1   
 12   6   8  1   
 13   6   9  1   
 14   6  33  1   
 15   7  10  2   
 16   7  34  1   
 17   8  11  1   
 18   8  35  1   
 19   8  36  1   
 20   9  12  1   
 21   9  37  1   
 22   9  38  1   
 23  10  39  1   
 24  10  40  1   
 25  11  13  1   
 26  11  14  1   
 27  11  15  1   
 28  12  14  1   
 29  12  41  1   
 30  12  42  1   
 31  13  16  ar  
 32  13  17  ar  
 33  14  43  1   
 34  14  44  1   
 35  15  18  1   
 36  15  45  1   
 37  15  46  1   
 38  16  19  ar  
 39  17  18  1   
 40  17  20  ar  
 41  18  47  1   
 42  18  48  1   
 43  19  21  ar  
 44  19  22  1   
 45  20  21  ar  
 46  20  49  1   
 47  22  23  ar  
 48  22  24  ar  
 49  23  25  ar  
 50  23  50  1   
 51  24  26  ar  
 52  24  51  1   
 53  25  27  ar  
 54  25  52  1   
 55  26  27  ar  
 56  26  53  1   
 57  27  54  1   
@<TRIPOS>SUBSTRUCTURE
  1 ****   8 GROUP 4 **** **** 0

# MOE 2024.06 (io_trps.svl 2023.06)
