@<TRIPOS>MOLECULE
NONAME
45 46 1 0 0 
SMALL
USER_CHARGES


@<TRIPOS>ATOM
  1 CL       1.0840     0.5290     3.0250 Cl    1 <1>  -0.1770 
  2 C        1.8260    -0.4650     1.7980 C.ar  1 <1>   0.1770 
  3 C        1.8860    -1.8310     1.9780 C.ar  1 <1>  -0.1500 
  4 C        2.3360     0.1340     0.6620 C.ar  1 <1>  -0.1500 
  5 C        2.4640    -2.6520     1.0100 C.ar  1 <1>   0.0860 
  6 C        2.9290    -0.6610    -0.3010 C.ar  1 <1>  -0.1500 
  7 C        3.0120    -2.0360    -0.1290 C.ar  1 <1>   0.0830 
  8 C        2.4440    -4.0820     1.2160 C.2   1 <1>   0.5440 
  9 O        3.6380    -2.7160    -1.1170 O.3   1 <1>  -0.3630 
 10 O        3.1410    -4.5770     2.0800 O.2   1 <1>  -0.5700 
 11 N        1.6400    -4.9040     0.4620 N.am  1 <1>  -0.6600 
 12 C        4.6410    -3.6620    -0.8010 C.3   1 <1>   0.0400 
 13 C        0.7270    -4.4520    -0.6160 C.3   1 <1>   0.1400 
 14 C        1.5150    -6.3610     0.6950 C.3   1 <1>   0.1400 
 15 C        0.0940    -5.7360    -1.1490 C.3   1 <1>   0.2000 
 16 C        0.2220    -6.7580    -0.0220 C.3   1 <1>  -0.0800 
 17 O       -1.2400    -5.5580    -1.4760 O.3   1 <1>  -0.6800 
 18 C        0.1990    -8.2050    -0.5420 C.3   1 <1>  -0.0550 
 19 S        0.2640    -9.4270     0.7660 S.o2  1 <1>   1.3330 
 20 O        1.5880    -9.4220     1.3460 O.2   1 <1>  -0.6500 
 21 O       -0.8910    -9.2280     1.6110 O.2   1 <1>  -0.6500 
 22 N        0.0690   -10.8900    -0.0740 N.am  1 <1>  -0.8490 
 23 C       -0.5830   -11.9170     0.7440 C.3   1 <1>   0.1160 
 24 C        1.3200   -11.4150    -0.6300 C.3   1 <1>   0.1160 
 25 H        1.4800    -2.2690     2.8730 H     1 <1>   0.1500 
 26 H        2.2710     1.2000     0.5410 H     1 <1>   0.1500 
 27 H        3.3390    -0.2190    -1.1920 H     1 <1>   0.1500 
 28 H        5.3340    -3.7010    -1.6220 H     1 <1>   0.0800 
 29 H        4.1870    -4.6270    -0.6670 H     1 <1>   0.0800 
 30 H        5.1520    -3.3570     0.0960 H     1 <1>   0.0800 
 31 H       -0.0180    -3.7940    -0.2010 H     1 <1>   0.0800 
 32 H        1.2780    -3.9500    -1.3920 H     1 <1>   0.0800 
 33 H        2.3690    -6.8570     0.2660 H     1 <1>   0.0800 
 34 H        1.4710    -6.5810     1.7490 H     1 <1>   0.0800 
 35 H        0.6200    -6.0570    -2.0330 H     1 <1>   0.0800 
 36 H       -0.5840    -6.6180     0.6800 H     1 <1>   0.0800 
 37 H       -1.7590    -5.3180    -0.6840 H     1 <1>   0.4000 
 38 H        1.0190    -8.3570    -1.2140 H     1 <1>   0.0800 
 39 H       -0.7090    -8.3500    -1.0960 H     1 <1>   0.0800 
 40 H       -0.7050   -12.8240     0.1770 H     1 <1>   0.0800 
 41 H       -1.5590   -11.5800     1.0510 H     1 <1>   0.0800 
 42 H        0.0040   -12.1240     1.6240 H     1 <1>   0.0800 
 43 H        1.1220   -12.2900    -1.2250 H     1 <1>   0.0800 
 44 H        2.0040   -11.6770     0.1610 H     1 <1>   0.0800 
 45 H        1.7870   -10.6760    -1.2580 H     1 <1>   0.0800 
@<TRIPOS>BOND
  1   1   2  1   
  2   2   3  ar  
  3   2   4  ar  
  4   3   5  ar  
  5   3  25  1   
  6   4   6  ar  
  7   4  26  1   
  8   5   7  ar  
  9   5   8  1   
 10   6   7  ar  
 11   6  27  1   
 12   7   9  1   
 13   8  10  2   
 14   8  11  am  
 15   9  12  1   
 16  11  13  1   
 17  11  14  1   
 18  12  28  1   
 19  12  29  1   
 20  12  30  1   
 21  13  15  1   
 22  13  31  1   
 23  13  32  1   
 24  14  16  1   
 25  14  33  1   
 26  14  34  1   
 27  15  16  1   
 28  15  17  1   
 29  15  35  1   
 30  16  18  1   
 31  16  36  1   
 32  17  37  1   
 33  18  19  1   
 34  18  38  1   
 35  18  39  1   
 36  19  20  2   
 37  19  21  2   
 38  19  22  am  
 39  22  23  1   
 40  22  24  1   
 41  23  40  1   
 42  23  41  1   
 43  23  42  1   
 44  24  43  1   
 45  24  44  1   
 46  24  45  1   
@<TRIPOS>SUBSTRUCTURE
  1 ****  11 GROUP 4 **** **** 0

# MOE 2024.06 (io_trps.svl 2023.06)
