@<TRIPOS>MOLECULE
NONAME
48 49 1 0 0 
SMALL
USER_CHARGES


@<TRIPOS>ATOM
  1 S        0.3780     0.5280     0.5020 S.o2  1 <1>   1.3330 
  2 O        0.3810    -0.8030     1.0660 O.2   1 <1>  -0.6500 
  3 O        0.2250     1.6730     1.3710 O.2   1 <1>  -0.6500 
  4 N       -0.8490     0.5850    -0.6710 N.am  1 <1>  -0.8490 
  5 C        1.8740     0.7590    -0.4550 C.3   1 <1>  -0.0550 
  6 C       -1.0480    -0.6880    -1.3720 C.3   1 <1>   0.1160 
  7 C       -2.1220     1.0550    -0.1190 C.3   1 <1>   0.1160 
  8 C        3.1440     0.7700     0.4120 C.3   1 <1>  -0.0800 
  9 C        4.3880     1.1450    -0.3820 C.3   1 <1>   0.2200 
 10 C        3.5140    -0.5770     1.0220 C.3   1 <1>   0.1200 
 11 N        4.7110     2.5620    -0.1290 N.am  1 <1>  -0.7300 
 12 C        5.4660     0.1910     0.1370 C.3   1 <1>   0.1200 
 13 O        4.8930    -0.5180     1.1920 O.3   1 <1>  -0.5600 
 14 C        4.1750     3.6050    -0.8260 C.2   1 <1>   0.5440 
 15 O        3.5570     3.3610    -1.8460 O.2   1 <1>  -0.5700 
 16 C        4.2770     4.9520    -0.3070 C.ar  1 <1>   0.0860 
 17 C        5.5130     5.6110    -0.2720 C.ar  1 <1>   0.0820 
 18 C        3.1480     5.6210     0.1880 C.ar  1 <1>  -0.1440 
 19 O        6.6010     4.9440    -0.7360 O.3   1 <1>  -0.3630 
 20 C        5.6050     6.9060     0.2300 C.ar  1 <1>  -0.1500 
 21 C        3.2570     6.9080     0.6830 C.ar  1 <1>  -0.1500 
 22 C        1.7800     4.9430     0.1970 C.3   1 <1>  -0.0970 
 23 C        7.8590     5.5590    -0.9000 C.3   1 <1>   0.0400 
 24 C        4.4810     7.5510     0.7040 C.ar  1 <1>  -0.1500 
 25 H        1.9540    -0.0090    -1.1970 H     1 <1>   0.0800 
 26 H        1.8010     1.6990    -0.9680 H     1 <1>   0.0800 
 27 H       -1.7720    -0.5660    -2.1590 H     1 <1>   0.0800 
 28 H       -1.3970    -1.4440    -0.6880 H     1 <1>   0.0800 
 29 H       -0.1230    -1.0190    -1.8110 H     1 <1>   0.0800 
 30 H       -2.8720     1.0950    -0.8910 H     1 <1>   0.0800 
 31 H       -2.0050     2.0470     0.2850 H     1 <1>   0.0800 
 32 H       -2.4560     0.3980     0.6670 H     1 <1>   0.0800 
 33 H        3.0090     1.4630     1.2260 H     1 <1>   0.0800 
 34 H        4.2530     0.9850    -1.4390 H     1 <1>   0.0800 
 35 H        3.2940    -1.3940     0.3560 H     1 <1>   0.0800 
 36 H        3.0450    -0.7430     1.9770 H     1 <1>   0.0800 
 37 H        5.2150     2.7620     0.7370 H     1 <1>   0.3700 
 38 H        6.3390     0.7060     0.4950 H     1 <1>   0.0800 
 39 H        5.7410    -0.5180    -0.6240 H     1 <1>   0.0800 
 40 H        6.5420     7.4280     0.2630 H     1 <1>   0.1500 
 41 H        2.3890     7.4220     1.0590 H     1 <1>   0.1500 
 42 H        1.0390     5.5650     0.6640 H     1 <1>   0.0800 
 43 H        1.8270     4.0150     0.7380 H     1 <1>   0.0800 
 44 H        1.4630     4.7400    -0.8110 H     1 <1>   0.0800 
 45 H        8.5250     4.8410    -1.3450 H     1 <1>   0.0800 
 46 H        8.2330     5.8540     0.0640 H     1 <1>   0.0800 
 47 H        7.7510     6.4080    -1.5510 H     1 <1>   0.0800 
 48 H        4.5540     8.5530     1.0910 H     1 <1>   0.1500 
@<TRIPOS>BOND
  1   1   2  2   
  2   1   3  2   
  3   1   4  am  
  4   1   5  1   
  5   4   6  1   
  6   4   7  1   
  7   5   8  1   
  8   5  25  1   
  9   5  26  1   
 10   6  27  1   
 11   6  28  1   
 12   6  29  1   
 13   7  30  1   
 14   7  31  1   
 15   7  32  1   
 16   8   9  1   
 17   8  10  1   
 18   8  33  1   
 19   9  11  1   
 20   9  12  1   
 21   9  34  1   
 22  10  13  1   
 23  10  35  1   
 24  10  36  1   
 25  11  14  am  
 26  11  37  1   
 27  12  13  1   
 28  12  38  1   
 29  12  39  1   
 30  14  15  2   
 31  14  16  1   
 32  16  17  ar  
 33  16  18  ar  
 34  17  19  1   
 35  17  20  ar  
 36  18  21  ar  
 37  18  22  1   
 38  19  23  1   
 39  20  24  ar  
 40  20  40  1   
 41  21  24  ar  
 42  21  41  1   
 43  22  42  1   
 44  22  43  1   
 45  22  44  1   
 46  23  45  1   
 47  23  46  1   
 48  23  47  1   
 49  24  48  1   
@<TRIPOS>SUBSTRUCTURE
  1 ****  14 GROUP 4 **** **** 0

# MOE 2024.06 (io_trps.svl 2023.06)
