@<TRIPOS>MOLECULE
NONAME
44 46 1 0 0 
SMALL
USER_CHARGES


@<TRIPOS>ATOM
  1 O       -2.3850     1.0660     1.4550 O.co2 1 <1>  -0.9000 
  2 C       -2.2440     0.7940     0.2600 C.2   1 <1>   0.9060 
  3 O       -2.3820    -0.3730    -0.1310 O.co2 1 <1>  -0.9000 
  4 C       -2.1720     1.9310    -0.7530 C.3   1 <1>   0.0140 
  5 O       -3.3630     2.0580    -1.5460 O.3   1 <1>  -0.3630 
  6 C       -4.4340     2.7140    -1.0440 C.ar  1 <1>   0.0830 
  7 C       -5.3520     2.0870    -0.2090 C.ar  1 <1>  -0.1440 
  8 C       -4.6330     4.0320    -1.4170 C.ar  1 <1>  -0.1500 
  9 C       -6.4570     2.7950     0.2370 C.ar  1 <1>  -0.1500 
 10 C       -5.0830     0.6520     0.2020 C.3   1 <1>   0.4870 
 11 C       -5.7420     4.7230    -0.9680 C.ar  1 <1>  -0.1500 
 12 C       -6.6930     4.1180    -0.1420 C.ar  1 <1>   0.0000 
 13 N       -6.2950    -0.1890     0.2980 N.4   1 <1>  -0.9590 
 14 C       -7.8820     4.8180     0.3140 C.ar  1 <1>   0.3100 
 15 C       -5.8330    -1.5560     0.6960 C.3   1 <1>   0.3430 
 16 C       -7.0200    -0.2390    -1.0080 C.3   1 <1>   0.3430 
 17 N       -8.3410     4.5370     1.5380 N.ar  1 <1>  -0.6200 
 18 C       -8.5250     5.7370    -0.5170 C.ar  1 <1>  -0.1500 
 19 C       -6.9980    -2.5640     0.6630 C.3   1 <1>   0.1200 
 20 C       -8.1500    -1.2850    -0.9640 C.3   1 <1>   0.1200 
 21 C       -9.4170     5.1910     1.9390 C.ar  1 <1>   0.1600 
 22 C       -9.6490     6.4080    -0.0910 C.ar  1 <1>  -0.1500 
 23 O       -7.6530    -2.5370    -0.5770 O.3   1 <1>  -0.5600 
 24 C      -10.1000     6.1220     1.1780 C.ar  1 <1>  -0.1500 
 25 H       -1.3560     1.7370    -1.4200 H     1 <1>   0.0800 
 26 H       -2.0000     2.8570    -0.2380 H     1 <1>   0.0800 
 27 H       -3.9130     4.5070    -2.0590 H     1 <1>   0.1500 
 28 H       -7.1630     2.3350     0.9030 H     1 <1>   0.1500 
 29 H       -4.5630     0.6510     1.1470 H     1 <1>   0.0800 
 30 H       -4.4340     0.2130    -0.5350 H     1 <1>   0.0800 
 31 H       -5.8630     5.7510    -1.2590 H     1 <1>   0.1500 
 32 H       -6.8890     0.2090     1.0290 H     1 <1>   0.4500 
 33 H       -5.3990    -1.5280     1.6830 H     1 <1>   0.0800 
 34 H       -5.0630    -1.8920     0.0170 H     1 <1>   0.0800 
 35 H       -6.3320    -0.5060    -1.7940 H     1 <1>   0.0800 
 36 H       -7.4280     0.7310    -1.2410 H     1 <1>   0.0800 
 37 H       -8.1450     5.9220    -1.5040 H     1 <1>   0.1500 
 38 H       -7.7150    -2.3460     1.4360 H     1 <1>   0.0800 
 39 H       -6.6240    -3.5620     0.8140 H     1 <1>   0.0800 
 40 H       -8.5880    -1.3960    -1.9410 H     1 <1>   0.0800 
 41 H       -8.9210    -0.9910    -0.2740 H     1 <1>   0.0800 
 42 H       -9.7770     4.9740     2.9300 H     1 <1>   0.1500 
 43 H      -10.1540     7.1220    -0.7200 H     1 <1>   0.1500 
 44 H      -10.9700     6.6130     1.5750 H     1 <1>   0.1500 
@<TRIPOS>BOND
  1   1   2  ar  
  2   2   3  ar  
  3   2   4  1   
  4   4   5  1   
  5   4  25  1   
  6   4  26  1   
  7   5   6  1   
  8   6   7  ar  
  9   6   8  ar  
 10   7   9  ar  
 11   7  10  1   
 12   8  11  ar  
 13   8  27  1   
 14   9  12  ar  
 15   9  28  1   
 16  10  13  1   
 17  10  29  1   
 18  10  30  1   
 19  11  12  ar  
 20  11  31  1   
 21  12  14  1   
 22  13  15  1   
 23  13  16  1   
 24  13  32  1   
 25  14  17  ar  
 26  14  18  ar  
 27  15  19  1   
 28  15  33  1   
 29  15  34  1   
 30  16  20  1   
 31  16  35  1   
 32  16  36  1   
 33  17  21  ar  
 34  18  22  ar  
 35  18  37  1   
 36  19  23  1   
 37  19  38  1   
 38  19  39  1   
 39  20  23  1   
 40  20  40  1   
 41  20  41  1   
 42  21  24  ar  
 43  21  42  1   
 44  22  24  ar  
 45  22  43  1   
 46  24  44  1   
@<TRIPOS>SUBSTRUCTURE
  1 ****   7 GROUP 4 **** **** 0

# MOE 2024.06 (io_trps.svl 2023.06)
