@<TRIPOS>MOLECULE
NONAME
47 49 1 0 0 
SMALL
USER_CHARGES


@<TRIPOS>ATOM
  1 F       -0.8470    -0.2120    -0.8440 F     1 <1>  -0.1900 
  2 C       -1.8640    -1.0020    -0.6220 C.ar  1 <1>   0.1900 
  3 C       -1.6790    -2.3680    -0.7230 C.ar  1 <1>  -0.1500 
  4 C       -3.0850    -0.4420    -0.2970 C.ar  1 <1>  -0.1500 
  5 C       -2.7570    -3.2060    -0.4880 C.ar  1 <1>  -0.1500 
  6 C       -4.1570    -1.2870    -0.0640 C.ar  1 <1>  -0.1500 
  7 C       -4.0020    -2.6650    -0.1580 C.ar  1 <1>   0.0820 
  8 O       -5.1060    -3.4140     0.0860 O.3   1 <1>  -0.3630 
  9 C       -5.0710    -4.8170     0.0180 C.3   1 <1>   0.1200 
 10 C       -6.4770    -5.3210     0.3390 C.3   1 <1>  -0.1600 
 11 C       -6.5370    -6.8440     0.2610 C.3   1 <1>   0.3430 
 12 N       -7.8860    -7.3230     0.6600 N.4   1 <1>  -0.9590 
 13 C       -9.0070    -6.9410    -0.2410 C.3   1 <1>   0.3430 
 14 C       -7.9790    -8.8050     0.8000 C.3   1 <1>   0.3430 
 15 C      -10.1390    -7.8690     0.1950 C.3   1 <1>   0.2000 
 16 C       -9.4290    -9.2000     0.4560 C.3   1 <1>  -0.0800 
 17 O      -10.6240    -7.3970     1.4090 O.3   1 <1>  -0.6800 
 18 C       -9.4990   -10.1300    -0.7750 C.3   1 <1>  -0.0170 
 19 C       -8.8370   -11.4770    -0.5210 C.ar  1 <1>   0.1670 
 20 N       -7.5140   -11.4810    -0.4700 N.ar  1 <1>  -0.6200 
 21 C       -9.6170   -12.6230    -0.3610 C.ar  1 <1>   0.1600 
 22 C       -7.0280   -12.6970    -0.2620 C.ar  1 <1>   0.1600 
 23 N       -9.1320   -13.8320    -0.1410 N.ar  1 <1>  -0.6200 
 24 C       -7.8110   -13.8330    -0.1020 C.ar  1 <1>   0.1600 
 25 H       -0.7120    -2.7610    -0.9780 H     1 <1>   0.1500 
 26 H       -3.1890     0.6250    -0.2280 H     1 <1>   0.1500 
 27 H       -2.6060    -4.2650    -0.5670 H     1 <1>   0.1500 
 28 H       -5.1200    -0.8830     0.1910 H     1 <1>   0.1500 
 29 H       -4.7730    -5.0970    -0.9780 H     1 <1>   0.0800 
 30 H       -4.3540    -5.1710     0.7400 H     1 <1>   0.0800 
 31 H       -6.7350    -4.9980     1.3320 H     1 <1>   0.0800 
 32 H       -7.1590    -4.8860    -0.3690 H     1 <1>   0.0800 
 33 H       -5.7980    -7.2610     0.9260 H     1 <1>   0.0800 
 34 H       -6.3120    -7.1710    -0.7420 H     1 <1>   0.0800 
 35 H       -8.1440    -6.9290     1.5800 H     1 <1>   0.4500 
 36 H       -9.2850    -5.9060    -0.1280 H     1 <1>   0.0800 
 37 H       -8.7430    -7.1400    -1.2660 H     1 <1>   0.0800 
 38 H       -7.2950    -9.2750     0.1140 H     1 <1>   0.0800 
 39 H       -7.7280    -9.1100     1.8030 H     1 <1>   0.0800 
 40 H      -10.9490    -7.9140    -0.5150 H     1 <1>   0.0800 
 41 H       -9.8740    -9.7160     1.2900 H     1 <1>   0.0800 
 42 H      -11.4520    -7.8550     1.6700 H     1 <1>   0.4000 
 43 H       -9.0190    -9.6700    -1.6220 H     1 <1>   0.0800 
 44 H      -10.5290   -10.2910    -1.0400 H     1 <1>   0.0800 
 45 H      -10.6880   -12.5420    -0.4170 H     1 <1>   0.1500 
 46 H       -5.9580   -12.8040    -0.2160 H     1 <1>   0.1500 
 47 H       -7.3260   -14.7790     0.0650 H     1 <1>   0.1500 
@<TRIPOS>BOND
  1   1   2  1   
  2   2   3  ar  
  3   2   4  ar  
  4   3   5  ar  
  5   3  25  1   
  6   4   6  ar  
  7   4  26  1   
  8   5   7  ar  
  9   5  27  1   
 10   6   7  ar  
 11   6  28  1   
 12   7   8  1   
 13   8   9  1   
 14   9  10  1   
 15   9  29  1   
 16   9  30  1   
 17  10  11  1   
 18  10  31  1   
 19  10  32  1   
 20  11  12  1   
 21  11  33  1   
 22  11  34  1   
 23  12  13  1   
 24  12  14  1   
 25  12  35  1   
 26  13  15  1   
 27  13  36  1   
 28  13  37  1   
 29  14  16  1   
 30  14  38  1   
 31  14  39  1   
 32  15  16  1   
 33  15  17  1   
 34  15  40  1   
 35  16  18  1   
 36  16  41  1   
 37  17  42  1   
 38  18  19  1   
 39  18  43  1   
 40  18  44  1   
 41  19  20  ar  
 42  19  21  ar  
 43  20  22  ar  
 44  21  23  ar  
 45  21  45  1   
 46  22  24  ar  
 47  22  46  1   
 48  23  24  ar  
 49  24  47  1   
@<TRIPOS>SUBSTRUCTURE
  1 ****  11 GROUP 4 **** **** 0

# MOE 2024.06 (io_trps.svl 2023.06)
