@<TRIPOS>MOLECULE
NONAME
55 58 1 0 0 
SMALL
USER_CHARGES


@<TRIPOS>ATOM
  1 O       -3.6090     2.4110    -1.5900 O.2   1 <1>  -0.5700 
  2 C       -3.2420     1.7940    -0.6130 C.2   1 <1>   0.5690 
  3 N       -3.8740     0.6030    -0.3200 N.am  1 <1>  -0.6600 
  4 C       -2.0660     2.3620     0.2510 C.3   1 <1>   0.2040 
  5 C       -4.9550     0.0810    -1.2010 C.3   1 <1>   0.1400 
  6 C       -3.4150    -0.4800     0.5940 C.3   1 <1>   0.1400 
  7 C       -0.8740     1.3760     0.1890 C.ar  1 <1>  -0.1440 
  8 C       -1.5280     3.7300    -0.2740 C.3   1 <1>  -0.1600 
  9 C       -2.5710     2.6090     1.6990 C.3   1 <1>  -0.1600 
 10 C       -5.2740    -1.3160    -0.6690 C.3   1 <1>   0.2000 
 11 C       -3.9760    -1.7750    -0.0040 C.3   1 <1>  -0.0800 
 12 C       -0.5350     0.8140    -1.0380 C.ar  1 <1>  -0.1500 
 13 C       -0.1250     1.0090     1.3050 C.ar  1 <1>  -0.1500 
 14 C       -2.2330     4.9870     0.2860 C.3   1 <1>  -0.1600 
 15 C       -3.7710     3.5760     1.7550 C.3   1 <1>  -0.1600 
 16 O       -6.2440    -1.2040     0.3150 O.3   1 <1>  -0.6800 
 17 C       -3.0090    -2.3780    -1.0440 C.3   1 <1>   0.0200 
 18 C        0.4910    -0.1070    -1.1440 C.ar  1 <1>  -0.1500 
 19 C        0.9070     0.0930     1.1990 C.ar  1 <1>  -0.1500 
 20 C       -3.6780     4.7130     0.7220 C.3   1 <1>  -0.1600 
 21 C       -1.7310    -2.9350    -0.4390 C.2   1 <1>  -0.0400 
 22 C        1.2120    -0.4720    -0.0240 C.ar  1 <1>  -0.1500 
 23 O       -0.8070    -3.3940    -1.2410 O.3   1 <1>  -0.0190 
 24 C       -1.2870    -3.0810     0.8200 C.2   1 <1>  -0.1500 
 25 N        0.2290    -3.8360    -0.5900 N.2   1 <1>  -0.4100 
 26 C       -0.0310    -3.6580     0.6550 C.2   1 <1>   0.1080 
 27 C        0.9080    -4.0260     1.7810 C.3   1 <1>  -0.0590 
 28 H       -5.8170     0.7270    -1.1890 H     1 <1>   0.0800 
 29 H       -4.5800     0.0160    -2.2080 H     1 <1>   0.0800 
 30 H       -2.3460    -0.5250     0.6730 H     1 <1>   0.0800 
 31 H       -3.8350    -0.3170     1.5700 H     1 <1>   0.0800 
 32 H       -0.4860     3.8150    -0.0210 H     1 <1>   0.0800 
 33 H       -1.5710     3.7460    -1.3490 H     1 <1>   0.0800 
 34 H       -2.8350     1.6860     2.1790 H     1 <1>   0.0800 
 35 H       -1.7760     3.0530     2.2710 H     1 <1>   0.0800 
 36 H       -5.6390    -1.9880    -1.4270 H     1 <1>   0.0800 
 37 H       -4.1720    -2.5110     0.7560 H     1 <1>   0.0800 
 38 H       -1.0740     1.0850    -1.9300 H     1 <1>   0.1500 
 39 H       -0.3220     1.4200     2.2760 H     1 <1>   0.1500 
 40 H       -1.6840     5.3440     1.1410 H     1 <1>   0.0800 
 41 H       -2.2170     5.7670    -0.4550 H     1 <1>   0.0800 
 42 H       -4.6850     3.0320     1.5850 H     1 <1>   0.0800 
 43 H       -3.8260     3.9960     2.7450 H     1 <1>   0.0800 
 44 H       -6.0440    -0.4260     0.8720 H     1 <1>   0.4000 
 45 H       -2.7380    -1.6320    -1.7710 H     1 <1>   0.0800 
 46 H       -3.5020    -3.1800    -1.5650 H     1 <1>   0.0800 
 47 H        0.7280    -0.5460    -2.0980 H     1 <1>   0.1500 
 48 H        1.4750    -0.1830     2.0700 H     1 <1>   0.1500 
 49 H       -4.2560     4.4550    -0.1490 H     1 <1>   0.0800 
 50 H       -4.1110     5.6090     1.1310 H     1 <1>   0.0800 
 51 H        2.0040    -1.1960    -0.1110 H     1 <1>   0.1500 
 52 H       -1.7480    -2.8280     1.7550 H     1 <1>   0.1500 
 53 H        0.4300    -4.7280     2.4400 H     1 <1>   0.0800 
 54 H        1.1760    -3.1440     2.3330 H     1 <1>   0.0800 
 55 H        1.8000    -4.4740     1.3830 H     1 <1>   0.0800 
@<TRIPOS>BOND
  1   1   2  2   
  2   2   3  am  
  3   2   4  1   
  4   3   5  1   
  5   3   6  1   
  6   4   7  1   
  7   4   8  1   
  8   4   9  1   
  9   5  10  1   
 10   5  28  1   
 11   5  29  1   
 12   6  11  1   
 13   6  30  1   
 14   6  31  1   
 15   7  12  ar  
 16   7  13  ar  
 17   8  14  1   
 18   8  32  1   
 19   8  33  1   
 20   9  15  1   
 21   9  34  1   
 22   9  35  1   
 23  10  11  1   
 24  10  16  1   
 25  10  36  1   
 26  11  17  1   
 27  11  37  1   
 28  12  18  ar  
 29  12  38  1   
 30  13  19  ar  
 31  13  39  1   
 32  14  20  1   
 33  14  40  1   
 34  14  41  1   
 35  15  20  1   
 36  15  42  1   
 37  15  43  1   
 38  16  44  1   
 39  17  21  1   
 40  17  45  1   
 41  17  46  1   
 42  18  22  ar  
 43  18  47  1   
 44  19  22  ar  
 45  19  48  1   
 46  20  49  1   
 47  20  50  1   
 48  21  23  1   
 49  21  24  2   
 50  22  51  1   
 51  23  25  1   
 52  24  26  1   
 53  24  52  1   
 54  25  26  2   
 55  26  27  1   
 56  27  53  1   
 57  27  54  1   
 58  27  55  1   
@<TRIPOS>SUBSTRUCTURE
  1 ****   6 GROUP 4 **** **** 0

# MOE 2024.06 (io_trps.svl 2023.06)
