@<TRIPOS>MOLECULE
NONAME
52 54 1 0 0 
SMALL
USER_CHARGES


@<TRIPOS>ATOM
  1 S       -0.0430    -0.4450     0.7340 S.3   1 <1>  -0.0800 
  2 C       -1.5160    -1.0280     0.0290 C.2   1 <1>   0.4420 
  3 C       -0.5030     1.1390     0.2070 C.2   1 <1>   0.1980 
  4 N       -2.1990    -0.0840    -0.5110 N.2   1 <1>  -0.3380 
  5 N       -1.7450    -2.3850     0.1270 N.am  1 <1>  -0.4940 
  6 N       -1.6160     1.1480    -0.4040 N.2   1 <1>  -0.3380 
  7 C        0.4210     2.3010     0.5180 C.3   1 <1>   0.0200 
  8 C       -2.8510    -3.1230    -0.2200 C.2   1 <1>   0.5440 
  9 C        1.6900     2.2630    -0.3460 C.3   1 <1>  -0.1600 
 10 O       -3.8870    -2.5630    -0.5120 O.2   1 <1>  -0.5700 
 11 C       -2.7770    -4.5670    -0.1890 C.ar  1 <1>   0.0860 
 12 C        2.6070     3.4580    -0.0510 C.3   1 <1>  -0.1600 
 13 C       -3.8870    -5.3340     0.1690 C.ar  1 <1>  -0.1500 
 14 C       -1.6040    -5.2580    -0.5070 C.ar  1 <1>  -0.1500 
 15 C        3.8690     3.4120    -0.9190 C.3   1 <1>  -0.1600 
 16 C       -3.8400    -6.7140     0.2330 C.ar  1 <1>  -0.1430 
 17 C       -1.5460    -6.6350    -0.4470 C.ar  1 <1>  -0.1500 
 18 C        4.7830     4.6040    -0.6260 C.3   1 <1>  -0.2400 
 19 C       -2.6560    -7.3850    -0.0740 C.ar  1 <1>   0.1000 
 20 C       -5.0820    -7.4960     0.6350 C.3   1 <1>  -0.0970 
 21 N       -2.5800    -8.7670    -0.0210 N.pl3 1 <1>  -0.8380 
 22 C       -2.5800    -9.5100    -1.3130 C.3   1 <1>   0.2090 
 23 C       -1.6880    -9.3910     0.9980 C.3   1 <1>   0.2090 
 24 C       -2.8050   -11.0140    -1.0750 C.3   1 <1>   0.1200 
 25 C       -1.9650   -10.9010     1.1100 C.3   1 <1>   0.1200 
 26 O       -1.8860   -11.5210    -0.1450 O.3   1 <1>  -0.5600 
 27 H       -0.9940    -2.9140     0.5580 H     1 <1>   0.3700 
 28 H        0.6810     2.2740     1.5610 H     1 <1>   0.0800 
 29 H       -0.1120     3.2170     0.3310 H     1 <1>   0.0800 
 30 H        1.4060     2.2760    -1.3850 H     1 <1>   0.0800 
 31 H        2.2250     1.3480    -0.1580 H     1 <1>   0.0800 
 32 H        2.8890     3.4490     0.9880 H     1 <1>   0.0800 
 33 H        2.0760     4.3750    -0.2450 H     1 <1>   0.0800 
 34 H       -4.8040    -4.8190     0.4010 H     1 <1>   0.1500 
 35 H       -0.7300    -4.7160    -0.8170 H     1 <1>   0.1500 
 36 H        3.5940     3.4250    -1.9600 H     1 <1>   0.0800 
 37 H        4.4080     2.4990    -0.7290 H     1 <1>   0.0800 
 38 H       -0.6370    -7.1500    -0.6970 H     1 <1>   0.1500 
 39 H        4.2730     5.5290    -0.8320 H     1 <1>   0.0800 
 40 H        5.6620     4.5550    -1.2440 H     1 <1>   0.0800 
 41 H        5.0910     4.6000     0.4050 H     1 <1>   0.0800 
 42 H       -5.9030    -6.8400     0.8600 H     1 <1>   0.0800 
 43 H       -4.8690    -8.0920     1.5040 H     1 <1>   0.0800 
 44 H       -5.3730    -8.1510    -0.1660 H     1 <1>   0.0800 
 45 H       -1.6380    -9.3670    -1.8120 H     1 <1>   0.0800 
 46 H       -3.3590    -9.1240    -1.9460 H     1 <1>   0.0800 
 47 H       -1.8540    -8.9210     1.9520 H     1 <1>   0.0800 
 48 H       -0.6600    -9.2400     0.7210 H     1 <1>   0.0800 
 49 H       -2.6780   -11.5580    -1.9930 H     1 <1>   0.0800 
 50 H       -3.8010   -11.1880    -0.7040 H     1 <1>   0.0800 
 51 H       -2.9460   -11.0700     1.5170 H     1 <1>   0.0800 
 52 H       -1.2380   -11.3650     1.7520 H     1 <1>   0.0800 
@<TRIPOS>BOND
  1   1   2  1   
  2   1   3  1   
  3   2   4  2   
  4   2   5  1   
  5   3   6  2   
  6   3   7  1   
  7   4   6  1   
  8   5   8  am  
  9   5  27  1   
 10   7   9  1   
 11   7  28  1   
 12   7  29  1   
 13   8  10  2   
 14   8  11  1   
 15   9  12  1   
 16   9  30  1   
 17   9  31  1   
 18  11  13  ar  
 19  11  14  ar  
 20  12  15  1   
 21  12  32  1   
 22  12  33  1   
 23  13  16  ar  
 24  13  34  1   
 25  14  17  ar  
 26  14  35  1   
 27  15  18  1   
 28  15  36  1   
 29  15  37  1   
 30  16  19  ar  
 31  16  20  1   
 32  17  19  ar  
 33  17  38  1   
 34  18  39  1   
 35  18  40  1   
 36  18  41  1   
 37  19  21  1   
 38  20  42  1   
 39  20  43  1   
 40  20  44  1   
 41  21  22  1   
 42  21  23  1   
 43  22  24  1   
 44  22  45  1   
 45  22  46  1   
 46  23  25  1   
 47  23  47  1   
 48  23  48  1   
 49  24  26  1   
 50  24  49  1   
 51  24  50  1   
 52  25  26  1   
 53  25  51  1   
 54  25  52  1   
@<TRIPOS>SUBSTRUCTURE
  1 ****   5 GROUP 4 **** **** 0

# MOE 2024.06 (io_trps.svl 2023.06)
