@<TRIPOS>MOLECULE
NONAME
49 51 1 0 0 
SMALL
USER_CHARGES


@<TRIPOS>ATOM
  1 S       -0.8630    -0.9900    -1.6020 S.3   1 <1>  -0.0800 
  2 C       -1.2820    -2.5660    -0.9490 C.2   1 <1>  -0.1400 
  3 C       -0.1870    -1.7160    -3.0490 C.2   1 <1>  -0.1100 
  4 C       -0.9110    -3.5400    -1.8040 C.2   1 <1>  -0.1500 
  5 C       -1.9610    -2.5740     0.4080 C.3   1 <1>   0.3200 
  6 C       -0.2890    -3.0560    -2.9990 C.2   1 <1>  -0.1500 
  7 N       -2.4460    -3.9300     0.7050 N.am  1 <1>  -0.7300 
  8 C       -2.5280    -4.5010     1.9290 C.2   1 <1>   0.5690 
  9 O       -2.2370    -3.9020     2.9360 O.2   1 <1>  -0.5700 
 10 C       -3.0050    -5.9560     2.0170 C.3   1 <1>   0.1710 
 11 N       -3.7030    -6.4570     0.7900 N.3   1 <1>  -0.8100 
 12 C       -3.7080    -7.9340     0.7690 C.3   1 <1>   0.1100 
 13 C       -5.0600    -5.8930     0.6960 C.3   1 <1>   0.1100 
 14 C       -4.2800    -8.5460    -0.5240 C.3   1 <1>   0.2090 
 15 C       -5.5430    -5.9400    -0.7550 C.3   1 <1>  -0.1600 
 16 N       -5.7800    -8.4770    -0.5730 N.pl3 1 <1>  -0.8380 
 17 C       -6.3400    -7.1990    -1.1180 C.3   1 <1>   0.2090 
 18 C       -6.5730    -9.5470    -0.2730 C.ar  1 <1>   0.1000 
 19 C       -7.8270    -9.7350    -0.8770 C.ar  1 <1>  -0.1500 
 20 C       -6.1820   -10.5250     0.6530 C.ar  1 <1>  -0.1500 
 21 C       -8.6210   -10.8110    -0.5710 C.ar  1 <1>   0.2170 
 22 C       -6.9900   -11.5930     0.9410 C.ar  1 <1>   0.2110 
 23 N       -8.1940   -11.7260     0.3320 N.ar  1 <1>  -0.1790 
 24 C       -9.9780   -11.0200    -1.2230 C.3   1 <1>  -0.0970 
 25 H        0.2210    -1.0530    -3.7910 H     1 <1>   0.1500 
 26 H       -1.0440    -4.5960    -1.6470 H     1 <1>   0.1500 
 27 H       -2.7980    -1.8980     0.3990 H     1 <1>   0.0800 
 28 H       -1.2690    -2.2550     1.1690 H     1 <1>   0.0800 
 29 H        0.0500    -3.7380    -3.7590 H     1 <1>   0.1500 
 30 H       -2.7580    -4.4960    -0.0880 H     1 <1>   0.3700 
 31 H       -3.6500    -6.0560     2.8720 H     1 <1>   0.0800 
 32 H       -2.1290    -6.5510     2.1980 H     1 <1>   0.0800 
 33 H       -4.2540    -8.3120     1.6160 H     1 <1>   0.0800 
 34 H       -2.6890    -8.2720     0.8570 H     1 <1>   0.0800 
 35 H       -5.0390    -4.8600     1.0010 H     1 <1>   0.0800 
 36 H       -5.7400    -6.4160     1.3480 H     1 <1>   0.0800 
 37 H       -3.9760    -9.5760    -0.5800 H     1 <1>   0.0800 
 38 H       -3.8540    -8.0500    -1.3780 H     1 <1>   0.0800 
 39 H       -4.7110    -5.8190    -1.4250 H     1 <1>   0.0800 
 40 H       -6.1920    -5.0990    -0.9200 H     1 <1>   0.0800 
 41 H       -6.4050    -7.2740    -2.1900 H     1 <1>   0.0800 
 42 H       -7.3370    -7.0740    -0.7340 H     1 <1>   0.0800 
 43 H       -8.1610    -9.0190    -1.6050 H     1 <1>   0.1500 
 44 H       -5.2360   -10.4270     1.1500 H     1 <1>   0.1500 
 45 H       -6.6850   -12.3420     1.6550 H     1 <1>   0.1500 
 46 H       -8.7920   -12.5280     0.5550 H     1 <1>   0.4570 
 47 H      -10.1900   -10.2260    -1.9180 H     1 <1>   0.0800 
 48 H      -10.7550   -11.0280    -0.4790 H     1 <1>   0.0800 
 49 H       -9.9970   -11.9500    -1.7630 H     1 <1>   0.0800 
@<TRIPOS>BOND
  1   1   2  1   
  2   1   3  1   
  3   2   4  2   
  4   2   5  1   
  5   3   6  2   
  6   3  25  1   
  7   4   6  1   
  8   4  26  1   
  9   5   7  1   
 10   5  27  1   
 11   5  28  1   
 12   6  29  1   
 13   7   8  am  
 14   7  30  1   
 15   8   9  2   
 16   8  10  1   
 17  10  11  1   
 18  10  31  1   
 19  10  32  1   
 20  11  12  1   
 21  11  13  1   
 22  12  14  1   
 23  12  33  1   
 24  12  34  1   
 25  13  15  1   
 26  13  35  1   
 27  13  36  1   
 28  14  16  1   
 29  14  37  1   
 30  14  38  1   
 31  15  17  1   
 32  15  39  1   
 33  15  40  1   
 34  16  17  1   
 35  16  18  1   
 36  17  41  1   
 37  17  42  1   
 38  18  19  ar  
 39  18  20  ar  
 40  19  21  ar  
 41  19  43  1   
 42  20  22  ar  
 43  20  44  1   
 44  21  23  ar  
 45  21  24  1   
 46  22  23  ar  
 47  22  45  1   
 48  23  46  1   
 49  24  47  1   
 50  24  48  1   
 51  24  49  1   
@<TRIPOS>SUBSTRUCTURE
  1 ****  11 GROUP 4 **** **** 0

# MOE 2024.06 (io_trps.svl 2023.06)
