@<TRIPOS>MOLECULE
NONAME
42 43 1 0 0 
SMALL
USER_CHARGES


@<TRIPOS>ATOM
  1 O        1.1600    -0.3460    -1.6040 O.2   1 <1>  -0.5700 
  2 C        1.5100    -0.6670    -0.4820 C.2   1 <1>   0.7160 
  3 N        1.9490     0.3060     0.3590 N.am  1 <1>  -0.7300 
  4 C        1.5080    -2.0410    -0.0300 C.2   1 <1>  -0.0860 
  5 C        2.1480     1.7100     0.0140 C.3   1 <1>   0.4000 
  6 C        0.7210    -3.1120    -0.3910 C.2   1 <1>  -0.3320 
  7 C        2.3950    -2.5540     0.9390 C.2   1 <1>  -0.1500 
  8 C        3.6390     1.9720     0.1330 C.2   1 <1>  -0.3320 
  9 C        1.2910     2.5650     0.9570 C.3   1 <1>  -0.1600 
 10 N        1.0900    -4.2220     0.3000 N.pl3 1 <1>   0.0480 
 11 C       -0.4190    -3.1150    -1.4020 C.3   1 <1>  -0.0600 
 12 C        2.1170    -3.8670     1.1190 C.2   1 <1>  -0.3320 
 13 N        4.5330     1.5390    -0.7860 N.pl3 1 <1>   0.3140 
 14 C        4.3500     2.6200     1.0850 C.2   1 <1>  -0.1500 
 15 C        1.2870     4.0540     0.5770 C.3   1 <1>  -0.2400 
 16 C        0.4930    -5.5700     0.2080 C.3   1 <1>   0.0160 
 17 C        2.8150    -4.8270     2.0670 C.3   1 <1>  -0.0600 
 18 N        5.7870     1.8920    -0.4540 N.2   1 <1>  -0.7070 
 19 C        4.2730     0.7600    -2.0080 C.3   1 <1>   0.0160 
 20 C        5.6700     2.5370     0.6640 C.2   1 <1>   0.1390 
 21 H        2.3200     0.0320     1.2640 H     1 <1>   0.3700 
 22 H        1.8270     1.8950    -0.9980 H     1 <1>   0.0800 
 23 H        3.1610    -1.9840     1.4330 H     1 <1>   0.1500 
 24 H        1.6420     2.4520     1.9680 H     1 <1>   0.0800 
 25 H        0.2780     2.2060     0.9130 H     1 <1>   0.0800 
 26 H       -0.6290    -2.1210    -1.7520 H     1 <1>   0.0800 
 27 H       -1.3140    -3.5030    -0.9510 H     1 <1>   0.0800 
 28 H       -0.1560    -3.7210    -2.2490 H     1 <1>   0.0800 
 29 H        4.0110     3.1050     1.9820 H     1 <1>   0.1500 
 30 H        2.2800     4.4660     0.6170 H     1 <1>   0.0800 
 31 H        0.6620     4.6050     1.2580 H     1 <1>   0.0800 
 32 H        0.9020     4.1850    -0.4190 H     1 <1>   0.0800 
 33 H       -0.0470    -5.6720    -0.7130 H     1 <1>   0.0800 
 34 H       -0.1750    -5.7140     1.0360 H     1 <1>   0.0800 
 35 H        1.2730    -6.3080     0.2390 H     1 <1>   0.0800 
 36 H        3.5760    -4.3090     2.6240 H     1 <1>   0.0800 
 37 H        3.2810    -5.6230     1.5140 H     1 <1>   0.0800 
 38 H        2.1080    -5.2440     2.7610 H     1 <1>   0.0800 
 39 H        3.4190     1.1610    -2.5190 H     1 <1>   0.0800 
 40 H        4.0900    -0.2630    -1.7400 H     1 <1>   0.0800 
 41 H        5.1330     0.8140    -2.6490 H     1 <1>   0.0800 
 42 H        6.5080     2.9560     1.1960 H     1 <1>   0.1500 
@<TRIPOS>BOND
  1   1   2  2   
  2   2   3  am  
  3   2   4  1   
  4   3   5  1   
  5   3  21  1   
  6   4   6  2   
  7   4   7  1   
  8   5   8  1   
  9   5   9  1   
 10   5  22  1   
 11   6  10  1   
 12   6  11  1   
 13   7  12  2   
 14   7  23  1   
 15   8  13  1   
 16   8  14  2   
 17   9  15  1   
 18   9  24  1   
 19   9  25  1   
 20  10  12  1   
 21  10  16  1   
 22  11  26  1   
 23  11  27  1   
 24  11  28  1   
 25  12  17  1   
 26  13  18  1   
 27  13  19  1   
 28  14  20  1   
 29  14  29  1   
 30  15  30  1   
 31  15  31  1   
 32  15  32  1   
 33  16  33  1   
 34  16  34  1   
 35  16  35  1   
 36  17  36  1   
 37  17  37  1   
 38  17  38  1   
 39  18  20  2   
 40  19  39  1   
 41  19  40  1   
 42  19  41  1   
 43  20  42  1   
@<TRIPOS>SUBSTRUCTURE
  1 ****   3 GROUP 4 **** **** 0

# MOE 2024.06 (io_trps.svl 2023.06)
