@<TRIPOS>MOLECULE
NONAME
56 59 1 0 0 
SMALL
USER_CHARGES


@<TRIPOS>ATOM
  1 O       -1.0400     0.7030    -1.3060 O.3   1 <1>  -0.0190 
  2 N       -1.3060    -0.4880    -0.8700 N.2   1 <1>  -0.4100 
  3 C       -1.6050     1.6250    -0.5790 C.2   1 <1>  -0.0400 
  4 C       -2.0800    -0.3400     0.1480 C.2   1 <1>   0.1080 
  5 C       -2.3110     1.0140     0.3870 C.2   1 <1>  -0.1500 
  6 C       -1.3810     3.0830    -0.9180 C.3   1 <1>   0.5230 
  7 C       -2.6580    -1.4790     0.9830 C.3   1 <1>   0.1010 
  8 N       -0.0090     3.4960    -0.5020 N.4   1 <1>  -0.8520 
  9 C       -1.5400    -2.2380     1.7190 C.3   1 <1>  -0.1600 
 10 C       -3.4840    -2.4410     0.1110 C.3   1 <1>  -0.1600 
 11 C        0.2200     4.9530    -0.3340 C.3   1 <1>   0.2960 
 12 C        1.0480     2.9110    -1.3670 C.3   1 <1>   0.5240 
 13 C       -2.1010    -3.4040     2.5470 C.3   1 <1>  -0.1600 
 14 C       -4.0490    -3.6070     0.9360 C.3   1 <1>  -0.1600 
 15 C       -0.8610     5.8750     0.1230 C.3   1 <1>  -0.2000 
 16 C       -0.3770     5.9210    -1.3000 C.3   1 <1>  -0.2000 
 17 C        2.3170     2.9220    -0.5530 C.2   1 <1>  -0.1810 
 18 C       -2.9300    -4.3550     1.6730 C.3   1 <1>  -0.1600 
 19 C        3.3670     3.8290    -0.6630 C.2   1 <1>   0.1080 
 20 C        2.6820     2.0850     0.4460 C.2   1 <1>  -0.3320 
 21 N        4.2920     3.5960     0.2050 N.2   1 <1>  -0.7070 
 22 C        3.5060     4.9780    -1.6410 C.3   1 <1>  -0.0590 
 23 N        3.8860     2.5150     0.8870 N.pl3 1 <1>   0.3140 
 24 C        1.9680     0.8650     1.0180 C.3   1 <1>  -0.0600 
 25 C        4.7200     1.9340     1.9480 C.3   1 <1>   0.0160 
 26 H       -2.9190     1.4170     1.1770 H     1 <1>   0.1500 
 27 H       -2.1120     3.6630    -0.3840 H     1 <1>   0.0800 
 28 H       -1.5230     3.2450    -1.9730 H     1 <1>   0.0800 
 29 H       -3.3150    -1.0550     1.7210 H     1 <1>   0.0800 
 30 H        0.1740     3.0650     0.4130 H     1 <1>   0.4500 
 31 H       -1.0090    -1.5620     2.3660 H     1 <1>   0.0800 
 32 H       -0.8400    -2.6240     0.9980 H     1 <1>   0.0800 
 33 H       -2.8610    -2.8360    -0.6730 H     1 <1>   0.0800 
 34 H       -4.2930    -1.9040    -0.3530 H     1 <1>   0.0800 
 35 H        1.2130     5.1660     0.0390 H     1 <1>   0.1000 
 36 H        1.1650     3.4820    -2.2730 H     1 <1>   0.0800 
 37 H        0.8200     1.8920    -1.6260 H     1 <1>   0.0800 
 38 H       -2.7200    -3.0190     3.3400 H     1 <1>   0.0800 
 39 H       -1.2890    -3.9490     2.9990 H     1 <1>   0.0800 
 40 H       -4.5690    -4.2890     0.2860 H     1 <1>   0.0800 
 41 H       -4.7580    -3.2300     1.6530 H     1 <1>   0.0800 
 42 H       -0.5930     6.6990     0.7640 H     1 <1>   0.1000 
 43 H       -1.8630     5.5370     0.3110 H     1 <1>   0.1000 
 44 H       -1.0490     5.5990    -2.0740 H     1 <1>   0.1000 
 45 H        0.2010     6.7800    -1.5980 H     1 <1>   0.1000 
 46 H       -3.3580    -5.1290     2.2870 H     1 <1>   0.0800 
 47 H       -2.2850    -4.8280     0.9520 H     1 <1>   0.0800 
 48 H        2.7750     4.9270    -2.4240 H     1 <1>   0.0800 
 49 H        4.4850     4.9440    -2.0840 H     1 <1>   0.0800 
 50 H        3.4070     5.9100    -1.1170 H     1 <1>   0.0800 
 51 H        1.0580     0.6580     0.4880 H     1 <1>   0.0800 
 52 H        1.7350     1.0200     2.0570 H     1 <1>   0.0800 
 53 H        2.6000    -0.0020     0.9350 H     1 <1>   0.0800 
 54 H        4.1660     1.9150     2.8670 H     1 <1>   0.0800 
 55 H        5.6010     2.5360     2.0720 H     1 <1>   0.0800 
 56 H        5.0050     0.9370     1.6670 H     1 <1>   0.0800 
@<TRIPOS>BOND
  1   1   2  1   
  2   1   3  1   
  3   2   4  2   
  4   3   5  2   
  5   3   6  1   
  6   4   5  1   
  7   4   7  1   
  8   5  26  1   
  9   6   8  1   
 10   6  27  1   
 11   6  28  1   
 12   7   9  1   
 13   7  10  1   
 14   7  29  1   
 15   8  11  1   
 16   8  12  1   
 17   8  30  1   
 18   9  13  1   
 19   9  31  1   
 20   9  32  1   
 21  10  14  1   
 22  10  33  1   
 23  10  34  1   
 24  11  15  1   
 25  11  16  1   
 26  11  35  1   
 27  12  17  1   
 28  12  36  1   
 29  12  37  1   
 30  13  18  1   
 31  13  38  1   
 32  13  39  1   
 33  14  18  1   
 34  14  40  1   
 35  14  41  1   
 36  15  16  1   
 37  15  42  1   
 38  15  43  1   
 39  16  44  1   
 40  16  45  1   
 41  17  19  1   
 42  17  20  2   
 43  18  46  1   
 44  18  47  1   
 45  19  21  2   
 46  19  22  1   
 47  20  23  1   
 48  20  24  1   
 49  21  23  1   
 50  22  48  1   
 51  22  49  1   
 52  22  50  1   
 53  23  25  1   
 54  24  51  1   
 55  24  52  1   
 56  24  53  1   
 57  25  54  1   
 58  25  55  1   
 59  25  56  1   
@<TRIPOS>SUBSTRUCTURE
  1 ****   3 GROUP 4 **** **** 0

# MOE 2024.06 (io_trps.svl 2023.06)
