@<TRIPOS>MOLECULE
NONAME
43 44 1 0 0 
SMALL
USER_CHARGES


@<TRIPOS>ATOM
  1 O        0.2690     2.4380     0.8120 O.co2 1 <1>  -0.9000 
  2 C       -0.4000     1.6570     0.1320 C.2   1 <1>   0.9060 
  3 O       -0.1320     0.4610     0.0020 O.co2 1 <1>  -0.9000 
  4 C       -1.6500     2.1810    -0.5320 C.3   1 <1>  -0.2660 
  5 C       -2.8780     1.9300     0.3520 C.3   1 <1>  -0.1600 
  6 C       -4.1560     2.4450    -0.3110 C.3   1 <1>  -0.1600 
  7 C       -5.3490     2.1610     0.5960 C.3   1 <1>   0.3430 
  8 N       -6.6130     2.5630    -0.0750 N.4   1 <1>  -0.9590 
  9 C       -7.7990     1.9830     0.6210 C.3   1 <1>   0.3430 
 10 C       -6.7320     4.0520    -0.2080 C.3   1 <1>   0.3430 
 11 C       -9.0570     2.0980    -0.2630 C.3   1 <1>   0.0000 
 12 C       -8.1800     4.4980    -0.4640 C.3   1 <1>  -0.1600 
 13 C      -10.2950     1.9690     0.6400 C.3   1 <1>   0.2000 
 14 C       -9.0390     3.4030    -1.1190 C.3   1 <1>  -0.1600 
 15 C       -9.2510     0.8850    -1.1880 C.3   1 <1>  -0.1600 
 16 O      -10.5940     3.1520     1.2820 O.3   1 <1>  -0.6800 
 17 C      -11.4390     1.5110    -0.2620 C.3   1 <1>  -0.1600 
 18 C      -10.7600     0.8270    -1.4590 C.3   1 <1>  -0.1600 
 19 H       -1.5140     3.2310    -0.7090 H     1 <1>   0.0800 
 20 H       -1.7500     1.6800    -1.4760 H     1 <1>   0.0800 
 21 H       -2.9500     0.8700     0.5370 H     1 <1>   0.0800 
 22 H       -2.7200     2.4210     1.2990 H     1 <1>   0.0800 
 23 H       -4.2810     1.9420    -1.2540 H     1 <1>   0.0800 
 24 H       -4.0490     3.5010    -0.4820 H     1 <1>   0.0800 
 25 H       -5.2340     2.6910     1.5280 H     1 <1>   0.0800 
 26 H       -5.3710     1.1050     0.8120 H     1 <1>   0.0800 
 27 H       -6.6050     2.1670    -1.0230 H     1 <1>   0.4500 
 28 H       -7.6260     0.9490     0.8680 H     1 <1>   0.0800 
 29 H       -7.9690     2.5240     1.5390 H     1 <1>   0.0800 
 30 H       -6.3750     4.5320     0.6890 H     1 <1>   0.0800 
 31 H       -6.1100     4.3800    -1.0260 H     1 <1>   0.0800 
 32 H       -8.6220     4.7850     0.4750 H     1 <1>   0.0800 
 33 H       -8.1720     5.3780    -1.0830 H     1 <1>   0.0800 
 34 H      -10.1230     1.2200     1.3970 H     1 <1>   0.0800 
 35 H       -8.6230     3.2030    -2.0920 H     1 <1>   0.0800 
 36 H      -10.0370     3.7710    -1.2830 H     1 <1>   0.0800 
 37 H       -8.6850     0.9410    -2.1020 H     1 <1>   0.0800 
 38 H       -8.9670    -0.0180    -0.6720 H     1 <1>   0.0800 
 39 H      -11.1960     3.6910     0.7320 H     1 <1>   0.4000 
 40 H      -12.0740     0.8190     0.2640 H     1 <1>   0.0800 
 41 H      -12.0270     2.3430    -0.6090 H     1 <1>   0.0800 
 42 H      -11.0950    -0.1910    -1.5750 H     1 <1>   0.0800 
 43 H      -10.9920     1.3680    -2.3620 H     1 <1>   0.0800 
@<TRIPOS>BOND
  1   1   2  ar  
  2   2   3  ar  
  3   2   4  1   
  4   4   5  1   
  5   4  19  1   
  6   4  20  1   
  7   5   6  1   
  8   5  21  1   
  9   5  22  1   
 10   6   7  1   
 11   6  23  1   
 12   6  24  1   
 13   7   8  1   
 14   7  25  1   
 15   7  26  1   
 16   8   9  1   
 17   8  10  1   
 18   8  27  1   
 19   9  11  1   
 20   9  28  1   
 21   9  29  1   
 22  10  12  1   
 23  10  30  1   
 24  10  31  1   
 25  11  13  1   
 26  11  14  1   
 27  11  15  1   
 28  12  14  1   
 29  12  32  1   
 30  12  33  1   
 31  13  16  1   
 32  13  17  1   
 33  13  34  1   
 34  14  35  1   
 35  14  36  1   
 36  15  18  1   
 37  15  37  1   
 38  15  38  1   
 39  16  39  1   
 40  17  18  1   
 41  17  40  1   
 42  17  41  1   
 43  18  42  1   
 44  18  43  1   
@<TRIPOS>SUBSTRUCTURE
  1 ****   8 GROUP 4 **** **** 0

# MOE 2024.06 (io_trps.svl 2023.06)
