@<TRIPOS>MOLECULE
NONAME
51 53 1 0 0 
SMALL
USER_CHARGES


@<TRIPOS>ATOM
  1 S       -0.9890    -0.8190    -0.2130 S.3   1 <1>  -0.0800 
  2 C       -1.3070    -1.6670     1.3000 C.2   1 <1>  -0.0450 
  3 C       -0.0280     0.4390     0.5660 C.2   1 <1>  -0.0450 
  4 C       -2.0910    -2.8760     1.3070 C.2   1 <1>   0.7150 
  5 C       -0.6910    -0.9890     2.3020 C.2   1 <1>  -0.1500 
  6 C        0.5540     1.5000    -0.2040 C.2   1 <1>   0.5940 
  7 C        0.0110     0.1730     1.8980 C.2   1 <1>  -0.1500 
  8 O       -2.1670    -3.5500     2.3180 O.2   1 <1>  -0.5700 
  9 N       -2.7970    -3.2800     0.2050 N.am  1 <1>  -0.6600 
 10 O        1.1920     2.3910     0.2970 O.2   1 <1>  -0.5700 
 11 C        0.3820     1.5360    -1.7080 C.3   1 <1>  -0.1790 
 12 C       -2.7710    -4.7350    -0.1510 C.3   1 <1>   0.3640 
 13 C       -4.0320    -2.5330    -0.1470 C.3   1 <1>   0.1400 
 14 C       -1.3060    -5.1300    -0.3660 C.ar  1 <1>  -0.1430 
 15 C       -3.6050    -5.0930    -1.4210 C.3   1 <1>   0.2000 
 16 C       -4.5400    -2.9340    -1.5320 C.3   1 <1>   0.1200 
 17 C       -0.7420    -6.1480     0.3910 C.ar  1 <1>  -0.1500 
 18 C       -0.5220    -4.4800    -1.3110 C.ar  1 <1>  -0.1500 
 19 O       -4.7620    -4.3080    -1.5550 O.3   1 <1>  -0.5600 
 20 C       -4.0860    -6.5550    -1.4420 C.3   1 <1>   0.1200 
 21 C        0.5760    -6.5270     0.2000 C.ar  1 <1>   0.0830 
 22 C        0.8010    -4.8420    -1.4990 C.ar  1 <1>  -0.1500 
 23 O       -3.0440    -7.4600    -1.2650 O.3   1 <1>  -0.6800 
 24 O        1.0450    -7.5590     0.9400 O.3   1 <1>  -0.3630 
 25 C        1.3630    -5.8540    -0.7410 C.ar  1 <1>   0.0830 
 26 C        1.2600    -8.7640     0.2420 C.3   1 <1>   0.0400 
 27 O        2.6710    -6.1430    -0.9560 O.3   1 <1>  -0.3630 
 28 C        3.5480    -5.9510     0.1330 C.3   1 <1>   0.0400 
 29 H       -0.7180    -1.2980     3.3340 H     1 <1>   0.1500 
 30 H        0.5340     0.7860     2.6140 H     1 <1>   0.1500 
 31 H        0.7800     0.6390    -2.1440 H     1 <1>   0.0800 
 32 H        0.9080     2.3800    -2.1160 H     1 <1>   0.0800 
 33 H       -0.6600     1.6260    -1.9550 H     1 <1>   0.0800 
 34 H       -3.1710    -5.2920     0.6810 H     1 <1>   0.0800 
 35 H       -4.7950    -2.7450     0.5830 H     1 <1>   0.0800 
 36 H       -3.8370    -1.4750    -0.1290 H     1 <1>   0.0800 
 37 H       -3.0110    -4.9190    -2.3000 H     1 <1>   0.0800 
 38 H       -3.8300    -2.6740    -2.2990 H     1 <1>   0.0800 
 39 H       -5.4760    -2.4460    -1.7400 H     1 <1>   0.0800 
 40 H       -1.3250    -6.6650     1.1320 H     1 <1>   0.1500 
 41 H       -0.9360    -3.6800    -1.9000 H     1 <1>   0.1500 
 42 H       -4.5550    -6.7730    -2.3860 H     1 <1>   0.0800 
 43 H       -4.7930    -6.7210    -0.6490 H     1 <1>   0.0800 
 44 H        1.4080    -4.3360    -2.2270 H     1 <1>   0.1500 
 45 H       -2.3090    -7.2890    -1.8880 H     1 <1>   0.4000 
 46 H        1.5880    -9.5070     0.9460 H     1 <1>   0.0800 
 47 H        2.0140    -8.6080    -0.5090 H     1 <1>   0.0800 
 48 H        0.3350    -9.0690    -0.2140 H     1 <1>   0.0800 
 49 H        4.5560    -6.0280    -0.2310 H     1 <1>   0.0800 
 50 H        3.3690    -6.7090     0.8730 H     1 <1>   0.0800 
 51 H        3.3770    -4.9740     0.5490 H     1 <1>   0.0800 
@<TRIPOS>BOND
  1   1   2  1   
  2   1   3  1   
  3   2   4  1   
  4   2   5  2   
  5   3   6  1   
  6   3   7  2   
  7   4   8  2   
  8   4   9  am  
  9   5   7  1   
 10   5  29  1   
 11   6  10  2   
 12   6  11  1   
 13   7  30  1   
 14   9  12  1   
 15   9  13  1   
 16  11  31  1   
 17  11  32  1   
 18  11  33  1   
 19  12  14  1   
 20  12  15  1   
 21  12  34  1   
 22  13  16  1   
 23  13  35  1   
 24  13  36  1   
 25  14  17  ar  
 26  14  18  ar  
 27  15  19  1   
 28  15  20  1   
 29  15  37  1   
 30  16  19  1   
 31  16  38  1   
 32  16  39  1   
 33  17  21  ar  
 34  17  40  1   
 35  18  22  ar  
 36  18  41  1   
 37  20  23  1   
 38  20  42  1   
 39  20  43  1   
 40  21  24  1   
 41  21  25  ar  
 42  22  25  ar  
 43  22  44  1   
 44  23  45  1   
 45  24  26  1   
 46  25  27  1   
 47  26  46  1   
 48  26  47  1   
 49  26  48  1   
 50  27  28  1   
 51  28  49  1   
 52  28  50  1   
 53  28  51  1   
@<TRIPOS>SUBSTRUCTURE
  1 ****  18 GROUP 4 **** **** 0

# MOE 2024.06 (io_trps.svl 2023.06)
