@<TRIPOS>MOLECULE
NONAME
37 38 1 0 0 
SMALL
USER_CHARGES


@<TRIPOS>ATOM
  1 O        1.3680    -0.1710     1.8640 O.co2 1 <1>  -0.9000 
  2 C        2.5780    -0.4620     1.7730 C.2   1 <1>   0.9790 
  3 O        2.9470    -1.5210     2.3260 O.co2 1 <1>  -0.9000 
  4 C        3.5560     0.3830     1.0770 C.ar  1 <1>   0.1310 
  5 N        3.2080     1.4150     0.2720 N.ar  1 <1>  -0.6200 
  6 C        4.9070     0.0780     1.2740 C.ar  1 <1>   0.1600 
  7 C        4.2350     2.0510    -0.2400 C.ar  1 <1>   0.1600 
  8 N        5.9400     0.7220     0.7540 N.ar  1 <1>  -0.6200 
  9 C        5.5870     1.7470    -0.0050 C.ar  1 <1>   0.4100 
 10 N        6.6250     2.4940    -0.5520 N.pl3 1 <1>  -0.8380 
 11 C        6.5190     3.9800    -0.7290 C.3   1 <1>   0.3890 
 12 C        7.8640     1.8220    -1.0340 C.3   1 <1>   0.2090 
 13 C        7.5170     4.7800     0.0960 C.2   1 <1>   0.2980 
 14 C        8.9580     1.8510     0.0310 C.3   1 <1>  -0.2400 
 15 O        7.4470     4.7210     1.4030 O.3   1 <1>  -0.0190 
 16 N        8.4320     5.5370    -0.3700 N.2   1 <1>  -0.5650 
 17 N        8.4020     5.5040     1.8040 N.2   1 <1>  -0.4100 
 18 C        8.9720     5.9690     0.7640 C.2   1 <1>   0.3350 
 19 C       10.1610     6.9300     0.7860 C.3   1 <1>   0.1010 
 20 C        9.8140     8.2650     0.1130 C.3   1 <1>  -0.2400 
 21 C       11.3940     6.3020     0.1210 C.3   1 <1>  -0.2400 
 22 H        5.1410    -0.7590     1.9100 H     1 <1>   0.1500 
 23 H        4.0080     2.8630    -0.8980 H     1 <1>   0.1500 
 24 H        5.5390     4.3170    -0.4480 H     1 <1>   0.0800 
 25 H        6.6630     4.2170    -1.7680 H     1 <1>   0.0800 
 26 H        8.2120     2.2970    -1.9350 H     1 <1>   0.0800 
 27 H        7.6340     0.7960    -1.2690 H     1 <1>   0.0800 
 28 H        9.3330     2.8450     0.1790 H     1 <1>   0.0800 
 29 H        9.7760     1.2290    -0.2800 H     1 <1>   0.0800 
 30 H        8.5780     1.4710     0.9620 H     1 <1>   0.0800 
 31 H       10.4010     7.1270     1.8170 H     1 <1>   0.0800 
 32 H        9.5790     8.1110    -0.9250 H     1 <1>   0.0800 
 33 H       10.6400     8.9490     0.1850 H     1 <1>   0.0800 
 34 H        8.9590     8.7060     0.5950 H     1 <1>   0.0800 
 35 H       11.1970     6.0980    -0.9170 H     1 <1>   0.0800 
 36 H       11.6410     5.3760     0.6090 H     1 <1>   0.0800 
 37 H       12.2380     6.9640     0.1920 H     1 <1>   0.0800 
@<TRIPOS>BOND
  1   1   2  ar  
  2   2   3  ar  
  3   2   4  1   
  4   4   5  ar  
  5   4   6  ar  
  6   5   7  ar  
  7   6   8  ar  
  8   6  22  1   
  9   7   9  ar  
 10   7  23  1   
 11   8   9  ar  
 12   9  10  1   
 13  10  11  1   
 14  10  12  1   
 15  11  13  1   
 16  11  24  1   
 17  11  25  1   
 18  12  14  1   
 19  12  26  1   
 20  12  27  1   
 21  13  15  1   
 22  13  16  2   
 23  14  28  1   
 24  14  29  1   
 25  14  30  1   
 26  15  17  1   
 27  16  18  1   
 28  17  18  2   
 29  18  19  1   
 30  19  20  1   
 31  19  21  1   
 32  19  31  1   
 33  20  32  1   
 34  20  33  1   
 35  20  34  1   
 36  21  35  1   
 37  21  36  1   
 38  21  37  1   
@<TRIPOS>SUBSTRUCTURE
  1 ****  10 GROUP 4 **** **** 0

# MOE 2024.06 (io_trps.svl 2023.06)
