@<TRIPOS>MOLECULE
NONAME
42 44 1 0 0 
SMALL
USER_CHARGES


@<TRIPOS>ATOM
  1 CL      -0.5720     0.4560    -1.2970 Cl    1 <1>  -0.1770 
  2 C       -0.5310     2.0950    -0.6870 C.ar  1 <1>   0.1770 
  3 C        0.6780     2.7350    -0.4700 C.ar  1 <1>   0.1770 
  4 C       -1.7230     2.7430    -0.4300 C.ar  1 <1>  -0.1500 
  5 CL       2.1970     1.9270    -0.7930 Cl    1 <1>  -0.1770 
  6 C        0.7020     4.0330     0.0070 C.ar  1 <1>  -0.1500 
  7 C       -1.7190     4.0500     0.0540 C.ar  1 <1>   0.1170 
  8 C       -0.4950     4.6820     0.2650 C.ar  1 <1>  -0.1500 
  9 N       -2.8990     4.7560     0.3190 N.am  1 <1>  -0.5470 
 10 C       -4.1410     4.3150     0.6780 C.2   1 <1>   0.6900 
 11 O       -4.3310     3.1440     0.9480 O.2   1 <1>  -0.5700 
 12 N       -5.1630     5.2270     0.7540 N.am  1 <1>  -0.6600 
 13 C       -6.4740     4.8450     1.3570 C.3   1 <1>   0.1400 
 14 C       -5.1660     6.5200     0.0050 C.3   1 <1>   0.1400 
 15 C       -7.5460     4.6500     0.2600 C.3   1 <1>   0.0000 
 16 C       -6.5820     6.9210    -0.4440 C.3   1 <1>  -0.1600 
 17 C       -8.9470     4.6640     0.9010 C.3   1 <1>   0.2000 
 18 C       -7.3840     5.6900    -0.8940 C.3   1 <1>  -0.1600 
 19 C       -7.5160     3.2300    -0.3280 C.3   1 <1>  -0.1600 
 20 O       -9.4320     5.9460     1.0930 O.3   1 <1>  -0.6800 
 21 C       -9.8600     3.8750    -0.0390 C.3   1 <1>  -0.1600 
 22 C       -8.9260     2.9920    -0.8790 C.3   1 <1>  -0.1600 
 23 H       -2.6490     2.2290    -0.6090 H     1 <1>   0.1500 
 24 H        1.6450     4.5230     0.1740 H     1 <1>   0.1500 
 25 H       -0.4760     5.6900     0.6400 H     1 <1>   0.1500 
 26 H       -2.8140     5.7630     0.3890 H     1 <1>   0.3700 
 27 H       -6.3770     3.9550     1.9540 H     1 <1>   0.0800 
 28 H       -6.7820     5.6370     2.0190 H     1 <1>   0.0800 
 29 H       -4.7500     7.2960     0.6250 H     1 <1>   0.0800 
 30 H       -4.5500     6.4160    -0.8730 H     1 <1>   0.0800 
 31 H       -7.0900     7.4110     0.3690 H     1 <1>   0.0800 
 32 H       -6.5100     7.6290    -1.2510 H     1 <1>   0.0800 
 33 H       -8.9190     4.1750     1.8610 H     1 <1>   0.0800 
 34 H       -6.8400     5.2430    -1.7080 H     1 <1>   0.0800 
 35 H       -8.3370     5.9880    -1.2930 H     1 <1>   0.0800 
 36 H       -6.7520     3.0980    -1.0750 H     1 <1>   0.0800 
 37 H       -7.3290     2.5170     0.4580 H     1 <1>   0.0800 
 38 H       -9.4350     6.4190     0.2410 H     1 <1>   0.4000 
 39 H      -10.5400     3.2700     0.5350 H     1 <1>   0.0800 
 40 H      -10.4210     4.5290    -0.6830 H     1 <1>   0.0800 
 41 H       -9.1960     1.9520    -0.8160 H     1 <1>   0.0800 
 42 H       -8.9680     3.3000    -1.9100 H     1 <1>   0.0800 
@<TRIPOS>BOND
  1   1   2  1   
  2   2   3  ar  
  3   2   4  ar  
  4   3   5  1   
  5   3   6  ar  
  6   4   7  ar  
  7   4  23  1   
  8   6   8  ar  
  9   6  24  1   
 10   7   8  ar  
 11   7   9  1   
 12   8  25  1   
 13   9  10  am  
 14   9  26  1   
 15  10  11  2   
 16  10  12  am  
 17  12  13  1   
 18  12  14  1   
 19  13  15  1   
 20  13  27  1   
 21  13  28  1   
 22  14  16  1   
 23  14  29  1   
 24  14  30  1   
 25  15  17  1   
 26  15  18  1   
 27  15  19  1   
 28  16  18  1   
 29  16  31  1   
 30  16  32  1   
 31  17  20  1   
 32  17  21  1   
 33  17  33  1   
 34  18  34  1   
 35  18  35  1   
 36  19  22  1   
 37  19  36  1   
 38  19  37  1   
 39  20  38  1   
 40  21  22  1   
 41  21  39  1   
 42  21  40  1   
 43  22  41  1   
 44  22  42  1   
@<TRIPOS>SUBSTRUCTURE
  1 ****  10 GROUP 4 **** **** 0

# MOE 2024.06 (io_trps.svl 2023.06)
