@<TRIPOS>MOLECULE
NONAME
51 55 1 0 0 
SMALL
USER_CHARGES


@<TRIPOS>ATOM
  1 O       -3.2850     1.1430    -2.0830 O.2   1 <1>  -0.5700 
  2 C       -2.3570     1.1510    -1.2940 C.2   1 <1>   0.5440 
  3 N       -1.8300    -0.0560    -0.9430 N.am  1 <1>  -0.7300 
  4 C       -1.8420     2.4020    -0.7560 C.ar  1 <1>   0.0860 
  5 C       -2.3590    -1.3740    -1.3480 C.3   1 <1>   0.2200 
  6 C       -1.0510     2.4950     0.4030 C.ar  1 <1>   0.0820 
  7 C       -2.1380     3.5980    -1.4200 C.ar  1 <1>  -0.1500 
  8 C       -3.4720    -1.7760    -0.3970 C.3   1 <1>  -0.0800 
  9 C       -1.3140    -2.4580    -1.0940 C.3   1 <1>   0.1200 
 10 O       -0.7090     1.3750     1.0980 O.3   1 <1>  -0.3630 
 11 C       -0.6050     3.7410     0.8590 C.ar  1 <1>   0.0820 
 12 C       -1.6830     4.8240    -0.9750 C.ar  1 <1>  -0.1500 
 13 C       -2.6860    -2.3940     0.7610 C.3   1 <1>   0.1200 
 14 C       -4.4380    -2.7790    -1.0560 C.3   1 <1>  -0.0160 
 15 O       -1.5000    -2.9000     0.2210 O.3   1 <1>  -0.5600 
 16 C        0.3150     1.4640     2.0700 C.3   1 <1>   0.1200 
 17 O        0.1350     3.8630     1.9910 O.3   1 <1>  -0.3630 
 18 C       -0.9130     4.8970     0.1690 C.ar  1 <1>  -0.1500 
 19 C       -5.6150    -3.1120    -0.1450 C.ar  1 <1>  -0.1440 
 20 C        0.1610     2.7590     2.8710 C.3   1 <1>   0.1200 
 21 C       -6.6910    -2.2150     0.0580 C.ar  1 <1>   0.0000 
 22 C       -5.6610    -4.3090     0.5060 C.ar  1 <1>  -0.1500 
 23 C       -7.7300    -2.6230     0.9300 C.ar  1 <1>   0.3100 
 24 C       -6.7990    -0.9420    -0.5520 C.ar  1 <1>  -0.1500 
 25 C       -6.7380    -4.6150     1.3450 C.ar  1 <1>   0.1600 
 26 N       -7.7390    -3.8230     1.5640 N.ar  1 <1>  -0.6200 
 27 C       -8.8090    -1.7520     1.1550 C.ar  1 <1>  -0.1500 
 28 C       -7.8650    -0.1180    -0.3100 C.ar  1 <1>  -0.1500 
 29 C       -8.8840    -0.5250     0.5540 C.ar  1 <1>  -0.1500 
 30 H       -1.1810    -0.0660    -0.1480 H     1 <1>   0.3700 
 31 H       -2.6700    -1.3400    -2.3790 H     1 <1>   0.0800 
 32 H       -2.7410     3.5620    -2.3120 H     1 <1>   0.1500 
 33 H       -4.0260    -0.9180    -0.0630 H     1 <1>   0.0800 
 34 H       -0.3080    -2.0980    -1.2150 H     1 <1>   0.0800 
 35 H       -1.4790    -3.3000    -1.7430 H     1 <1>   0.0800 
 36 H       -1.9300     5.7220    -1.5160 H     1 <1>   0.1500 
 37 H       -3.2160    -3.1850     1.2600 H     1 <1>   0.0800 
 38 H       -2.4180    -1.6360     1.4770 H     1 <1>   0.0800 
 39 H       -3.9080    -3.6830    -1.3040 H     1 <1>   0.0800 
 40 H       -4.8130    -2.3740    -1.9800 H     1 <1>   0.0800 
 41 H        0.2420     0.6040     2.7120 H     1 <1>   0.0800 
 42 H        1.2640     1.4480     1.5620 H     1 <1>   0.0800 
 43 H       -0.5540     5.8440     0.5310 H     1 <1>   0.1500 
 44 H        0.9860     2.8930     3.5480 H     1 <1>   0.0800 
 45 H       -0.7590     2.7510     3.4280 H     1 <1>   0.0800 
 46 H       -4.8810    -5.0410     0.3960 H     1 <1>   0.1500 
 47 H       -6.0300    -0.6050    -1.2220 H     1 <1>   0.1500 
 48 H       -6.7330    -5.5710     1.8400 H     1 <1>   0.1500 
 49 H       -9.5810    -2.0880     1.8230 H     1 <1>   0.1500 
 50 H       -7.9300     0.8480    -0.7800 H     1 <1>   0.1500 
 51 H       -9.7170     0.1320     0.7370 H     1 <1>   0.1500 
@<TRIPOS>BOND
  1   1   2  2   
  2   2   3  am  
  3   2   4  1   
  4   3   5  1   
  5   3  30  1   
  6   4   6  ar  
  7   4   7  ar  
  8   5   8  1   
  9   5   9  1   
 10   5  31  1   
 11   6  10  1   
 12   6  11  ar  
 13   7  12  ar  
 14   7  32  1   
 15   8  13  1   
 16   8  14  1   
 17   8  33  1   
 18   9  15  1   
 19   9  34  1   
 20   9  35  1   
 21  10  16  1   
 22  11  17  1   
 23  11  18  ar  
 24  12  18  ar  
 25  12  36  1   
 26  13  15  1   
 27  13  37  1   
 28  13  38  1   
 29  14  19  1   
 30  14  39  1   
 31  14  40  1   
 32  16  20  1   
 33  16  41  1   
 34  16  42  1   
 35  17  20  1   
 36  18  43  1   
 37  19  21  ar  
 38  19  22  ar  
 39  20  44  1   
 40  20  45  1   
 41  21  23  ar  
 42  21  24  ar  
 43  22  25  ar  
 44  22  46  1   
 45  23  26  ar  
 46  23  27  ar  
 47  24  28  ar  
 48  24  47  1   
 49  25  26  ar  
 50  25  48  1   
 51  27  29  ar  
 52  27  49  1   
 53  28  29  ar  
 54  28  50  1   
 55  29  51  1   
@<TRIPOS>SUBSTRUCTURE
  1 ****   8 GROUP 4 **** **** 0

# MOE 2024.06 (io_trps.svl 2023.06)
