@<TRIPOS>MOLECULE
NONAME
45 48 1 0 0 
SMALL
USER_CHARGES


@<TRIPOS>ATOM
  1 S        1.2610    -0.5210     1.0870 S.3   1 <1>  -0.0800 
  2 C        0.8570    -0.8210    -0.6110 C.2   1 <1>   0.2930 
  3 C        1.3250     1.1760     0.7670 C.2   1 <1>  -0.1400 
  4 N        0.7930     0.2760    -1.2980 N.2   1 <1>  -0.5650 
  5 C        0.6480    -2.2070    -1.0100 C.2   1 <1>   0.7150 
  6 C        1.0620     1.3820    -0.5240 C.2   1 <1>   0.0460 
  7 C        1.6400     2.2010     1.8340 C.3   1 <1>   0.0200 
  8 O        0.3840    -2.5210    -2.1580 O.2   1 <1>  -0.5700 
  9 N        0.7220    -3.2240    -0.0940 N.am  1 <1>  -0.7300 
 10 C        1.0510     2.7700    -1.1320 C.3   1 <1>   0.0210 
 11 C        1.2870     3.6000     1.2920 C.3   1 <1>  -0.1600 
 12 C        0.4410    -4.6490    -0.3780 C.3   1 <1>   0.2200 
 13 C        1.7180     3.7890    -0.1810 C.3   1 <1>  -0.1600 
 14 C       -1.0240    -4.9290    -0.0910 C.3   1 <1>  -0.0800 
 15 C        1.1330    -5.5260     0.6580 C.3   1 <1>   0.1200 
 16 C       -1.0180    -5.2030     1.4180 C.3   1 <1>   0.1200 
 17 C       -1.5400    -6.1320    -0.9020 C.3   1 <1>  -0.0170 
 18 O        0.2950    -5.5310     1.7740 O.3   1 <1>  -0.5600 
 19 C       -3.0240    -6.3620    -0.6590 C.ar  1 <1>  -0.1430 
 20 C       -3.9810    -5.5290    -1.2020 C.ar  1 <1>  -0.1500 
 21 C       -3.4920    -7.4070     0.1120 C.ar  1 <1>  -0.1500 
 22 C       -5.3210    -5.7700    -0.9500 C.ar  1 <1>   0.1600 
 23 C       -4.8550    -7.5600     0.3020 C.ar  1 <1>   0.1600 
 24 N       -5.7810    -6.7640    -0.2090 N.ar  1 <1>  -0.6200 
 25 H        1.0730     1.9980     2.7250 H     1 <1>   0.0800 
 26 H        2.6880     2.1470     2.0710 H     1 <1>   0.0800 
 27 H        0.8510    -3.0030     0.8960 H     1 <1>   0.3700 
 28 H        1.5730     2.7540    -2.0720 H     1 <1>   0.0800 
 29 H        0.0300     3.0510    -1.3190 H     1 <1>   0.0800 
 30 H        0.2210     3.7370     1.3560 H     1 <1>   0.0800 
 31 H        1.7510     4.3500     1.9090 H     1 <1>   0.0800 
 32 H        0.7350    -4.8950    -1.3850 H     1 <1>   0.0800 
 33 H        2.7870     3.6690    -0.2440 H     1 <1>   0.0800 
 34 H        1.4820     4.7860    -0.5070 H     1 <1>   0.0800 
 35 H       -1.6350    -4.0740    -0.3230 H     1 <1>   0.0800 
 36 H        2.1050    -5.1580     0.9350 H     1 <1>   0.0800 
 37 H        1.2140    -6.5390     0.3060 H     1 <1>   0.0800 
 38 H       -1.6680    -6.0110     1.7030 H     1 <1>   0.0800 
 39 H       -1.2900    -4.3180     1.9670 H     1 <1>   0.0800 
 40 H       -0.9880    -7.0200    -0.6500 H     1 <1>   0.0800 
 41 H       -1.3920    -5.9430    -1.9520 H     1 <1>   0.0800 
 42 H       -3.6970    -4.6950    -1.8190 H     1 <1>   0.1500 
 43 H       -2.8120    -8.1040     0.5680 H     1 <1>   0.1500 
 44 H       -6.0530    -5.1090    -1.3820 H     1 <1>   0.1500 
 45 H       -5.2030    -8.3800     0.9070 H     1 <1>   0.1500 
@<TRIPOS>BOND
  1   1   2  1   
  2   1   3  1   
  3   2   4  2   
  4   2   5  1   
  5   3   6  2   
  6   3   7  1   
  7   4   6  1   
  8   5   8  2   
  9   5   9  am  
 10   6  10  1   
 11   7  11  1   
 12   7  25  1   
 13   7  26  1   
 14   9  12  1   
 15   9  27  1   
 16  10  13  1   
 17  10  28  1   
 18  10  29  1   
 19  11  13  1   
 20  11  30  1   
 21  11  31  1   
 22  12  14  1   
 23  12  15  1   
 24  12  32  1   
 25  13  33  1   
 26  13  34  1   
 27  14  16  1   
 28  14  17  1   
 29  14  35  1   
 30  15  18  1   
 31  15  36  1   
 32  15  37  1   
 33  16  18  1   
 34  16  38  1   
 35  16  39  1   
 36  17  19  1   
 37  17  40  1   
 38  17  41  1   
 39  19  20  ar  
 40  19  21  ar  
 41  20  22  ar  
 42  20  42  1   
 43  21  23  ar  
 44  21  43  1   
 45  22  24  ar  
 46  22  44  1   
 47  23  24  ar  
 48  23  45  1   
@<TRIPOS>SUBSTRUCTURE
  1 ****   9 GROUP 4 **** **** 0

# MOE 2024.06 (io_trps.svl 2023.06)
