@<TRIPOS>MOLECULE
NONAME
49 52 1 0 0 
SMALL
USER_CHARGES


@<TRIPOS>ATOM
  1 F       -3.3240     0.3310     1.6350 F     1 <1>  -0.3400 
  2 C       -4.1510    -0.3360     0.8420 C.3   1 <1>   1.2400 
  3 F       -5.2820     0.3510     0.7690 F     1 <1>  -0.3400 
  4 O       -4.3980    -1.6280     1.3720 O.3   1 <1>  -0.3630 
  5 O       -3.5800    -0.4710    -0.4500 O.3   1 <1>  -0.3630 
  6 C       -3.9820    -2.4770     0.4250 C.ar  1 <1>   0.0830 
  7 C       -3.4980    -1.7910    -0.6550 C.ar  1 <1>   0.0830 
  8 C       -4.0030    -3.8580     0.4520 C.ar  1 <1>  -0.1500 
  9 C       -3.0060    -2.4490    -1.7630 C.ar  1 <1>  -0.1500 
 10 C       -3.5110    -4.5460    -0.6560 C.ar  1 <1>  -0.1440 
 11 C       -3.0170    -3.8380    -1.7540 C.ar  1 <1>  -0.1500 
 12 C       -3.5090    -6.0660    -0.6780 C.3   1 <1>   0.4870 
 13 N       -4.8960    -6.5810    -0.5470 N.4   1 <1>  -0.9590 
 14 C       -5.0070    -8.0840    -0.4160 C.3   1 <1>   0.3430 
 15 C       -5.8940    -5.9810    -1.4720 C.3   1 <1>   0.3430 
 16 C       -6.4810    -8.6270    -0.4600 C.3   1 <1>   0.4230 
 17 C       -7.3230    -6.3320    -1.0070 C.3   1 <1>  -0.1600 
 18 N       -6.7050    -9.8810     0.3510 N.4   1 <1>  -0.9590 
 19 C       -7.4400    -7.5150     0.0110 C.3   1 <1>  -0.1060 
 20 C       -8.0950   -10.4010     0.2340 C.3   1 <1>   0.3430 
 21 C       -5.7000   -10.9730     0.2040 C.3   1 <1>   0.2630 
 22 C       -6.9230    -7.1260     1.4120 C.2   1 <1>   0.9060 
 23 C       -8.9130    -7.9990     0.0330 C.3   1 <1>  -0.1600 
 24 C       -9.0830    -9.3500     0.7420 C.3   1 <1>  -0.1600 
 25 O       -6.4270    -6.0090     1.5700 O.co2 1 <1>  -0.9000 
 26 O       -6.7210    -8.0270     2.2310 O.co2 1 <1>  -0.9000 
 27 H       -4.3990    -4.3600     1.3220 H     1 <1>   0.1500 
 28 H       -2.6270    -1.8910    -2.6020 H     1 <1>   0.1500 
 29 H       -2.6300    -4.3580    -2.6140 H     1 <1>   0.1500 
 30 H       -2.9090    -6.4260     0.1420 H     1 <1>   0.0800 
 31 H       -3.0730    -6.4130    -1.6000 H     1 <1>   0.0800 
 32 H       -5.2220    -6.1960     0.3830 H     1 <1>   0.4500 
 33 H       -4.4410    -8.5570    -1.1990 H     1 <1>   0.0800 
 34 H       -4.5800    -8.3630     0.5340 H     1 <1>   0.0800 
 35 H       -5.7890    -4.9070    -1.4880 H     1 <1>   0.0800 
 36 H       -5.7310    -6.3490    -2.4710 H     1 <1>   0.0800 
 37 H       -6.7160    -8.8510    -1.4870 H     1 <1>   0.0800 
 38 H       -7.7570    -5.4500    -0.5630 H     1 <1>   0.0800 
 39 H       -7.9030    -6.5330    -1.8900 H     1 <1>   0.0800 
 40 H       -6.6580    -9.5060     1.3410 H     1 <1>   0.4500 
 41 H       -8.3140   -10.6420    -0.7930 H     1 <1>   0.0800 
 42 H       -8.2040   -11.2950     0.8260 H     1 <1>   0.0800 
 43 H       -5.7020   -11.3540    -0.8050 H     1 <1>   0.0800 
 44 H       -5.9360   -11.7820     0.8770 H     1 <1>   0.0800 
 45 H       -4.7140   -10.6150     0.4470 H     1 <1>   0.0800 
 46 H       -9.5270    -7.2610     0.5240 H     1 <1>   0.0800 
 47 H       -9.2810    -8.1050    -0.9740 H     1 <1>   0.0800 
 48 H      -10.0870    -9.7080     0.5900 H     1 <1>   0.0800 
 49 H       -8.9530    -9.2270     1.8040 H     1 <1>   0.0800 
@<TRIPOS>BOND
  1   1   2  1   
  2   2   3  1   
  3   2   4  1   
  4   2   5  1   
  5   4   6  1   
  6   5   7  1   
  7   6   7  ar  
  8   6   8  ar  
  9   7   9  ar  
 10   8  10  ar  
 11   8  27  1   
 12   9  11  ar  
 13   9  28  1   
 14  10  11  ar  
 15  10  12  1   
 16  11  29  1   
 17  12  13  1   
 18  12  30  1   
 19  12  31  1   
 20  13  14  1   
 21  13  15  1   
 22  13  32  1   
 23  14  16  1   
 24  14  33  1   
 25  14  34  1   
 26  15  17  1   
 27  15  35  1   
 28  15  36  1   
 29  16  18  1   
 30  16  19  1   
 31  16  37  1   
 32  17  19  1   
 33  17  38  1   
 34  17  39  1   
 35  18  20  1   
 36  18  21  1   
 37  18  40  1   
 38  19  22  1   
 39  19  23  1   
 40  20  24  1   
 41  20  41  1   
 42  20  42  1   
 43  21  43  1   
 44  21  44  1   
 45  21  45  1   
 46  22  25  ar  
 47  22  26  ar  
 48  23  24  1   
 49  23  46  1   
 50  23  47  1   
 51  24  48  1   
 52  24  49  1   
@<TRIPOS>SUBSTRUCTURE
  1 ****  13 GROUP 4 **** **** 0

# MOE 2024.06 (io_trps.svl 2023.06)
