@<TRIPOS>MOLECULE
NONAME
42 44 1 0 0 
SMALL
USER_CHARGES


@<TRIPOS>ATOM
  1 O        1.0690    -1.3430     0.9170 O.co2 1 <1>  -0.9000 
  2 C        2.1210    -1.4580     0.2550 C.2   1 <1>   0.9790 
  3 O        2.1850    -2.4280    -0.5330 O.co2 1 <1>  -0.9000 
  4 C        3.2520    -0.5250     0.3650 C.ar  1 <1>   0.1310 
  5 N        3.2300     0.5800     1.1490 N.ar  1 <1>  -0.6200 
  6 C        4.3920    -0.8210    -0.3890 C.ar  1 <1>   0.1600 
  7 C        4.3390     1.2820     1.0990 C.ar  1 <1>   0.1600 
  8 N        5.5080    -0.1100    -0.4400 N.ar  1 <1>  -0.6200 
  9 C        5.4670     0.9760     0.3210 C.ar  1 <1>   0.4100 
 10 N        6.5940     1.7930     0.3130 N.pl3 1 <1>  -0.8380 
 11 C        6.4820     3.2740     0.4200 C.3   1 <1>   0.2090 
 12 C        7.7960     1.4410    -0.4790 C.3   1 <1>   0.2090 
 13 C        7.5650     3.8350    -0.5040 C.3   1 <1>   0.0640 
 14 C        8.6160     2.7220    -0.5170 C.3   1 <1>  -0.1600 
 15 C        8.0270     5.2460    -0.1050 C.ar  1 <1>  -0.1430 
 16 C        7.1180     6.3030    -0.1620 C.ar  1 <1>   0.0830 
 17 C        9.3290     5.5130     0.3020 C.ar  1 <1>  -0.1500 
 18 O        5.8510     6.0420    -0.5820 O.3   1 <1>  -0.3630 
 19 C        7.4930     7.5980     0.2180 C.ar  1 <1>   0.0830 
 20 C        9.7130     6.7930     0.6610 C.ar  1 <1>  -0.1500 
 21 C        5.4680     6.5840    -1.8260 C.3   1 <1>   0.0400 
 22 O        6.5550     8.5900     0.1880 O.3   1 <1>  -0.3630 
 23 C        8.8020     7.8320     0.6230 C.ar  1 <1>  -0.1500 
 24 C        6.8130     9.8700     0.7190 C.3   1 <1>   0.0400 
 25 H        4.3720    -1.7120    -0.9930 H     1 <1>   0.1500 
 26 H        4.3830     2.1610     1.7100 H     1 <1>   0.1500 
 27 H        6.6740     3.5710     1.4360 H     1 <1>   0.0800 
 28 H        5.5060     3.6150     0.1200 H     1 <1>   0.0800 
 29 H        7.5010     1.1550    -1.4750 H     1 <1>   0.0800 
 30 H        8.3310     0.6300    -0.0150 H     1 <1>   0.0800 
 31 H        7.1400     3.8920    -1.4910 H     1 <1>   0.0800 
 32 H        9.2540     2.7660    -1.3810 H     1 <1>   0.0800 
 33 H        9.2120     2.7450     0.3770 H     1 <1>   0.0800 
 34 H       10.0720     4.7400     0.3480 H     1 <1>   0.1500 
 35 H       10.7260     6.9800     0.9720 H     1 <1>   0.1500 
 36 H        4.5360     6.1350    -2.1150 H     1 <1>   0.0800 
 37 H        6.2280     6.3610    -2.5540 H     1 <1>   0.0800 
 38 H        5.3440     7.6470    -1.7280 H     1 <1>   0.0800 
 39 H        9.1350     8.8100     0.9120 H     1 <1>   0.1500 
 40 H        5.9090    10.4480     0.6480 H     1 <1>   0.0800 
 41 H        7.5910    10.3380     0.1430 H     1 <1>   0.0800 
 42 H        7.1010     9.7690     1.7510 H     1 <1>   0.0800 
@<TRIPOS>BOND
  1   1   2  ar  
  2   2   3  ar  
  3   2   4  1   
  4   4   5  ar  
  5   4   6  ar  
  6   5   7  ar  
  7   6   8  ar  
  8   6  25  1   
  9   7   9  ar  
 10   7  26  1   
 11   8   9  ar  
 12   9  10  1   
 13  10  11  1   
 14  10  12  1   
 15  11  13  1   
 16  11  27  1   
 17  11  28  1   
 18  12  14  1   
 19  12  29  1   
 20  12  30  1   
 21  13  14  1   
 22  13  15  1   
 23  13  31  1   
 24  14  32  1   
 25  14  33  1   
 26  15  16  ar  
 27  15  17  ar  
 28  16  18  1   
 29  16  19  ar  
 30  17  20  ar  
 31  17  34  1   
 32  18  21  1   
 33  19  22  1   
 34  19  23  ar  
 35  20  23  ar  
 36  20  35  1   
 37  21  36  1   
 38  21  37  1   
 39  21  38  1   
 40  22  24  1   
 41  23  39  1   
 42  24  40  1   
 43  24  41  1   
 44  24  42  1   
@<TRIPOS>SUBSTRUCTURE
  1 ****  11 GROUP 4 **** **** 0

# MOE 2024.06 (io_trps.svl 2023.06)
