@<TRIPOS>MOLECULE
NONAME
57 59 1 0 0 
SMALL
USER_CHARGES


@<TRIPOS>ATOM
  1 O       -0.8870     0.5570    -1.7470 O.2   1 <1>  -0.5700 
  2 C       -0.6430     1.5750    -1.1410 C.2   1 <1>   0.5690 
  3 N       -1.5900     2.2440    -0.4100 N.am  1 <1>  -0.6600 
  4 C        0.7840     2.1160    -1.2290 C.3   1 <1>   0.1810 
  5 C       -1.2480     3.5650     0.2440 C.3   1 <1>   0.3640 
  6 C       -2.8820     1.5590    -0.0820 C.3   1 <1>   0.2200 
  7 O        1.1070     2.9830    -0.1720 O.3   1 <1>  -0.5600 
  8 C       -2.2040     4.6670    -0.2170 C.ar  1 <1>  -0.1440 
  9 C        0.1980     4.0570    -0.0340 C.3   1 <1>   0.2610 
 10 C       -4.0070     2.0390    -0.9960 C.3   1 <1>  -0.2400 
 11 C       -3.2650     1.7050     1.3920 C.3   1 <1>  -0.2400 
 12 C       -2.4670     4.8740    -1.5650 C.ar  1 <1>  -0.1500 
 13 C       -2.8030     5.4980     0.7200 C.ar  1 <1>  -0.1500 
 14 C        0.6830     5.0620     1.0290 C.2   1 <1>   0.5690 
 15 C       -3.3170     5.8890    -1.9690 C.ar  1 <1>  -0.1500 
 16 C       -3.6540     6.5130     0.3180 C.ar  1 <1>  -0.1500 
 17 O        0.1250     5.0860     2.1060 O.2   1 <1>  -0.5700 
 18 N        1.7160     5.9340     0.7560 N.am  1 <1>  -0.6600 
 19 C       -3.9120     6.7090    -1.0270 C.ar  1 <1>  -0.1500 
 20 C        2.0620     7.0390     1.6930 C.3   1 <1>   0.1400 
 21 C        2.5980     5.8640    -0.4400 C.3   1 <1>   0.1400 
 22 C        1.9820     8.3750     0.9460 C.3   1 <1>  -0.1600 
 23 C        2.5340     7.1950    -1.2000 C.3   1 <1>  -0.1600 
 24 C        2.8800     8.4130    -0.3130 C.3   1 <1>   0.0000 
 25 C        4.3850     8.3700     0.0590 C.3   1 <1>   0.1200 
 26 C        2.5740     9.6970    -1.1090 C.3   1 <1>  -0.2400 
 27 O        4.7330     9.4450     0.8630 O.3   1 <1>  -0.6800 
 28 H        0.9150     2.6400    -2.1580 H     1 <1>   0.0800 
 29 H        1.4750     1.2930    -1.1950 H     1 <1>   0.0800 
 30 H       -1.3490     3.4310     1.3050 H     1 <1>   0.0800 
 31 H       -2.7560     0.5040    -0.2630 H     1 <1>   0.0800 
 32 H        0.1880     4.5790    -0.9720 H     1 <1>   0.0800 
 33 H       -4.3040     3.0420    -0.7560 H     1 <1>   0.0800 
 34 H       -4.8640     1.4030    -0.8760 H     1 <1>   0.0800 
 35 H       -3.6930     1.9890    -2.0230 H     1 <1>   0.0800 
 36 H       -3.5340     2.7190     1.6270 H     1 <1>   0.0800 
 37 H       -2.4530     1.3860     2.0210 H     1 <1>   0.0800 
 38 H       -4.1150     1.0820     1.6030 H     1 <1>   0.0800 
 39 H       -2.0180     4.2380    -2.3080 H     1 <1>   0.1500 
 40 H       -2.6040     5.3630     1.7700 H     1 <1>   0.1500 
 41 H       -3.5190     6.0390    -3.0150 H     1 <1>   0.1500 
 42 H       -4.1130     7.1500     1.0530 H     1 <1>   0.1500 
 43 H       -4.5740     7.4980    -1.3390 H     1 <1>   0.1500 
 44 H        1.3820     7.0610     2.5280 H     1 <1>   0.0800 
 45 H        3.0530     6.8820     2.0820 H     1 <1>   0.0800 
 46 H        3.6040     5.6630    -0.1160 H     1 <1>   0.0800 
 47 H        2.3110     5.0620    -1.0960 H     1 <1>   0.0800 
 48 H        0.9560     8.5350     0.6670 H     1 <1>   0.0800 
 49 H        2.2530     9.1660     1.6220 H     1 <1>   0.0800 
 50 H        3.2040     7.1530    -2.0400 H     1 <1>   0.0800 
 51 H        1.5370     7.3030    -1.5900 H     1 <1>   0.0800 
 52 H        4.9940     8.4120    -0.8270 H     1 <1>   0.0800 
 53 H        4.6340     7.4750     0.6010 H     1 <1>   0.0800 
 54 H        1.5490     9.7040    -1.4350 H     1 <1>   0.0800 
 55 H        3.2050     9.7630    -1.9780 H     1 <1>   0.0800 
 56 H        2.7300    10.5720    -0.5040 H     1 <1>   0.0800 
 57 H        4.4890    10.2820     0.4250 H     1 <1>   0.4000 
@<TRIPOS>BOND
  1   1   2  2   
  2   2   3  am  
  3   2   4  1   
  4   3   5  1   
  5   3   6  1   
  6   4   7  1   
  7   4  28  1   
  8   4  29  1   
  9   5   8  1   
 10   5   9  1   
 11   5  30  1   
 12   6  10  1   
 13   6  11  1   
 14   6  31  1   
 15   7   9  1   
 16   8  12  ar  
 17   8  13  ar  
 18   9  14  1   
 19   9  32  1   
 20  10  33  1   
 21  10  34  1   
 22  10  35  1   
 23  11  36  1   
 24  11  37  1   
 25  11  38  1   
 26  12  15  ar  
 27  12  39  1   
 28  13  16  ar  
 29  13  40  1   
 30  14  17  2   
 31  14  18  am  
 32  15  19  ar  
 33  15  41  1   
 34  16  19  ar  
 35  16  42  1   
 36  18  20  1   
 37  18  21  1   
 38  19  43  1   
 39  20  22  1   
 40  20  44  1   
 41  20  45  1   
 42  21  23  1   
 43  21  46  1   
 44  21  47  1   
 45  22  24  1   
 46  22  48  1   
 47  22  49  1   
 48  23  24  1   
 49  23  50  1   
 50  23  51  1   
 51  24  25  1   
 52  24  26  1   
 53  25  27  1   
 54  25  52  1   
 55  25  53  1   
 56  26  54  1   
 57  26  55  1   
 58  26  56  1   
 59  27  57  1   
@<TRIPOS>SUBSTRUCTURE
  1 ****   9 GROUP 4 **** **** 0

# MOE 2024.06 (io_trps.svl 2023.06)
