@<TRIPOS>MOLECULE
NONAME
51 54 1 0 0 
SMALL
USER_CHARGES


@<TRIPOS>ATOM
  1 O       -0.6230    -0.5500     1.7820 O.3   1 <1>  -0.0190 
  2 N        0.4260     0.2100     1.8710 N.2   1 <1>  -0.4100 
  3 C       -0.2410    -1.5330     1.0040 C.2   1 <1>   0.2980 
  4 C        1.3430    -0.3370     1.1780 C.2   1 <1>   0.3350 
  5 N        0.9680    -1.4690     0.6010 N.2   1 <1>  -0.5650 
  6 C       -1.2280    -2.6540     0.6820 C.3   1 <1>   0.2900 
  7 C        2.7450     0.2150     0.9980 C.3   1 <1>   0.0210 
  8 N       -2.2950    -2.2640    -0.2730 N.3   1 <1>  -0.8100 
  9 C        3.7910    -0.6110     1.7590 C.3   1 <1>  -0.2400 
 10 C       -3.3470    -1.4390     0.3710 C.3   1 <1>   0.1100 
 11 C       -2.8830    -3.4420    -0.9260 C.3   1 <1>   0.1100 
 12 C       -4.3690    -0.9180    -0.6580 C.3   1 <1>   0.1430 
 13 C       -3.8740    -3.0060    -2.0120 C.3   1 <1>  -0.1600 
 14 C       -5.4190    -0.1020     0.0730 C.ar  1 <1>   0.1670 
 15 C       -4.9760    -2.1050    -1.4340 C.3   1 <1>  -0.1600 
 16 C       -3.7250     0.1340    -1.6000 C.3   1 <1>  -0.1600 
 17 N       -6.3800    -0.5890     0.8190 N.ar  1 <1>  -0.6200 
 18 C       -5.2370     1.2340    -0.1240 C.ar  1 <1>  -0.1430 
 19 C       -4.0500     1.5170    -1.0100 C.3   1 <1>  -0.0170 
 20 C       -7.1870     0.3190     1.3730 C.ar  1 <1>   0.7200 
 21 C       -6.1130     2.0930     0.4890 C.ar  1 <1>   0.1600 
 22 N       -7.0930     1.6470     1.2390 N.ar  1 <1>  -0.6200 
 23 N       -8.2170    -0.1600     2.1590 N.pl3 1 <1>  -0.8380 
 24 C       -8.9900     0.7260     3.0730 C.3   1 <1>   0.1290 
 25 C       -8.6600    -1.5800     2.1040 C.3   1 <1>   0.1290 
 26 H       -1.6660    -3.0180     1.5950 H     1 <1>   0.0800 
 27 H       -0.6540    -3.4560     0.2520 H     1 <1>   0.0800 
 28 H        2.7670     1.2310     1.3490 H     1 <1>   0.0800 
 29 H        2.9800     0.2200    -0.0510 H     1 <1>   0.0800 
 30 H        3.5630    -0.6160     2.8100 H     1 <1>   0.0800 
 31 H        4.7710    -0.1910     1.6170 H     1 <1>   0.0800 
 32 H        3.7920    -1.6250     1.4010 H     1 <1>   0.0800 
 33 H       -2.9050    -0.5920     0.8630 H     1 <1>   0.0800 
 34 H       -3.8630    -2.0220     1.1150 H     1 <1>   0.0800 
 35 H       -3.3870    -4.0540    -0.1950 H     1 <1>   0.0800 
 36 H       -2.1040    -4.0290    -1.3840 H     1 <1>   0.0800 
 37 H       -4.3200    -3.8780    -2.4570 H     1 <1>   0.0800 
 38 H       -3.3350    -2.4840    -2.7830 H     1 <1>   0.0800 
 39 H       -5.6220    -1.7490    -2.2170 H     1 <1>   0.0800 
 40 H       -5.5790    -2.6870    -0.7590 H     1 <1>   0.0800 
 41 H       -4.1780     0.0690    -2.5730 H     1 <1>   0.0800 
 42 H       -2.6640    -0.0110    -1.7120 H     1 <1>   0.0800 
 43 H       -4.2840     2.2310    -1.7800 H     1 <1>   0.0800 
 44 H       -3.2290     1.8750    -0.4120 H     1 <1>   0.0800 
 45 H       -6.0090     3.1560     0.3640 H     1 <1>   0.1500 
 46 H       -8.3770     1.5420     3.4150 H     1 <1>   0.0800 
 47 H       -9.3230     0.1710     3.9320 H     1 <1>   0.0800 
 48 H       -9.8420     1.1240     2.5510 H     1 <1>   0.0800 
 49 H       -8.4390    -2.0080     1.1420 H     1 <1>   0.0800 
 50 H       -9.7220    -1.6430     2.2650 H     1 <1>   0.0800 
 51 H       -8.1490    -2.1440     2.8640 H     1 <1>   0.0800 
@<TRIPOS>BOND
  1   1   2  1   
  2   1   3  1   
  3   2   4  2   
  4   3   5  2   
  5   3   6  1   
  6   4   5  1   
  7   4   7  1   
  8   6   8  1   
  9   6  26  1   
 10   6  27  1   
 11   7   9  1   
 12   7  28  1   
 13   7  29  1   
 14   8  10  1   
 15   8  11  1   
 16   9  30  1   
 17   9  31  1   
 18   9  32  1   
 19  10  12  1   
 20  10  33  1   
 21  10  34  1   
 22  11  13  1   
 23  11  35  1   
 24  11  36  1   
 25  12  14  1   
 26  12  15  1   
 27  12  16  1   
 28  13  15  1   
 29  13  37  1   
 30  13  38  1   
 31  14  17  ar  
 32  14  18  ar  
 33  15  39  1   
 34  15  40  1   
 35  16  19  1   
 36  16  41  1   
 37  16  42  1   
 38  17  20  ar  
 39  18  19  1   
 40  18  21  ar  
 41  19  43  1   
 42  19  44  1   
 43  20  22  ar  
 44  20  23  1   
 45  21  22  ar  
 46  21  45  1   
 47  23  24  1   
 48  23  25  1   
 49  24  46  1   
 50  24  47  1   
 51  24  48  1   
 52  25  49  1   
 53  25  50  1   
 54  25  51  1   
@<TRIPOS>SUBSTRUCTURE
  1 ****  10 GROUP 4 **** **** 0

# MOE 2024.06 (io_trps.svl 2023.06)
