@<TRIPOS>MOLECULE
NONAME
46 49 1 0 0 
SMALL
USER_CHARGES


@<TRIPOS>ATOM
  1 O        3.2340     0.0870     0.8010 O.2   1 <1>  -0.5700 
  2 C        2.9500     1.1020     0.2170 C.2   1 <1>   0.5690 
  3 N        3.5670     1.4070    -0.9530 N.am  1 <1>  -0.7300 
  4 C        1.8860     2.0400     0.8010 C.3   1 <1>   0.2010 
  5 C        3.3560     2.6610    -1.7240 C.3   1 <1>   0.1400 
  6 N        1.8390     3.3880     0.1260 N.am  1 <1>  -0.6600 
  7 C        2.0180     3.3310    -1.3570 C.3   1 <1>   0.1400 
  8 C        1.7660     4.5550     0.8530 C.2   1 <1>   0.7160 
  9 O        1.5840     4.4890     2.0550 O.2   1 <1>  -0.5700 
 10 C        1.9720     5.8240     0.2340 C.2   1 <1>  -0.0860 
 11 C        0.9920     6.7670    -0.0760 C.2   1 <1>   0.3720 
 12 C        3.1130     6.3750    -0.2540 C.2   1 <1>   0.0870 
 13 N        1.5030     7.7770    -0.6910 N.2   1 <1>  -0.4100 
 14 N       -0.3700     6.6240     0.2040 N.pl3 1 <1>  -0.8210 
 15 O        2.7820     7.5250    -0.7830 O.3   1 <1>  -0.0190 
 16 C        4.4710     5.8950    -0.2990 C.ar  1 <1>   0.0530 
 17 C       -0.7240     6.8500     1.6380 C.3   1 <1>   0.2090 
 18 C       -1.2980     7.3970    -0.6770 C.3   1 <1>   0.2090 
 19 C        5.3290     6.2760    -1.3320 C.ar  1 <1>  -0.1500 
 20 C        4.9750     5.0200     0.6640 C.ar  1 <1>  -0.1500 
 21 C       -2.2130     6.5530     1.8850 C.3   1 <1>   0.1200 
 22 C       -2.7650     7.0770    -0.3360 C.3   1 <1>   0.1200 
 23 C        6.6220     5.7920    -1.4110 C.ar  1 <1>  -0.1500 
 24 C        6.2650     4.5290     0.5880 C.ar  1 <1>  -0.1500 
 25 O       -3.0250     7.3040     1.0230 O.3   1 <1>  -0.5600 
 26 C        7.0910     4.9130    -0.4530 C.ar  1 <1>  -0.1500 
 27 H        4.3060     0.7720    -1.2620 H     1 <1>   0.3700 
 28 H        2.0900     2.1520     1.8510 H     1 <1>   0.0800 
 29 H        0.9280     1.5660     0.7010 H     1 <1>   0.0800 
 30 H        3.3660     2.4400    -2.7770 H     1 <1>   0.0800 
 31 H        4.1670     3.3390    -1.5190 H     1 <1>   0.0800 
 32 H        1.2120     2.7560    -1.7800 H     1 <1>   0.0800 
 33 H        1.9750     4.3120    -1.7950 H     1 <1>   0.0800 
 34 H       -0.5160     7.8720     1.9050 H     1 <1>   0.0800 
 35 H       -0.1320     6.2170     2.2720 H     1 <1>   0.0800 
 36 H       -1.1060     7.1450    -1.7060 H     1 <1>   0.0800 
 37 H       -1.1270     8.4520    -0.5530 H     1 <1>   0.0800 
 38 H        4.9770     6.9610    -2.0840 H     1 <1>   0.1500 
 39 H        4.3560     4.7170     1.4910 H     1 <1>   0.1500 
 40 H       -2.4800     6.8100     2.8940 H     1 <1>   0.0800 
 41 H       -2.4160     5.5080     1.7270 H     1 <1>   0.0800 
 42 H       -2.9860     6.0490    -0.5600 H     1 <1>   0.0800 
 43 H       -3.4240     7.7070    -0.9050 H     1 <1>   0.0800 
 44 H        7.2650     6.1000    -2.2180 H     1 <1>   0.1500 
 45 H        6.6280     3.8500     1.3400 H     1 <1>   0.1500 
 46 H        8.0970     4.5330    -0.5120 H     1 <1>   0.1500 
@<TRIPOS>BOND
  1   1   2  2   
  2   2   3  am  
  3   2   4  1   
  4   3   5  1   
  5   3  27  1   
  6   4   6  1   
  7   4  28  1   
  8   4  29  1   
  9   5   7  1   
 10   5  30  1   
 11   5  31  1   
 12   6   7  1   
 13   6   8  am  
 14   7  32  1   
 15   7  33  1   
 16   8   9  2   
 17   8  10  1   
 18  10  11  1   
 19  10  12  2   
 20  11  13  2   
 21  11  14  1   
 22  12  15  1   
 23  12  16  1   
 24  13  15  1   
 25  14  17  1   
 26  14  18  1   
 27  16  19  ar  
 28  16  20  ar  
 29  17  21  1   
 30  17  34  1   
 31  17  35  1   
 32  18  22  1   
 33  18  36  1   
 34  18  37  1   
 35  19  23  ar  
 36  19  38  1   
 37  20  24  ar  
 38  20  39  1   
 39  21  25  1   
 40  21  40  1   
 41  21  41  1   
 42  22  25  1   
 43  22  42  1   
 44  22  43  1   
 45  23  26  ar  
 46  23  44  1   
 47  24  26  ar  
 48  24  45  1   
 49  26  46  1   
@<TRIPOS>SUBSTRUCTURE
  1 ****  10 GROUP 4 **** **** 0

# MOE 2024.06 (io_trps.svl 2023.06)
