@<TRIPOS>MOLECULE
NONAME
53 55 1 0 0 
SMALL
USER_CHARGES


@<TRIPOS>ATOM
  1 O        1.3020     0.5210     0.8820 O.2   1 <1>  -0.5700 
  2 C        2.2710    -0.1900     0.6910 C.2   1 <1>   0.7160 
  3 N        3.5250     0.3450     0.9600 N.am  1 <1>  -0.6600 
  4 C        2.0780    -1.5270     0.1460 C.2   1 <1>   0.2030 
  5 C        4.7800    -0.4630     1.0540 C.3   1 <1>   0.1400 
  6 C        3.7260     1.8090     1.1160 C.3   1 <1>   0.1400 
  7 N        2.9390    -2.2380    -0.5260 N.2   1 <1>  -0.4100 
  8 C        0.9000    -2.2540     0.2350 C.2   1 <1>  -0.1500 
  9 C        5.5760    -0.4700    -0.2690 C.3   1 <1>   0.3430 
 10 C        3.9430     2.4600    -0.2560 C.3   1 <1>  -0.1600 
 11 O        2.4120    -3.3860    -0.8740 O.3   1 <1>  -0.0190 
 12 C        1.1800    -3.3870    -0.4130 C.2   1 <1>  -0.0400 
 13 N        5.7990     0.9000    -0.8390 N.4   1 <1>  -0.9590 
 14 C        4.5560     1.5560    -1.3310 C.3   1 <1>   0.3430 
 15 C        0.3080    -4.5980    -0.6710 C.3   1 <1>  -0.0600 
 16 C        6.8610     0.9200    -1.8760 C.3   1 <1>   0.5240 
 17 C        7.4690     2.3150    -1.8410 C.2   1 <1>   0.0460 
 18 N        7.6350     2.9440    -0.6550 N.2   1 <1>  -0.5650 
 19 C        7.8890     3.0960    -2.8610 C.2   1 <1>  -0.3020 
 20 C        8.1620     4.0820    -0.9760 C.2   1 <1>   0.0060 
 21 N        8.3420     4.2360    -2.3060 N.pl3 1 <1>   0.0330 
 22 C        8.5510     5.1540     0.0280 C.3   1 <1>   0.0200 
 23 C       10.0760     5.2810     0.1430 C.3   1 <1>  -0.1600 
 24 C       10.4760     6.3480     1.1710 C.3   1 <1>  -0.1600 
 25 C       11.9990     6.4650     1.2760 C.3   1 <1>  -0.2400 
 26 H        4.5450    -1.4760     1.3320 H     1 <1>   0.0800 
 27 H        5.4010    -0.0680     1.8380 H     1 <1>   0.0800 
 28 H        4.5810     1.9900     1.7450 H     1 <1>   0.0800 
 29 H        2.8740     2.2550     1.6030 H     1 <1>   0.0800 
 30 H       -0.0030    -1.9320     0.7230 H     1 <1>   0.1500 
 31 H        5.0490    -1.0760    -0.9870 H     1 <1>   0.0800 
 32 H        6.5260    -0.9420    -0.0830 H     1 <1>   0.0800 
 33 H        4.5460     3.3420    -0.1380 H     1 <1>   0.0800 
 34 H        2.9850     2.7910    -0.6170 H     1 <1>   0.0800 
 35 H        6.2050     1.5340    -0.1270 H     1 <1>   0.4500 
 36 H        4.7750     2.1620    -2.1960 H     1 <1>   0.0800 
 37 H        3.8400     0.8040    -1.6210 H     1 <1>   0.0800 
 38 H       -0.6660    -4.4550    -0.2390 H     1 <1>   0.0800 
 39 H        0.7580    -5.4720    -0.2350 H     1 <1>   0.0800 
 40 H        0.2000    -4.7530    -1.7290 H     1 <1>   0.0800 
 41 H        6.4660     0.6930    -2.8510 H     1 <1>   0.0800 
 42 H        7.6310     0.2090    -1.6290 H     1 <1>   0.0800 
 43 H        7.9020     2.9190    -3.9220 H     1 <1>   0.1500 
 44 H        8.7490     5.0500    -2.7790 H     1 <1>   0.2700 
 45 H        8.1420     4.8960     0.9900 H     1 <1>   0.0800 
 46 H        8.1230     6.0950    -0.2700 H     1 <1>   0.0800 
 47 H       10.4910     5.5370    -0.8160 H     1 <1>   0.0800 
 48 H       10.4840     4.3290     0.4380 H     1 <1>   0.0800 
 49 H       10.0750     6.0900     2.1370 H     1 <1>   0.0800 
 50 H       10.0680     7.3030     0.8850 H     1 <1>   0.0800 
 51 H       12.4280     5.5270     1.5840 H     1 <1>   0.0800 
 52 H       12.2610     7.2140     2.0030 H     1 <1>   0.0800 
 53 H       12.4230     6.7460     0.3290 H     1 <1>   0.0800 
@<TRIPOS>BOND
  1   1   2  2   
  2   2   3  am  
  3   2   4  1   
  4   3   5  1   
  5   3   6  1   
  6   4   7  2   
  7   4   8  1   
  8   5   9  1   
  9   5  26  1   
 10   5  27  1   
 11   6  10  1   
 12   6  28  1   
 13   6  29  1   
 14   7  11  1   
 15   8  12  2   
 16   8  30  1   
 17   9  13  1   
 18   9  31  1   
 19   9  32  1   
 20  10  14  1   
 21  10  33  1   
 22  10  34  1   
 23  11  12  1   
 24  12  15  1   
 25  13  14  1   
 26  13  16  1   
 27  13  35  1   
 28  14  36  1   
 29  14  37  1   
 30  15  38  1   
 31  15  39  1   
 32  15  40  1   
 33  16  17  1   
 34  16  41  1   
 35  16  42  1   
 36  17  18  1   
 37  17  19  2   
 38  18  20  2   
 39  19  21  1   
 40  19  43  1   
 41  20  21  1   
 42  20  22  1   
 43  21  44  1   
 44  22  23  1   
 45  22  45  1   
 46  22  46  1   
 47  23  24  1   
 48  23  47  1   
 49  23  48  1   
 50  24  25  1   
 51  24  49  1   
 52  24  50  1   
 53  25  51  1   
 54  25  52  1   
 55  25  53  1   
@<TRIPOS>SUBSTRUCTURE
  1 ****  13 GROUP 4 **** **** 0

# MOE 2024.06 (io_trps.svl 2023.06)
