@<TRIPOS>MOLECULE
NONAME
54 56 1 0 0 
SMALL
USER_CHARGES


@<TRIPOS>ATOM
  1 O       -2.5480    -2.7120     1.8000 O.co2 1 <1>  -0.9000 
  2 C       -3.4870    -2.1660     1.2100 C.2   1 <1>   0.9790 
  3 O       -4.6360    -2.6350     1.3870 O.co2 1 <1>  -0.9000 
  4 C       -3.3680    -1.3100     0.0650 C.ar  1 <1>  -0.1790 
  5 C       -3.4330     0.0850     0.0130 C.ar  1 <1>   0.0820 
  6 C       -3.6710    -2.0200    -1.0740 C.ar  1 <1>  -0.1500 
  7 O       -2.9430     0.9110     0.9650 O.3   1 <1>  -0.3630 
  8 C       -4.0980     0.6750    -1.0570 C.ar  1 <1>  -0.1500 
  9 C       -4.5720    -1.4840    -1.9570 C.ar  1 <1>  -0.1430 
 10 C       -2.0830     0.4290     1.9770 C.3   1 <1>   0.0400 
 11 C       -4.7370    -0.1070    -2.0090 C.ar  1 <1>  -0.1500 
 12 C       -5.5090    -2.5070    -2.5520 C.3   1 <1>   0.4870 
 13 N       -6.1070    -3.1340    -1.3110 N.4   1 <1>  -0.9590 
 14 C       -5.6390    -4.5210    -0.9560 C.3   1 <1>   0.3430 
 15 C       -7.5650    -2.9120    -1.1190 C.3   1 <1>   0.3430 
 16 C       -6.2910    -4.9530     0.3840 C.3   1 <1>   0.4230 
 17 C       -8.0590    -3.6000     0.1750 C.3   1 <1>  -0.1600 
 18 N       -5.5430    -5.9420     1.2650 N.4   1 <1>  -0.9590 
 19 C       -7.8520    -5.2070     0.1200 C.3   1 <1>   0.0000 
 20 C       -5.2200    -7.2190     0.6240 C.3   1 <1>   0.3430 
 21 C       -4.3300    -5.3400     1.9280 C.3   1 <1>   0.2630 
 22 C       -7.6770    -6.8110    -0.0190 C.3   1 <1>  -0.1600 
 23 C       -9.4360    -5.3960    -0.0720 C.3   1 <1>   0.1200 
 24 C       -6.3410    -7.5300    -0.3430 C.3   1 <1>  -0.1600 
 25 O      -10.0220    -5.2710     1.1830 O.3   1 <1>  -0.6800 
 26 H       -3.3700    -3.0510    -1.1120 H     1 <1>   0.1500 
 27 H       -4.1580     1.7480    -1.0980 H     1 <1>   0.1500 
 28 H       -1.6250     1.2720     2.4600 H     1 <1>   0.0800 
 29 H       -1.3260    -0.1960     1.5350 H     1 <1>   0.0800 
 30 H       -2.6600    -0.1290     2.6930 H     1 <1>   0.0800 
 31 H       -5.3710     0.3590    -2.7430 H     1 <1>   0.1500 
 32 H       -4.9670    -3.2290    -3.1410 H     1 <1>   0.0800 
 33 H       -6.2630    -2.0260    -3.1530 H     1 <1>   0.0800 
 34 H       -5.6630    -2.5570    -0.5510 H     1 <1>   0.4500 
 35 H       -5.9150    -5.2100    -1.7350 H     1 <1>   0.0800 
 36 H       -4.5710    -4.5290    -0.8340 H     1 <1>   0.0800 
 37 H       -7.7610    -1.8530    -1.0590 H     1 <1>   0.0800 
 38 H       -8.1070    -3.3070    -1.9630 H     1 <1>   0.0800 
 39 H       -6.1760    -4.0750     0.9870 H     1 <1>   0.0800 
 40 H       -7.6210    -3.1180     1.0370 H     1 <1>   0.0800 
 41 H       -9.0610    -3.2180     0.2960 H     1 <1>   0.0800 
 42 H       -6.2020    -6.1470     2.0310 H     1 <1>   0.4500 
 43 H       -4.2800    -7.1580     0.0970 H     1 <1>   0.0800 
 44 H       -5.1450    -7.9920     1.3740 H     1 <1>   0.0800 
 45 H       -3.6360    -4.9540     1.1990 H     1 <1>   0.0800 
 46 H       -3.8210    -6.0700     2.5360 H     1 <1>   0.0800 
 47 H       -4.6180    -4.5190     2.5660 H     1 <1>   0.0800 
 48 H       -8.0750    -7.2700     0.8760 H     1 <1>   0.0800 
 49 H       -8.2380    -7.2020    -0.8530 H     1 <1>   0.0800 
 50 H       -9.8380    -6.3210    -0.4480 H     1 <1>   0.0800 
 51 H       -9.8860    -4.6780    -0.7400 H     1 <1>   0.0800 
 52 H       -6.0210    -7.2850    -1.3410 H     1 <1>   0.0800 
 53 H       -6.4990    -8.5960    -0.3380 H     1 <1>   0.0800 
 54 H      -10.9930    -5.4050     1.1440 H     1 <1>   0.4000 
@<TRIPOS>BOND
  1   1   2  ar  
  2   2   3  ar  
  3   2   4  1   
  4   4   5  ar  
  5   4   6  ar  
  6   5   7  1   
  7   5   8  ar  
  8   6   9  ar  
  9   6  26  1   
 10   7  10  1   
 11   8  11  ar  
 12   8  27  1   
 13   9  11  ar  
 14   9  12  1   
 15  10  28  1   
 16  10  29  1   
 17  10  30  1   
 18  11  31  1   
 19  12  13  1   
 20  12  32  1   
 21  12  33  1   
 22  13  14  1   
 23  13  15  1   
 24  13  34  1   
 25  14  16  1   
 26  14  35  1   
 27  14  36  1   
 28  15  17  1   
 29  15  37  1   
 30  15  38  1   
 31  16  18  1   
 32  16  19  1   
 33  16  39  1   
 34  17  19  1   
 35  17  40  1   
 36  17  41  1   
 37  18  20  1   
 38  18  21  1   
 39  18  42  1   
 40  19  22  1   
 41  19  23  1   
 42  20  24  1   
 43  20  43  1   
 44  20  44  1   
 45  21  45  1   
 46  21  46  1   
 47  21  47  1   
 48  22  24  1   
 49  22  48  1   
 50  22  49  1   
 51  23  25  1   
 52  23  50  1   
 53  23  51  1   
 54  24  52  1   
 55  24  53  1   
 56  25  54  1   
@<TRIPOS>SUBSTRUCTURE
  1 ****  13 GROUP 4 **** **** 0

# MOE 2024.06 (io_trps.svl 2023.06)
