@<TRIPOS>MOLECULE
NONAME
46 48 1 0 0 
SMALL
USER_CHARGES


@<TRIPOS>ATOM
  1 CL      -2.5760     0.6360    -2.2880 Cl    1 <1>  -0.1770 
  2 C       -2.8830    -0.5100    -1.0050 C.ar  1 <1>   0.1770 
  3 C       -3.2010    -0.0610     0.2690 C.ar  1 <1>  -0.1440 
  4 C       -2.8010    -1.8550    -1.3080 C.ar  1 <1>  -0.1500 
  5 C       -3.4220    -1.0320     1.2380 C.ar  1 <1>   0.1770 
  6 C       -3.2910     1.4370     0.5540 C.3   1 <1>  -0.0960 
  7 C       -3.0500    -2.8240    -0.3390 C.ar  1 <1>   0.0860 
  8 CL      -3.8290    -0.5950     2.8810 Cl    1 <1>  -0.1770 
  9 C       -3.3380    -2.3800     0.9490 C.ar  1 <1>  -0.1500 
 10 C       -3.0040    -4.2360    -0.6640 C.2   1 <1>   0.5440 
 11 O       -2.0130    -4.6730    -1.2180 O.2   1 <1>  -0.5700 
 12 N       -4.0260    -5.1120    -0.3490 N.am  1 <1>  -0.6600 
 13 C       -5.4870    -4.8860    -0.5760 C.3   1 <1>   0.2200 
 14 C       -3.6890    -6.5440    -0.1050 C.3   1 <1>   0.0600 
 15 C       -6.2110    -4.3970     0.6720 C.3   1 <1>  -0.1600 
 16 C       -5.8560    -3.8790    -1.6630 C.3   1 <1>  -0.1600 
 17 C       -7.5240    -3.7920     0.1570 C.3   1 <1>  -0.0800 
 18 C       -7.3030    -3.4830    -1.3430 C.3   1 <1>  -0.0800 
 19 C       -7.9950    -2.5930     1.0020 C.3   1 <1>   0.1400 
 20 C       -7.6310    -2.0290    -1.7340 C.3   1 <1>  -0.0990 
 21 N       -9.0500    -1.8450     0.2740 N.am  1 <1>  -0.6600 
 22 C       -8.9040    -1.5620    -1.0560 C.2   1 <1>   0.5690 
 23 C      -10.2280    -1.4010     1.0650 C.3   1 <1>   0.0600 
 24 O       -9.7260    -0.9600    -1.7030 O.2   1 <1>  -0.5700 
 25 H       -2.5450    -2.1620    -2.3070 H     1 <1>   0.1500 
 26 H       -4.0260     1.8880    -0.0890 H     1 <1>   0.0800 
 27 H       -2.3390     1.9010     0.3630 H     1 <1>   0.0800 
 28 H       -3.5650     1.6470     1.5700 H     1 <1>   0.0800 
 29 H       -3.4950    -3.0990     1.7320 H     1 <1>   0.1500 
 30 H       -5.9350    -5.8240    -0.8640 H     1 <1>   0.0800 
 31 H       -4.3050    -6.9400     0.6830 H     1 <1>   0.0800 
 32 H       -2.6560    -6.6410     0.1860 H     1 <1>   0.0800 
 33 H       -3.8470    -7.1120    -1.0050 H     1 <1>   0.0800 
 34 H       -6.3910    -5.2030     1.3610 H     1 <1>   0.0800 
 35 H       -5.6320    -3.6380     1.1570 H     1 <1>   0.0800 
 36 H       -5.2430    -3.0050    -1.6110 H     1 <1>   0.0800 
 37 H       -5.7730    -4.3130    -2.6440 H     1 <1>   0.0800 
 38 H       -8.2880    -4.5500     0.2220 H     1 <1>   0.0800 
 39 H       -7.9620    -4.1280    -1.9010 H     1 <1>   0.0800 
 40 H       -7.1730    -1.9210     1.1880 H     1 <1>   0.0800 
 41 H       -8.3700    -2.9410     1.9490 H     1 <1>   0.0800 
 42 H       -7.7410    -1.9480    -2.8000 H     1 <1>   0.0800 
 43 H       -6.8440    -1.3650    -1.4270 H     1 <1>   0.0800 
 44 H       -9.9060    -0.7700     1.8750 H     1 <1>   0.0800 
 45 H      -10.7440    -2.2570     1.4620 H     1 <1>   0.0800 
 46 H      -10.9110    -0.8440     0.4460 H     1 <1>   0.0800 
@<TRIPOS>BOND
  1   1   2  1   
  2   2   3  ar  
  3   2   4  ar  
  4   3   5  ar  
  5   3   6  1   
  6   4   7  ar  
  7   4  25  1   
  8   5   8  1   
  9   5   9  ar  
 10   6  26  1   
 11   6  27  1   
 12   6  28  1   
 13   7   9  ar  
 14   7  10  1   
 15   9  29  1   
 16  10  11  2   
 17  10  12  am  
 18  12  13  1   
 19  12  14  1   
 20  13  15  1   
 21  13  16  1   
 22  13  30  1   
 23  14  31  1   
 24  14  32  1   
 25  14  33  1   
 26  15  17  1   
 27  15  34  1   
 28  15  35  1   
 29  16  18  1   
 30  16  36  1   
 31  16  37  1   
 32  17  18  1   
 33  17  19  1   
 34  17  38  1   
 35  18  20  1   
 36  18  39  1   
 37  19  21  1   
 38  19  40  1   
 39  19  41  1   
 40  20  22  1   
 41  20  42  1   
 42  20  43  1   
 43  21  22  am  
 44  21  23  1   
 45  22  24  2   
 46  23  44  1   
 47  23  45  1   
 48  23  46  1   
@<TRIPOS>SUBSTRUCTURE
  1 ****  16 GROUP 4 **** **** 0

# MOE 2024.06 (io_trps.svl 2023.06)
