@<TRIPOS>MOLECULE
NONAME
52 55 1 0 0 
SMALL
USER_CHARGES


@<TRIPOS>ATOM
  1 O        0.1690    -1.7550     2.4180 O.2   1 <1>  -0.5700 
  2 C       -0.0730    -2.3710     1.4020 C.2   1 <1>   0.6900 
  3 N       -1.0050    -1.9080     0.5000 N.am  1 <1>  -0.4200 
  4 N        0.5450    -3.5640     1.1610 N.am  1 <1>  -0.5390 
  5 C       -1.4440    -2.7360    -0.5150 C.2   1 <1>   0.6160 
  6 C       -1.4990    -0.5030     0.6180 C.3   1 <1>   0.1400 
  7 C        0.2330    -4.3630     0.0800 C.2   1 <1>  -0.0290 
  8 O       -2.4550    -2.4320    -1.1260 O.2   1 <1>  -0.5700 
  9 C       -0.7530    -3.9600    -0.7510 C.2   1 <1>  -0.1360 
 10 C       -2.7220    -0.4050     1.5460 C.3   1 <1>   0.3430 
 11 C        1.0280    -5.6430    -0.0840 C.3   1 <1>  -0.1020 
 12 N       -3.7870    -1.3750     1.1400 N.4   1 <1>  -0.9590 
 13 C       -5.1130    -0.7160     0.9060 C.3   1 <1>   0.3430 
 14 C       -3.9010    -2.5020     2.1070 C.3   1 <1>   0.3430 
 15 C       -6.1340    -1.7070     0.3200 C.3   1 <1>   0.1430 
 16 C       -4.8680    -3.5530     1.5560 C.3   1 <1>  -0.1600 
 17 C       -7.4690    -1.0130     0.2130 C.ar  1 <1>   0.1670 
 18 C       -6.2470    -2.9540     1.2240 C.3   1 <1>  -0.1600 
 19 C       -5.8330    -2.0840    -1.1560 C.3   1 <1>  -0.1600 
 20 N       -8.0150    -0.2970     1.1690 N.ar  1 <1>  -0.6200 
 21 C       -8.0440    -1.2020    -1.0060 C.ar  1 <1>  -0.1430 
 22 C       -7.1800    -2.0530    -1.9040 C.3   1 <1>  -0.0170 
 23 C       -9.1970     0.2190     0.8500 C.ar  1 <1>   0.4770 
 24 C       -9.2650    -0.6170    -1.2310 C.ar  1 <1>   0.1600 
 25 N       -9.8520     0.1030    -0.2970 N.ar  1 <1>  -0.6200 
 26 C       -9.8810     1.0430     1.9130 C.3   1 <1>  -0.0970 
 27 H        1.2690    -3.8240     1.8370 H     1 <1>   0.3700 
 28 H       -1.7550    -0.1260    -0.3570 H     1 <1>   0.0800 
 29 H       -0.7120     0.1230     1.0040 H     1 <1>   0.0800 
 30 H       -1.0630    -4.5290    -1.6070 H     1 <1>   0.1500 
 31 H       -3.1050     0.6010     1.5090 H     1 <1>   0.0800 
 32 H       -2.4090    -0.5990     2.5590 H     1 <1>   0.0800 
 33 H        0.9000    -6.2740     0.7780 H     1 <1>   0.0800 
 34 H        2.0740    -5.4170    -0.1960 H     1 <1>   0.0800 
 35 H        0.7020    -6.1850    -0.9540 H     1 <1>   0.0800 
 36 H       -3.4930    -1.7880     0.2290 H     1 <1>   0.4500 
 37 H       -5.0050     0.1140     0.2270 H     1 <1>   0.0800 
 38 H       -5.5000    -0.3360     1.8380 H     1 <1>   0.0800 
 39 H       -4.2670    -2.1360     3.0530 H     1 <1>   0.0800 
 40 H       -2.9330    -2.9520     2.2680 H     1 <1>   0.0800 
 41 H       -4.9900    -4.3320     2.2890 H     1 <1>   0.0800 
 42 H       -4.4360    -4.0080     0.6820 H     1 <1>   0.0800 
 43 H       -6.8710    -3.6960     0.7540 H     1 <1>   0.0800 
 44 H       -6.7310    -2.6700     2.1440 H     1 <1>   0.0800 
 45 H       -5.3550    -3.0420    -1.2610 H     1 <1>   0.0800 
 46 H       -5.1920    -1.3400    -1.5980 H     1 <1>   0.0800 
 47 H       -7.6000    -3.0410    -1.9780 H     1 <1>   0.0800 
 48 H       -7.0810    -1.6240    -2.8870 H     1 <1>   0.0800 
 49 H       -9.7670    -0.7350    -2.1770 H     1 <1>   0.1500 
 50 H       -9.4070     0.9000     2.8670 H     1 <1>   0.0800 
 51 H      -10.9110     0.7500     1.9890 H     1 <1>   0.0800 
 52 H       -9.8300     2.0820     1.6450 H     1 <1>   0.0800 
@<TRIPOS>BOND
  1   1   2  2   
  2   2   3  am  
  3   2   4  am  
  4   3   5  am  
  5   3   6  1   
  6   4   7  1   
  7   4  27  1   
  8   5   8  2   
  9   5   9  1   
 10   6  10  1   
 11   6  28  1   
 12   6  29  1   
 13   7   9  2   
 14   7  11  1   
 15   9  30  1   
 16  10  12  1   
 17  10  31  1   
 18  10  32  1   
 19  11  33  1   
 20  11  34  1   
 21  11  35  1   
 22  12  13  1   
 23  12  14  1   
 24  12  36  1   
 25  13  15  1   
 26  13  37  1   
 27  13  38  1   
 28  14  16  1   
 29  14  39  1   
 30  14  40  1   
 31  15  17  1   
 32  15  18  1   
 33  15  19  1   
 34  16  18  1   
 35  16  41  1   
 36  16  42  1   
 37  17  20  ar  
 38  17  21  ar  
 39  18  43  1   
 40  18  44  1   
 41  19  22  1   
 42  19  45  1   
 43  19  46  1   
 44  20  23  ar  
 45  21  22  1   
 46  21  24  ar  
 47  22  47  1   
 48  22  48  1   
 49  23  25  ar  
 50  23  26  1   
 51  24  25  ar  
 52  24  49  1   
 53  26  50  1   
 54  26  51  1   
 55  26  52  1   
@<TRIPOS>SUBSTRUCTURE
  1 ****  12 GROUP 4 **** **** 0

# MOE 2024.06 (io_trps.svl 2023.06)
