@<TRIPOS>MOLECULE
NONAME
42 43 1 0 0 
SMALL
USER_CHARGES


@<TRIPOS>ATOM
  1 N       -0.0680     2.0970     1.6880 N.2   1 <1>  -0.4180 
  2 N       -1.1520     1.4090     1.7850 N.2   1 <1>  -0.2270 
  3 N        0.4630     1.8820     0.4820 N.pl3 1 <1>   0.3140 
  4 C       -1.3180     0.7480     0.6350 C.2   1 <1>   0.0770 
  5 C       -0.3090     1.0350    -0.2000 C.2   1 <1>  -0.3020 
  6 C        1.7040     2.5470     0.0410 C.3   1 <1>   0.0960 
  7 C        1.5400     4.0770     0.0960 C.3   1 <1>  -0.1600 
  8 C        2.8400     4.7960    -0.2460 C.3   1 <1>   0.3430 
  9 N        2.6370     6.2560    -0.0700 N.4   1 <1>  -0.9060 
 10 C        3.8810     7.0390    -0.2980 C.3   1 <1>   0.4230 
 11 C        3.7800     8.4390     0.3270 C.3   1 <1>   0.0960 
 12 C        4.1420     7.1130    -1.8050 C.3   1 <1>  -0.2400 
 13 N        5.1370     8.9780     0.4620 N.pl3 1 <1>   0.3140 
 14 N        6.1060     8.2030     0.9770 N.2   1 <1>  -0.7070 
 15 C        5.6060    10.1960     0.1160 C.2   1 <1>  -0.3320 
 16 C        7.1690     8.9440     0.9560 C.2   1 <1>   0.1080 
 17 C        6.9190    10.2030     0.4260 C.2   1 <1>  -0.1500 
 18 C        4.7910    11.3250    -0.4960 C.3   1 <1>  -0.0600 
 19 C        8.5100     8.4630     1.4600 C.3   1 <1>  -0.0590 
 20 H       -2.1610     0.0990     0.4760 H     1 <1>   0.1500 
 21 H       -0.1100     0.6940    -1.1990 H     1 <1>   0.1500 
 22 H        1.9310     2.2210    -0.9580 H     1 <1>   0.0800 
 23 H        2.4940     2.2280     0.6980 H     1 <1>   0.0800 
 24 H        1.2430     4.3530     1.0940 H     1 <1>   0.0800 
 25 H        0.7670     4.3680    -0.5940 H     1 <1>   0.0800 
 26 H        3.1240     4.5770    -1.2640 H     1 <1>   0.0800 
 27 H        3.6270     4.4560     0.4100 H     1 <1>   0.0800 
 28 H        2.3140     6.4160     0.8940 H     1 <1>   0.4500 
 29 H        1.8970     6.5880    -0.7000 H     1 <1>   0.4500 
 30 H        4.7010     6.5220     0.1800 H     1 <1>   0.0800 
 31 H        3.3650     8.3850     1.3150 H     1 <1>   0.0800 
 32 H        3.1920     9.0980    -0.2830 H     1 <1>   0.0800 
 33 H        3.3400     7.6120    -2.3190 H     1 <1>   0.0800 
 34 H        4.2890     6.1350    -2.2270 H     1 <1>   0.0800 
 35 H        5.0470     7.6690    -1.9850 H     1 <1>   0.0800 
 36 H        7.6390    10.9920     0.3030 H     1 <1>   0.1500 
 37 H        3.9860    11.6050     0.1600 H     1 <1>   0.0800 
 38 H        4.3890    11.0270    -1.4480 H     1 <1>   0.0800 
 39 H        5.4170    12.1870    -0.6500 H     1 <1>   0.0800 
 40 H        8.4230     8.1710     2.4900 H     1 <1>   0.0800 
 41 H        9.2440     9.2420     1.3770 H     1 <1>   0.0800 
 42 H        8.8300     7.6150     0.8820 H     1 <1>   0.0800 
@<TRIPOS>BOND
  1   1   2  2   
  2   1   3  1   
  3   2   4  1   
  4   3   5  1   
  5   3   6  1   
  6   4   5  2   
  7   4  20  1   
  8   5  21  1   
  9   6   7  1   
 10   6  22  1   
 11   6  23  1   
 12   7   8  1   
 13   7  24  1   
 14   7  25  1   
 15   8   9  1   
 16   8  26  1   
 17   8  27  1   
 18   9  10  1   
 19   9  28  1   
 20   9  29  1   
 21  10  11  1   
 22  10  12  1   
 23  10  30  1   
 24  11  13  1   
 25  11  31  1   
 26  11  32  1   
 27  12  33  1   
 28  12  34  1   
 29  12  35  1   
 30  13  14  1   
 31  13  15  1   
 32  14  16  2   
 33  15  17  2   
 34  15  18  1   
 35  16  17  1   
 36  16  19  1   
 37  17  36  1   
 38  18  37  1   
 39  18  38  1   
 40  18  39  1   
 41  19  40  1   
 42  19  41  1   
 43  19  42  1   
@<TRIPOS>SUBSTRUCTURE
  1 ****   9 GROUP 4 **** **** 0

# MOE 2024.06 (io_trps.svl 2023.06)
