@<TRIPOS>MOLECULE
NONAME
43 46 1 0 0 
SMALL
USER_CHARGES


@<TRIPOS>ATOM
  1 O        0.4050    -0.9740     0.8590 O.2   1 <1>  -0.5700 
  2 C        1.4260    -1.1000     0.2060 C.2   1 <1>   0.7800 
  3 O        1.5620    -2.1460    -0.6150 O.3   1 <1>  -0.4300 
  4 N        2.4830    -0.2520     0.3190 N.am  1 <1>  -0.5100 
  5 C        0.4640    -2.9880    -0.9180 C.3   1 <1>   0.1200 
  6 C        2.3250     1.2590     0.2080 C.3   1 <1>   0.1540 
  7 C        3.6160    -0.1860    -0.6610 C.3   1 <1>   0.2250 
  8 C        0.2030    -3.9980     0.2100 C.3   1 <1>   0.2070 
  9 C        1.3590     1.7890    -0.8960 C.2   1 <1>   0.8710 
 10 C        3.8000     1.2950    -0.2620 C.3   1 <1>   0.0000 
 11 C        2.1270     1.8650     1.6070 C.3   1 <1>  -0.2400 
 12 C        1.3150    -5.0340     0.3520 C.ar  1 <1>  -0.1430 
 13 C       -0.9770    -4.9000    -0.1380 C.ar  1 <1>  -0.1430 
 14 O        1.0750     1.0740    -1.8690 O.co2 1 <1>  -0.9000 
 15 O        0.9320     2.9500    -0.8130 O.co2 1 <1>  -0.9000 
 16 C        0.8240    -6.3050     0.1080 C.ar  1 <1>   0.0000 
 17 C        2.6450    -4.8350     0.6770 C.ar  1 <1>  -0.1500 
 18 C       -0.5760    -6.2220    -0.1930 C.ar  1 <1>   0.0000 
 19 C       -2.2890    -4.5380    -0.3780 C.ar  1 <1>  -0.1500 
 20 C        1.6750    -7.4000     0.1850 C.ar  1 <1>  -0.1500 
 21 C        3.4920    -5.9290     0.7540 C.ar  1 <1>  -0.1500 
 22 C       -1.5030    -7.2090    -0.5010 C.ar  1 <1>  -0.1500 
 23 C       -3.2120    -5.5260    -0.6850 C.ar  1 <1>  -0.1500 
 24 C        3.0080    -7.2070     0.5080 C.ar  1 <1>  -0.1500 
 25 C       -2.8200    -6.8560    -0.7460 C.ar  1 <1>  -0.1500 
 26 H        0.6990    -3.5100    -1.8280 H     1 <1>   0.0800 
 27 H       -0.3990    -2.3680    -1.0890 H     1 <1>   0.0800 
 28 H        3.2840    -0.3310    -1.6740 H     1 <1>   0.0000 
 29 H        4.4370    -0.8160    -0.3710 H     1 <1>   0.0000 
 30 H        0.0130    -3.5050     1.1460 H     1 <1>   0.0800 
 31 H        4.5120     1.4220     0.5360 H     1 <1>   0.0000 
 32 H        3.9890     1.9470    -1.0970 H     1 <1>   0.0000 
 33 H        1.1210     1.6740     1.9350 H     1 <1>   0.0800 
 34 H        2.2640     2.9300     1.5570 H     1 <1>   0.0800 
 35 H        2.8210     1.4500     2.3140 H     1 <1>   0.0800 
 36 H        3.0150    -3.8410     0.8660 H     1 <1>   0.1500 
 37 H       -2.5900    -3.5050    -0.3270 H     1 <1>   0.1500 
 38 H        1.2950    -8.3870    -0.0050 H     1 <1>   0.1500 
 39 H        4.5280    -5.7870     1.0050 H     1 <1>   0.1500 
 40 H       -1.1940    -8.2380    -0.5450 H     1 <1>   0.1500 
 41 H       -4.2370    -5.2590    -0.8750 H     1 <1>   0.1500 
 42 H        3.6720    -8.0510     0.5690 H     1 <1>   0.1500 
 43 H       -3.5430    -7.6170    -0.9850 H     1 <1>   0.1500 
@<TRIPOS>BOND
  1   1   2  2   
  2   2   3  1   
  3   2   4  am  
  4   3   5  1   
  5   4   6  1   
  6   4   7  1   
  7   5   8  1   
  8   5  26  1   
  9   5  27  1   
 10   6   9  1   
 11   6  10  1   
 12   6  11  1   
 13   7  10  1   
 14   7  28  1   
 15   7  29  1   
 16   8  12  1   
 17   8  13  1   
 18   8  30  1   
 19   9  14  ar  
 20   9  15  ar  
 21  10  31  1   
 22  10  32  1   
 23  11  33  1   
 24  11  34  1   
 25  11  35  1   
 26  12  16  ar  
 27  12  17  ar  
 28  13  18  ar  
 29  13  19  ar  
 30  16  18  1   
 31  16  20  ar  
 32  17  21  ar  
 33  17  36  1   
 34  18  22  ar  
 35  19  23  ar  
 36  19  37  1   
 37  20  24  ar  
 38  20  38  1   
 39  21  24  ar  
 40  21  39  1   
 41  22  25  ar  
 42  22  40  1   
 43  23  25  ar  
 44  23  41  1   
 45  24  42  1   
 46  25  43  1   
@<TRIPOS>SUBSTRUCTURE
  1 ****   5 GROUP 4 **** **** 0

# MOE 2024.06 (io_trps.svl 2023.06)
