@<TRIPOS>MOLECULE
NONAME
52 54 1 0 0 
SMALL
USER_CHARGES


@<TRIPOS>ATOM
  1 O       -3.0170     2.3840    -2.0410 O.2   1 <1>  -0.5700 
  2 C       -2.7520     1.5540    -1.1920 C.2   1 <1>   0.5440 
  3 N       -3.5290     0.4120    -1.1190 N.am  1 <1>  -0.6600 
  4 C       -1.6360     1.8130    -0.3110 C.ar  1 <1>   0.0860 
  5 C       -3.1400    -0.8070    -0.3110 C.3   1 <1>   0.3640 
  6 C       -4.8490     0.3800    -1.8250 C.3   1 <1>   0.1400 
  7 C       -1.7910     1.8480     1.0720 C.ar  1 <1>   0.1600 
  8 C       -0.3590     2.0430    -0.8060 C.ar  1 <1>  -0.1500 
  9 C       -1.6760    -1.1580    -0.6020 C.ar  1 <1>  -0.1440 
 10 C       -4.0060    -2.0890    -0.5430 C.3   1 <1>   0.2000 
 11 C       -5.2540    -1.0360    -2.2260 C.3   1 <1>   0.1200 
 12 N       -0.8320     2.0540     1.9580 N.ar  1 <1>  -0.6200 
 13 C        0.6560     2.2720     0.0940 C.ar  1 <1>  -0.1500 
 14 C       -0.7900    -1.3700     0.4440 C.ar  1 <1>  -0.1500 
 15 C       -1.2100    -1.2650    -1.9060 C.ar  1 <1>  -0.1500 
 16 O       -5.2710    -1.8330    -1.0890 O.3   1 <1>  -0.5600 
 17 C       -4.2690    -2.8760     0.7530 C.3   1 <1>   0.1200 
 18 C        0.3780     2.2690     1.4600 C.ar  1 <1>   0.3930 
 19 C        0.5380    -1.6860     0.1980 C.ar  1 <1>   0.0830 
 20 C        0.1150    -1.5770    -2.1630 C.ar  1 <1>  -0.1500 
 21 O       -3.0970    -3.1330     1.4560 O.3   1 <1>  -0.6800 
 22 O        1.3280     2.4850     2.3880 O.3   1 <1>  -0.3630 
 23 O        1.3760    -1.9240     1.2380 O.3   1 <1>  -0.3620 
 24 C        1.0030    -1.7900    -1.1130 C.ar  1 <1>   0.0830 
 25 C        2.6330     2.9150     2.0700 C.3   1 <1>   0.0400 
 26 C        1.5810    -0.8770     2.1590 C.3   1 <1>   0.0400 
 27 O        2.3190    -2.0920    -1.3090 O.3   1 <1>  -0.3630 
 28 C        2.8280    -2.3750    -2.5920 C.3   1 <1>   0.0400 
 29 H       -3.2290    -0.5440     0.7280 H     1 <1>   0.0800 
 30 H       -5.6030     0.7910    -1.1770 H     1 <1>   0.0800 
 31 H       -4.8130     0.9860    -2.7130 H     1 <1>   0.0800 
 32 H       -2.7810     1.6930     1.4660 H     1 <1>   0.1500 
 33 H       -0.1840     2.0360    -1.8680 H     1 <1>   0.1500 
 34 H       -3.5000    -2.7380    -1.2350 H     1 <1>   0.0800 
 35 H       -4.5710    -1.4500    -2.9480 H     1 <1>   0.0800 
 36 H       -6.2450    -1.0330    -2.6420 H     1 <1>   0.0800 
 37 H        1.6480     2.4430    -0.2730 H     1 <1>   0.1500 
 38 H       -1.1290    -1.3010     1.4620 H     1 <1>   0.1500 
 39 H       -1.8800    -1.0970    -2.7320 H     1 <1>   0.1500 
 40 H       -4.7380    -3.8180     0.5290 H     1 <1>   0.0800 
 41 H       -4.9120    -2.3050     1.4010 H     1 <1>   0.0800 
 42 H        0.4340    -1.6440    -3.1850 H     1 <1>   0.1500 
 43 H       -2.4880    -3.7040     0.9450 H     1 <1>   0.4000 
 44 H        3.1630     3.0800     2.9910 H     1 <1>   0.0800 
 45 H        2.5730     3.8350     1.5140 H     1 <1>   0.0800 
 46 H        3.1270     2.1500     1.4980 H     1 <1>   0.0800 
 47 H        2.2680    -1.2210     2.9100 H     1 <1>   0.0800 
 48 H        0.6470    -0.6030     2.6160 H     1 <1>   0.0800 
 49 H        2.0020    -0.0410     1.6330 H     1 <1>   0.0800 
 50 H        3.8620    -2.6480    -2.4870 H     1 <1>   0.0800 
 51 H        2.7430    -1.4950    -3.2040 H     1 <1>   0.0800 
 52 H        2.2750    -3.1960    -3.0130 H     1 <1>   0.0800 
@<TRIPOS>BOND
  1   1   2  2   
  2   2   3  am  
  3   2   4  1   
  4   3   5  1   
  5   3   6  1   
  6   4   7  ar  
  7   4   8  ar  
  8   5   9  1   
  9   5  10  1   
 10   5  29  1   
 11   6  11  1   
 12   6  30  1   
 13   6  31  1   
 14   7  12  ar  
 15   7  32  1   
 16   8  13  ar  
 17   8  33  1   
 18   9  14  ar  
 19   9  15  ar  
 20  10  16  1   
 21  10  17  1   
 22  10  34  1   
 23  11  16  1   
 24  11  35  1   
 25  11  36  1   
 26  12  18  ar  
 27  13  18  ar  
 28  13  37  1   
 29  14  19  ar  
 30  14  38  1   
 31  15  20  ar  
 32  15  39  1   
 33  17  21  1   
 34  17  40  1   
 35  17  41  1   
 36  18  22  1   
 37  19  23  1   
 38  19  24  ar  
 39  20  24  ar  
 40  20  42  1   
 41  21  43  1   
 42  22  25  1   
 43  23  26  1   
 44  24  27  1   
 45  25  44  1   
 46  25  45  1   
 47  25  46  1   
 48  26  47  1   
 49  26  48  1   
 50  26  49  1   
 51  27  28  1   
 52  28  50  1   
 53  28  51  1   
 54  28  52  1   
@<TRIPOS>SUBSTRUCTURE
  1 ****   9 GROUP 4 **** **** 0

# MOE 2024.06 (io_trps.svl 2023.06)
