@<TRIPOS>MOLECULE
NONAME
51 53 1 0 0 
SMALL
USER_CHARGES


@<TRIPOS>ATOM
  1 S       -0.8900     0.5400    -0.0820 S.o2  1 <1>   1.3330 
  2 O       -0.9060     1.5160    -1.1440 O.2   1 <1>  -0.6500 
  3 O       -1.4260     0.8720     1.2150 O.2   1 <1>  -0.6500 
  4 N       -1.7660    -0.8340    -0.6650 N.am  1 <1>  -0.6930 
  5 C        0.7690    -0.0860     0.0690 C.3   1 <1>  -0.1350 
  6 C       -1.7210    -2.1000    -0.0730 C.ar  1 <1>   0.1990 
  7 C       -2.8350    -0.5360    -1.6780 C.3   1 <1>   0.2570 
  8 C       -1.6880    -2.2730     1.3080 C.ar  1 <1>  -0.1500 
  9 C       -1.7110    -3.2400    -0.8780 C.ar  1 <1>  -0.1500 
 10 C       -4.1830    -1.2210    -1.4180 C.2   1 <1>   0.5690 
 11 C       -1.6410    -3.5490     1.8290 C.ar  1 <1>   0.1900 
 12 C       -1.6660    -4.5150    -0.3380 C.ar  1 <1>  -0.1500 
 13 O       -4.5600    -2.0210    -2.2450 O.2   1 <1>  -0.5700 
 14 N       -4.9290    -0.9300    -0.3010 N.am  1 <1>  -0.6600 
 15 F       -1.6060    -3.6960     3.1260 F     1 <1>  -0.1900 
 16 C       -1.6280    -4.6790     1.0350 C.ar  1 <1>  -0.1500 
 17 C       -6.2180    -1.6280    -0.0280 C.3   1 <1>   0.1400 
 18 C       -4.5460     0.0990     0.7170 C.3   1 <1>   0.1400 
 19 C       -7.3930    -0.6250    -0.0530 C.3   1 <1>   0.0000 
 20 C       -5.7670     0.6230     1.4910 C.3   1 <1>  -0.1600 
 21 C       -8.6270    -1.2580     0.6180 C.3   1 <1>   0.2000 
 22 C       -6.9900     0.7510     0.5700 C.3   1 <1>  -0.1600 
 23 C       -7.9260    -0.3990    -1.4780 C.3   1 <1>  -0.1600 
 24 O       -8.5990    -1.1410     1.9950 O.3   1 <1>  -0.6800 
 25 C       -9.8460    -0.5400     0.0370 C.3   1 <1>  -0.1600 
 26 C       -9.3770     0.0610    -1.2960 C.3   1 <1>  -0.1600 
 27 H        1.1120    -0.4550    -0.8770 H     1 <1>   0.0800 
 28 H        0.8060    -0.8820     0.7860 H     1 <1>   0.0800 
 29 H        1.4280     0.6960     0.3920 H     1 <1>   0.0800 
 30 H       -3.0220     0.5210    -1.7260 H     1 <1>   0.0800 
 31 H       -2.4810    -0.8370    -2.6470 H     1 <1>   0.0800 
 32 H       -1.7120    -1.4390     1.9820 H     1 <1>   0.1500 
 33 H       -1.7440    -3.1280    -1.9470 H     1 <1>   0.1500 
 34 H       -1.6650    -5.3760    -0.9850 H     1 <1>   0.1500 
 35 H       -1.5940    -5.6570     1.4830 H     1 <1>   0.1500 
 36 H       -6.3850    -2.4220    -0.7340 H     1 <1>   0.0800 
 37 H       -6.1530    -2.0800     0.9480 H     1 <1>   0.0800 
 38 H       -3.8380    -0.3240     1.4080 H     1 <1>   0.0800 
 39 H       -4.0750     0.9300     0.2230 H     1 <1>   0.0800 
 40 H       -5.9870    -0.0480     2.3040 H     1 <1>   0.0800 
 41 H       -5.5240     1.5790     1.9210 H     1 <1>   0.0800 
 42 H       -8.6840    -2.3060     0.3760 H     1 <1>   0.0800 
 43 H       -6.7190     1.4370    -0.2140 H     1 <1>   0.0800 
 44 H       -7.8110     1.2020     1.0970 H     1 <1>   0.0800 
 45 H       -7.3390     0.3030    -2.0430 H     1 <1>   0.0800 
 46 H       -7.9270    -1.3330    -2.0150 H     1 <1>   0.0800 
 47 H       -8.4360    -0.2110     2.2360 H     1 <1>   0.4000 
 48 H      -10.6430    -1.2440    -0.1220 H     1 <1>   0.0800 
 49 H      -10.1860     0.2440     0.6910 H     1 <1>   0.0800 
 50 H       -9.9920    -0.2630    -2.1180 H     1 <1>   0.0800 
 51 H       -9.4120     1.1360    -1.2390 H     1 <1>   0.0800 
@<TRIPOS>BOND
  1   1   2  2   
  2   1   3  2   
  3   1   4  am  
  4   1   5  1   
  5   4   6  1   
  6   4   7  1   
  7   5  27  1   
  8   5  28  1   
  9   5  29  1   
 10   6   8  ar  
 11   6   9  ar  
 12   7  10  1   
 13   7  30  1   
 14   7  31  1   
 15   8  11  ar  
 16   8  32  1   
 17   9  12  ar  
 18   9  33  1   
 19  10  13  2   
 20  10  14  am  
 21  11  15  1   
 22  11  16  ar  
 23  12  16  ar  
 24  12  34  1   
 25  14  17  1   
 26  14  18  1   
 27  16  35  1   
 28  17  19  1   
 29  17  36  1   
 30  17  37  1   
 31  18  20  1   
 32  18  38  1   
 33  18  39  1   
 34  19  21  1   
 35  19  22  1   
 36  19  23  1   
 37  20  22  1   
 38  20  40  1   
 39  20  41  1   
 40  21  24  1   
 41  21  25  1   
 42  21  42  1   
 43  22  43  1   
 44  22  44  1   
 45  23  26  1   
 46  23  45  1   
 47  23  46  1   
 48  24  47  1   
 49  25  26  1   
 50  25  48  1   
 51  25  49  1   
 52  26  50  1   
 53  26  51  1   
@<TRIPOS>SUBSTRUCTURE
  1 ****  14 GROUP 4 **** **** 0

# MOE 2024.06 (io_trps.svl 2023.06)
