@<TRIPOS>MOLECULE
NONAME
45 46 1 0 0 
SMALL
USER_CHARGES


@<TRIPOS>ATOM
  1 O       -0.0050     0.3930    -0.3070 O.2   1 <1>  -0.5700 
  2 C       -0.9970     1.0500    -0.0610 C.2   1 <1>   0.5440 
  3 N       -2.1710     0.4000     0.2010 N.am  1 <1>  -0.7300 
  4 C       -0.9260     2.5000    -0.0310 C.ar  1 <1>   0.0860 
  5 C       -2.3650    -1.0550     0.1840 C.3   1 <1>   0.2200 
  6 C        0.2700     3.1690     0.1550 C.ar  1 <1>  -0.1500 
  7 C       -2.0330     3.3260    -0.1880 C.ar  1 <1>  -0.1500 
  8 C       -3.5170    -1.3690    -0.7640 C.3   1 <1>  -0.2400 
  9 C       -2.6750    -1.5120     1.6050 C.3   1 <1>  -0.2400 
 10 C        0.3240     4.5550     0.1920 C.ar  1 <1>   0.4100 
 11 C       -1.8880     4.6980    -0.1390 C.ar  1 <1>   0.1600 
 12 N       -0.7430     5.3280     0.0500 N.ar  1 <1>  -0.6200 
 13 N        1.5380     5.1750     0.3800 N.pl3 1 <1>  -0.8690 
 14 C        1.6510     6.6040     0.7790 C.3   1 <1>   0.2090 
 15 C        1.5740     7.4990    -0.4570 C.3   1 <1>   0.0960 
 16 N        1.8150     8.9000    -0.0680 N.pl3 1 <1>   0.0480 
 17 C        2.9860     9.5690     0.0020 C.2   1 <1>  -0.3320 
 18 C        0.8840     9.7890     0.3410 C.2   1 <1>   0.0360 
 19 C        2.6840    10.8120     0.4470 C.2   1 <1>   0.0460 
 20 C        4.3270     8.9540    -0.3740 C.3   1 <1>  -0.0600 
 21 N        1.3650    10.9450     0.6590 N.2   1 <1>  -0.5650 
 22 C        3.5910    11.9920     0.7140 C.3   1 <1>  -0.0590 
 23 H       -2.9780     0.9270     0.5260 H     1 <1>   0.3700 
 24 H       -1.4690    -1.5450    -0.1660 H     1 <1>   0.0800 
 25 H        1.1770     2.6070     0.2690 H     1 <1>   0.1500 
 26 H       -3.0060     2.9040    -0.3570 H     1 <1>   0.1500 
 27 H       -4.4250    -0.8980    -0.4350 H     1 <1>   0.0800 
 28 H       -3.6770    -2.4310    -0.8030 H     1 <1>   0.0800 
 29 H       -3.2760    -1.0300    -1.7550 H     1 <1>   0.0800 
 30 H       -3.5670    -1.0410     1.9750 H     1 <1>   0.0800 
 31 H       -1.8490    -1.2720     2.2510 H     1 <1>   0.0800 
 32 H       -2.8150    -2.5770     1.6220 H     1 <1>   0.0800 
 33 H       -2.7620     5.3160    -0.2650 H     1 <1>   0.1500 
 34 H        2.2790     4.5760     0.7490 H     1 <1>   0.4000 
 35 H        2.5930     6.7550     1.2780 H     1 <1>   0.0800 
 36 H        0.8560     6.8550     1.4620 H     1 <1>   0.0800 
 37 H        0.6000     7.4240    -0.9040 H     1 <1>   0.0800 
 38 H        2.3130     7.2000    -1.1750 H     1 <1>   0.0800 
 39 H       -0.1600     9.5370     0.3920 H     1 <1>   0.1500 
 40 H        4.5270     8.0940     0.2390 H     1 <1>   0.0800 
 41 H        5.1250     9.6590    -0.2340 H     1 <1>   0.0800 
 42 H        4.3180     8.6550    -1.4060 H     1 <1>   0.0800 
 43 H        4.6150    11.7520     0.5030 H     1 <1>   0.0800 
 44 H        3.5040    12.2800     1.7450 H     1 <1>   0.0800 
 45 H        3.2900    12.8180     0.0970 H     1 <1>   0.0800 
@<TRIPOS>BOND
  1   1   2  2   
  2   2   3  am  
  3   2   4  1   
  4   3   5  1   
  5   3  23  1   
  6   4   6  ar  
  7   4   7  ar  
  8   5   8  1   
  9   5   9  1   
 10   5  24  1   
 11   6  10  ar  
 12   6  25  1   
 13   7  11  ar  
 14   7  26  1   
 15   8  27  1   
 16   8  28  1   
 17   8  29  1   
 18   9  30  1   
 19   9  31  1   
 20   9  32  1   
 21  10  12  ar  
 22  10  13  1   
 23  11  12  ar  
 24  11  33  1   
 25  13  14  1   
 26  13  34  1   
 27  14  15  1   
 28  14  35  1   
 29  14  36  1   
 30  15  16  1   
 31  15  37  1   
 32  15  38  1   
 33  16  17  1   
 34  16  18  1   
 35  17  19  2   
 36  17  20  1   
 37  18  21  2   
 38  18  39  1   
 39  19  21  1   
 40  19  22  1   
 41  20  40  1   
 42  20  41  1   
 43  20  42  1   
 44  22  43  1   
 45  22  44  1   
 46  22  45  1   
@<TRIPOS>SUBSTRUCTURE
  1 ****  10 GROUP 4 **** **** 0

# MOE 2024.06 (io_trps.svl 2023.06)
