@<TRIPOS>MOLECULE
NONAME
55 56 1 0 0 
SMALL
USER_CHARGES


@<TRIPOS>ATOM
  1 O        1.5510     0.1870     1.2310 O.2   1 <1>  -0.5700 
  2 C        1.8430    -0.2790     0.1550 C.2   1 <1>   0.5690 
  3 N        2.2660     0.5360    -0.8750 N.am  1 <1>  -0.6600 
  4 C        1.6970    -1.8110     0.0110 C.3   1 <1>   0.4040 
  5 C        2.9010     0.0610    -2.1500 C.3   1 <1>   0.1400 
  6 C        1.9770     2.0020    -0.8020 C.3   1 <1>   0.1400 
  7 N        0.7560    -2.4310     1.0280 N.4   1 <1>  -0.9590 
  8 C        4.1020     0.9240    -2.6090 C.3   1 <1>   0.3430 
  9 C        3.1570     2.7560    -0.1840 C.3   1 <1>  -0.1600 
 10 C        0.8490    -3.9140     1.1650 C.3   1 <1>   0.4230 
 11 C       -0.6460    -1.9670     0.7910 C.3   1 <1>   0.3430 
 12 N        4.8800     1.4900    -1.4600 N.4   1 <1>  -0.9590 
 13 C        4.4010     2.8460    -1.0670 C.3   1 <1>   0.3430 
 14 C       -0.0470    -4.3760     2.3230 C.3   1 <1>  -0.1600 
 15 C        2.2920    -4.3400     1.4350 C.3   1 <1>  -0.2400 
 16 C       -1.5470    -2.3990     1.9460 C.3   1 <1>  -0.1600 
 17 C        6.3440     1.4990    -1.7140 C.3   1 <1>   0.5430 
 18 C       -1.4990    -3.9150     2.1570 C.3   1 <1>  -0.1600 
 19 C        7.0070     1.6050    -0.3900 C.1   1 <1>  -0.2000 
 20 C        7.5110     1.7050     0.6810 C.1   1 <1>  -0.2000 
 21 C        8.1530     1.8470     2.0210 C.3   1 <1>   0.0400 
 22 C        7.5430     3.0220     2.7850 C.3   1 <1>  -0.2400 
 23 H        2.6790    -2.2300     0.1300 H     1 <1>   0.0800 
 24 H        1.3510    -2.0370    -0.9820 H     1 <1>   0.0800 
 25 H        2.1620     0.0540    -2.9350 H     1 <1>   0.0800 
 26 H        3.2480    -0.9500    -2.0280 H     1 <1>   0.0800 
 27 H        1.1060     2.1640    -0.1860 H     1 <1>   0.0800 
 28 H        1.7460     2.3900    -1.7800 H     1 <1>   0.0800 
 29 H        1.0220    -2.0220     1.9380 H     1 <1>   0.4500 
 30 H        3.7410     1.7290    -3.2280 H     1 <1>   0.0800 
 31 H        4.7410     0.3120    -3.2250 H     1 <1>   0.0800 
 32 H        3.4100     2.3200     0.7680 H     1 <1>   0.0800 
 33 H        2.8340     3.7620     0.0200 H     1 <1>   0.0800 
 34 H        0.5040    -4.3820     0.2560 H     1 <1>   0.0800 
 35 H       -1.0210    -2.3840    -0.1300 H     1 <1>   0.0800 
 36 H       -0.6720    -0.8910     0.7150 H     1 <1>   0.0800 
 37 H        4.7440     0.8950    -0.6320 H     1 <1>   0.4500 
 38 H        5.1700     3.3580    -0.5070 H     1 <1>   0.0800 
 39 H        4.1880     3.4330    -1.9460 H     1 <1>   0.0800 
 40 H        0.3430    -4.0020     3.2540 H     1 <1>   0.0800 
 41 H       -0.0300    -5.4510     2.3780 H     1 <1>   0.0800 
 42 H        2.7050    -3.8040     2.2710 H     1 <1>   0.0800 
 43 H        2.9120    -4.2050     0.5690 H     1 <1>   0.0800 
 44 H        2.3170    -5.3890     1.6720 H     1 <1>   0.0800 
 45 H       -2.5590    -2.1000     1.7340 H     1 <1>   0.0800 
 46 H       -1.2450    -1.8900     2.8450 H     1 <1>   0.0800 
 47 H        6.6210     2.3290    -2.3430 H     1 <1>   0.0800 
 48 H        6.6520     0.5810    -2.1880 H     1 <1>   0.0800 
 49 H       -2.0710    -4.1810     3.0310 H     1 <1>   0.0800 
 50 H       -1.9440    -4.4140     1.3110 H     1 <1>   0.0800 
 51 H        9.2100     2.0060     1.8940 H     1 <1>   0.0800 
 52 H        8.0160     0.9380     2.5810 H     1 <1>   0.0800 
 53 H        7.6890     3.9390     2.2420 H     1 <1>   0.0800 
 54 H        8.0160     3.1180     3.7470 H     1 <1>   0.0800 
 55 H        6.4900     2.8680     2.9360 H     1 <1>   0.0800 
@<TRIPOS>BOND
  1   1   2  2   
  2   2   3  am  
  3   2   4  1   
  4   3   5  1   
  5   3   6  1   
  6   4   7  1   
  7   4  23  1   
  8   4  24  1   
  9   5   8  1   
 10   5  25  1   
 11   5  26  1   
 12   6   9  1   
 13   6  27  1   
 14   6  28  1   
 15   7  10  1   
 16   7  11  1   
 17   7  29  1   
 18   8  12  1   
 19   8  30  1   
 20   8  31  1   
 21   9  13  1   
 22   9  32  1   
 23   9  33  1   
 24  10  14  1   
 25  10  15  1   
 26  10  34  1   
 27  11  16  1   
 28  11  35  1   
 29  11  36  1   
 30  12  13  1   
 31  12  17  1   
 32  12  37  1   
 33  13  38  1   
 34  13  39  1   
 35  14  18  1   
 36  14  40  1   
 37  14  41  1   
 38  15  42  1   
 39  15  43  1   
 40  15  44  1   
 41  16  18  1   
 42  16  45  1   
 43  16  46  1   
 44  17  19  1   
 45  17  47  1   
 46  17  48  1   
 47  18  49  1   
 48  18  50  1   
 49  19  20  3   
 50  20  21  1   
 51  21  22  1   
 52  21  51  1   
 53  21  52  1   
 54  22  53  1   
 55  22  54  1   
 56  22  55  1   
@<TRIPOS>SUBSTRUCTURE
  1 ****   2 GROUP 4 **** **** 0

# MOE 2024.06 (io_trps.svl 2023.06)
