@<TRIPOS>MOLECULE
NONAME
46 50 1 0 0 
SMALL
USER_CHARGES


@<TRIPOS>ATOM
  1 S        0.3280     0.2520     1.1120 S.3   1 <1>  -0.0800 
  2 C       -0.8960     1.0760     0.1570 C.2   1 <1>  -0.1400 
  3 C       -0.7640    -1.0940     1.4090 C.2   1 <1>  -0.1100 
  4 C       -2.0240     0.3550     0.1110 C.2   1 <1>  -0.1810 
  5 C       -0.6540     2.4290    -0.5050 C.3   1 <1>   0.4600 
  6 C       -1.9560    -0.8880     0.8160 C.2   1 <1>  -0.1500 
  7 C       -3.2180     0.8880    -0.6470 C.3   1 <1>   0.0210 
  8 O       -1.7720     2.7310    -1.3220 O.3   1 <1>  -0.5600 
  9 C        0.5600     2.3740    -1.4330 C.3   1 <1>  -0.1600 
 10 C       -0.4760     3.5390     0.5370 C.3   1 <1>  -0.1600 
 11 C       -3.0540     2.4080    -0.8380 C.3   1 <1>   0.1200 
 12 C        0.8360     3.7310    -2.0800 C.3   1 <1>   0.2090 
 13 C       -0.2220     4.8910    -0.1270 C.3   1 <1>   0.2090 
 14 N        0.9480     4.7850    -1.0340 N.pl3 1 <1>  -0.8380 
 15 C        2.1920     5.2240    -0.6040 C.ar  1 <1>   0.4100 
 16 N        3.1150     4.3060    -0.3930 N.ar  1 <1>  -0.3100 
 17 C        2.4280     6.6060    -0.3870 C.ar  1 <1>   0.0000 
 18 N        4.3030     4.6450     0.0900 N.ar  1 <1>  -0.3100 
 19 C        3.6760     6.9550     0.1480 C.ar  1 <1>   0.0000 
 20 C        1.5100     7.6370    -0.6870 C.ar  1 <1>  -0.1500 
 21 C        4.5750     5.8910     0.3590 C.ar  1 <1>   0.1670 
 22 C        3.9410     8.3190     0.4200 C.ar  1 <1>  -0.1500 
 23 C        1.7940     8.9490    -0.4250 C.ar  1 <1>  -0.1500 
 24 C        5.9580     6.1660     0.9230 C.3   1 <1>  -0.0970 
 25 C        3.0230     9.2930     0.1420 C.ar  1 <1>  -0.1500 
 26 H       -0.3910    -1.9080     2.0040 H     1 <1>   0.1500 
 27 H       -2.7950    -1.5600     0.8450 H     1 <1>   0.1500 
 28 H       -4.1220     0.6920    -0.1000 H     1 <1>   0.0800 
 29 H       -3.2870     0.4040    -1.6050 H     1 <1>   0.0800 
 30 H        0.3980     1.6320    -2.1910 H     1 <1>   0.0800 
 31 H        1.4300     2.0840    -0.8730 H     1 <1>   0.0800 
 32 H        0.3690     3.3040     1.1590 H     1 <1>   0.0800 
 33 H       -1.3370     3.5940     1.1750 H     1 <1>   0.0800 
 34 H       -3.2050     2.9210     0.0960 H     1 <1>   0.0800 
 35 H       -3.7740     2.7720    -1.5500 H     1 <1>   0.0800 
 36 H        0.0340     3.9870    -2.7510 H     1 <1>   0.0800 
 37 H        1.7490     3.6850    -2.6500 H     1 <1>   0.0800 
 38 H       -0.0350     5.6330     0.6310 H     1 <1>   0.0800 
 39 H       -1.0850     5.1940    -0.6950 H     1 <1>   0.0800 
 40 H        0.5710     7.3710    -1.1370 H     1 <1>   0.1500 
 41 H        4.8850     8.5980     0.8500 H     1 <1>   0.1500 
 42 H        1.0830     9.7260    -0.6540 H     1 <1>   0.1500 
 43 H        6.5180     5.2520     1.0130 H     1 <1>   0.0800 
 44 H        5.8750     6.6090     1.8990 H     1 <1>   0.0800 
 45 H        6.4960     6.8290     0.2710 H     1 <1>   0.0800 
 46 H        3.2320    10.3290     0.3500 H     1 <1>   0.1500 
@<TRIPOS>BOND
  1   1   2  1   
  2   1   3  1   
  3   2   4  2   
  4   2   5  1   
  5   3   6  2   
  6   3  26  1   
  7   4   6  1   
  8   4   7  1   
  9   5   8  1   
 10   5   9  1   
 11   5  10  1   
 12   6  27  1   
 13   7  11  1   
 14   7  28  1   
 15   7  29  1   
 16   8  11  1   
 17   9  12  1   
 18   9  30  1   
 19   9  31  1   
 20  10  13  1   
 21  10  32  1   
 22  10  33  1   
 23  11  34  1   
 24  11  35  1   
 25  12  14  1   
 26  12  36  1   
 27  12  37  1   
 28  13  14  1   
 29  13  38  1   
 30  13  39  1   
 31  14  15  1   
 32  15  16  ar  
 33  15  17  ar  
 34  16  18  ar  
 35  17  19  ar  
 36  17  20  ar  
 37  18  21  ar  
 38  19  21  ar  
 39  19  22  ar  
 40  20  23  ar  
 41  20  40  1   
 42  21  24  1   
 43  22  25  ar  
 44  22  41  1   
 45  23  25  ar  
 46  23  42  1   
 47  24  43  1   
 48  24  44  1   
 49  24  45  1   
 50  25  46  1   
@<TRIPOS>SUBSTRUCTURE
  1 ****  14 GROUP 4 **** **** 0

# MOE 2024.06 (io_trps.svl 2023.06)
