@<TRIPOS>MOLECULE
NONAME
48 50 1 0 0 
SMALL
USER_CHARGES


@<TRIPOS>ATOM
  1 O       -0.8460     0.5000    -0.4530 O.2   1 <1>  -0.5700 
  2 C       -2.0020     0.7640    -0.1850 C.2   1 <1>   0.5440 
  3 N       -2.9610    -0.2180    -0.3720 N.am  1 <1>  -0.6600 
  4 C       -2.2910     2.0850     0.3320 C.ar  1 <1>   0.0860 
  5 C       -4.3750    -0.0440    -0.8330 C.3   1 <1>   0.2200 
  6 C       -2.5250    -1.6460    -0.3880 C.3   1 <1>   0.0600 
  7 C       -2.9670     2.2580     1.5380 C.ar  1 <1>   0.1600 
  8 C       -1.8840     3.2320    -0.3330 C.ar  1 <1>  -0.1500 
  9 C       -4.6510     1.1870    -1.7060 C.3   1 <1>  -0.1600 
 10 C       -5.3490    -0.0200     0.3440 C.3   1 <1>  -0.1600 
 11 N       -3.3100     3.4180     2.0860 N.ar  1 <1>  -0.6200 
 12 C       -2.1910     4.4510     0.2290 C.ar  1 <1>   0.0830 
 13 C       -5.9640     1.8070    -1.2090 C.3   1 <1>  -0.0800 
 14 C       -6.4290     1.0190     0.0180 C.3   1 <1>  -0.0800 
 15 C       -2.8940     4.4910     1.4280 C.ar  1 <1>   0.1600 
 16 O       -1.7970     5.5730    -0.4010 O.3   1 <1>  -0.5320 
 17 C       -5.8460     3.2630    -0.7410 C.3   1 <1>  -0.1600 
 18 C       -6.6670     2.0570     1.1290 C.3   1 <1>  -0.1600 
 19 C       -6.8310     3.4050     0.4230 C.3   1 <1>   0.4230 
 20 N       -8.2360     3.5690    -0.0730 N.4   1 <1>  -0.9590 
 21 C       -8.4130     4.7750    -0.9440 C.3   1 <1>   0.2630 
 22 C       -9.2290     3.6450     1.0480 C.3   1 <1>   0.2630 
 23 H       -4.6340    -0.8980    -1.4380 H     1 <1>   0.0800 
 24 H       -3.2630    -2.2650     0.0910 H     1 <1>   0.0800 
 25 H       -1.5920    -1.7620     0.1380 H     1 <1>   0.0800 
 26 H       -2.3890    -1.9720    -1.4050 H     1 <1>   0.0800 
 27 H       -3.2310     1.3710     2.0860 H     1 <1>   0.1500 
 28 H       -1.3330     3.1690    -1.2560 H     1 <1>   0.1500 
 29 H       -3.8520     1.8990    -1.7050 H     1 <1>   0.0800 
 30 H       -4.7760     0.8620    -2.7240 H     1 <1>   0.0800 
 31 H       -5.7970    -0.9910     0.4610 H     1 <1>   0.0800 
 32 H       -4.8370     0.2120     1.2560 H     1 <1>   0.0800 
 33 H       -6.7120     1.7340    -1.9810 H     1 <1>   0.0800 
 34 H       -7.3510     0.5140    -0.2210 H     1 <1>   0.0800 
 35 H       -3.1250     5.4470     1.8620 H     1 <1>   0.1500 
 36 H       -1.8800     6.3920     0.1220 H     1 <1>   0.4500 
 37 H       -5.9770     3.9660    -1.5410 H     1 <1>   0.0800 
 38 H       -4.8640     3.4240    -0.3410 H     1 <1>   0.0800 
 39 H       -5.7920     2.1370     1.7470 H     1 <1>   0.0800 
 40 H       -7.4800     1.7810     1.7730 H     1 <1>   0.0800 
 41 H       -6.5580     4.2240     1.0700 H     1 <1>   0.0800 
 42 H       -8.4380     2.7290    -0.6330 H     1 <1>   0.4500 
 43 H       -8.1050     5.6650    -0.4180 H     1 <1>   0.0800 
 44 H       -9.4480     4.8830    -1.2260 H     1 <1>   0.0800 
 45 H       -7.8280     4.6850    -1.8440 H     1 <1>   0.0800 
 46 H       -8.9900     4.4670     1.7040 H     1 <1>   0.0800 
 47 H       -9.2310     2.7340     1.6220 H     1 <1>   0.0800 
 48 H      -10.2220     3.7960     0.6560 H     1 <1>   0.0800 
@<TRIPOS>BOND
  1   1   2  2   
  2   2   3  am  
  3   2   4  1   
  4   3   5  1   
  5   3   6  1   
  6   4   7  ar  
  7   4   8  ar  
  8   5   9  1   
  9   5  10  1   
 10   5  23  1   
 11   6  24  1   
 12   6  25  1   
 13   6  26  1   
 14   7  11  ar  
 15   7  27  1   
 16   8  12  ar  
 17   8  28  1   
 18   9  13  1   
 19   9  29  1   
 20   9  30  1   
 21  10  14  1   
 22  10  31  1   
 23  10  32  1   
 24  11  15  ar  
 25  12  15  ar  
 26  12  16  1   
 27  13  14  1   
 28  13  17  1   
 29  13  33  1   
 30  14  18  1   
 31  14  34  1   
 32  15  35  1   
 33  16  36  1   
 34  17  19  1   
 35  17  37  1   
 36  17  38  1   
 37  18  19  1   
 38  18  39  1   
 39  18  40  1   
 40  19  20  1   
 41  19  41  1   
 42  20  21  1   
 43  20  22  1   
 44  20  42  1   
 45  21  43  1   
 46  21  44  1   
 47  21  45  1   
 48  22  46  1   
 49  22  47  1   
 50  22  48  1   
@<TRIPOS>SUBSTRUCTURE
  1 ****  17 GROUP 4 **** **** 0

# MOE 2024.06 (io_trps.svl 2023.06)
