@<TRIPOS>MOLECULE
NONAME
44 46 1 0 0 
SMALL
USER_CHARGES


@<TRIPOS>ATOM
  1 S       -1.8630     0.4280     1.8770 S.3   1 <1>  -0.0800 
  2 C       -1.1160     1.4610     0.6580 C.2   1 <1>   0.3250 
  3 C       -1.5520     1.6200     3.0960 C.2   1 <1>  -0.1100 
  4 N       -0.6980     2.5800     1.1700 N.2   1 <1>  -0.5650 
  5 C       -1.0320     0.9870    -0.7180 C.ar  1 <1>   0.6730 
  6 C       -0.9380     2.6670     2.5260 C.2   1 <1>   0.0460 
  7 N       -0.3900     1.7770    -1.6010 N.ar  1 <1>  -0.6200 
  8 N       -1.5860    -0.1930    -1.0210 N.ar  1 <1>  -0.6200 
  9 C       -0.4870     3.9250     3.2510 C.3   1 <1>   0.0210 
 10 C       -0.3020     1.3290    -2.8340 C.ar  1 <1>   0.1600 
 11 C       -1.4850    -0.6090    -2.2590 C.ar  1 <1>   0.1600 
 12 C        1.0000     4.2250     2.9990 C.3   1 <1>   0.2090 
 13 C       -0.8400     0.1270    -3.2190 C.ar  1 <1>  -0.1500 
 14 N        1.1900     5.4640     2.1920 N.pl3 1 <1>  -0.8690 
 15 C        1.0830     5.7160     0.8810 C.ar  1 <1>   0.7710 
 16 N        1.4810     6.9110     0.4970 N.ar  1 <1>  -0.6200 
 17 N        0.5920     4.8030     0.0290 N.ar  1 <1>  -0.1790 
 18 C        1.3910     7.2180    -0.7860 C.ar  1 <1>   0.4100 
 19 C        0.4840     5.0690    -1.2910 C.ar  1 <1>   0.2110 
 20 N        1.7990     8.4610    -1.1700 N.pl3 1 <1>  -0.8380 
 21 C        0.8890     6.2870    -1.7200 C.ar  1 <1>  -0.1500 
 22 C        1.3720     9.1370    -2.4250 C.3   1 <1>   0.2090 
 23 C        2.5970     9.3440    -0.2620 C.3   1 <1>   0.1290 
 24 C        2.4610     8.9770    -3.4820 C.3   1 <1>  -0.2400 
 25 H       -1.8630     1.4030     4.1020 H     1 <1>   0.1500 
 26 H       -0.6350     3.7790     4.3060 H     1 <1>   0.0800 
 27 H       -1.0990     4.7560     2.9500 H     1 <1>   0.0800 
 28 H        0.2140     1.9310    -3.5640 H     1 <1>   0.1500 
 29 H       -1.9270    -1.5600    -2.5140 H     1 <1>   0.1500 
 30 H        1.4800     3.3910     2.5130 H     1 <1>   0.0800 
 31 H        1.4920     4.3620     3.9480 H     1 <1>   0.0800 
 32 H       -0.7610    -0.2260    -4.2310 H     1 <1>   0.1500 
 33 H        1.5530     6.2630     2.7230 H     1 <1>   0.4000 
 34 H        0.2630     3.9190     0.4310 H     1 <1>   0.4570 
 35 H        0.0820     4.3140    -1.9470 H     1 <1>   0.1500 
 36 H        0.8400     6.5510    -2.7580 H     1 <1>   0.1500 
 37 H        1.2010    10.1830    -2.2320 H     1 <1>   0.0800 
 38 H        0.4450     8.7220    -2.7790 H     1 <1>   0.0800 
 39 H        3.2020     8.7560     0.4060 H     1 <1>   0.0800 
 40 H        1.9330     9.9590     0.3200 H     1 <1>   0.0800 
 41 H        3.2530     9.9770    -0.8340 H     1 <1>   0.0800 
 42 H        3.3710     9.4470    -3.1560 H     1 <1>   0.0800 
 43 H        2.1480     9.4450    -4.3980 H     1 <1>   0.0800 
 44 H        2.6520     7.9380    -3.6760 H     1 <1>   0.0800 
@<TRIPOS>BOND
  1   1   2  1   
  2   1   3  1   
  3   2   4  2   
  4   2   5  1   
  5   3   6  2   
  6   3  25  1   
  7   4   6  1   
  8   5   7  ar  
  9   5   8  ar  
 10   6   9  1   
 11   7  10  ar  
 12   8  11  ar  
 13   9  12  1   
 14   9  26  1   
 15   9  27  1   
 16  10  13  ar  
 17  10  28  1   
 18  11  13  ar  
 19  11  29  1   
 20  12  14  1   
 21  12  30  1   
 22  12  31  1   
 23  13  32  1   
 24  14  15  1   
 25  14  33  1   
 26  15  16  ar  
 27  15  17  ar  
 28  16  18  ar  
 29  17  19  ar  
 30  17  34  1   
 31  18  20  1   
 32  18  21  ar  
 33  19  21  ar  
 34  19  35  1   
 35  20  22  1   
 36  20  23  1   
 37  21  36  1   
 38  22  24  1   
 39  22  37  1   
 40  22  38  1   
 41  23  39  1   
 42  23  40  1   
 43  23  41  1   
 44  24  42  1   
 45  24  43  1   
 46  24  44  1   
@<TRIPOS>SUBSTRUCTURE
  1 ****  17 GROUP 4 **** **** 0

# MOE 2024.06 (io_trps.svl 2023.06)
