@<TRIPOS>MOLECULE
NONAME
38 38 1 0 0 
SMALL
USER_CHARGES


@<TRIPOS>ATOM
  1 S       -0.3300     0.3270    -0.6850 S.o2  1 <1>   1.0900 
  2 O        0.6300     0.1040    -1.7420 O.2   1 <1>  -0.6500 
  3 O       -1.7450     0.2190    -0.9530 O.2   1 <1>  -0.6500 
  4 C       -0.0300     1.9540    -0.0190 C.3   1 <1>  -0.0550 
  5 C        0.0620    -0.7760     0.6820 C.3   1 <1>  -0.0550 
  6 C        1.4620     2.2540     0.0430 C.3   1 <1>   0.2090 
  7 C       -0.1340    -2.2650     0.3540 C.3   1 <1>  -0.2400 
  8 N        1.6770     3.5260     0.7610 N.pl3 1 <1>  -0.8690 
  9 C        2.8430     4.2170     0.6710 C.ar  1 <1>   0.4100 
 10 N        2.6760     5.5210     0.5630 N.ar  1 <1>  -0.6200 
 11 C        4.0930     3.6030     0.6870 C.ar  1 <1>  -0.1500 
 12 C        3.7830     6.2390     0.4560 C.ar  1 <1>   0.1600 
 13 C        5.2310     4.3650     0.5710 C.ar  1 <1>  -0.1500 
 14 C        5.0880     5.7460     0.4390 C.ar  1 <1>   0.0860 
 15 C        6.2110     6.6450     0.2930 C.2   1 <1>   0.5440 
 16 O        6.0890     7.8300     0.5340 O.2   1 <1>  -0.5700 
 17 N        7.4290     6.1910    -0.1370 N.am  1 <1>  -0.7300 
 18 C        8.6390     7.0220    -0.2910 C.3   1 <1>   0.1400 
 19 C        9.8530     6.1920     0.1060 C.3   1 <1>  -0.2400 
 20 H       -0.4600     2.0350     0.9610 H     1 <1>   0.0800 
 21 H       -0.4920     2.6840    -0.6560 H     1 <1>   0.0800 
 22 H       -0.5600    -0.5330     1.5230 H     1 <1>   0.0800 
 23 H        1.0830    -0.6320     0.9800 H     1 <1>   0.0800 
 24 H        1.8630     2.3280    -0.9560 H     1 <1>   0.0800 
 25 H        1.9810     1.4690     0.5630 H     1 <1>   0.0800 
 26 H       -1.1580    -2.4520     0.0800 H     1 <1>   0.0800 
 27 H        0.1140    -2.8720     1.2070 H     1 <1>   0.0800 
 28 H        0.4970    -2.5490    -0.4700 H     1 <1>   0.0800 
 29 H        0.8930     4.1850     0.7070 H     1 <1>   0.4000 
 30 H        4.1560     2.5380     0.7970 H     1 <1>   0.1500 
 31 H        3.6550     7.3060     0.3720 H     1 <1>   0.1500 
 32 H        6.2030     3.9070     0.5910 H     1 <1>   0.1500 
 33 H        7.5160     5.2330    -0.4740 H     1 <1>   0.3700 
 34 H        8.5680     7.8960     0.3370 H     1 <1>   0.0800 
 35 H        8.7230     7.3430    -1.3160 H     1 <1>   0.0800 
 36 H        9.7660     5.8740     1.1300 H     1 <1>   0.0800 
 37 H       10.7420     6.7890     0.0110 H     1 <1>   0.0800 
 38 H        9.9510     5.3330    -0.5330 H     1 <1>   0.0800 
@<TRIPOS>BOND
  1   1   2  2   
  2   1   3  2   
  3   1   4  1   
  4   1   5  1   
  5   4   6  1   
  6   4  20  1   
  7   4  21  1   
  8   5   7  1   
  9   5  22  1   
 10   5  23  1   
 11   6   8  1   
 12   6  24  1   
 13   6  25  1   
 14   7  26  1   
 15   7  27  1   
 16   7  28  1   
 17   8   9  1   
 18   8  29  1   
 19   9  10  ar  
 20   9  11  ar  
 21  10  12  ar  
 22  11  13  ar  
 23  11  30  1   
 24  12  14  ar  
 25  12  31  1   
 26  13  14  ar  
 27  13  32  1   
 28  14  15  1   
 29  15  16  2   
 30  15  17  am  
 31  17  18  1   
 32  17  33  1   
 33  18  19  1   
 34  18  34  1   
 35  18  35  1   
 36  19  36  1   
 37  19  37  1   
 38  19  38  1   
@<TRIPOS>SUBSTRUCTURE
  1 ****  11 GROUP 4 **** **** 0

# MOE 2024.06 (io_trps.svl 2023.06)
