@<TRIPOS>MOLECULE
NONAME
52 54 1 0 0 
SMALL
USER_CHARGES


@<TRIPOS>ATOM
  1 F        1.4920    -5.2250     0.5060 F     1 <1>  -0.1900 
  2 C        0.4730    -4.4690     0.1850 C.ar  1 <1>   0.1900 
  3 C        0.6190    -3.4560    -0.7470 C.ar  1 <1>   0.1900 
  4 C       -0.7500    -4.7070     0.7840 C.ar  1 <1>  -0.1500 
  5 F        1.7780    -3.2400    -1.3150 F     1 <1>  -0.1900 
  6 C       -0.4550    -2.6600    -1.0970 C.ar  1 <1>  -0.1500 
  7 C       -1.8430    -3.9210     0.4310 C.ar  1 <1>  -0.1440 
  8 C       -1.6860    -2.8980    -0.5020 C.ar  1 <1>  -0.1500 
  9 C       -3.2110    -4.1850     1.0590 C.3   1 <1>   0.0440 
 10 C       -3.5470    -5.6700     1.1320 C.2   1 <1>   0.5690 
 11 O       -3.6130    -6.1630     2.2330 O.2   1 <1>  -0.5700 
 12 N       -3.7400    -6.4090    -0.0050 N.am  1 <1>  -0.6600 
 13 C       -3.8210    -7.9090     0.0910 C.3   1 <1>   0.3640 
 14 C       -3.8170    -5.8170    -1.3790 C.3   1 <1>   0.1400 
 15 C       -2.4220    -8.5420     0.0440 C.ar  1 <1>  -0.1430 
 16 C       -4.7510    -8.5560    -0.9840 C.3   1 <1>   0.2000 
 17 C       -4.0090    -6.8780    -2.4710 C.3   1 <1>   0.1200 
 18 C       -2.2690    -9.8170     0.5700 C.ar  1 <1>  -0.1500 
 19 C       -1.3000    -7.9140    -0.4830 C.ar  1 <1>  -0.1500 
 20 O       -5.0360    -7.7340    -2.0930 O.3   1 <1>  -0.5600 
 21 C       -6.1030    -8.9680    -0.3880 C.3   1 <1>   0.1200 
 22 C       -1.0430   -10.4620     0.5730 C.ar  1 <1>   0.0830 
 23 C       -0.0670    -8.5420    -0.4890 C.ar  1 <1>  -0.1500 
 24 O       -5.9360   -10.0170     0.5120 O.3   1 <1>  -0.6800 
 25 O       -1.0420   -11.7080     1.1210 O.3   1 <1>  -0.3630 
 26 C        0.0820    -9.8250     0.0300 C.ar  1 <1>   0.0830 
 27 C        0.0120   -12.0970     1.9730 C.3   1 <1>   0.0400 
 28 O        1.2840   -10.4720     0.0070 O.3   1 <1>  -0.3630 
 29 C        2.4590    -9.8460    -0.4600 C.3   1 <1>   0.0400 
 30 H       -0.8380    -5.4990     1.5100 H     1 <1>   0.1500 
 31 H       -0.3270    -1.8720    -1.8180 H     1 <1>   0.1500 
 32 H       -2.5240    -2.2780    -0.7720 H     1 <1>   0.1500 
 33 H       -3.9860    -3.6840     0.5120 H     1 <1>   0.0800 
 34 H       -3.2120    -3.7850     2.0570 H     1 <1>   0.0800 
 35 H       -4.2250    -8.1610     1.0570 H     1 <1>   0.0800 
 36 H       -4.6490    -5.1350    -1.4180 H     1 <1>   0.0800 
 37 H       -2.9200    -5.2640    -1.5920 H     1 <1>   0.0800 
 38 H       -4.2770    -9.4380    -1.3760 H     1 <1>   0.0800 
 39 H       -3.1120    -7.4520    -2.6290 H     1 <1>   0.0800 
 40 H       -4.2890    -6.4120    -3.3990 H     1 <1>   0.0800 
 41 H       -3.1120   -10.3300     0.9990 H     1 <1>   0.1500 
 42 H       -1.3640    -6.9240    -0.8910 H     1 <1>   0.1500 
 43 H       -6.7740    -9.2970    -1.1630 H     1 <1>   0.0800 
 44 H       -6.5410    -8.1410     0.1430 H     1 <1>   0.0800 
 45 H        0.7630    -8.0070    -0.9070 H     1 <1>   0.1500 
 46 H       -5.7620   -10.8570     0.0420 H     1 <1>   0.4000 
 47 H       -0.3480   -12.8790     2.6170 H     1 <1>   0.0800 
 48 H        0.3240   -11.2500     2.5580 H     1 <1>   0.0800 
 49 H        0.8250   -12.4660     1.3740 H     1 <1>   0.0800 
 50 H        3.2740   -10.5370    -0.3430 H     1 <1>   0.0800 
 51 H        2.6420    -8.9630     0.1260 H     1 <1>   0.0800 
 52 H        2.3350    -9.6020    -1.5000 H     1 <1>   0.0800 
@<TRIPOS>BOND
  1   1   2  1   
  2   2   3  ar  
  3   2   4  ar  
  4   3   5  1   
  5   3   6  ar  
  6   4   7  ar  
  7   4  30  1   
  8   6   8  ar  
  9   6  31  1   
 10   7   8  ar  
 11   7   9  1   
 12   8  32  1   
 13   9  10  1   
 14   9  33  1   
 15   9  34  1   
 16  10  11  2   
 17  10  12  am  
 18  12  13  1   
 19  12  14  1   
 20  13  15  1   
 21  13  16  1   
 22  13  35  1   
 23  14  17  1   
 24  14  36  1   
 25  14  37  1   
 26  15  18  ar  
 27  15  19  ar  
 28  16  20  1   
 29  16  21  1   
 30  16  38  1   
 31  17  20  1   
 32  17  39  1   
 33  17  40  1   
 34  18  22  ar  
 35  18  41  1   
 36  19  23  ar  
 37  19  42  1   
 38  21  24  1   
 39  21  43  1   
 40  21  44  1   
 41  22  25  1   
 42  22  26  ar  
 43  23  26  ar  
 44  23  45  1   
 45  24  46  1   
 46  25  27  1   
 47  26  28  1   
 48  27  47  1   
 49  27  48  1   
 50  27  49  1   
 51  28  29  1   
 52  29  50  1   
 53  29  51  1   
 54  29  52  1   
@<TRIPOS>SUBSTRUCTURE
  1 ****  19 GROUP 4 **** **** 0

# MOE 2024.06 (io_trps.svl 2023.06)
