@<TRIPOS>MOLECULE
NONAME
45 48 1 0 0 
SMALL
USER_CHARGES


@<TRIPOS>ATOM
  1 O        1.8370     0.1250     1.0870 O.2   1 <1>  -0.5700 
  2 C        2.5580    -0.8520     1.0040 C.2   1 <1>   0.5440 
  3 N        3.9190    -0.6300     1.0090 N.am  1 <1>  -0.6600 
  4 C        1.9860    -2.1780     0.8490 C.ar  1 <1>   0.0860 
  5 C        4.4990     0.5150     1.7860 C.3   1 <1>   0.1400 
  6 C        4.8510    -1.3730     0.1130 C.3   1 <1>   0.1400 
  7 C        0.8130    -2.3670     0.1100 C.ar  1 <1>  -0.1500 
  8 C        2.5820    -3.3050     1.4340 C.ar  1 <1>  -0.1500 
  9 C        5.1510     1.6580     0.9550 C.3   1 <1>   0.4230 
 10 C        5.3570    -0.4760    -1.0370 C.3   1 <1>  -0.0800 
 11 C        0.2890    -3.6340    -0.0470 C.ar  1 <1>  -0.1440 
 12 C        2.0530    -4.5750     1.2730 C.ar  1 <1>  -0.1500 
 13 N        4.5750     1.9070    -0.4270 N.4   1 <1>  -0.9590 
 14 C        6.6880     1.5160     0.8940 C.3   1 <1>   0.1200 
 15 C        6.8300    -0.0650    -0.8800 C.3   1 <1>   0.1200 
 16 C        4.4100     0.7050    -1.3160 C.3   1 <1>   0.3430 
 17 C        0.9030    -4.7170     0.5220 C.ar  1 <1>   0.0830 
 18 C       -0.9330    -4.1090    -0.7770 C.3   1 <1>  -0.0170 
 19 C        3.2560     2.6060    -0.3110 C.3   1 <1>   0.2630 
 20 O        7.1120     0.2690     0.4400 O.3   1 <1>  -0.5600 
 21 O        0.2690    -5.8690     0.2740 O.3   1 <1>  -0.3620 
 22 C       -0.8920    -5.6250    -0.5080 C.3   1 <1>   0.1200 
 23 H        3.7240     0.9520     2.3920 H     1 <1>   0.0800 
 24 H        5.2260     0.1230     2.4750 H     1 <1>   0.0800 
 25 H        5.6720    -1.7670     0.6890 H     1 <1>   0.0800 
 26 H        4.3360    -2.2150    -0.3180 H     1 <1>   0.0800 
 27 H        0.3190    -1.5200    -0.3330 H     1 <1>   0.1500 
 28 H        3.4700    -3.1820     2.0270 H     1 <1>   0.1500 
 29 H        4.9890     2.5570     1.5250 H     1 <1>   0.0800 
 30 H        5.3240    -1.0860    -1.9220 H     1 <1>   0.0800 
 31 H        2.5090    -5.4410     1.7180 H     1 <1>   0.1500 
 32 H        5.2260     2.5420    -0.9020 H     1 <1>   0.4500 
 33 H        7.0870     1.6260     1.8870 H     1 <1>   0.0800 
 34 H        7.1300     2.2800     0.2780 H     1 <1>   0.0800 
 35 H        7.1040     0.7520    -1.5270 H     1 <1>   0.0800 
 36 H        7.4590    -0.9060    -1.1190 H     1 <1>   0.0800 
 37 H        3.3990     0.3390    -1.2240 H     1 <1>   0.0800 
 38 H        4.5380     1.0150    -2.3400 H     1 <1>   0.0800 
 39 H       -0.8660    -3.9040    -1.8300 H     1 <1>   0.0800 
 40 H       -1.8260    -3.6700    -0.3720 H     1 <1>   0.0800 
 41 H        2.5420     1.9850     0.2010 H     1 <1>   0.0800 
 42 H        2.8650     2.8360    -1.2890 H     1 <1>   0.0800 
 43 H        3.3620     3.5260     0.2400 H     1 <1>   0.0800 
 44 H       -0.8080    -6.1890    -1.4190 H     1 <1>   0.0800 
 45 H       -1.7480    -5.9500     0.0560 H     1 <1>   0.0800 
@<TRIPOS>BOND
  1   1   2  2   
  2   2   3  am  
  3   2   4  1   
  4   3   5  1   
  5   3   6  1   
  6   4   7  ar  
  7   4   8  ar  
  8   5   9  1   
  9   5  23  1   
 10   5  24  1   
 11   6  10  1   
 12   6  25  1   
 13   6  26  1   
 14   7  11  ar  
 15   7  27  1   
 16   8  12  ar  
 17   8  28  1   
 18   9  13  1   
 19   9  14  1   
 20   9  29  1   
 21  10  15  1   
 22  10  16  1   
 23  10  30  1   
 24  11  17  ar  
 25  11  18  1   
 26  12  17  ar  
 27  12  31  1   
 28  13  16  1   
 29  13  19  1   
 30  13  32  1   
 31  14  20  1   
 32  14  33  1   
 33  14  34  1   
 34  15  20  1   
 35  15  35  1   
 36  15  36  1   
 37  16  37  1   
 38  16  38  1   
 39  17  21  1   
 40  18  22  1   
 41  18  39  1   
 42  18  40  1   
 43  19  41  1   
 44  19  42  1   
 45  19  43  1   
 46  21  22  1   
 47  22  44  1   
 48  22  45  1   
@<TRIPOS>SUBSTRUCTURE
  1 ****   2 GROUP 4 **** **** 0

# MOE 2024.06 (io_trps.svl 2023.06)
