@<TRIPOS>MOLECULE
NONAME
44 46 1 0 0 
SMALL
USER_CHARGES


@<TRIPOS>ATOM
  1 F        1.8140     0.9740    -0.2620 F     1 <1>  -0.1900 
  2 C        2.3110    -0.2330    -0.3600 C.ar  1 <1>   0.1900 
  3 C        1.5180    -1.3290     0.0010 C.ar  1 <1>   0.0820 
  4 C        3.6260    -0.3670    -0.8150 C.ar  1 <1>   0.0860 
  5 O        0.2350    -1.2860     0.4530 O.3   1 <1>  -0.3630 
  6 C        2.0680    -2.5950    -0.0950 C.ar  1 <1>  -0.1500 
  7 C        4.4790     0.7540    -1.1730 C.2   1 <1>   0.5440 
  8 C        4.1220    -1.6710    -0.9120 C.ar  1 <1>  -0.1500 
  9 C       -0.6520    -0.2390     0.1220 C.3   1 <1>   0.0400 
 10 C        3.3610    -2.7680    -0.5550 C.ar  1 <1>  -0.1500 
 11 O        5.4090     0.6190    -1.9470 O.2   1 <1>  -0.5700 
 12 N        4.3770     1.9910    -0.5930 N.am  1 <1>  -0.6600 
 13 C        4.9130     2.1500     0.8010 C.3   1 <1>   0.2200 
 14 C        4.2790     3.1900    -1.4810 C.3   1 <1>   0.1400 
 15 C        4.3070     3.3520     1.5440 C.3   1 <1>   0.1200 
 16 C        6.4630     2.2340     0.7850 C.3   1 <1>   0.3430 
 17 C        5.2380     4.3410    -1.1240 C.3   1 <1>  -0.0800 
 18 O        5.0390     4.5120     1.2800 O.3   1 <1>  -0.5600 
 19 N        7.0130     2.5650    -0.5780 N.4   1 <1>  -0.9590 
 20 C        4.7440     5.1520     0.0850 C.3   1 <1>   0.1200 
 21 C        6.7330     3.9690    -1.0170 C.3   1 <1>   0.3430 
 22 C        8.4570     2.2250    -0.6930 C.3   1 <1>   0.2630 
 23 H        1.4740    -3.4480     0.1860 H     1 <1>   0.1500 
 24 H        5.1240    -1.8290    -1.2760 H     1 <1>   0.1500 
 25 H       -1.6520    -0.5650     0.3490 H     1 <1>   0.0800 
 26 H       -0.5680    -0.0230    -0.9290 H     1 <1>   0.0800 
 27 H       -0.4130     0.6250     0.7140 H     1 <1>   0.0800 
 28 H        3.7710    -3.7610    -0.6350 H     1 <1>   0.1500 
 29 H        4.6340     1.2750     1.3630 H     1 <1>   0.0800 
 30 H        4.4670     2.8880    -2.4990 H     1 <1>   0.0800 
 31 H        3.2640     3.5490    -1.4500 H     1 <1>   0.0800 
 32 H        4.3770     3.1830     2.6040 H     1 <1>   0.0800 
 33 H        3.2690     3.4960     1.2950 H     1 <1>   0.0800 
 34 H        6.8450     1.2750     1.0910 H     1 <1>   0.0800 
 35 H        6.7950     2.9610     1.5080 H     1 <1>   0.0800 
 36 H        5.1700     5.0310    -1.9460 H     1 <1>   0.0800 
 37 H        6.4740     1.9440    -1.2260 H     1 <1>   0.4500 
 38 H        3.6830     5.3360     0.0370 H     1 <1>   0.0800 
 39 H        5.2440     6.1050     0.1130 H     1 <1>   0.0800 
 40 H        7.2150     4.6590    -0.3440 H     1 <1>   0.0800 
 41 H        7.1740     4.1060    -1.9910 H     1 <1>   0.0800 
 42 H        9.0410     2.8340    -0.0230 H     1 <1>   0.0800 
 43 H        8.7980     2.3910    -1.7020 H     1 <1>   0.0800 
 44 H        8.6150     1.1870    -0.4480 H     1 <1>   0.0800 
@<TRIPOS>BOND
  1   1   2  1   
  2   2   3  ar  
  3   2   4  ar  
  4   3   5  1   
  5   3   6  ar  
  6   4   7  1   
  7   4   8  ar  
  8   5   9  1   
  9   6  10  ar  
 10   6  23  1   
 11   7  11  2   
 12   7  12  am  
 13   8  10  ar  
 14   8  24  1   
 15   9  25  1   
 16   9  26  1   
 17   9  27  1   
 18  10  28  1   
 19  12  13  1   
 20  12  14  1   
 21  13  15  1   
 22  13  16  1   
 23  13  29  1   
 24  14  17  1   
 25  14  30  1   
 26  14  31  1   
 27  15  18  1   
 28  15  32  1   
 29  15  33  1   
 30  16  19  1   
 31  16  34  1   
 32  16  35  1   
 33  17  20  1   
 34  17  21  1   
 35  17  36  1   
 36  18  20  1   
 37  19  21  1   
 38  19  22  1   
 39  19  37  1   
 40  20  38  1   
 41  20  39  1   
 42  21  40  1   
 43  21  41  1   
 44  22  42  1   
 45  22  43  1   
 46  22  44  1   
@<TRIPOS>SUBSTRUCTURE
  1 ****  12 GROUP 4 **** **** 0

# MOE 2024.06 (io_trps.svl 2023.06)
