@<TRIPOS>MOLECULE
NONAME
47 49 1 0 0 
SMALL
USER_CHARGES


@<TRIPOS>ATOM
  1 O       -2.6060     0.4770    -3.2560 O.2   1 <1>  -0.5700 
  2 C       -2.1780     0.8250    -2.1820 C.2   1 <1>   0.5690 
  3 N       -1.9060    -0.0750    -1.2030 N.am  1 <1>  -0.7300 
  4 C       -1.9520     2.3110    -1.9270 C.3   1 <1>   0.1810 
  5 C       -2.0760    -1.5420    -1.2990 C.3   1 <1>   0.2200 
  6 O       -1.6670     2.5650    -0.5560 O.3   1 <1>  -0.3630 
  7 C       -3.2960    -2.0090    -0.5170 C.3   1 <1>  -0.0800 
  8 C       -0.9630    -2.2220    -0.5130 C.3   1 <1>   0.1200 
  9 C       -1.4350     3.8270    -0.1140 C.ar  1 <1>   0.0820 
 10 C       -2.7600    -2.1410     0.9120 C.3   1 <1>   0.1200 
 11 C       -4.5540    -1.1300    -0.6410 C.3   1 <1>  -0.0160 
 12 O       -1.3640    -2.1600     0.8220 O.3   1 <1>  -0.5600 
 13 C       -1.1370     3.9690     1.2320 C.ar  1 <1>  -0.1500 
 14 C       -1.4820     4.9560    -0.9280 C.ar  1 <1>  -0.1500 
 15 C       -5.7230    -1.7440     0.1130 C.ar  1 <1>  -0.1440 
 16 C       -0.8870     5.2190     1.7720 C.ar  1 <1>  -0.1500 
 17 C       -1.2310     6.2060    -0.3870 C.ar  1 <1>  -0.1500 
 18 C       -6.4820    -2.7620    -0.4280 C.ar  1 <1>  -0.1500 
 19 C       -6.0850    -1.3190     1.3760 C.ar  1 <1>  -0.1500 
 20 C       -0.9330     6.3480     0.9590 C.ar  1 <1>   0.0820 
 21 C       -7.5320    -3.2950     0.3010 C.ar  1 <1>   0.1600 
 22 C       -7.1540    -1.9200     2.0200 C.ar  1 <1>   0.1600 
 23 O       -0.7020     7.6110     1.4020 O.3   1 <1>  -0.3620 
 24 N       -7.8850    -2.9000     1.5130 N.ar  1 <1>  -0.6200 
 25 C       -0.3890     7.8630     2.7540 C.3   1 <1>   0.0400 
 26 H       -1.5740     0.2660    -0.2950 H     1 <1>   0.3700 
 27 H       -2.8410     2.8530    -2.1950 H     1 <1>   0.0800 
 28 H       -1.1210     2.6500    -2.5170 H     1 <1>   0.0800 
 29 H       -2.0990    -1.8540    -2.3300 H     1 <1>   0.0800 
 30 H       -3.5440    -2.9990    -0.8580 H     1 <1>   0.0800 
 31 H       -0.0110    -1.7360    -0.6310 H     1 <1>   0.0800 
 32 H       -0.8830    -3.2600    -0.7850 H     1 <1>   0.0800 
 33 H       -3.0940    -3.0500     1.3830 H     1 <1>   0.0800 
 34 H       -3.0330    -1.2960     1.5190 H     1 <1>   0.0800 
 35 H       -4.8150    -1.0260    -1.6810 H     1 <1>   0.0800 
 36 H       -4.3640    -0.1430    -0.2570 H     1 <1>   0.0800 
 37 H       -1.1020     3.0940     1.8560 H     1 <1>   0.1500 
 38 H       -1.7090     4.8910    -1.9740 H     1 <1>   0.1500 
 39 H       -0.6590     5.2920     2.8180 H     1 <1>   0.1500 
 40 H       -1.2640     7.0840    -1.0060 H     1 <1>   0.1500 
 41 H       -6.2670    -3.1440    -1.4090 H     1 <1>   0.1500 
 42 H       -5.5480    -0.5280     1.8660 H     1 <1>   0.1500 
 43 H       -8.1130    -4.0880    -0.1380 H     1 <1>   0.1500 
 44 H       -7.4220    -1.5770     3.0040 H     1 <1>   0.1500 
 45 H       -0.2470     8.9220     2.8720 H     1 <1>   0.0800 
 46 H        0.5180     7.3420     3.0060 H     1 <1>   0.0800 
 47 H       -1.2080     7.5330     3.3690 H     1 <1>   0.0800 
@<TRIPOS>BOND
  1   1   2  2   
  2   2   3  am  
  3   2   4  1   
  4   3   5  1   
  5   3  26  1   
  6   4   6  1   
  7   4  27  1   
  8   4  28  1   
  9   5   7  1   
 10   5   8  1   
 11   5  29  1   
 12   6   9  1   
 13   7  10  1   
 14   7  11  1   
 15   7  30  1   
 16   8  12  1   
 17   8  31  1   
 18   8  32  1   
 19   9  13  ar  
 20   9  14  ar  
 21  10  12  1   
 22  10  33  1   
 23  10  34  1   
 24  11  15  1   
 25  11  35  1   
 26  11  36  1   
 27  13  16  ar  
 28  13  37  1   
 29  14  17  ar  
 30  14  38  1   
 31  15  18  ar  
 32  15  19  ar  
 33  16  20  ar  
 34  16  39  1   
 35  17  20  ar  
 36  17  40  1   
 37  18  21  ar  
 38  18  41  1   
 39  19  22  ar  
 40  19  42  1   
 41  20  23  1   
 42  21  24  ar  
 43  21  43  1   
 44  22  24  ar  
 45  22  44  1   
 46  23  25  1   
 47  25  45  1   
 48  25  46  1   
 49  25  47  1   
@<TRIPOS>SUBSTRUCTURE
  1 ****   3 GROUP 4 **** **** 0

# MOE 2024.06 (io_trps.svl 2023.06)
