@<TRIPOS>MOLECULE
NONAME
54 56 1 0 0 
SMALL
USER_CHARGES


@<TRIPOS>ATOM
  1 O       -1.8720    -2.9790    -3.1010 O.2   1 <1>  -0.5700 
  2 C       -2.3720    -2.5820    -2.0750 C.2   1 <1>   0.5690 
  3 N       -2.8260    -1.3040    -1.9370 N.am  1 <1>  -0.6600 
  4 C       -2.4650    -3.5460    -0.9160 C.3   1 <1>  -0.0190 
  5 C       -3.5740    -0.8710    -0.7220 C.3   1 <1>   0.2200 
  6 C       -2.7070    -0.3000    -3.0320 C.3   1 <1>   0.0600 
  7 C       -1.6590    -3.0210     0.2870 C.3   1 <1>   0.1200 
  8 C       -3.9170    -3.9950    -0.6560 C.3   1 <1>   0.1400 
  9 C       -2.6720    -0.8610     0.5390 C.3   1 <1>   0.1200 
 10 C       -4.9000    -1.6530    -0.5980 C.3   1 <1>   0.1400 
 11 O       -2.3640    -2.1190     1.0810 O.3   1 <1>  -0.5600 
 12 N       -4.7950    -3.0030     0.0540 N.am  1 <1>  -0.6600 
 13 C       -5.4790    -3.2440     1.2390 C.2   1 <1>   0.5690 
 14 O       -6.1490    -2.3570     1.7300 O.2   1 <1>  -0.5700 
 15 C       -5.4590    -4.6050     2.0190 C.3   1 <1>   0.3410 
 16 O       -5.5950    -5.7530     1.1830 O.3   1 <1>  -0.3630 
 17 C       -4.1100    -4.7740     2.7360 C.3   1 <1>  -0.2400 
 18 C       -6.5550    -4.7260     3.1000 C.3   1 <1>  -0.2400 
 19 C       -6.4490    -5.9090     0.1300 C.ar  1 <1>   0.0820 
 20 C       -6.1970    -6.9680    -0.7460 C.ar  1 <1>  -0.1430 
 21 C       -7.5240    -5.0580    -0.1090 C.ar  1 <1>  -0.1500 
 22 C       -7.0080    -7.1430    -1.8660 C.ar  1 <1>  -0.1430 
 23 C       -5.0290    -7.9200    -0.4820 C.3   1 <1>  -0.0970 
 24 C       -8.3310    -5.2460    -1.2120 C.ar  1 <1>  -0.1500 
 25 C       -8.0710    -6.2820    -2.0870 C.ar  1 <1>  -0.1500 
 26 C       -6.7690    -8.2590    -2.8750 C.3   1 <1>  -0.0970 
 27 H       -1.9460    -4.4280    -1.2460 H     1 <1>   0.0800 
 28 H       -3.8560     0.1540    -0.8860 H     1 <1>   0.0800 
 29 H       -2.2150     0.5840    -2.6650 H     1 <1>   0.0800 
 30 H       -3.6850    -0.0400    -3.3960 H     1 <1>   0.0800 
 31 H       -2.1300    -0.6940    -3.8510 H     1 <1>   0.0800 
 32 H       -0.7470    -2.5510    -0.0400 H     1 <1>   0.0800 
 33 H       -1.3980    -3.8480     0.9230 H     1 <1>   0.0800 
 34 H       -3.8580    -4.9060    -0.0980 H     1 <1>   0.0800 
 35 H       -4.3810    -4.2420    -1.5960 H     1 <1>   0.0800 
 36 H       -3.1840    -0.3220     1.3160 H     1 <1>   0.0800 
 37 H       -1.7500    -0.3480     0.3300 H     1 <1>   0.0800 
 38 H       -5.3290    -1.7750    -1.5770 H     1 <1>   0.0800 
 39 H       -5.5800    -1.0310    -0.0460 H     1 <1>   0.0800 
 40 H       -3.9560    -3.9550     3.4150 H     1 <1>   0.0800 
 41 H       -3.3000    -4.7720     2.0350 H     1 <1>   0.0800 
 42 H       -4.0880    -5.6930     3.2930 H     1 <1>   0.0800 
 43 H       -6.4230    -3.9600     3.8420 H     1 <1>   0.0800 
 44 H       -6.5010    -5.6840     3.5850 H     1 <1>   0.0800 
 45 H       -7.5340    -4.6050     2.6800 H     1 <1>   0.0800 
 46 H       -7.7560    -4.2400     0.5440 H     1 <1>   0.1500 
 47 H       -5.2750    -8.9230    -0.7730 H     1 <1>   0.0800 
 48 H       -4.7740    -7.9530     0.5610 H     1 <1>   0.0800 
 49 H       -4.1670    -7.5960    -1.0360 H     1 <1>   0.0800 
 50 H       -9.1600    -4.5840    -1.3910 H     1 <1>   0.1500 
 51 H       -8.7070    -6.4120    -2.9450 H     1 <1>   0.1500 
 52 H       -7.3760    -8.1250    -3.7510 H     1 <1>   0.0800 
 53 H       -7.0140    -9.2090    -2.4350 H     1 <1>   0.0800 
 54 H       -5.7390    -8.2680    -3.1830 H     1 <1>   0.0800 
@<TRIPOS>BOND
  1   1   2  2   
  2   2   3  am  
  3   2   4  1   
  4   3   5  1   
  5   3   6  1   
  6   4   7  1   
  7   4   8  1   
  8   4  27  1   
  9   5   9  1   
 10   5  10  1   
 11   5  28  1   
 12   6  29  1   
 13   6  30  1   
 14   6  31  1   
 15   7  11  1   
 16   7  32  1   
 17   7  33  1   
 18   8  12  1   
 19   8  34  1   
 20   8  35  1   
 21   9  11  1   
 22   9  36  1   
 23   9  37  1   
 24  10  12  1   
 25  10  38  1   
 26  10  39  1   
 27  12  13  am  
 28  13  14  2   
 29  13  15  1   
 30  15  16  1   
 31  15  17  1   
 32  15  18  1   
 33  16  19  1   
 34  17  40  1   
 35  17  41  1   
 36  17  42  1   
 37  18  43  1   
 38  18  44  1   
 39  18  45  1   
 40  19  20  ar  
 41  19  21  ar  
 42  20  22  ar  
 43  20  23  1   
 44  21  24  ar  
 45  21  46  1   
 46  22  25  ar  
 47  22  26  1   
 48  23  47  1   
 49  23  48  1   
 50  23  49  1   
 51  24  25  ar  
 52  24  50  1   
 53  25  51  1   
 54  26  52  1   
 55  26  53  1   
 56  26  54  1   
@<TRIPOS>SUBSTRUCTURE
  1 ****   8 GROUP 4 **** **** 0

# MOE 2024.06 (io_trps.svl 2023.06)
