@<TRIPOS>MOLECULE
NONAME
51 52 1 0 0 
SMALL
USER_CHARGES


@<TRIPOS>ATOM
  1 S        2.2130     2.1360    -1.2760 S.o2  1 <1>   1.3330 
  2 O        2.9160     0.9450    -1.6950 O.2   1 <1>  -0.6500 
  3 O        2.3040     3.3240    -2.0960 O.2   1 <1>  -0.6500 
  4 N        2.7570     2.5110     0.2850 N.am  1 <1>  -0.8490 
  5 C        0.4720     1.7100    -1.0810 C.3   1 <1>  -0.0550 
  6 C        3.0360     1.3410     1.1220 C.3   1 <1>   0.1160 
  7 C        3.9200     3.4020     0.2820 C.3   1 <1>   0.1160 
  8 C       -0.5220     2.7440    -0.4920 C.3   1 <1>  -0.0800 
  9 C       -0.5050     4.1180    -1.1750 C.3   1 <1>   0.2000 
 10 C       -0.3130     3.0420     0.9990 C.3   1 <1>   0.1400 
 11 O       -1.8030     4.6050    -1.1570 O.3   1 <1>  -0.6800 
 12 C        0.3470     5.0140    -0.2740 C.3   1 <1>   0.1400 
 13 N        0.2520     4.4070     1.0780 N.am  1 <1>  -0.6600 
 14 C        0.9140     4.8520     2.1930 C.2   1 <1>   0.5690 
 15 O        0.9030     4.2150     3.2230 O.2   1 <1>  -0.5700 
 16 C        1.6490     6.1900     2.1880 C.3   1 <1>   0.1810 
 17 O        2.6880     6.2040     1.2220 O.3   1 <1>  -0.3630 
 18 C        3.1310     7.3820     0.7280 C.ar  1 <1>   0.0820 
 19 C        3.5630     7.3990    -0.5870 C.ar  1 <1>  -0.1500 
 20 C        3.1630     8.5490     1.4780 C.ar  1 <1>  -0.1500 
 21 C        4.0170     8.5710    -1.1700 C.ar  1 <1>  -0.1440 
 22 C        3.6160     9.7210     0.9010 C.ar  1 <1>  -0.1500 
 23 C        4.0420     9.7440    -0.4200 C.ar  1 <1>  -0.1440 
 24 C        4.4750     8.5410    -2.6210 C.3   1 <1>  -0.0970 
 25 C        4.5320    11.0550    -1.0160 C.3   1 <1>  -0.0970 
 26 H        0.1060     1.4430    -2.0530 H     1 <1>   0.0800 
 27 H        0.4110     0.8210    -0.4850 H     1 <1>   0.0800 
 28 H        3.2670     1.6560     2.1250 H     1 <1>   0.0800 
 29 H        3.8690     0.7840     0.7250 H     1 <1>   0.0800 
 30 H        2.1760     0.6960     1.1600 H     1 <1>   0.0800 
 31 H        4.1780     3.6800     1.2900 H     1 <1>   0.0800 
 32 H        3.6960     4.3020    -0.2630 H     1 <1>   0.0800 
 33 H        4.7630     2.9190    -0.1840 H     1 <1>   0.0800 
 34 H       -1.4970     2.3020    -0.6090 H     1 <1>   0.0800 
 35 H       -0.1670     4.1010    -2.1980 H     1 <1>   0.0800 
 36 H        0.3460     2.3330     1.4690 H     1 <1>   0.0800 
 37 H       -1.2560     3.0310     1.5180 H     1 <1>   0.0800 
 38 H       -2.0610     4.7840    -0.2310 H     1 <1>   0.4000 
 39 H       -0.0020     6.0320    -0.2800 H     1 <1>   0.0800 
 40 H        1.3710     4.9960    -0.5960 H     1 <1>   0.0800 
 41 H        2.0870     6.3680     3.1530 H     1 <1>   0.0800 
 42 H        0.9500     6.9720     1.9550 H     1 <1>   0.0800 
 43 H        3.5340     6.4860    -1.1520 H     1 <1>   0.1500 
 44 H        2.8500     8.5560     2.5050 H     1 <1>   0.1500 
 45 H        3.6360    10.6210     1.4900 H     1 <1>   0.1500 
 46 H        4.3780     7.5540    -3.0360 H     1 <1>   0.0800 
 47 H        5.5070     8.8350    -2.6880 H     1 <1>   0.0800 
 48 H        3.8780     9.2130    -3.2100 H     1 <1>   0.0800 
 49 H        4.4850    11.8500    -0.2940 H     1 <1>   0.0800 
 50 H        3.9210    11.3270    -1.8580 H     1 <1>   0.0800 
 51 H        5.5520    10.9540    -1.3410 H     1 <1>   0.0800 
@<TRIPOS>BOND
  1   1   2  2   
  2   1   3  2   
  3   1   4  am  
  4   1   5  1   
  5   4   6  1   
  6   4   7  1   
  7   5   8  1   
  8   5  26  1   
  9   5  27  1   
 10   6  28  1   
 11   6  29  1   
 12   6  30  1   
 13   7  31  1   
 14   7  32  1   
 15   7  33  1   
 16   8   9  1   
 17   8  10  1   
 18   8  34  1   
 19   9  11  1   
 20   9  12  1   
 21   9  35  1   
 22  10  13  1   
 23  10  36  1   
 24  10  37  1   
 25  11  38  1   
 26  12  13  1   
 27  12  39  1   
 28  12  40  1   
 29  13  14  am  
 30  14  15  2   
 31  14  16  1   
 32  16  17  1   
 33  16  41  1   
 34  16  42  1   
 35  17  18  1   
 36  18  19  ar  
 37  18  20  ar  
 38  19  21  ar  
 39  19  43  1   
 40  20  22  ar  
 41  20  44  1   
 42  21  23  ar  
 43  21  24  1   
 44  22  23  ar  
 45  22  45  1   
 46  23  25  1   
 47  24  46  1   
 48  24  47  1   
 49  24  48  1   
 50  25  49  1   
 51  25  50  1   
 52  25  51  1   
@<TRIPOS>SUBSTRUCTURE
  1 ****  17 GROUP 4 **** **** 0

# MOE 2024.06 (io_trps.svl 2023.06)
