@<TRIPOS>MOLECULE
NONAME
48 50 1 0 0 
SMALL
USER_CHARGES


@<TRIPOS>ATOM
  1 CL      -2.5080    -2.4750     1.9220 Cl    1 <1>  -0.1770 
  2 C       -3.5840    -1.2520     1.3030 C.ar  1 <1>   0.1770 
  3 C       -4.3540    -1.5210     0.1880 C.ar  1 <1>  -0.1500 
  4 C       -3.6560    -0.0250     1.9350 C.ar  1 <1>  -0.1500 
  5 C       -5.2100    -0.5480    -0.2940 C.ar  1 <1>  -0.1500 
  6 C       -4.5230     0.9380     1.4490 C.ar  1 <1>  -0.1500 
  7 C       -5.3290     0.6960     0.3340 C.ar  1 <1>   0.0530 
  8 C       -6.2650     1.6920    -0.1280 C.2   1 <1>   0.0870 
  9 O       -6.0470     2.9680     0.0680 O.3   1 <1>  -0.0190 
 10 C       -7.4540     1.5920    -0.7770 C.2   1 <1>  -0.0860 
 11 N       -7.0030     3.7270    -0.4030 N.2   1 <1>  -0.4100 
 12 C       -7.8600     2.9210    -0.9140 C.2   1 <1>   0.3720 
 13 C       -8.1410     0.4220    -1.2140 C.2   1 <1>   0.7160 
 14 N       -9.0310     3.3960    -1.4840 N.pl3 1 <1>  -0.8520 
 15 O       -8.1830     0.1500    -2.3990 O.2   1 <1>  -0.5700 
 16 N       -8.7170    -0.4480    -0.3130 N.am  1 <1>  -0.6600 
 17 C      -10.2710     3.1440    -0.7040 C.3   1 <1>   0.2090 
 18 C       -8.9420    -1.8880    -0.6780 C.3   1 <1>   0.2010 
 19 C       -9.1450    -0.0420     1.0520 C.3   1 <1>   0.1400 
 20 C      -11.1300     2.0740    -1.3820 C.3   1 <1>   0.1200 
 21 C       -7.8640    -2.8040    -0.1000 C.2   1 <1>   0.5690 
 22 C       -8.2740    -0.6600     2.1540 C.3   1 <1>  -0.1600 
 23 O      -11.9050     1.4390    -0.4100 O.3   1 <1>  -0.5600 
 24 O       -7.1670    -3.4530    -0.8390 O.2   1 <1>  -0.5700 
 25 N       -7.6760    -2.8900     1.2390 N.am  1 <1>  -0.7300 
 26 C       -8.4100    -2.1790     2.3040 C.3   1 <1>   0.1400 
 27 C      -12.6880     0.4080    -0.9180 C.3   1 <1>   0.0400 
 28 H       -4.2860    -2.4790    -0.2980 H     1 <1>   0.1500 
 29 H       -3.0410     0.1660     2.7960 H     1 <1>   0.1500 
 30 H       -5.7910    -0.7710    -1.1720 H     1 <1>   0.1500 
 31 H       -4.5810     1.8920     1.9450 H     1 <1>   0.1500 
 32 H       -8.9150     4.4040    -1.6290 H     1 <1>   0.4000 
 33 H      -10.8370     4.0550    -0.6260 H     1 <1>   0.0800 
 34 H      -10.0140     2.8220     0.2900 H     1 <1>   0.0800 
 35 H       -8.9460    -2.0090    -1.7470 H     1 <1>   0.0800 
 36 H       -9.9010    -2.2050    -0.3140 H     1 <1>   0.0800 
 37 H      -10.1750    -0.3230     1.1950 H     1 <1>   0.0800 
 38 H       -9.0990     1.0290     1.1420 H     1 <1>   0.0800 
 39 H      -10.5100     1.3360    -1.8590 H     1 <1>   0.0800 
 40 H      -11.7800     2.5260    -2.1110 H     1 <1>   0.0800 
 41 H       -8.5850    -0.2180     3.0840 H     1 <1>   0.0800 
 42 H       -7.2420    -0.3940     2.0150 H     1 <1>   0.0800 
 43 H       -6.9060    -3.4940     1.5360 H     1 <1>   0.3700 
 44 H       -9.4470    -2.4680     2.2860 H     1 <1>   0.0800 
 45 H       -7.9980    -2.4760     3.2540 H     1 <1>   0.0800 
 46 H      -13.2470    -0.0210    -0.1050 H     1 <1>   0.0800 
 47 H      -12.0490    -0.3410    -1.3560 H     1 <1>   0.0800 
 48 H      -13.3650     0.8040    -1.6540 H     1 <1>   0.0800 
@<TRIPOS>BOND
  1   1   2  1   
  2   2   3  ar  
  3   2   4  ar  
  4   3   5  ar  
  5   3  28  1   
  6   4   6  ar  
  7   4  29  1   
  8   5   7  ar  
  9   5  30  1   
 10   6   7  ar  
 11   6  31  1   
 12   7   8  1   
 13   8   9  1   
 14   8  10  2   
 15   9  11  1   
 16  10  12  1   
 17  10  13  1   
 18  11  12  2   
 19  12  14  1   
 20  13  15  2   
 21  13  16  am  
 22  14  17  1   
 23  14  32  1   
 24  16  18  1   
 25  16  19  1   
 26  17  20  1   
 27  17  33  1   
 28  17  34  1   
 29  18  21  1   
 30  18  35  1   
 31  18  36  1   
 32  19  22  1   
 33  19  37  1   
 34  19  38  1   
 35  20  23  1   
 36  20  39  1   
 37  20  40  1   
 38  21  24  2   
 39  21  25  am  
 40  22  26  1   
 41  22  41  1   
 42  22  42  1   
 43  23  27  1   
 44  25  26  1   
 45  25  43  1   
 46  26  44  1   
 47  26  45  1   
 48  27  46  1   
 49  27  47  1   
 50  27  48  1   
@<TRIPOS>SUBSTRUCTURE
  1 ****  13 GROUP 4 **** **** 0

# MOE 2024.06 (io_trps.svl 2023.06)
