@<TRIPOS>MOLECULE
NONAME
51 53 1 0 0 
SMALL
USER_CHARGES


@<TRIPOS>ATOM
  1 F       -4.5910     0.5410    -0.1940 F     1 <1>  -0.1900 
  2 C       -4.4200    -0.5760     0.4620 C.ar  1 <1>   0.1900 
  3 C       -3.9500    -1.6970    -0.2080 C.ar  1 <1>  -0.1440 
  4 C       -4.7370    -0.5730     1.8060 C.ar  1 <1>  -0.1500 
  5 C       -3.8160    -2.8960     0.5090 C.ar  1 <1>   0.0860 
  6 C       -3.5570    -1.5820    -1.6840 C.3   1 <1>  -0.0970 
  7 C       -4.5780    -1.7440     2.5190 C.ar  1 <1>  -0.1500 
  8 C       -3.3310    -4.1360    -0.0770 C.2   1 <1>   0.5440 
  9 C       -4.1200    -2.8780     1.8730 C.ar  1 <1>  -0.1500 
 10 O       -2.1970    -4.1630    -0.5160 O.2   1 <1>  -0.5700 
 11 N       -4.0820    -5.3010    -0.1260 N.am  1 <1>  -0.6600 
 12 C       -5.5360    -5.4210    -0.4490 C.3   1 <1>   0.2200 
 13 C       -3.3670    -6.6100    -0.1720 C.3   1 <1>   0.0600 
 14 C       -6.0110    -4.4860    -1.5560 C.3   1 <1>  -0.1600 
 15 C       -6.4500    -5.1800     0.7520 C.3   1 <1>  -0.1600 
 16 C       -7.5000    -4.2490    -1.2790 C.3   1 <1>  -0.0800 
 17 C       -7.6750    -4.4050     0.2360 C.3   1 <1>  -0.0800 
 18 C       -7.9390    -2.8220    -1.6080 C.3   1 <1>  -0.1600 
 19 C       -7.8230    -2.9800     0.8050 C.3   1 <1>  -0.1600 
 20 C       -7.5410    -2.0350    -0.3620 C.3   1 <1>   0.4230 
 21 N       -8.2070    -0.7040    -0.2250 N.4   1 <1>  -0.9590 
 22 C       -9.7060    -0.7340    -0.2260 C.3   1 <1>   0.2630 
 23 C       -7.7120     0.2380    -1.2760 C.3   1 <1>   0.2630 
 24 H       -5.0800     0.3280     2.2840 H     1 <1>   0.1500 
 25 H       -3.4550    -2.5410    -2.1580 H     1 <1>   0.0800 
 26 H       -2.6090    -1.0780    -1.7590 H     1 <1>   0.0800 
 27 H       -4.2870    -1.0180    -2.2340 H     1 <1>   0.0800 
 28 H       -4.7960    -1.7730     3.5750 H     1 <1>   0.1500 
 29 H       -3.9780    -3.7840     2.4400 H     1 <1>   0.1500 
 30 H       -5.7310    -6.4240    -0.7950 H     1 <1>   0.0800 
 31 H       -3.8870    -7.3370     0.4270 H     1 <1>   0.0800 
 32 H       -2.3660    -6.5070     0.2140 H     1 <1>   0.0800 
 33 H       -3.3090    -6.9570    -1.1890 H     1 <1>   0.0800 
 34 H       -5.4800    -3.5610    -1.5230 H     1 <1>   0.0800 
 35 H       -5.8620    -4.9340    -2.5230 H     1 <1>   0.0800 
 36 H       -6.7640    -6.1320     1.1440 H     1 <1>   0.0800 
 37 H       -5.9470    -4.6580     1.5380 H     1 <1>   0.0800 
 38 H       -8.0890    -4.9810    -1.8080 H     1 <1>   0.0800 
 39 H       -8.5720    -4.9670     0.4440 H     1 <1>   0.0800 
 40 H       -9.0040    -2.8240    -1.7470 H     1 <1>   0.0800 
 41 H       -7.4570    -2.4550    -2.4970 H     1 <1>   0.0800 
 42 H       -7.1440    -2.7900     1.6150 H     1 <1>   0.0800 
 43 H       -8.8280    -2.8700     1.1660 H     1 <1>   0.0800 
 44 H       -6.4740    -1.8900    -0.4020 H     1 <1>   0.0800 
 45 H       -7.9010    -0.3330     0.6860 H     1 <1>   0.4500 
 46 H      -10.0750    -1.0980    -1.1710 H     1 <1>   0.0800 
 47 H      -10.0980     0.2580    -0.0670 H     1 <1>   0.0800 
 48 H      -10.0760    -1.3740     0.5580 H     1 <1>   0.0800 
 49 H       -8.0280    -0.0910    -2.2530 H     1 <1>   0.0800 
 50 H       -6.6360     0.2850    -1.2630 H     1 <1>   0.0800 
 51 H       -8.1000     1.2290    -1.1040 H     1 <1>   0.0800 
@<TRIPOS>BOND
  1   1   2  1   
  2   2   3  ar  
  3   2   4  ar  
  4   3   5  ar  
  5   3   6  1   
  6   4   7  ar  
  7   4  24  1   
  8   5   8  1   
  9   5   9  ar  
 10   6  25  1   
 11   6  26  1   
 12   6  27  1   
 13   7   9  ar  
 14   7  28  1   
 15   8  10  2   
 16   8  11  am  
 17   9  29  1   
 18  11  12  1   
 19  11  13  1   
 20  12  14  1   
 21  12  15  1   
 22  12  30  1   
 23  13  31  1   
 24  13  32  1   
 25  13  33  1   
 26  14  16  1   
 27  14  34  1   
 28  14  35  1   
 29  15  17  1   
 30  15  36  1   
 31  15  37  1   
 32  16  17  1   
 33  16  18  1   
 34  16  38  1   
 35  17  19  1   
 36  17  39  1   
 37  18  20  1   
 38  18  40  1   
 39  18  41  1   
 40  19  20  1   
 41  19  42  1   
 42  19  43  1   
 43  20  21  1   
 44  20  44  1   
 45  21  22  1   
 46  21  23  1   
 47  21  45  1   
 48  22  46  1   
 49  22  47  1   
 50  22  48  1   
 51  23  49  1   
 52  23  50  1   
 53  23  51  1   
@<TRIPOS>SUBSTRUCTURE
  1 ****   5 GROUP 4 **** **** 0

# MOE 2024.06 (io_trps.svl 2023.06)
