@<TRIPOS>MOLECULE
NONAME
42 44 1 0 0 
SMALL
USER_CHARGES


@<TRIPOS>ATOM
  1 S        1.0750     0.1780     0.0130 S.o2  1 <1>   1.0900 
  2 O        2.3150     0.7710    -0.4420 O.2   1 <1>  -0.6500 
  3 O        0.9030    -1.2530     0.0640 O.2   1 <1>  -0.6500 
  4 C        0.6750     0.8660     1.6140 C.3   1 <1>  -0.0550 
  5 C       -0.2690     0.8900    -0.9270 C.3   1 <1>  -0.0550 
  6 C        0.6810     2.4030     1.5960 C.3   1 <1>  -0.1600 
  7 C       -0.2430     2.4260    -0.8910 C.3   1 <1>  -0.1600 
  8 C       -0.2530     3.0240     0.5330 C.3   1 <1>   0.2890 
  9 N        0.0150     4.4790     0.4470 N.pl3 1 <1>  -0.8690 
 10 C        1.1070     5.1800     0.0480 C.ar  1 <1>   0.1000 
 11 C        1.0860     6.6110     0.0690 C.ar  1 <1>   0.0000 
 12 C        2.2860     4.5680    -0.3960 C.ar  1 <1>  -0.1500 
 13 C        2.2270     7.3240    -0.3480 C.ar  1 <1>   0.3610 
 14 C       -0.0260     7.3670     0.4890 C.ar  1 <1>  -0.1500 
 15 C        3.3800     5.2880    -0.7960 C.ar  1 <1>   0.2180 
 16 N        3.3390     6.6300    -0.7680 N.ar  1 <1>  -0.1790 
 17 C        2.2260     8.7270    -0.3350 C.ar  1 <1>  -0.1500 
 18 C       -0.0080     8.7380     0.4950 C.ar  1 <1>  -0.1500 
 19 C        4.6500     4.6030    -1.2740 C.3   1 <1>  -0.0970 
 20 C        1.1250     9.4490     0.0810 C.ar  1 <1>  -0.1430 
 21 C        1.0950    10.9900     0.1060 C.3   1 <1>   1.1630 
 22 F        0.8810    11.4620     1.3250 F     1 <1>  -0.3400 
 23 F        0.1390    11.4810    -0.6690 F     1 <1>  -0.3400 
 24 F        2.2340    11.5270    -0.3130 F     1 <1>  -0.3400 
 25 H        1.3920     0.5230     2.3360 H     1 <1>   0.0800 
 26 H       -0.2900     0.5160     1.9260 H     1 <1>   0.0800 
 27 H       -1.2060     0.5390    -0.5390 H     1 <1>   0.0800 
 28 H       -0.1990     0.5630    -1.9480 H     1 <1>   0.0800 
 29 H        1.6940     2.7180     1.4470 H     1 <1>   0.0800 
 30 H        0.3790     2.7600     2.5650 H     1 <1>   0.0800 
 31 H       -1.1020     2.7970    -1.4230 H     1 <1>   0.0800 
 32 H        0.6230     2.7450    -1.4360 H     1 <1>   0.0800 
 33 H       -1.2580     2.9020     0.9050 H     1 <1>   0.0800 
 34 H       -0.8070     5.0080     0.7580 H     1 <1>   0.4000 
 35 H        2.3500     3.4980    -0.4300 H     1 <1>   0.1500 
 36 H       -0.9190     6.8650     0.8160 H     1 <1>   0.1500 
 37 H        4.1550     7.1680    -1.0660 H     1 <1>   0.4570 
 38 H        3.1120     9.2460    -0.6590 H     1 <1>   0.1500 
 39 H       -0.8820     9.2810     0.8250 H     1 <1>   0.1500 
 40 H        4.5390     3.5320    -1.2420 H     1 <1>   0.0800 
 41 H        5.4820     4.8680    -0.6450 H     1 <1>   0.0800 
 42 H        4.8710     4.8830    -2.2880 H     1 <1>   0.0800 
@<TRIPOS>BOND
  1   1   2  2   
  2   1   3  2   
  3   1   4  1   
  4   1   5  1   
  5   4   6  1   
  6   4  25  1   
  7   4  26  1   
  8   5   7  1   
  9   5  27  1   
 10   5  28  1   
 11   6   8  1   
 12   6  29  1   
 13   6  30  1   
 14   7   8  1   
 15   7  31  1   
 16   7  32  1   
 17   8   9  1   
 18   8  33  1   
 19   9  10  1   
 20   9  34  1   
 21  10  11  ar  
 22  10  12  ar  
 23  11  13  ar  
 24  11  14  ar  
 25  12  15  ar  
 26  12  35  1   
 27  13  16  ar  
 28  13  17  ar  
 29  14  18  ar  
 30  14  36  1   
 31  15  16  ar  
 32  15  19  1   
 33  16  37  1   
 34  17  20  ar  
 35  17  38  1   
 36  18  20  ar  
 37  18  39  1   
 38  19  40  1   
 39  19  41  1   
 40  19  42  1   
 41  20  21  1   
 42  21  22  1   
 43  21  23  1   
 44  21  24  1   
@<TRIPOS>SUBSTRUCTURE
  1 ****  10 GROUP 4 **** **** 0

# MOE 2024.06 (io_trps.svl 2023.06)
