@<TRIPOS>MOLECULE
NONAME
52 55 1 0 0 
SMALL
USER_CHARGES


@<TRIPOS>ATOM
  1 F        1.8650     1.2710    -1.0680 F     1 <1>  -0.1900 
  2 C        2.0340     0.1460    -0.4250 C.ar  1 <1>   0.1900 
  3 C        2.7250     0.1640     0.7850 C.ar  1 <1>   0.0860 
  4 C        1.5150    -1.0110    -0.9900 C.ar  1 <1>  -0.1440 
  5 C        3.2790     1.3740     1.3490 C.2   1 <1>   0.5440 
  6 C        2.8610    -1.0570     1.4450 C.ar  1 <1>  -0.1500 
  7 C        1.6840    -2.2050    -0.3070 C.ar  1 <1>  -0.1500 
  8 C        0.7750    -0.9810    -2.3200 C.3   1 <1>  -0.0960 
  9 O        2.8800     1.7440     2.4380 O.2   1 <1>  -0.5700 
 10 N        4.2790     2.0940     0.7240 N.am  1 <1>  -0.6600 
 11 C        2.3510    -2.2250     0.9070 C.ar  1 <1>  -0.1500 
 12 C        5.0490     1.5840    -0.4560 C.3   1 <1>   0.1400 
 13 C        4.6810     3.4390     1.2240 C.3   1 <1>   0.1400 
 14 C        6.5480     1.4520    -0.1570 C.3   1 <1>   0.1400 
 15 C        5.9490     3.3200     2.0760 C.3   1 <1>  -0.1600 
 16 N        7.1960     2.7930    -0.0660 N.am  1 <1>  -0.6600 
 17 C        7.2610     3.4220     1.2840 C.3   1 <1>   0.1400 
 18 C        7.6790     3.4060    -1.2070 C.2   1 <1>   0.5440 
 19 O        7.3980     2.9220    -2.2890 O.2   1 <1>  -0.5700 
 20 C        8.4520     4.6300    -1.1720 C.ar  1 <1>   0.0860 
 21 C        9.6930     4.7220    -0.5330 C.ar  1 <1>   0.0830 
 22 C        7.9540     5.7770    -1.7950 C.ar  1 <1>  -0.1500 
 23 O       10.2120     3.6300     0.0850 O.3   1 <1>  -0.3630 
 24 C       10.3980     5.9290    -0.5290 C.ar  1 <1>   0.0830 
 25 C        8.6450     6.9740    -1.7770 C.ar  1 <1>  -0.1500 
 26 C       11.3340     3.8000     0.9300 C.3   1 <1>   0.1200 
 27 O       11.6160     6.0320     0.0610 O.3   1 <1>  -0.3630 
 28 C        9.8710     7.0520    -1.1390 C.ar  1 <1>  -0.1500 
 29 C       12.3000     4.8250     0.3260 C.3   1 <1>   0.1200 
 30 H        3.3720    -1.0780     2.3920 H     1 <1>   0.1500 
 31 H        1.2950    -3.1240    -0.7120 H     1 <1>   0.1500 
 32 H       -0.0940    -0.3520    -2.2410 H     1 <1>   0.0800 
 33 H        0.4590    -1.9660    -2.6110 H     1 <1>   0.0800 
 34 H        1.4170    -0.5870    -3.0880 H     1 <1>   0.0800 
 35 H        2.4720    -3.1560     1.4350 H     1 <1>   0.1500 
 36 H        4.9080     2.2460    -1.2930 H     1 <1>   0.0800 
 37 H        4.6870     0.6160    -0.7470 H     1 <1>   0.0800 
 38 H        3.8860     3.8460     1.8270 H     1 <1>   0.0800 
 39 H        4.8350     4.1090     0.3960 H     1 <1>   0.0800 
 40 H        7.0110     0.8950    -0.9530 H     1 <1>   0.0800 
 41 H        6.6980     0.9000     0.7540 H     1 <1>   0.0800 
 42 H        5.9220     2.4000     2.6340 H     1 <1>   0.0800 
 43 H        5.9460     4.1150     2.7980 H     1 <1>   0.0800 
 44 H        8.0570     2.9630     1.8450 H     1 <1>   0.0800 
 45 H        7.5000     4.4650     1.1780 H     1 <1>   0.0800 
 46 H        7.0060     5.7150    -2.3020 H     1 <1>   0.1500 
 47 H        8.2360     7.8440    -2.2610 H     1 <1>   0.1500 
 48 H       11.8110     2.8440     1.0440 H     1 <1>   0.0800 
 49 H       10.9830     4.1380     1.8890 H     1 <1>   0.0800 
 50 H       10.4220     7.9750    -1.1200 H     1 <1>   0.1500 
 51 H       12.7060     4.4580    -0.6000 H     1 <1>   0.0800 
 52 H       13.1050     5.0410     1.0050 H     1 <1>   0.0800 
@<TRIPOS>BOND
  1   1   2  1   
  2   2   3  ar  
  3   2   4  ar  
  4   3   5  1   
  5   3   6  ar  
  6   4   7  ar  
  7   4   8  1   
  8   5   9  2   
  9   5  10  am  
 10   6  11  ar  
 11   6  30  1   
 12   7  11  ar  
 13   7  31  1   
 14   8  32  1   
 15   8  33  1   
 16   8  34  1   
 17  10  12  1   
 18  10  13  1   
 19  11  35  1   
 20  12  14  1   
 21  12  36  1   
 22  12  37  1   
 23  13  15  1   
 24  13  38  1   
 25  13  39  1   
 26  14  16  1   
 27  14  40  1   
 28  14  41  1   
 29  15  17  1   
 30  15  42  1   
 31  15  43  1   
 32  16  17  1   
 33  16  18  am  
 34  17  44  1   
 35  17  45  1   
 36  18  19  2   
 37  18  20  1   
 38  20  21  ar  
 39  20  22  ar  
 40  21  23  1   
 41  21  24  ar  
 42  22  25  ar  
 43  22  46  1   
 44  23  26  1   
 45  24  27  1   
 46  24  28  ar  
 47  25  28  ar  
 48  25  47  1   
 49  26  29  1   
 50  26  48  1   
 51  26  49  1   
 52  27  29  1   
 53  28  50  1   
 54  29  51  1   
 55  29  52  1   
@<TRIPOS>SUBSTRUCTURE
  1 ****  16 GROUP 4 **** **** 0

# MOE 2024.06 (io_trps.svl 2023.06)
