@<TRIPOS>MOLECULE
NONAME
57 59 1 0 0 
SMALL
USER_CHARGES


@<TRIPOS>ATOM
  1 O       -1.5730     0.4040     2.3620 O.2   1 <1>  -0.5700 
  2 C       -1.8590     1.0430     1.3770 C.2   1 <1>   0.5690 
  3 N       -2.3180     0.4040     0.2520 N.am  1 <1>  -0.6600 
  4 C       -1.6830     2.5630     1.4800 C.3   1 <1>  -0.0190 
  5 C       -2.8410     0.9760    -1.0170 C.3   1 <1>   0.1400 
  6 C       -2.4700    -1.0770     0.2180 C.3   1 <1>   0.1400 
  7 C       -3.0200     3.3130     1.6380 C.3   1 <1>  -0.1600 
  8 C       -0.8120     3.1840     0.3680 C.3   1 <1>  -0.1600 
  9 C       -3.8250    -0.0750    -1.5230 C.3   1 <1>   0.2000 
 10 C       -3.1660    -1.3920    -1.1120 C.3   1 <1>  -0.0800 
 11 C       -2.8010     4.8180     1.8090 C.3   1 <1>   0.1400 
 12 C       -0.6310     4.6890     0.5780 C.3   1 <1>   0.1400 
 13 O       -5.0150     0.0870    -0.8290 O.3   1 <1>  -0.6800 
 14 C       -4.1010    -2.6140    -1.0500 C.3   1 <1>   0.0210 
 15 N       -1.9690     5.3340     0.6870 N.am  1 <1>  -0.6600 
 16 C       -3.3340    -3.8560    -0.6410 C.2   1 <1>   0.1080 
 17 C       -2.3940     6.3920    -0.0880 C.2   1 <1>   0.5690 
 18 N       -2.3760    -4.3590    -1.3560 N.2   1 <1>  -0.7070 
 19 C       -3.5530    -4.5780     0.5280 C.2   1 <1>  -0.1500 
 20 O       -3.5020     6.8630     0.0460 O.2   1 <1>  -0.5700 
 21 C       -1.5210     7.0040    -1.1910 C.3   1 <1>   0.1810 
 22 N       -1.9550    -5.4290    -0.6550 N.pl3 1 <1>   0.3000 
 23 C       -2.6520    -5.5810     0.4910 C.2   1 <1>  -0.3320 
 24 O       -0.2750     7.4530    -0.7170 O.3   1 <1>  -0.5600 
 25 C       -2.4090    -6.6920     1.4960 C.3   1 <1>  -0.0600 
 26 C        0.4890     8.1100    -1.6690 C.3   1 <1>   0.1200 
 27 C        1.8230     8.4560    -1.0210 C.3   1 <1>  -0.2400 
 28 H       -1.1430     2.7260     2.3980 H     1 <1>   0.0800 
 29 H       -3.3210     1.9270    -0.8890 H     1 <1>   0.0800 
 30 H       -2.0290     1.0720    -1.7160 H     1 <1>   0.0800 
 31 H       -1.5100    -1.5610     0.2790 H     1 <1>   0.0800 
 32 H       -3.0740    -1.3900     1.0540 H     1 <1>   0.0800 
 33 H       -3.5390     2.9360     2.5010 H     1 <1>   0.0800 
 34 H       -3.6560     3.1600     0.7880 H     1 <1>   0.0800 
 35 H       -1.2540     3.0370    -0.5970 H     1 <1>   0.0800 
 36 H        0.1530     2.7080     0.3640 H     1 <1>   0.0800 
 37 H       -4.0250    -0.0040    -2.5790 H     1 <1>   0.0800 
 38 H       -2.3920    -1.6070    -1.8290 H     1 <1>   0.0800 
 39 H       -2.2920     5.0130     2.7370 H     1 <1>   0.0800 
 40 H       -3.7530     5.3190     1.8440 H     1 <1>   0.0800 
 41 H       -0.0640     5.0900    -0.2420 H     1 <1>   0.0800 
 42 H       -0.0790     4.8750     1.4840 H     1 <1>   0.0800 
 43 H       -4.8050     0.1560     0.1250 H     1 <1>   0.4000 
 44 H       -4.5360    -2.7820    -2.0180 H     1 <1>   0.0800 
 45 H       -4.8990    -2.4470    -0.3510 H     1 <1>   0.0800 
 46 H       -4.2890    -4.3590     1.2810 H     1 <1>   0.1500 
 47 H       -2.0430     7.8430    -1.6150 H     1 <1>   0.0800 
 48 H       -1.3530     6.2690    -1.9550 H     1 <1>   0.0800 
 49 H       -1.1920    -6.0320    -0.9850 H     1 <1>   0.2700 
 50 H       -3.0900    -6.5970     2.3230 H     1 <1>   0.0800 
 51 H       -1.4030    -6.6400     1.8730 H     1 <1>   0.0800 
 52 H       -2.5630    -7.6510     1.0340 H     1 <1>   0.0800 
 53 H        0.6360     7.4580    -2.5140 H     1 <1>   0.0800 
 54 H       -0.0290     9.0040    -1.9760 H     1 <1>   0.0800 
 55 H        2.3230     7.5600    -0.7020 H     1 <1>   0.0800 
 56 H        1.6640     9.0990    -0.1740 H     1 <1>   0.0800 
 57 H        2.4510     8.9680    -1.7280 H     1 <1>   0.0800 
@<TRIPOS>BOND
  1   1   2  2   
  2   2   3  am  
  3   2   4  1   
  4   3   5  1   
  5   3   6  1   
  6   4   7  1   
  7   4   8  1   
  8   4  28  1   
  9   5   9  1   
 10   5  29  1   
 11   5  30  1   
 12   6  10  1   
 13   6  31  1   
 14   6  32  1   
 15   7  11  1   
 16   7  33  1   
 17   7  34  1   
 18   8  12  1   
 19   8  35  1   
 20   8  36  1   
 21   9  10  1   
 22   9  13  1   
 23   9  37  1   
 24  10  14  1   
 25  10  38  1   
 26  11  15  1   
 27  11  39  1   
 28  11  40  1   
 29  12  15  1   
 30  12  41  1   
 31  12  42  1   
 32  13  43  1   
 33  14  16  1   
 34  14  44  1   
 35  14  45  1   
 36  15  17  am  
 37  16  18  2   
 38  16  19  1   
 39  17  20  2   
 40  17  21  1   
 41  18  22  1   
 42  19  23  2   
 43  19  46  1   
 44  21  24  1   
 45  21  47  1   
 46  21  48  1   
 47  22  23  1   
 48  22  49  1   
 49  23  25  1   
 50  24  26  1   
 51  25  50  1   
 52  25  51  1   
 53  25  52  1   
 54  26  27  1   
 55  26  53  1   
 56  26  54  1   
 57  27  55  1   
 58  27  56  1   
 59  27  57  1   
@<TRIPOS>SUBSTRUCTURE
  1 ****   3 GROUP 4 **** **** 0

# MOE 2024.06 (io_trps.svl 2023.06)
