@<TRIPOS>MOLECULE
NONAME
44 46 1 0 0 
SMALL
USER_CHARGES


@<TRIPOS>ATOM
  1 O       -1.2460     0.5020     1.2390 O.2   1 <1>  -0.5700 
  2 C       -1.4060     1.2660     0.3050 C.2   1 <1>   0.5440 
  3 N       -2.3230     0.9280    -0.6710 N.am  1 <1>  -0.6600 
  4 C       -0.6460     2.5020     0.2630 C.ar  1 <1>   0.0860 
  5 C       -2.8630    -0.4620    -0.7350 C.3   1 <1>   0.1400 
  6 C       -2.9030     1.9200    -1.6230 C.3   1 <1>   0.1400 
  7 C        0.0340     2.9080    -0.8830 C.ar  1 <1>  -0.1500 
  8 C       -0.5660     3.3310     1.3820 C.ar  1 <1>  -0.1500 
  9 C       -4.0430    -0.6520     0.2300 C.3   1 <1>   0.1400 
 10 C       -4.4300     1.8320    -1.7420 C.3   1 <1>  -0.1600 
 11 C        0.7370     4.0970    -0.9130 C.ar  1 <1>   0.0820 
 12 C        0.1420     4.5200     1.3550 C.ar  1 <1>  -0.1500 
 13 N       -5.2780     0.0720    -0.2100 N.am  1 <1>  -0.6600 
 14 C       -5.1480     1.5420    -0.4190 C.3   1 <1>   0.1400 
 15 O        1.3590     4.4380    -2.0510 O.3   1 <1>  -0.5320 
 16 C        0.8000     4.9210     0.2040 C.ar  1 <1>  -0.1430 
 17 C       -6.4510    -0.5760    -0.5330 C.2   1 <1>   0.7160 
 18 C        1.5720     6.2340     0.1930 C.3   1 <1>  -0.0970 
 19 O       -7.1980    -0.0640    -1.3470 O.2   1 <1>  -0.5700 
 20 C       -6.8200    -1.8440     0.0540 C.2   1 <1>  -0.0860 
 21 C       -7.5400    -2.8480    -0.5150 C.2   1 <1>  -0.0100 
 22 C       -6.5460    -2.3190     1.3550 C.2   1 <1>  -0.1500 
 23 O       -7.6950    -3.8570     0.3090 O.3   1 <1>  -0.2800 
 24 C       -7.1010    -3.5450     1.4410 C.2   1 <1>  -0.0100 
 25 H       -2.0810    -1.1470    -0.4570 H     1 <1>   0.0800 
 26 H       -3.1630    -0.7040    -1.7390 H     1 <1>   0.0800 
 27 H       -2.4580     1.7810    -2.5940 H     1 <1>   0.0800 
 28 H       -2.6580     2.9140    -1.2900 H     1 <1>   0.0800 
 29 H        0.0170     2.2880    -1.7600 H     1 <1>   0.1500 
 30 H       -1.0670     3.0270     2.2850 H     1 <1>   0.1500 
 31 H       -3.7590    -0.3180     1.2140 H     1 <1>   0.0800 
 32 H       -4.2390    -1.7070     0.2870 H     1 <1>   0.0800 
 33 H       -4.7070     1.0950    -2.4750 H     1 <1>   0.0800 
 34 H       -4.7780     2.7780    -2.1150 H     1 <1>   0.0800 
 35 H        0.1760     5.1290     2.2420 H     1 <1>   0.1500 
 36 H       -6.1330     1.9790    -0.4510 H     1 <1>   0.0800 
 37 H       -4.6220     1.9870     0.4080 H     1 <1>   0.0800 
 38 H        1.8550     5.2710    -1.9670 H     1 <1>   0.4500 
 39 H        1.1780     6.8890    -0.5640 H     1 <1>   0.0800 
 40 H        2.6130     6.0490    -0.0020 H     1 <1>   0.0800 
 41 H        1.4920     6.7330     1.1430 H     1 <1>   0.0800 
 42 H       -7.9700    -2.9000    -1.5000 H     1 <1>   0.1500 
 43 H       -6.0030    -1.7770     2.1090 H     1 <1>   0.1500 
 44 H       -7.1280    -4.2510     2.2530 H     1 <1>   0.1500 
@<TRIPOS>BOND
  1   1   2  2   
  2   2   3  am  
  3   2   4  1   
  4   3   5  1   
  5   3   6  1   
  6   4   7  ar  
  7   4   8  ar  
  8   5   9  1   
  9   5  25  1   
 10   5  26  1   
 11   6  10  1   
 12   6  27  1   
 13   6  28  1   
 14   7  11  ar  
 15   7  29  1   
 16   8  12  ar  
 17   8  30  1   
 18   9  13  1   
 19   9  31  1   
 20   9  32  1   
 21  10  14  1   
 22  10  33  1   
 23  10  34  1   
 24  11  15  1   
 25  11  16  ar  
 26  12  16  ar  
 27  12  35  1   
 28  13  14  1   
 29  13  17  am  
 30  14  36  1   
 31  14  37  1   
 32  15  38  1   
 33  16  18  1   
 34  17  19  2   
 35  17  20  1   
 36  18  39  1   
 37  18  40  1   
 38  18  41  1   
 39  20  21  2   
 40  20  22  1   
 41  21  23  1   
 42  21  42  1   
 43  22  24  2   
 44  22  43  1   
 45  23  24  1   
 46  24  44  1   
@<TRIPOS>SUBSTRUCTURE
  1 ****   3 GROUP 4 **** **** 0

# MOE 2024.06 (io_trps.svl 2023.06)
