@<TRIPOS>MOLECULE
NONAME
44 46 1 0 0 
SMALL
USER_CHARGES


@<TRIPOS>ATOM
  1 CL      -5.9970    -1.4290     3.4960 Cl    1 <1>  -0.1770 
  2 C       -4.9830    -1.6790     2.0950 C.ar  1 <1>   0.1770 
  3 C       -4.6380    -0.6290     1.2600 C.ar  1 <1>   0.1900 
  4 C       -4.5300    -2.9540     1.8160 C.ar  1 <1>  -0.1500 
  5 F       -5.0660     0.5800     1.5200 F     1 <1>  -0.1900 
  6 C       -3.8460    -0.8240     0.1430 C.ar  1 <1>  -0.1500 
  7 C       -3.7470    -3.1680     0.6920 C.ar  1 <1>   0.0830 
  8 C       -3.3970    -2.1050    -0.1400 C.ar  1 <1>  -0.1500 
  9 O       -3.3630    -4.4410     0.4500 O.3   1 <1>  -0.3630 
 10 C       -3.2600    -4.8990    -0.8930 C.3   1 <1>   0.1810 
 11 C       -3.5900    -6.3870    -1.0030 C.2   1 <1>   0.5690 
 12 O       -2.6770    -7.1220    -1.3060 O.2   1 <1>  -0.5700 
 13 N       -4.8720    -6.8650    -0.8200 N.am  1 <1>  -0.6600 
 14 C       -6.0030    -6.0020    -0.3570 C.3   1 <1>   0.2200 
 15 C       -5.1650    -8.3080    -1.0840 C.3   1 <1>   0.0600 
 16 C       -6.9330    -6.6370     0.6780 C.3   1 <1>  -0.1600 
 17 C       -6.9250    -5.5920    -1.4980 C.3   1 <1>  -0.1600 
 18 C       -8.2310    -5.8230     0.5790 C.3   1 <1>  -0.0800 
 19 C       -8.2110    -5.1360    -0.8000 C.3   1 <1>  -0.0800 
 20 C       -8.3450    -4.7000     1.6220 C.3   1 <1>  -0.1600 
 21 C       -8.2570    -3.6260    -0.5220 C.3   1 <1>  -0.1600 
 22 C       -8.9120    -3.5230     0.8440 C.3   1 <1>   0.2000 
 23 O       -8.5850    -2.3330     1.4530 O.3   1 <1>  -0.6800 
 24 H       -4.7840    -3.7760     2.4610 H     1 <1>   0.1500 
 25 H       -3.5880     0.0110    -0.4860 H     1 <1>   0.1500 
 26 H       -2.7700    -2.2640    -1.0000 H     1 <1>   0.1500 
 27 H       -3.9440    -4.3470    -1.5090 H     1 <1>   0.0800 
 28 H       -2.2530    -4.7250    -1.2260 H     1 <1>   0.0800 
 29 H       -5.6280    -5.1030     0.0890 H     1 <1>   0.0800 
 30 H       -6.1120    -8.4150    -1.5810 H     1 <1>   0.0800 
 31 H       -5.1870    -8.8480    -0.1540 H     1 <1>   0.0800 
 32 H       -4.4070    -8.7440    -1.7120 H     1 <1>   0.0800 
 33 H       -7.1650    -7.6530     0.4210 H     1 <1>   0.0800 
 34 H       -6.5030    -6.6120     1.6640 H     1 <1>   0.0800 
 35 H       -6.4930    -4.8180    -2.1070 H     1 <1>   0.0800 
 36 H       -7.1470    -6.4440    -2.1140 H     1 <1>   0.0800 
 37 H       -9.0880    -6.4720     0.6540 H     1 <1>   0.0800 
 38 H       -9.0780    -5.4240    -1.3710 H     1 <1>   0.0800 
 39 H       -7.3720    -4.4480     2.0060 H     1 <1>   0.0800 
 40 H       -8.9930    -4.9810     2.4330 H     1 <1>   0.0800 
 41 H       -8.8280    -3.1040    -1.2700 H     1 <1>   0.0800 
 42 H       -7.2610    -3.2210    -0.4760 H     1 <1>   0.0800 
 43 H       -9.9850    -3.5900     0.7620 H     1 <1>   0.0800 
 44 H       -7.6450    -2.3250     1.7130 H     1 <1>   0.4000 
@<TRIPOS>BOND
  1   1   2  1   
  2   2   3  ar  
  3   2   4  ar  
  4   3   5  1   
  5   3   6  ar  
  6   4   7  ar  
  7   4  24  1   
  8   6   8  ar  
  9   6  25  1   
 10   7   8  ar  
 11   7   9  1   
 12   8  26  1   
 13   9  10  1   
 14  10  11  1   
 15  10  27  1   
 16  10  28  1   
 17  11  12  2   
 18  11  13  am  
 19  13  14  1   
 20  13  15  1   
 21  14  16  1   
 22  14  17  1   
 23  14  29  1   
 24  15  30  1   
 25  15  31  1   
 26  15  32  1   
 27  16  18  1   
 28  16  33  1   
 29  16  34  1   
 30  17  19  1   
 31  17  35  1   
 32  17  36  1   
 33  18  19  1   
 34  18  20  1   
 35  18  37  1   
 36  19  21  1   
 37  19  38  1   
 38  20  22  1   
 39  20  39  1   
 40  20  40  1   
 41  21  22  1   
 42  21  41  1   
 43  21  42  1   
 44  22  23  1   
 45  22  43  1   
 46  23  44  1   
@<TRIPOS>SUBSTRUCTURE
  1 ****  14 GROUP 4 **** **** 0

# MOE 2024.06 (io_trps.svl 2023.06)
