@<TRIPOS>MOLECULE
NONAME
46 48 1 0 0 
SMALL
USER_CHARGES


@<TRIPOS>ATOM
  1 S        0.0330    -0.9710    -1.8450 S.3   1 <1>  -0.0800 
  2 C       -0.2710    -2.6660    -1.4660 C.ar  1 <1>   0.2970 
  3 C       -1.3280    -0.4530    -0.8470 C.2   1 <1>  -0.1100 
  4 N        0.4530    -3.6570    -1.9390 N.ar  1 <1>  -0.5670 
  5 C       -1.3500    -2.7840    -0.6290 C.ar  1 <1>   0.0000 
  6 C       -1.9390    -1.5130    -0.2890 C.2   1 <1>  -0.1500 
  7 C        0.0430    -4.8380    -1.5260 C.ar  1 <1>   0.4770 
  8 C       -1.6730    -4.0930    -0.2740 C.ar  1 <1>   0.4100 
  9 N       -0.9890    -5.1230    -0.7360 N.ar  1 <1>  -0.6200 
 10 C        0.8430    -6.0220    -2.0160 C.3   1 <1>  -0.0960 
 11 N       -2.7140    -4.3980     0.5720 N.pl3 1 <1>  -0.8380 
 12 C       -4.0980    -4.5700     0.0190 C.3   1 <1>   0.2090 
 13 C       -2.6210    -3.9600     1.9940 C.3   1 <1>   0.1290 
 14 C       -4.1990    -5.8190    -0.8870 C.3   1 <1>   0.3430 
 15 N       -3.2910    -6.9030    -0.4070 N.4   1 <1>  -0.9590 
 16 C       -2.9240    -7.8330    -1.5040 C.3   1 <1>   0.3430 
 17 C       -3.7540    -7.5340     0.8570 C.3   1 <1>   0.3430 
 18 C       -1.7620    -8.7550    -1.1270 C.3   1 <1>  -0.1600 
 19 C       -2.5480    -7.9800     1.6810 C.3   1 <1>  -0.1600 
 20 C       -2.1500    -9.8360    -0.1080 C.3   1 <1>  -0.1600 
 21 C       -2.0290    -9.3900     1.3570 C.3   1 <1>  -0.1600 
 22 H       -1.5180     0.6060    -0.7930 H     1 <1>   0.1500 
 23 H       -2.7930    -1.4650     0.3610 H     1 <1>   0.1500 
 24 H        1.7370    -5.6920    -2.5140 H     1 <1>   0.0800 
 25 H        0.2540    -6.5960    -2.7050 H     1 <1>   0.0800 
 26 H        1.1230    -6.6390    -1.1830 H     1 <1>   0.0800 
 27 H       -4.3760    -3.6960    -0.5440 H     1 <1>   0.0800 
 28 H       -4.7980    -4.6720     0.8290 H     1 <1>   0.0800 
 29 H       -1.6040    -3.7000     2.2370 H     1 <1>   0.0800 
 30 H       -2.9320    -4.7590     2.6460 H     1 <1>   0.0800 
 31 H       -3.2470    -3.1010     2.1640 H     1 <1>   0.0800 
 32 H       -3.8950    -5.5250    -1.8780 H     1 <1>   0.0800 
 33 H       -5.2170    -6.1650    -0.9400 H     1 <1>   0.0800 
 34 H       -2.4300    -6.3570    -0.1620 H     1 <1>   0.4500 
 35 H       -2.6270    -7.2540    -2.3630 H     1 <1>   0.0800 
 36 H       -3.7790    -8.4270    -1.7820 H     1 <1>   0.0800 
 37 H       -4.4090    -8.3660     0.6560 H     1 <1>   0.0800 
 38 H       -4.2980    -6.8050     1.4340 H     1 <1>   0.0800 
 39 H       -0.9190    -8.1840    -0.7820 H     1 <1>   0.0800 
 40 H       -1.4550    -9.2550    -2.0290 H     1 <1>   0.0800 
 41 H       -2.8290    -7.9690     2.7200 H     1 <1>   0.0800 
 42 H       -1.7540    -7.2610     1.5710 H     1 <1>   0.0800 
 43 H       -1.5000   -10.6860    -0.2430 H     1 <1>   0.0800 
 44 H       -3.1510   -10.1810    -0.3050 H     1 <1>   0.0800 
 45 H       -2.5580   -10.1070     1.9630 H     1 <1>   0.0800 
 46 H       -0.9940    -9.4420     1.6530 H     1 <1>   0.0800 
@<TRIPOS>BOND
  1   1   2  1   
  2   1   3  1   
  3   2   4  ar  
  4   2   5  ar  
  5   3   6  2   
  6   3  22  1   
  7   4   7  ar  
  8   5   6  1   
  9   5   8  ar  
 10   6  23  1   
 11   7   9  ar  
 12   7  10  1   
 13   8   9  ar  
 14   8  11  1   
 15  10  24  1   
 16  10  25  1   
 17  10  26  1   
 18  11  12  1   
 19  11  13  1   
 20  12  14  1   
 21  12  27  1   
 22  12  28  1   
 23  13  29  1   
 24  13  30  1   
 25  13  31  1   
 26  14  15  1   
 27  14  32  1   
 28  14  33  1   
 29  15  16  1   
 30  15  17  1   
 31  15  34  1   
 32  16  18  1   
 33  16  35  1   
 34  16  36  1   
 35  17  19  1   
 36  17  37  1   
 37  17  38  1   
 38  18  20  1   
 39  18  39  1   
 40  18  40  1   
 41  19  21  1   
 42  19  41  1   
 43  19  42  1   
 44  20  21  1   
 45  20  43  1   
 46  20  44  1   
 47  21  45  1   
 48  21  46  1   
@<TRIPOS>SUBSTRUCTURE
  1 ****   9 GROUP 4 **** **** 0

# MOE 2024.06 (io_trps.svl 2023.06)
