@<TRIPOS>MOLECULE
NONAME
41 43 1 0 0 
SMALL
USER_CHARGES


@<TRIPOS>ATOM
  1 F        0.0510    -0.4280     0.3830 F     1 <1>  -0.1900 
  2 C        0.0280    -1.7350     0.3310 C.ar  1 <1>   0.1900 
  3 C        0.6010    -2.3850    -0.7530 C.ar  1 <1>   0.0830 
  4 C       -0.5690    -2.4350     1.3620 C.ar  1 <1>  -0.1500 
  5 O        1.1800    -1.6940    -1.7540 O.3   1 <1>  -0.5330 
  6 C        0.5720    -3.7660    -0.8020 C.ar  1 <1>  -0.1500 
  7 C       -0.5920    -3.8190     1.2950 C.ar  1 <1>  -0.1500 
  8 C       -0.0320    -4.5100     0.2140 C.ar  1 <1>   0.0860 
  9 C       -0.0710    -5.9580     0.1430 C.2   1 <1>   0.5440 
 10 O        0.9510    -6.5800    -0.0720 O.2   1 <1>  -0.5700 
 11 N       -1.2470    -6.6540     0.3020 N.am  1 <1>  -0.6600 
 12 C       -2.6020    -6.0750     0.1150 C.3   1 <1>   0.1400 
 13 C       -1.3010    -8.1360     0.2340 C.3   1 <1>   0.1400 
 14 C       -3.4640    -7.2470    -0.3500 C.3   1 <1>   0.2000 
 15 C       -2.7890    -8.4900     0.2230 C.3   1 <1>  -0.0800 
 16 O       -4.7630    -7.1420     0.1190 O.3   1 <1>  -0.6800 
 17 C       -3.1100    -9.7710    -0.5610 C.3   1 <1>   0.0210 
 18 C       -2.3450   -10.9530     0.0000 C.2   1 <1>   0.1080 
 19 N       -2.5320   -11.4040     1.2020 N.2   1 <1>  -0.7070 
 20 C       -1.3690   -11.6680    -0.6840 C.2   1 <1>  -0.1500 
 21 N       -1.6700   -12.4320     1.3160 N.pl3 1 <1>   0.3000 
 22 C       -0.9530   -12.6110     0.1870 C.2   1 <1>  -0.3320 
 23 C        0.1020   -13.6870     0.0080 C.3   1 <1>  -0.0600 
 24 H       -1.0000    -1.9070     2.1940 H     1 <1>   0.1500 
 25 H        1.1500    -0.7300    -1.5970 H     1 <1>   0.4500 
 26 H        1.0230    -4.2770    -1.6340 H     1 <1>   0.1500 
 27 H       -1.0430    -4.3830     2.0930 H     1 <1>   0.1500 
 28 H       -2.9560    -5.6950     1.0570 H     1 <1>   0.0800 
 29 H       -2.5880    -5.2940    -0.6250 H     1 <1>   0.0800 
 30 H       -0.8180    -8.4650    -0.6700 H     1 <1>   0.0800 
 31 H       -0.8000    -8.5760     1.0810 H     1 <1>   0.0800 
 32 H       -3.4910    -7.2720    -1.4260 H     1 <1>   0.0800 
 33 H       -3.0870    -8.6220     1.2490 H     1 <1>   0.0800 
 34 H       -4.7890    -7.3130     1.0810 H     1 <1>   0.4000 
 35 H       -2.8600    -9.6440    -1.5980 H     1 <1>   0.0800 
 36 H       -4.1630    -9.9790    -0.4930 H     1 <1>   0.0800 
 37 H       -1.0350   -11.4870    -1.6900 H     1 <1>   0.1500 
 38 H       -1.5960   -12.9900     2.1750 H     1 <1>   0.2700 
 39 H        0.5300   -13.6240    -0.9770 H     1 <1>   0.0800 
 40 H       -0.3360   -14.6620     0.1280 H     1 <1>   0.0800 
 41 H        0.8870   -13.5620     0.7310 H     1 <1>   0.0800 
@<TRIPOS>BOND
  1   1   2  1   
  2   2   3  ar  
  3   2   4  ar  
  4   3   5  1   
  5   3   6  ar  
  6   4   7  ar  
  7   4  24  1   
  8   5  25  1   
  9   6   8  ar  
 10   6  26  1   
 11   7   8  ar  
 12   7  27  1   
 13   8   9  1   
 14   9  10  2   
 15   9  11  am  
 16  11  12  1   
 17  11  13  1   
 18  12  14  1   
 19  12  28  1   
 20  12  29  1   
 21  13  15  1   
 22  13  30  1   
 23  13  31  1   
 24  14  15  1   
 25  14  16  1   
 26  14  32  1   
 27  15  17  1   
 28  15  33  1   
 29  16  34  1   
 30  17  18  1   
 31  17  35  1   
 32  17  36  1   
 33  18  19  2   
 34  18  20  1   
 35  19  21  1   
 36  20  22  2   
 37  20  37  1   
 38  21  22  1   
 39  21  38  1   
 40  22  23  1   
 41  23  39  1   
 42  23  40  1   
 43  23  41  1   
@<TRIPOS>SUBSTRUCTURE
  1 ****  11 GROUP 4 **** **** 0

# MOE 2024.06 (io_trps.svl 2023.06)
