@<TRIPOS>MOLECULE
NONAME
45 46 1 0 0 
SMALL
USER_CHARGES


@<TRIPOS>ATOM
  1 O       -2.1830     0.0080     2.1220 O.2   1 <1>  -0.5700 
  2 C       -2.9220     0.6380     1.3970 C.2   1 <1>   0.5690 
  3 N       -4.0490     0.0760     0.8600 N.am  1 <1>  -0.6600 
  4 C       -2.4490     2.0420     0.9910 C.3   1 <1>   0.4040 
  5 C       -4.1150    -1.4100     0.7890 C.3   1 <1>   0.3200 
  6 C       -5.0170     0.7930    -0.0320 C.3   1 <1>   0.1400 
  7 N       -1.1710     2.0020     0.1850 N.4   1 <1>  -0.9590 
  8 C       -3.0830    -1.8840    -0.2270 C.2   1 <1>   0.0070 
  9 C       -5.9730     1.6990     0.7610 C.3   1 <1>   0.1200 
 10 C       -0.6260     3.3660    -0.0860 C.3   1 <1>   0.3430 
 11 C       -1.3240     1.1880    -1.0560 C.3   1 <1>   0.3430 
 12 N       -3.1450    -1.6590    -1.5030 N.2   1 <1>  -0.5650 
 13 N       -1.9780    -2.5660     0.1460 N.pl3 1 <1>   0.0330 
 14 O       -5.2700     2.7270     1.3840 O.3   1 <1>  -0.6800 
 15 C        0.4750     3.3530    -1.1670 C.3   1 <1>  -0.0800 
 16 C        0.0610     0.8950    -1.6450 C.3   1 <1>  -0.1600 
 17 C       -2.0360    -2.2500    -1.9900 C.2   1 <1>   0.0770 
 18 C       -1.3070    -2.8000    -0.9960 C.2   1 <1>  -0.3020 
 19 C        1.1220     1.9660    -1.3260 C.3   1 <1>  -0.1600 
 20 C        1.5460     4.4080    -0.8580 C.3   1 <1>  -0.2400 
 21 H       -2.2950     2.6090     1.8920 H     1 <1>   0.0800 
 22 H       -3.2170     2.5270     0.4200 H     1 <1>   0.0800 
 23 H       -5.0960    -1.7340     0.4890 H     1 <1>   0.0800 
 24 H       -3.9070    -1.8290     1.7580 H     1 <1>   0.0800 
 25 H       -5.6050     0.0740    -0.5770 H     1 <1>   0.0800 
 26 H       -4.4890     1.3740    -0.7670 H     1 <1>   0.0800 
 27 H       -0.4890     1.4900     0.7640 H     1 <1>   0.4500 
 28 H       -6.4890     1.1270     1.5140 H     1 <1>   0.0800 
 29 H       -6.6960     2.1430     0.0990 H     1 <1>   0.0800 
 30 H       -0.2180     3.7650     0.8290 H     1 <1>   0.0800 
 31 H       -1.4180     4.0230    -0.4070 H     1 <1>   0.0800 
 32 H       -1.9150     1.7330    -1.7740 H     1 <1>   0.0800 
 33 H       -1.8240     0.2570    -0.8470 H     1 <1>   0.0800 
 34 H       -1.7090    -2.8310     1.1010 H     1 <1>   0.2700 
 35 H       -5.8810     3.2630     1.9350 H     1 <1>   0.4000 
 36 H        0.0180     3.6200    -2.1060 H     1 <1>   0.0800 
 37 H       -0.0510     0.8050    -2.7120 H     1 <1>   0.0800 
 38 H        0.4010    -0.0610    -1.2880 H     1 <1>   0.0800 
 39 H       -1.8190    -2.2530    -3.0460 H     1 <1>   0.1500 
 40 H       -0.3770    -3.3400    -1.0390 H     1 <1>   0.1500 
 41 H        1.6270     1.7040    -0.4110 H     1 <1>   0.0800 
 42 H        1.8620     1.9840    -2.1090 H     1 <1>   0.0800 
 43 H        2.0460     4.1900     0.0700 H     1 <1>   0.0800 
 44 H        1.1040     5.3880    -0.7880 H     1 <1>   0.0800 
 45 H        2.2830     4.4320    -1.6420 H     1 <1>   0.0800 
@<TRIPOS>BOND
  1   1   2  2   
  2   2   3  am  
  3   2   4  1   
  4   3   5  1   
  5   3   6  1   
  6   4   7  1   
  7   4  21  1   
  8   4  22  1   
  9   5   8  1   
 10   5  23  1   
 11   5  24  1   
 12   6   9  1   
 13   6  25  1   
 14   6  26  1   
 15   7  10  1   
 16   7  11  1   
 17   7  27  1   
 18   8  12  2   
 19   8  13  1   
 20   9  14  1   
 21   9  28  1   
 22   9  29  1   
 23  10  15  1   
 24  10  30  1   
 25  10  31  1   
 26  11  16  1   
 27  11  32  1   
 28  11  33  1   
 29  12  17  1   
 30  13  18  1   
 31  13  34  1   
 32  14  35  1   
 33  15  19  1   
 34  15  20  1   
 35  15  36  1   
 36  16  19  1   
 37  16  37  1   
 38  16  38  1   
 39  17  18  2   
 40  17  39  1   
 41  18  40  1   
 42  19  41  1   
 43  19  42  1   
 44  20  43  1   
 45  20  44  1   
 46  20  45  1   
@<TRIPOS>SUBSTRUCTURE
  1 ****  11 GROUP 4 **** **** 0

# MOE 2024.06 (io_trps.svl 2023.06)
