@<TRIPOS>MOLECULE
NONAME
47 49 1 0 0 
SMALL
USER_CHARGES


@<TRIPOS>ATOM
  1 F        1.3480    -1.3840    -1.7210 F     1 <1>  -0.1900 
  2 C        1.2490    -1.7340    -0.4620 C.ar  1 <1>   0.1900 
  3 C        0.6840    -2.9620    -0.1300 C.ar  1 <1>   0.0830 
  4 C        1.7200    -0.8520     0.4910 C.ar  1 <1>  -0.1500 
  5 O        0.2430    -3.7730    -1.1310 O.3   1 <1>  -0.3630 
  6 C        0.6000    -3.2960     1.2200 C.ar  1 <1>  -0.1500 
  7 C        1.6270    -1.2010     1.8280 C.ar  1 <1>  -0.1500 
  8 C       -0.3400    -5.0310    -0.8540 C.3   1 <1>   0.1200 
  9 C        1.0700    -2.4190     2.1870 C.ar  1 <1>  -0.1500 
 10 C       -0.7740    -5.6700    -2.1710 C.3   1 <1>   0.2090 
 11 N       -1.2180    -7.0740    -1.9430 N.pl3 1 <1>  -0.8690 
 12 C       -2.5070    -7.3820    -1.5710 C.ar  1 <1>   0.4100 
 13 N       -3.2350    -6.4170    -1.0270 N.ar  1 <1>  -0.6200 
 14 C       -2.9790    -8.6700    -1.7710 C.ar  1 <1>  -0.1500 
 15 C       -4.4710    -6.7430    -0.6950 C.ar  1 <1>   0.1600 
 16 C       -4.2650    -9.0230    -1.4090 C.ar  1 <1>   0.0860 
 17 C       -5.0230    -7.9960    -0.8610 C.ar  1 <1>  -0.1500 
 18 C       -4.7770   -10.3650    -1.6030 C.2   1 <1>   0.5440 
 19 O       -4.6330   -10.8990    -2.6870 O.2   1 <1>  -0.5700 
 20 N       -5.4150   -11.0580    -0.5960 N.am  1 <1>  -0.6600 
 21 C       -6.1100   -12.3440    -0.9070 C.3   1 <1>   0.1400 
 22 C       -5.2820   -10.6880     0.8470 C.3   1 <1>   0.1400 
 23 C       -7.1380   -12.6830     0.1780 C.3   1 <1>  -0.1600 
 24 C       -5.2340   -11.9440     1.7230 C.3   1 <1>  -0.1600 
 25 C       -6.4960   -12.8110     1.5710 C.3   1 <1>  -0.1600 
 26 H        2.1480     0.0870     0.1900 H     1 <1>   0.1500 
 27 H        0.1750    -4.2290     1.5400 H     1 <1>   0.1500 
 28 H        1.9870    -0.5280     2.5870 H     1 <1>   0.1500 
 29 H       -1.1930    -4.8810    -0.2180 H     1 <1>   0.0800 
 30 H        0.3960    -5.6450    -0.3670 H     1 <1>   0.0800 
 31 H        1.0000    -2.6860     3.2280 H     1 <1>   0.1500 
 32 H        0.0560    -5.6720    -2.8560 H     1 <1>   0.0800 
 33 H       -1.5790    -5.0980    -2.6020 H     1 <1>   0.0800 
 34 H       -0.7840    -7.7440    -2.5820 H     1 <1>   0.4000 
 35 H       -2.3380    -9.4080    -2.2140 H     1 <1>   0.1500 
 36 H       -5.0760    -5.9620    -0.2660 H     1 <1>   0.1500 
 37 H       -6.0410    -8.1820    -0.5740 H     1 <1>   0.1500 
 38 H       -5.3750   -13.1280    -0.9760 H     1 <1>   0.0800 
 39 H       -6.6030   -12.2630    -1.8610 H     1 <1>   0.0800 
 40 H       -6.1250   -10.0830     1.1330 H     1 <1>   0.0800 
 41 H       -4.3820   -10.1170     1.0000 H     1 <1>   0.0800 
 42 H       -7.6400   -13.5990    -0.0750 H     1 <1>   0.0800 
 43 H       -7.8790   -11.9020     0.1900 H     1 <1>   0.0800 
 44 H       -5.1110   -11.6630     2.7540 H     1 <1>   0.0800 
 45 H       -4.3680   -12.5160     1.4390 H     1 <1>   0.0800 
 46 H       -6.2310   -13.8390     1.7530 H     1 <1>   0.0800 
 47 H       -7.2240   -12.5280     2.3120 H     1 <1>   0.0800 
@<TRIPOS>BOND
  1   1   2  1   
  2   2   3  ar  
  3   2   4  ar  
  4   3   5  1   
  5   3   6  ar  
  6   4   7  ar  
  7   4  26  1   
  8   5   8  1   
  9   6   9  ar  
 10   6  27  1   
 11   7   9  ar  
 12   7  28  1   
 13   8  10  1   
 14   8  29  1   
 15   8  30  1   
 16   9  31  1   
 17  10  11  1   
 18  10  32  1   
 19  10  33  1   
 20  11  12  1   
 21  11  34  1   
 22  12  13  ar  
 23  12  14  ar  
 24  13  15  ar  
 25  14  16  ar  
 26  14  35  1   
 27  15  17  ar  
 28  15  36  1   
 29  16  17  ar  
 30  16  18  1   
 31  17  37  1   
 32  18  19  2   
 33  18  20  am  
 34  20  21  1   
 35  20  22  1   
 36  21  23  1   
 37  21  38  1   
 38  21  39  1   
 39  22  24  1   
 40  22  40  1   
 41  22  41  1   
 42  23  25  1   
 43  23  42  1   
 44  23  43  1   
 45  24  25  1   
 46  24  44  1   
 47  24  45  1   
 48  25  46  1   
 49  25  47  1   
@<TRIPOS>SUBSTRUCTURE
  1 ****  13 GROUP 4 **** **** 0

# MOE 2024.06 (io_trps.svl 2023.06)
