@<TRIPOS>MOLECULE
NONAME
50 54 1 0 0 
SMALL
USER_CHARGES


@<TRIPOS>ATOM
  1 CL      -0.7860    -1.6140     3.7490 Cl    1 <1>  -0.1230 
  2 C       -1.4360    -2.4390     2.3510 C.2   1 <1>   0.4120 
  3 N       -2.4300    -2.0100     1.6640 N.2   1 <1>  -0.4100 
  4 C       -0.9290    -3.6370     1.8660 C.2   1 <1>  -0.1500 
  5 O       -2.5950    -2.8990     0.7230 O.3   1 <1>  -0.0190 
  6 C       -1.7270    -3.8790     0.8130 C.2   1 <1>  -0.0400 
  7 C       -1.7590    -5.0180    -0.1890 C.3   1 <1>   0.0200 
  8 C       -3.1090    -5.7510    -0.1420 C.3   1 <1>  -0.0990 
  9 C       -3.1980    -6.9290    -1.1010 C.2   1 <1>   0.5690 
 10 O       -2.1950    -7.2640    -1.6860 O.2   1 <1>  -0.5700 
 11 N       -4.3890    -7.5890    -1.2750 N.am  1 <1>  -0.6600 
 12 C       -5.6490    -7.3210    -0.5260 C.3   1 <1>   0.1400 
 13 C       -4.5220    -8.6950    -2.2650 C.3   1 <1>   0.1400 
 14 C       -6.0500    -8.5860     0.2350 C.3   1 <1>  -0.1600 
 15 C       -4.9200    -9.9790    -1.5350 C.3   1 <1>  -0.1600 
 16 C       -6.1950    -9.7870    -0.7100 C.3   1 <1>   0.4600 
 17 O       -7.2300    -9.5210    -1.6340 O.3   1 <1>  -0.5600 
 18 C       -6.5230   -11.0590     0.0620 C.2   1 <1>  -0.3320 
 19 C       -8.5590    -9.7450    -1.2280 C.3   1 <1>   0.1200 
 20 N       -5.7000   -11.7140     0.9380 N.pl3 1 <1>   0.0330 
 21 C       -7.6930   -11.7210    -0.0260 C.2   1 <1>  -0.1810 
 22 C       -8.8060   -11.2310    -0.9190 C.3   1 <1>   0.0210 
 23 C       -6.3720   -12.8160     1.4080 C.ar  1 <1>  -0.1520 
 24 C       -7.6330   -12.8500     0.8160 C.ar  1 <1>   0.0000 
 25 C       -5.9800   -13.8050     2.3130 C.ar  1 <1>  -0.1500 
 26 C       -8.5170   -13.8870     1.1300 C.ar  1 <1>  -0.1500 
 27 C       -6.8610   -14.8190     2.6140 C.ar  1 <1>  -0.1500 
 28 C       -8.1290   -14.8600     2.0220 C.ar  1 <1>  -0.1500 
 29 H       -0.1030    -4.1900     2.2710 H     1 <1>   0.1500 
 30 H       -0.9630    -5.7080     0.0330 H     1 <1>   0.0800 
 31 H       -1.5930    -4.6260    -1.1770 H     1 <1>   0.0800 
 32 H       -3.8850    -5.0510    -0.3910 H     1 <1>   0.0800 
 33 H       -3.2780    -6.1110     0.8550 H     1 <1>   0.0800 
 34 H       -6.4240    -7.0560    -1.2270 H     1 <1>   0.0800 
 35 H       -5.5350    -6.5080     0.1670 H     1 <1>   0.0800 
 36 H       -3.5990    -8.8520    -2.7960 H     1 <1>   0.0800 
 37 H       -5.2780    -8.4340    -2.9870 H     1 <1>   0.0800 
 38 H       -6.9670    -8.4240     0.7680 H     1 <1>   0.0800 
 39 H       -5.2920    -8.8000     0.9650 H     1 <1>   0.0800 
 40 H       -4.1080   -10.2690    -0.8950 H     1 <1>   0.0800 
 41 H       -5.0760   -10.7710    -2.2440 H     1 <1>   0.0800 
 42 H       -9.2050    -9.4210    -2.0250 H     1 <1>   0.0800 
 43 H       -8.7580    -9.1460    -0.3570 H     1 <1>   0.0800 
 44 H       -4.7430   -11.4550     1.1940 H     1 <1>   0.2700 
 45 H       -8.8160   -11.8000    -1.8310 H     1 <1>   0.0800 
 46 H       -9.7540   -11.3480    -0.4280 H     1 <1>   0.0800 
 47 H       -5.0040   -13.7670     2.7630 H     1 <1>   0.1500 
 48 H       -9.4860   -13.9060     0.6670 H     1 <1>   0.1500 
 49 H       -6.5820   -15.5920     3.3090 H     1 <1>   0.1500 
 50 H       -8.7980   -15.6630     2.2740 H     1 <1>   0.1500 
@<TRIPOS>BOND
  1   1   2  1   
  2   2   3  2   
  3   2   4  1   
  4   3   5  1   
  5   4   6  2   
  6   4  29  1   
  7   5   6  1   
  8   6   7  1   
  9   7   8  1   
 10   7  30  1   
 11   7  31  1   
 12   8   9  1   
 13   8  32  1   
 14   8  33  1   
 15   9  10  2   
 16   9  11  am  
 17  11  12  1   
 18  11  13  1   
 19  12  14  1   
 20  12  34  1   
 21  12  35  1   
 22  13  15  1   
 23  13  36  1   
 24  13  37  1   
 25  14  16  1   
 26  14  38  1   
 27  14  39  1   
 28  15  16  1   
 29  15  40  1   
 30  15  41  1   
 31  16  17  1   
 32  16  18  1   
 33  17  19  1   
 34  18  20  1   
 35  18  21  2   
 36  19  22  1   
 37  19  42  1   
 38  19  43  1   
 39  20  23  1   
 40  20  44  1   
 41  21  22  1   
 42  21  24  1   
 43  22  45  1   
 44  22  46  1   
 45  23  24  ar  
 46  23  25  ar  
 47  24  26  ar  
 48  25  27  ar  
 49  25  47  1   
 50  26  28  ar  
 51  26  48  1   
 52  27  28  ar  
 53  27  49  1   
 54  28  50  1   
@<TRIPOS>SUBSTRUCTURE
  1 ****  14 GROUP 4 **** **** 0

# MOE 2024.06 (io_trps.svl 2023.06)
