@<TRIPOS>MOLECULE
NONAME
27 27 1 0 0 
SMALL
USER_CHARGES


@<TRIPOS>ATOM
  1 O       -6.0810     2.2970    -1.0650 O.2   1 <1>  -0.5700 
  2 C       -6.5910     1.8430    -0.0740 C.2   1 <1>   0.6590 
  3 O       -7.2610     2.5920     0.7910 O.3   1 <1>  -0.4300 
  4 C       -6.4990     0.3530     0.2560 C.3   1 <1>  -0.0190 
  5 C       -7.4310     3.9810     0.5940 C.3   1 <1>   0.0400 
  6 C       -5.0450    -0.1820     0.1330 C.3   1 <1>  -0.1600 
  7 C       -7.4810    -0.4600    -0.6090 C.3   1 <1>  -0.1600 
  8 C       -4.9720    -1.6120    -0.4160 C.3   1 <1>   0.4230 
  9 C       -7.4740    -1.9580    -0.2490 C.3   1 <1>  -0.1600 
 10 N       -3.6660    -2.1960    -0.0840 N.4   1 <1>  -0.8530 
 11 C       -6.0860    -2.4830     0.1660 C.3   1 <1>  -0.1600 
 12 H       -6.8100     0.2390     1.2810 H     1 <1>   0.0800 
 13 H       -8.0030     4.3750     1.4150 H     1 <1>   0.0800 
 14 H       -7.9550     4.1400    -0.3330 H     1 <1>   0.0800 
 15 H       -6.4630     4.4500     0.5580 H     1 <1>   0.0800 
 16 H       -4.5930    -0.1220     1.1080 H     1 <1>   0.0800 
 17 H       -4.4800     0.4490    -0.5300 H     1 <1>   0.0800 
 18 H       -8.4800    -0.0720    -0.4890 H     1 <1>   0.0800 
 19 H       -7.2200    -0.3350    -1.6480 H     1 <1>   0.0800 
 20 H       -5.0930    -1.5780    -1.4880 H     1 <1>   0.0800 
 21 H       -7.8370    -2.5130    -1.0990 H     1 <1>   0.0800 
 22 H       -8.1670    -2.1340     0.5580 H     1 <1>   0.0800 
 23 H       -3.5470    -2.2540     0.9320 H     1 <1>   0.4500 
 24 H       -2.9090    -1.6190    -0.4680 H     1 <1>   0.4500 
 25 H       -3.5840    -3.1400    -0.4750 H     1 <1>   0.4500 
 26 H       -5.9900    -3.5010    -0.1690 H     1 <1>   0.0800 
 27 H       -6.0250    -2.4710     1.2410 H     1 <1>   0.0800 
@<TRIPOS>BOND
  1   1   2  2   
  2   2   3  1   
  3   2   4  1   
  4   3   5  1   
  5   4   6  1   
  6   4   7  1   
  7   4  12  1   
  8   5  13  1   
  9   5  14  1   
 10   5  15  1   
 11   6   8  1   
 12   6  16  1   
 13   6  17  1   
 14   7   9  1   
 15   7  18  1   
 16   7  19  1   
 17   8  10  1   
 18   8  11  1   
 19   8  20  1   
 20   9  11  1   
 21   9  21  1   
 22   9  22  1   
 23  10  23  1   
 24  10  24  1   
 25  10  25  1   
 26  11  26  1   
 27  11  27  1   
@<TRIPOS>SUBSTRUCTURE
  1 ****   4 GROUP 4 **** **** 0

# MOE 2024.06 (io_trps.svl 2023.06)
