@<TRIPOS>MOLECULE
NONAME
45 47 1 0 0 
SMALL
USER_CHARGES


@<TRIPOS>ATOM
  1 O        0.3230    -4.4460    -2.1520 O.co2 1 <1>  -0.9000 
  2 C        0.3420    -3.4020    -1.4670 C.2   1 <1>   0.9790 
  3 O       -0.5880    -2.5930    -1.6210 O.co2 1 <1>  -0.9000 
  4 C        1.3730    -3.1700    -0.4950 C.ar  1 <1>  -0.1790 
  5 C        1.2830    -3.7180     0.7930 C.ar  1 <1>   0.4100 
  6 C        2.4800    -2.3960    -0.8040 C.ar  1 <1>  -0.1500 
  7 N        2.2040    -3.5510     1.7350 N.ar  1 <1>  -0.6200 
  8 N        0.2170    -4.4930     1.1950 N.pl3 1 <1>  -0.8380 
  9 C        3.4330    -2.2170     0.1720 C.ar  1 <1>  -0.1500 
 10 C        3.2450    -2.8110     1.4070 C.ar  1 <1>   0.1600 
 11 C        0.1630    -5.8730     0.6270 C.3   1 <1>   0.2090 
 12 C       -0.9930    -3.7530     1.6270 C.3   1 <1>   0.2090 
 13 C       -1.2340    -6.5460     0.5290 C.3   1 <1>   0.4230 
 14 C       -2.1630    -4.6980     1.9150 C.3   1 <1>  -0.1600 
 15 N       -1.3830    -7.5450    -0.6090 N.4   1 <1>  -0.9590 
 16 C       -2.4780    -5.6340     0.7270 C.3   1 <1>   0.0000 
 17 C       -2.7790    -8.0800    -0.7320 C.3   1 <1>   0.3430 
 18 C       -0.9630    -6.9750    -1.9400 C.3   1 <1>   0.2630 
 19 C       -3.6790    -6.5440     1.1210 C.3   1 <1>  -0.1600 
 20 C       -2.8090    -4.7270    -0.4970 C.3   1 <1>   0.1200 
 21 C       -3.5510    -7.9910     0.5910 C.3   1 <1>  -0.1600 
 22 O       -3.6140    -5.3290    -1.4580 O.3   1 <1>  -0.6800 
 23 H        2.5770    -1.9540    -1.7810 H     1 <1>   0.1500 
 24 H        4.3080    -1.6250    -0.0190 H     1 <1>   0.1500 
 25 H        3.9940    -2.6670     2.1650 H     1 <1>   0.1500 
 26 H        0.6560    -5.8710    -0.3220 H     1 <1>   0.0800 
 27 H        0.7670    -6.4890     1.2670 H     1 <1>   0.0800 
 28 H       -0.7510    -3.1960     2.5170 H     1 <1>   0.0800 
 29 H       -1.2610    -3.0370     0.8660 H     1 <1>   0.0800 
 30 H       -1.2500    -7.1470     1.4210 H     1 <1>   0.0800 
 31 H       -1.9210    -5.2690     2.7940 H     1 <1>   0.0800 
 32 H       -3.0270    -4.1010     2.1500 H     1 <1>   0.0800 
 33 H       -0.7550    -8.3270    -0.4020 H     1 <1>   0.4500 
 34 H       -3.3170    -7.5180    -1.4760 H     1 <1>   0.0800 
 35 H       -2.7460    -9.1030    -1.0660 H     1 <1>   0.0800 
 36 H       -1.4900    -6.0620    -2.1540 H     1 <1>   0.0800 
 37 H       -1.1610    -7.6750    -2.7330 H     1 <1>   0.0800 
 38 H        0.0900    -6.7470    -1.9480 H     1 <1>   0.0800 
 39 H       -3.7770    -6.6000     2.1910 H     1 <1>   0.0800 
 40 H       -4.5960    -6.1080     0.7600 H     1 <1>   0.0800 
 41 H       -1.9070    -4.4270    -0.9830 H     1 <1>   0.0800 
 42 H       -3.3240    -3.8360    -0.1790 H     1 <1>   0.0800 
 43 H       -4.5370    -8.3980     0.4470 H     1 <1>   0.0800 
 44 H       -3.0580    -8.6080     1.3210 H     1 <1>   0.0800 
 45 H       -3.6920    -4.7110    -2.2170 H     1 <1>   0.4000 
@<TRIPOS>BOND
  1   1   2  ar  
  2   2   3  ar  
  3   2   4  1   
  4   4   5  ar  
  5   4   6  ar  
  6   5   7  ar  
  7   5   8  1   
  8   6   9  ar  
  9   6  23  1   
 10   7  10  ar  
 11   8  11  1   
 12   8  12  1   
 13   9  10  ar  
 14   9  24  1   
 15  10  25  1   
 16  11  13  1   
 17  11  26  1   
 18  11  27  1   
 19  12  14  1   
 20  12  28  1   
 21  12  29  1   
 22  13  15  1   
 23  13  16  1   
 24  13  30  1   
 25  14  16  1   
 26  14  31  1   
 27  14  32  1   
 28  15  17  1   
 29  15  18  1   
 30  15  33  1   
 31  16  19  1   
 32  16  20  1   
 33  17  21  1   
 34  17  34  1   
 35  17  35  1   
 36  18  36  1   
 37  18  37  1   
 38  18  38  1   
 39  19  21  1   
 40  19  39  1   
 41  19  40  1   
 42  20  22  1   
 43  20  41  1   
 44  20  42  1   
 45  21  43  1   
 46  21  44  1   
 47  22  45  1   
@<TRIPOS>SUBSTRUCTURE
  1 ****  11 GROUP 4 **** **** 0

# MOE 2024.06 (io_trps.svl 2023.06)
