@<TRIPOS>MOLECULE
NONAME
48 50 1 0 0 
SMALL
USER_CHARGES


@<TRIPOS>ATOM
  1 O       -0.8170     0.4940     2.3200 O.2   1 <1>  -0.5700 
  2 C       -1.3820     1.0710     1.4100 C.2   1 <1>   0.5440 
  3 N       -2.0880     0.3250     0.4980 N.am  1 <1>  -0.6600 
  4 C       -1.3010     2.5100     1.3070 C.ar  1 <1>   0.0860 
  5 C       -2.9160     0.8640    -0.6110 C.3   1 <1>   0.1400 
  6 C       -2.1290    -1.1590     0.5010 C.3   1 <1>   0.1400 
  7 C       -0.6920     3.1720     0.2280 C.ar  1 <1>   0.0830 
  8 C       -1.8720     3.2950     2.3090 C.ar  1 <1>  -0.1500 
  9 C       -3.8500    -0.2900    -0.9710 C.3   1 <1>   0.2000 
 10 C       -2.9920    -1.5310    -0.7100 C.3   1 <1>  -0.0800 
 11 O       -0.0640     2.5300    -0.7820 O.3   1 <1>  -0.3630 
 12 C       -0.7150     4.5560     0.1500 C.ar  1 <1>  -0.1500 
 13 C       -1.8780     4.6750     2.2350 C.ar  1 <1>  -0.1500 
 14 O       -4.9160    -0.2690    -0.0820 O.3   1 <1>  -0.6800 
 15 C       -3.7610    -2.8530    -0.5400 C.3   1 <1>   0.0210 
 16 C        0.9270     1.5640    -0.4930 C.3   1 <1>   0.2580 
 17 C       -1.3040     5.3090     1.1470 C.ar  1 <1>  -0.1500 
 18 C       -2.8090    -4.0010    -0.2640 C.2   1 <1>   0.1080 
 19 C        1.9160     1.5550    -1.6420 C.2   1 <1>  -0.2880 
 20 N       -1.8450    -4.3280    -1.0680 N.2   1 <1>  -0.7070 
 21 C       -2.8490    -4.8130     0.8650 C.2   1 <1>  -0.1500 
 22 C        3.2300     1.7730    -1.5360 C.2   1 <1>  -0.3000 
 23 N       -1.2400    -5.3700    -0.4680 N.pl3 1 <1>   0.3000 
 24 C       -1.8290    -5.6810     0.7050 C.2   1 <1>  -0.3320 
 25 C       -1.3740    -6.8070     1.6160 C.3   1 <1>  -0.0600 
 26 H       -3.4600     1.7460    -0.3200 H     1 <1>   0.0800 
 27 H       -2.2760     1.0920    -1.4460 H     1 <1>   0.0800 
 28 H       -1.1380    -1.5720     0.4190 H     1 <1>   0.0800 
 29 H       -2.5790    -1.4970     1.4190 H     1 <1>   0.0800 
 30 H       -2.3190     2.8040     3.1560 H     1 <1>   0.1500 
 31 H       -4.2330    -0.2330    -1.9750 H     1 <1>   0.0800 
 32 H       -2.3240    -1.6450    -1.5470 H     1 <1>   0.0800 
 33 H       -0.2590     5.0400    -0.6960 H     1 <1>   0.1500 
 34 H       -2.3300     5.2570     3.0200 H     1 <1>   0.1500 
 35 H       -4.5570    -0.1680     0.8230 H     1 <1>   0.4000 
 36 H       -4.3090    -3.0680    -1.4400 H     1 <1>   0.0800 
 37 H       -4.4650    -2.7800     0.2690 H     1 <1>   0.0800 
 38 H        1.4120     1.8240     0.4320 H     1 <1>   0.0800 
 39 H        0.4560     0.6020    -0.4010 H     1 <1>   0.0800 
 40 H       -1.3130     6.3840     1.0810 H     1 <1>   0.1500 
 41 H        1.4350     1.3500    -2.5840 H     1 <1>   0.1500 
 42 H       -3.5530    -4.7400     1.6740 H     1 <1>   0.1500 
 43 H        3.9100     1.7620    -2.3710 H     1 <1>   0.1500 
 44 H        3.7380     1.9830    -0.6100 H     1 <1>   0.1500 
 45 H       -0.4300    -5.8440    -0.8840 H     1 <1>   0.2700 
 46 H       -2.0020    -6.8530     2.4880 H     1 <1>   0.0800 
 47 H       -0.3600    -6.6420     1.9340 H     1 <1>   0.0800 
 48 H       -1.4340    -7.7490     1.1010 H     1 <1>   0.0800 
@<TRIPOS>BOND
  1   1   2  2   
  2   2   3  am  
  3   2   4  1   
  4   3   5  1   
  5   3   6  1   
  6   4   7  ar  
  7   4   8  ar  
  8   5   9  1   
  9   5  26  1   
 10   5  27  1   
 11   6  10  1   
 12   6  28  1   
 13   6  29  1   
 14   7  11  1   
 15   7  12  ar  
 16   8  13  ar  
 17   8  30  1   
 18   9  10  1   
 19   9  14  1   
 20   9  31  1   
 21  10  15  1   
 22  10  32  1   
 23  11  16  1   
 24  12  17  ar  
 25  12  33  1   
 26  13  17  ar  
 27  13  34  1   
 28  14  35  1   
 29  15  18  1   
 30  15  36  1   
 31  15  37  1   
 32  16  19  1   
 33  16  38  1   
 34  16  39  1   
 35  17  40  1   
 36  18  20  2   
 37  18  21  1   
 38  19  22  2   
 39  19  41  1   
 40  20  23  1   
 41  21  24  2   
 42  21  42  1   
 43  22  43  1   
 44  22  44  1   
 45  23  24  1   
 46  23  45  1   
 47  24  25  1   
 48  25  46  1   
 49  25  47  1   
 50  25  48  1   
@<TRIPOS>SUBSTRUCTURE
  1 ****   3 GROUP 4 **** **** 0

# MOE 2024.06 (io_trps.svl 2023.06)
