@<TRIPOS>MOLECULE
NONAME
44 46 1 0 0 
SMALL
USER_CHARGES


@<TRIPOS>ATOM
  1 O        2.8030     0.5290     2.2020 O.3   1 <1>  -0.6800 
  2 C        2.1640    -0.0550     1.1110 C.3   1 <1>   0.2000 
  3 C        2.7690    -1.4410     0.8930 C.3   1 <1>  -0.0800 
  4 C        2.5740     0.7020    -0.1540 C.3   1 <1>   0.3430 
  5 C        4.0740    -1.1630     0.1290 C.3   1 <1>   0.3430 
  6 C        1.8260    -2.3560     0.0870 C.3   1 <1>  -0.0170 
  7 N        3.9330     0.1880    -0.4900 N.4   1 <1>  -0.9590 
  8 C        2.5090    -3.6700    -0.2560 C.ar  1 <1>  -0.1440 
  9 C        4.9660     1.1470    -0.0140 C.3   1 <1>   0.5230 
 10 C        2.8800    -3.9880    -1.5490 C.ar  1 <1>  -0.1500 
 11 C        2.7950    -4.6150     0.7090 C.ar  1 <1>  -0.1500 
 12 C        5.0320     2.2880    -1.0190 C.2   1 <1>   0.0070 
 13 C        3.5150    -5.1920    -1.8020 C.ar  1 <1>   0.1600 
 14 C        3.4350    -5.7890     0.3500 C.ar  1 <1>   0.1600 
 15 N        4.5970     2.1790    -2.2400 N.2   1 <1>  -0.5650 
 16 N        5.5510     3.5090    -0.7310 N.pl3 1 <1>   0.0480 
 17 N        3.8090    -6.0940    -0.8810 N.ar  1 <1>  -0.6200 
 18 C        4.8470     3.3870    -2.7780 C.2   1 <1>   0.0770 
 19 C        5.4250     4.2060    -1.8740 C.2   1 <1>  -0.3020 
 20 C        6.1340     4.0220     0.5300 C.3   1 <1>   0.0960 
 21 C        7.5840     3.5550     0.6880 C.3   1 <1>  -0.2400 
 22 H        2.4230     0.2060     3.0470 H     1 <1>   0.4000 
 23 H        1.1000    -0.0480     1.2800 H     1 <1>   0.0800 
 24 H        2.9860    -1.9220     1.8310 H     1 <1>   0.0800 
 25 H        2.5640     1.7700    -0.0020 H     1 <1>   0.0800 
 26 H        1.8930     0.4570    -0.9530 H     1 <1>   0.0800 
 27 H        4.2540    -1.9160    -0.6220 H     1 <1>   0.0800 
 28 H        4.8980    -1.1650     0.8230 H     1 <1>   0.0800 
 29 H        1.5090    -1.8730    -0.8220 H     1 <1>   0.0800 
 30 H        0.9420    -2.5660     0.6650 H     1 <1>   0.0800 
 31 H        4.0510     0.2060    -1.5190 H     1 <1>   0.4500 
 32 H        4.7130     1.5150     0.9670 H     1 <1>   0.0800 
 33 H        5.9280     0.6660     0.0260 H     1 <1>   0.0800 
 34 H        2.6810    -3.3210    -2.3680 H     1 <1>   0.1500 
 35 H        2.5260    -4.4590     1.7380 H     1 <1>   0.1500 
 36 H        3.7970    -5.4280    -2.8150 H     1 <1>   0.1500 
 37 H        3.6510    -6.5180     1.1150 H     1 <1>   0.1500 
 38 H        4.5960     3.6120    -3.8030 H     1 <1>   0.1500 
 39 H        5.7470     5.2260    -1.9880 H     1 <1>   0.1500 
 40 H        6.1010     5.0980     0.5090 H     1 <1>   0.0800 
 41 H        5.5380     3.6870     1.3600 H     1 <1>   0.0800 
 42 H        8.1790     3.9060    -0.1380 H     1 <1>   0.0800 
 43 H        7.6440     2.4830     0.7380 H     1 <1>   0.0800 
 44 H        7.9980     3.9610     1.5940 H     1 <1>   0.0800 
@<TRIPOS>BOND
  1   1   2  1   
  2   1  22  1   
  3   2   3  1   
  4   2   4  1   
  5   2  23  1   
  6   3   5  1   
  7   3   6  1   
  8   3  24  1   
  9   4   7  1   
 10   4  25  1   
 11   4  26  1   
 12   5   7  1   
 13   5  27  1   
 14   5  28  1   
 15   6   8  1   
 16   6  29  1   
 17   6  30  1   
 18   7   9  1   
 19   7  31  1   
 20   8  10  ar  
 21   8  11  ar  
 22   9  12  1   
 23   9  32  1   
 24   9  33  1   
 25  10  13  ar  
 26  10  34  1   
 27  11  14  ar  
 28  11  35  1   
 29  12  15  2   
 30  12  16  1   
 31  13  17  ar  
 32  13  36  1   
 33  14  17  ar  
 34  14  37  1   
 35  15  18  1   
 36  16  19  1   
 37  16  20  1   
 38  18  19  2   
 39  18  38  1   
 40  19  39  1   
 41  20  21  1   
 42  20  40  1   
 43  20  41  1   
 44  21  42  1   
 45  21  43  1   
 46  21  44  1   
@<TRIPOS>SUBSTRUCTURE
  1 ****   7 GROUP 4 **** **** 0

# MOE 2024.06 (io_trps.svl 2023.06)
