@<TRIPOS>MOLECULE
NONAME
51 54 1 0 0 
SMALL
USER_CHARGES


@<TRIPOS>ATOM
  1 O       -1.9270    -0.9140    -1.6400 O.co2 1 <1>  -0.9000 
  2 C       -2.4580    -0.6140    -0.5670 C.2   1 <1>   0.9060 
  3 O       -1.8630    -0.0570     0.3590 O.co2 1 <1>  -0.9000 
  4 C       -3.8620    -1.1480    -0.2860 C.3   1 <1>   0.2370 
  5 N       -3.9090    -2.5860     0.2130 N.4   1 <1>  -0.9590 
  6 C       -3.1590    -2.7360     1.5160 C.3   1 <1>   0.4230 
  7 C       -3.4980    -3.5280    -0.8780 C.3   1 <1>   0.3430 
  8 C       -1.6390    -3.0290     1.3990 C.3   1 <1>   0.1200 
  9 C       -3.8770    -3.8260     2.3530 C.3   1 <1>   0.1400 
 10 C       -3.0320    -4.9280    -0.4260 C.3   1 <1>  -0.0800 
 11 O       -1.3730    -4.3960     1.2450 O.3   1 <1>  -0.5600 
 12 N       -4.6990    -4.7650     1.4990 N.am  1 <1>  -0.6600 
 13 C       -1.5460    -4.8950    -0.0370 C.3   1 <1>   0.1200 
 14 C       -3.9030    -5.6780     0.6160 C.3   1 <1>   0.1400 
 15 C       -6.0400    -4.5420     1.3300 C.2   1 <1>   0.5690 
 16 O       -6.5120    -3.4660     1.6050 O.2   1 <1>  -0.5700 
 17 C       -6.9510    -5.5790     0.7040 C.3   1 <1>  -0.0990 
 18 C       -6.9590    -6.9050     1.4820 C.3   1 <1>   0.0200 
 19 C       -7.1560    -8.0610     0.5230 C.2   1 <1>   0.0070 
 20 N       -6.2350    -8.4680    -0.2790 N.2   1 <1>  -0.5650 
 21 N       -8.3190    -8.7550     0.4260 N.pl3 1 <1>   0.0330 
 22 C       -6.8110    -9.5020    -0.9570 C.ar  1 <1>   0.2270 
 23 C       -8.1120    -9.6930    -0.5310 C.ar  1 <1>  -0.1520 
 24 C       -6.2790   -10.3210    -1.9500 C.ar  1 <1>  -0.1500 
 25 C       -8.9170   -10.6940    -1.0800 C.ar  1 <1>  -0.1500 
 26 C       -7.0640   -11.3130    -2.4980 C.ar  1 <1>  -0.1500 
 27 C       -8.3820   -11.4980    -2.0620 C.ar  1 <1>  -0.1500 
 28 H       -4.4260    -1.0600    -1.1960 H     1 <1>   0.0800 
 29 H       -4.3030    -0.4980     0.4470 H     1 <1>   0.0800 
 30 H       -4.8810    -2.8210     0.4760 H     1 <1>   0.4500 
 31 H       -3.2410    -1.8040     2.0510 H     1 <1>   0.0800 
 32 H       -4.3300    -3.6440    -1.5520 H     1 <1>   0.0800 
 33 H       -2.6960    -3.0790    -1.4430 H     1 <1>   0.0800 
 34 H       -1.1680    -2.7320     2.3180 H     1 <1>   0.0800 
 35 H       -1.1650    -2.4780     0.6060 H     1 <1>   0.0800 
 36 H       -4.5230    -3.3330     3.0590 H     1 <1>   0.0800 
 37 H       -3.1680    -4.3900     2.9340 H     1 <1>   0.0800 
 38 H       -3.0530    -5.5310    -1.3160 H     1 <1>   0.0800 
 39 H       -0.9640    -4.3030    -0.7250 H     1 <1>   0.0800 
 40 H       -1.1480    -5.8960    -0.0360 H     1 <1>   0.0800 
 41 H       -3.2780    -6.3000     1.2340 H     1 <1>   0.0800 
 42 H       -4.5590    -6.3450     0.0860 H     1 <1>   0.0800 
 43 H       -7.9530    -5.1920     0.6580 H     1 <1>   0.0800 
 44 H       -6.6310    -5.7360    -0.3090 H     1 <1>   0.0800 
 45 H       -7.7280    -6.8900     2.2340 H     1 <1>   0.0800 
 46 H       -6.0200    -7.0580     1.9830 H     1 <1>   0.0800 
 47 H       -9.1800    -8.6130     0.9590 H     1 <1>   0.2700 
 48 H       -5.2650   -10.1600    -2.2660 H     1 <1>   0.1500 
 49 H       -9.9280   -10.8290    -0.7380 H     1 <1>   0.1500 
 50 H       -6.6690   -11.9550    -3.2660 H     1 <1>   0.1500 
 51 H       -8.9750   -12.2800    -2.5060 H     1 <1>   0.1500 
@<TRIPOS>BOND
  1   1   2  ar  
  2   2   3  ar  
  3   2   4  1   
  4   4   5  1   
  5   4  28  1   
  6   4  29  1   
  7   5   6  1   
  8   5   7  1   
  9   5  30  1   
 10   6   8  1   
 11   6   9  1   
 12   6  31  1   
 13   7  10  1   
 14   7  32  1   
 15   7  33  1   
 16   8  11  1   
 17   8  34  1   
 18   8  35  1   
 19   9  12  1   
 20   9  36  1   
 21   9  37  1   
 22  10  13  1   
 23  10  14  1   
 24  10  38  1   
 25  11  13  1   
 26  12  14  1   
 27  12  15  am  
 28  13  39  1   
 29  13  40  1   
 30  14  41  1   
 31  14  42  1   
 32  15  16  2   
 33  15  17  1   
 34  17  18  1   
 35  17  43  1   
 36  17  44  1   
 37  18  19  1   
 38  18  45  1   
 39  18  46  1   
 40  19  20  2   
 41  19  21  1   
 42  20  22  1   
 43  21  23  1   
 44  21  47  1   
 45  22  23  ar  
 46  22  24  ar  
 47  23  25  ar  
 48  24  26  ar  
 49  24  48  1   
 50  25  27  ar  
 51  25  49  1   
 52  26  27  ar  
 53  26  50  1   
 54  27  51  1   
@<TRIPOS>SUBSTRUCTURE
  1 ****  14 GROUP 4 **** **** 0

# MOE 2024.06 (io_trps.svl 2023.06)
