@<TRIPOS>MOLECULE
NONAME
44 46 1 0 0 
SMALL
USER_CHARGES


@<TRIPOS>ATOM
  1 CL       3.4410    -0.8350     4.0680 Cl    1 <1>  -0.1770 
  2 C        3.0590    -1.2960     2.4300 C.ar  1 <1>   0.1770 
  3 C        2.9840    -0.3170     1.4590 C.ar  1 <1>  -0.1500 
  4 C        2.8350    -2.6260     2.1380 C.ar  1 <1>  -0.1500 
  5 C        2.6820    -0.6910     0.1550 C.ar  1 <1>   0.0830 
  6 C        2.5190    -3.0180     0.8390 C.ar  1 <1>   0.0860 
  7 O        2.5790     0.1840    -0.8740 O.3   1 <1>  -0.3630 
  8 C        2.4660    -2.0270    -0.1400 C.ar  1 <1>  -0.1500 
  9 C        2.2540    -4.4100     0.5290 C.2   1 <1>   0.5440 
 10 C        2.8380     1.5600    -0.6970 C.3   1 <1>   0.0400 
 11 O        3.0880    -5.2430     0.8280 O.2   1 <1>  -0.5700 
 12 N        1.0800    -4.8210    -0.0750 N.am  1 <1>  -0.6600 
 13 C       -0.1360    -3.9530    -0.1110 C.3   1 <1>   0.2200 
 14 C        0.9540    -6.2330    -0.5540 C.3   1 <1>   0.0600 
 15 C       -1.3870    -4.5950     0.4860 C.3   1 <1>  -0.1600 
 16 C       -0.5550    -3.5590    -1.5250 C.3   1 <1>  -0.1600 
 17 C       -2.5440    -3.7680    -0.0880 C.3   1 <1>  -0.0800 
 18 C       -2.0160    -3.1160    -1.3790 C.3   1 <1>  -0.0800 
 19 C       -2.9860    -2.6170     0.8290 C.3   1 <1>  -0.1600 
 20 C       -2.1730    -1.5990    -1.1960 C.3   1 <1>  -0.1600 
 21 C       -3.2290    -1.4480    -0.1120 C.3   1 <1>   0.2000 
 22 O       -3.0570    -0.2570     0.5550 O.3   1 <1>  -0.6800 
 23 H        3.1620     0.7040     1.7380 H     1 <1>   0.1500 
 24 H        2.9060    -3.3670     2.9150 H     1 <1>   0.1500 
 25 H        2.2530    -2.3050    -1.1560 H     1 <1>   0.1500 
 26 H        2.7180     2.0470    -1.6480 H     1 <1>   0.0800 
 27 H        3.8480     1.6840    -0.3490 H     1 <1>   0.0800 
 28 H        2.1330     1.9620     0.0090 H     1 <1>   0.0800 
 29 H        0.0410    -3.0480     0.4420 H     1 <1>   0.0800 
 30 H        0.2820    -6.2980    -1.3890 H     1 <1>   0.0800 
 31 H        0.5900    -6.8520     0.2470 H     1 <1>   0.0800 
 32 H        1.9150    -6.6050    -0.8640 H     1 <1>   0.0800 
 33 H       -1.4980    -5.6060     0.1430 H     1 <1>   0.0800 
 34 H       -1.3640    -4.5860     1.5610 H     1 <1>   0.0800 
 35 H        0.0690    -2.7840    -1.9310 H     1 <1>   0.0800 
 36 H       -0.5180    -4.4130    -2.1760 H     1 <1>   0.0800 
 37 H       -3.3900    -4.3980    -0.3090 H     1 <1>   0.0800 
 38 H       -2.5980    -3.4420    -2.2260 H     1 <1>   0.0800 
 39 H       -2.1990    -2.3690     1.5210 H     1 <1>   0.0800 
 40 H       -3.8780    -2.8700     1.3740 H     1 <1>   0.0800 
 41 H       -2.4850    -1.1240    -2.1100 H     1 <1>   0.0800 
 42 H       -1.2460    -1.1640    -0.8640 H     1 <1>   0.0800 
 43 H       -4.2230    -1.4820    -0.5270 H     1 <1>   0.0800 
 44 H       -2.1560    -0.2100     0.9240 H     1 <1>   0.4000 
@<TRIPOS>BOND
  1   1   2  1   
  2   2   3  ar  
  3   2   4  ar  
  4   3   5  ar  
  5   3  23  1   
  6   4   6  ar  
  7   4  24  1   
  8   5   7  1   
  9   5   8  ar  
 10   6   8  ar  
 11   6   9  1   
 12   7  10  1   
 13   8  25  1   
 14   9  11  2   
 15   9  12  am  
 16  10  26  1   
 17  10  27  1   
 18  10  28  1   
 19  12  13  1   
 20  12  14  1   
 21  13  15  1   
 22  13  16  1   
 23  13  29  1   
 24  14  30  1   
 25  14  31  1   
 26  14  32  1   
 27  15  17  1   
 28  15  33  1   
 29  15  34  1   
 30  16  18  1   
 31  16  35  1   
 32  16  36  1   
 33  17  18  1   
 34  17  19  1   
 35  17  37  1   
 36  18  20  1   
 37  18  38  1   
 38  19  21  1   
 39  19  39  1   
 40  19  40  1   
 41  20  21  1   
 42  20  41  1   
 43  20  42  1   
 44  21  22  1   
 45  21  43  1   
 46  22  44  1   
@<TRIPOS>SUBSTRUCTURE
  1 ****  13 GROUP 4 **** **** 0

# MOE 2024.06 (io_trps.svl 2023.06)
