@<TRIPOS>MOLECULE
NONAME
48 49 1 0 0 
SMALL
USER_CHARGES


@<TRIPOS>ATOM
  1 S        1.6350    -0.0270    -0.9640 S.o2  1 <1>   1.3330 
  2 O        0.5990    -0.7860    -0.3000 O.2   1 <1>  -0.6500 
  3 O        1.3650     1.3230    -1.4060 O.2   1 <1>  -0.6500 
  4 N        2.1610    -0.9250    -2.3050 N.am  1 <1>  -0.8490 
  5 C        3.0890     0.0020     0.0790 C.3   1 <1>  -0.0550 
  6 C        2.0590    -2.3760    -2.1130 C.3   1 <1>   0.1160 
  7 C        1.4740    -0.5360    -3.5410 C.3   1 <1>   0.1160 
  8 C        2.9280     0.8840     1.3290 C.3   1 <1>  -0.0800 
  9 C        4.2400     1.0210     2.1030 C.3   1 <1>   0.2890 
 10 C        1.9400     0.3230     2.3550 C.3   1 <1>   0.1200 
 11 N        4.6400     2.4500     2.1710 N.pl3 1 <1>  -0.8690 
 12 C        3.8940     0.4810     3.4890 C.3   1 <1>   0.1200 
 13 O        2.5100     0.5700     3.5990 O.3   1 <1>  -0.5600 
 14 C        5.0780     3.1500     1.0600 C.ar  1 <1>   0.4100 
 15 N        5.4010     2.4070     0.0070 N.ar  1 <1>  -0.6200 
 16 C        5.1400     4.5510     1.0560 C.ar  1 <1>   0.0730 
 17 C        5.7500     3.0330    -1.1030 C.ar  1 <1>   0.1670 
 18 C        4.8070     5.2990     2.2260 C.1   1 <1>   0.4840 
 19 C        5.5200     5.1930    -0.1070 C.ar  1 <1>  -0.1500 
 20 C        5.8200     4.4140    -1.2040 C.ar  1 <1>  -0.1500 
 21 C        6.0530     2.1370    -2.3060 C.3   1 <1>   0.0630 
 22 N        4.5320     5.9000     3.1560 N.1   1 <1>  -0.5570 
 23 C        7.3590     2.5150    -3.0210 C.3   1 <1>  -0.2400 
 24 C        4.8750     2.1390    -3.2890 C.3   1 <1>  -0.2400 
 25 H        3.3420    -0.9970     0.3740 H     1 <1>   0.0800 
 26 H        3.9040     0.3820    -0.5050 H     1 <1>   0.0800 
 27 H        2.4890    -2.8920    -2.9540 H     1 <1>   0.0800 
 28 H        1.0270    -2.6700    -2.0110 H     1 <1>   0.0800 
 29 H        2.5910    -2.6720    -1.2250 H     1 <1>   0.0800 
 30 H        1.8400    -1.1160    -4.3710 H     1 <1>   0.0800 
 31 H        1.6560     0.5040    -3.7520 H     1 <1>   0.0800 
 32 H        0.4120    -0.6880    -3.4410 H     1 <1>   0.0800 
 33 H        2.5770     1.8540     1.0200 H     1 <1>   0.0800 
 34 H        5.0420     0.4440     1.6730 H     1 <1>   0.0800 
 35 H        1.8150    -0.7420     2.2540 H     1 <1>   0.0800 
 36 H        0.9790     0.8080     2.3060 H     1 <1>   0.0800 
 37 H        4.0930     2.9670     2.8680 H     1 <1>   0.4000 
 38 H        4.3570     1.0420     4.2810 H     1 <1>   0.0800 
 39 H        4.1620    -0.5580     3.5670 H     1 <1>   0.0800 
 40 H        5.5740     6.2660    -0.1610 H     1 <1>   0.1500 
 41 H        6.1000     4.8810    -2.1300 H     1 <1>   0.1500 
 42 H        6.1720     1.1300    -1.9420 H     1 <1>   0.0800 
 43 H        7.2790     3.4730    -3.5010 H     1 <1>   0.0800 
 44 H        7.5950     1.7800    -3.7690 H     1 <1>   0.0800 
 45 H        8.1670     2.5480    -2.3110 H     1 <1>   0.0800 
 46 H        4.7250     3.1210    -3.7000 H     1 <1>   0.0800 
 47 H        3.9750     1.8410    -2.7810 H     1 <1>   0.0800 
 48 H        5.0560     1.4490    -4.0930 H     1 <1>   0.0800 
@<TRIPOS>BOND
  1   1   2  2   
  2   1   3  2   
  3   1   4  am  
  4   1   5  1   
  5   4   6  1   
  6   4   7  1   
  7   5   8  1   
  8   5  25  1   
  9   5  26  1   
 10   6  27  1   
 11   6  28  1   
 12   6  29  1   
 13   7  30  1   
 14   7  31  1   
 15   7  32  1   
 16   8   9  1   
 17   8  10  1   
 18   8  33  1   
 19   9  11  1   
 20   9  12  1   
 21   9  34  1   
 22  10  13  1   
 23  10  35  1   
 24  10  36  1   
 25  11  14  1   
 26  11  37  1   
 27  12  13  1   
 28  12  38  1   
 29  12  39  1   
 30  14  15  ar  
 31  14  16  ar  
 32  15  17  ar  
 33  16  18  1   
 34  16  19  ar  
 35  17  20  ar  
 36  17  21  1   
 37  18  22  3   
 38  19  20  ar  
 39  19  40  1   
 40  20  41  1   
 41  21  23  1   
 42  21  24  1   
 43  21  42  1   
 44  23  43  1   
 45  23  44  1   
 46  23  45  1   
 47  24  46  1   
 48  24  47  1   
 49  24  48  1   
@<TRIPOS>SUBSTRUCTURE
  1 ****  15 GROUP 4 **** **** 0

# MOE 2024.06 (io_trps.svl 2023.06)
