@<TRIPOS>MOLECULE
NONAME
43 45 1 0 0 
SMALL
USER_CHARGES


@<TRIPOS>ATOM
  1 CL      -2.2590    -2.0040    -1.5390 Cl    1 <1>  -0.1770 
  2 C       -2.5250    -0.4700    -0.7450 C.ar  1 <1>   0.1770 
  3 C       -3.1800    -0.4200     0.4830 C.ar  1 <1>   0.0860 
  4 C       -2.0700     0.6720    -1.3770 C.ar  1 <1>  -0.1500 
  5 C       -3.6660    -1.6120     1.1330 C.2   1 <1>   0.5440 
  6 C       -3.3510     0.8350     1.0660 C.ar  1 <1>  -0.1500 
  7 C       -2.2620     1.9050    -0.7800 C.ar  1 <1>  -0.1500 
  8 O       -3.0890    -2.0460     2.1100 O.2   1 <1>  -0.5700 
  9 N       -4.7920    -2.2590     0.6860 N.am  1 <1>  -0.6600 
 10 C       -2.9030     1.9900     0.4460 C.ar  1 <1>  -0.1430 
 11 C       -5.6430    -1.8330    -0.4550 C.3   1 <1>   0.1400 
 12 C       -5.1780    -3.6160     1.1460 C.3   1 <1>   0.1400 
 13 C       -3.1010     3.3460     1.0980 C.3   1 <1>  -0.0970 
 14 C       -6.7520    -2.8860    -0.5250 C.3   1 <1>   0.2000 
 15 C       -6.1120    -4.1500     0.0530 C.3   1 <1>  -0.0800 
 16 O       -7.7790    -2.4920     0.3180 O.3   1 <1>  -0.6800 
 17 C       -5.3290    -4.9130    -1.0330 C.3   1 <1>   0.0210 
 18 C       -4.6700    -6.1580    -0.4740 C.2   1 <1>   0.1080 
 19 N       -5.3410    -7.2100    -0.1190 N.2   1 <1>  -0.7070 
 20 C       -3.3030    -6.3120    -0.2730 C.2   1 <1>  -0.1500 
 21 N       -4.4070    -8.0740     0.3210 N.pl3 1 <1>   0.3000 
 22 C       -3.1640    -7.5520     0.2390 C.2   1 <1>  -0.3320 
 23 C       -1.9020    -8.2790     0.6640 C.3   1 <1>  -0.0600 
 24 H       -1.5690     0.5950    -2.3250 H     1 <1>   0.1500 
 25 H       -3.8420     0.8880     2.0230 H     1 <1>   0.1500 
 26 H       -1.9080     2.7980    -1.2690 H     1 <1>   0.1500 
 27 H       -6.0400    -0.8440    -0.3080 H     1 <1>   0.0800 
 28 H       -5.0630    -1.8590    -1.3600 H     1 <1>   0.0800 
 29 H       -4.3090    -4.2350     1.2950 H     1 <1>   0.0800 
 30 H       -5.7040    -3.5310     2.0810 H     1 <1>   0.0800 
 31 H       -3.5610     4.0270     0.4040 H     1 <1>   0.0800 
 32 H       -2.1510     3.7480     1.4000 H     1 <1>   0.0800 
 33 H       -3.7320     3.2690     1.9660 H     1 <1>   0.0800 
 34 H       -7.1570    -3.0130    -1.5140 H     1 <1>   0.0800 
 35 H       -6.8530    -4.8140     0.4650 H     1 <1>   0.0800 
 36 H       -7.4080    -2.3130     1.2050 H     1 <1>   0.4000 
 37 H       -4.5720    -4.2840    -1.4660 H     1 <1>   0.0800 
 38 H       -6.0010    -5.2150    -1.8160 H     1 <1>   0.0800 
 39 H       -2.5450    -5.5780    -0.4860 H     1 <1>   0.1500 
 40 H       -4.6500    -9.0080     0.6710 H     1 <1>   0.2700 
 41 H       -1.0440    -7.6500     0.5040 H     1 <1>   0.0800 
 42 H       -1.7790    -9.1800     0.0890 H     1 <1>   0.0800 
 43 H       -1.9510    -8.5300     1.7080 H     1 <1>   0.0800 
@<TRIPOS>BOND
  1   1   2  1   
  2   2   3  ar  
  3   2   4  ar  
  4   3   5  1   
  5   3   6  ar  
  6   4   7  ar  
  7   4  24  1   
  8   5   8  2   
  9   5   9  am  
 10   6  10  ar  
 11   6  25  1   
 12   7  10  ar  
 13   7  26  1   
 14   9  11  1   
 15   9  12  1   
 16  10  13  1   
 17  11  14  1   
 18  11  27  1   
 19  11  28  1   
 20  12  15  1   
 21  12  29  1   
 22  12  30  1   
 23  13  31  1   
 24  13  32  1   
 25  13  33  1   
 26  14  15  1   
 27  14  16  1   
 28  14  34  1   
 29  15  17  1   
 30  15  35  1   
 31  16  36  1   
 32  17  18  1   
 33  17  37  1   
 34  17  38  1   
 35  18  19  2   
 36  18  20  1   
 37  19  21  1   
 38  20  22  2   
 39  20  39  1   
 40  21  22  1   
 41  21  40  1   
 42  22  23  1   
 43  23  41  1   
 44  23  42  1   
 45  23  43  1   
@<TRIPOS>SUBSTRUCTURE
  1 ****   9 GROUP 4 **** **** 0

# MOE 2024.06 (io_trps.svl 2023.06)
