@<TRIPOS>MOLECULE
NONAME
44 45 1 0 0 
SMALL
USER_CHARGES


@<TRIPOS>ATOM
  1 CL       0.5180    -1.5070     0.3400 Cl    1 <1>  -0.1770 
  2 C       -1.2270    -1.6230     0.2950 C.ar  1 <1>   0.1770 
  3 C       -1.8540    -2.7910    -0.1210 C.ar  1 <1>  -0.1440 
  4 C       -1.9410    -0.5100     0.6940 C.ar  1 <1>  -0.1500 
  5 C       -3.2560    -2.8510    -0.1060 C.ar  1 <1>   0.0860 
  6 C       -1.0150    -3.9790    -0.5970 C.3   1 <1>  -0.0970 
  7 C       -3.3220    -0.5520     0.6830 C.ar  1 <1>  -0.1500 
  8 C       -4.0130    -4.0370    -0.4620 C.2   1 <1>   0.5440 
  9 C       -3.9610    -1.7110     0.2850 C.ar  1 <1>  -0.1500 
 10 O       -4.8810    -3.9930    -1.3100 O.2   1 <1>  -0.5700 
 11 N       -3.7990    -5.2160     0.1900 N.am  1 <1>  -0.7300 
 12 C       -4.5280    -6.4740    -0.0870 C.3   1 <1>   0.2200 
 13 C       -5.8390    -6.4800     0.7050 C.3   1 <1>  -0.0800 
 14 C       -3.7680    -7.6650     0.4910 C.3   1 <1>   0.1200 
 15 C       -5.6470    -7.6090     1.7260 C.3   1 <1>   0.1200 
 16 C       -7.0980    -6.5470    -0.1900 C.3   1 <1>  -0.0550 
 17 O       -4.2750    -7.8220     1.7770 O.3   1 <1>  -0.5600 
 18 S       -7.3850    -8.0570    -1.1280 S.o2  1 <1>   1.3330 
 19 O       -8.4110    -7.8090    -2.1140 O.2   1 <1>  -0.6500 
 20 O       -6.1140    -8.6060    -1.5460 O.2   1 <1>  -0.6500 
 21 N       -8.0570    -9.1150     0.0210 N.am  1 <1>  -0.8490 
 22 C       -7.7740   -10.5210    -0.2850 C.3   1 <1>   0.1160 
 23 C       -9.5010    -8.9320     0.2100 C.3   1 <1>   0.1160 
 24 H       -1.4200     0.3780     1.0060 H     1 <1>   0.1500 
 25 H       -1.5540    -4.5760    -1.3110 H     1 <1>   0.0800 
 26 H       -0.7450    -4.5980     0.2390 H     1 <1>   0.0800 
 27 H       -0.1160    -3.6480    -1.0850 H     1 <1>   0.0800 
 28 H       -3.8940     0.3100     0.9820 H     1 <1>   0.1500 
 29 H       -5.0380    -1.7430     0.2750 H     1 <1>   0.1500 
 30 H       -3.2250    -5.2330     1.0350 H     1 <1>   0.3700 
 31 H       -4.6670    -6.5840    -1.1500 H     1 <1>   0.0800 
 32 H       -5.9120    -5.5650     1.2660 H     1 <1>   0.0800 
 33 H       -2.7060    -7.5080     0.5330 H     1 <1>   0.0800 
 34 H       -3.9870    -8.5620    -0.0630 H     1 <1>   0.0800 
 35 H       -6.0980    -8.5350     1.4210 H     1 <1>   0.0800 
 36 H       -5.9970    -7.3410     2.7080 H     1 <1>   0.0800 
 37 H       -7.0260    -5.7340    -0.8900 H     1 <1>   0.0800 
 38 H       -7.9590    -6.3510     0.4170 H     1 <1>   0.0800 
 39 H       -8.2060   -11.1620     0.4640 H     1 <1>   0.0800 
 40 H       -6.7100   -10.6890    -0.2970 H     1 <1>   0.0800 
 41 H       -8.1750   -10.7810    -1.2510 H     1 <1>   0.0800 
 42 H       -9.8510    -9.5560     1.0140 H     1 <1>   0.0800 
 43 H      -10.0340    -9.1890    -0.6910 H     1 <1>   0.0800 
 44 H       -9.7180    -7.9070     0.4570 H     1 <1>   0.0800 
@<TRIPOS>BOND
  1   1   2  1   
  2   2   3  ar  
  3   2   4  ar  
  4   3   5  ar  
  5   3   6  1   
  6   4   7  ar  
  7   4  24  1   
  8   5   8  1   
  9   5   9  ar  
 10   6  25  1   
 11   6  26  1   
 12   6  27  1   
 13   7   9  ar  
 14   7  28  1   
 15   8  10  2   
 16   8  11  am  
 17   9  29  1   
 18  11  12  1   
 19  11  30  1   
 20  12  13  1   
 21  12  14  1   
 22  12  31  1   
 23  13  15  1   
 24  13  16  1   
 25  13  32  1   
 26  14  17  1   
 27  14  33  1   
 28  14  34  1   
 29  15  17  1   
 30  15  35  1   
 31  15  36  1   
 32  16  18  1   
 33  16  37  1   
 34  16  38  1   
 35  18  19  2   
 36  18  20  2   
 37  18  21  am  
 38  21  22  1   
 39  21  23  1   
 40  22  39  1   
 41  22  40  1   
 42  22  41  1   
 43  23  42  1   
 44  23  43  1   
 45  23  44  1   
@<TRIPOS>SUBSTRUCTURE
  1 ****  11 GROUP 4 **** **** 0

# MOE 2024.06 (io_trps.svl 2023.06)
