@<TRIPOS>MOLECULE
NONAME
49 51 1 0 0 
SMALL
USER_CHARGES


@<TRIPOS>ATOM
  1 N       -0.1920     2.0640     2.5710 N.1   1 <1>  -0.5570 
  2 C       -1.1770     2.0810     1.9930 C.1   1 <1>   0.4840 
  3 C       -2.3790     2.1760     1.2250 C.ar  1 <1>   0.0730 
  4 C       -2.4830     3.1490     0.2250 C.ar  1 <1>   0.4100 
  5 C       -3.4570     1.3420     1.4440 C.ar  1 <1>  -0.1500 
  6 N       -3.5610     3.3300    -0.5210 N.ar  1 <1>  -0.6200 
  7 N       -1.4310     4.0040    -0.0510 N.pl3 1 <1>  -0.8380 
  8 C       -4.5840     1.5170     0.6650 C.ar  1 <1>  -0.1430 
  9 C       -4.5810     2.5210    -0.3000 C.ar  1 <1>   0.1670 
 10 C       -1.7010     5.4710    -0.0340 C.3   1 <1>   0.2090 
 11 C       -0.4570     3.5660    -1.0790 C.3   1 <1>   0.2090 
 12 C       -5.7870     0.6090     0.8950 C.3   1 <1>  -0.0960 
 13 C       -5.7910     2.7590    -1.1850 C.3   1 <1>  -0.0970 
 14 C       -0.5920     6.2500     0.7080 C.3   1 <1>   0.3430 
 15 C        0.9490     3.5460    -0.4740 C.3   1 <1>  -0.1600 
 16 N        0.8170     5.9340     0.2510 N.4   1 <1>  -0.9590 
 17 C        1.1720     4.5390     0.6710 C.3   1 <1>   0.3430 
 18 C        1.7960     6.9360     0.7570 C.3   1 <1>   0.4230 
 19 C        1.5090     8.3400     0.1960 C.3   1 <1>  -0.1600 
 20 C        3.2250     6.6030     0.3070 C.3   1 <1>  -0.1600 
 21 C        2.7510     8.7790    -0.5840 C.3   1 <1>  -0.1600 
 22 C        3.8850     7.9410    -0.0120 C.3   1 <1>  -0.1600 
 23 H       -3.4150     0.5790     2.2030 H     1 <1>   0.1500 
 24 H       -2.6400     5.6560     0.4610 H     1 <1>   0.0800 
 25 H       -1.7990     5.8360    -1.0420 H     1 <1>   0.0800 
 26 H       -0.4930     4.2370    -1.9210 H     1 <1>   0.0800 
 27 H       -0.7150     2.5830    -1.4420 H     1 <1>   0.0800 
 28 H       -5.6500    -0.0020     1.7690 H     1 <1>   0.0800 
 29 H       -5.9270    -0.0390     0.0480 H     1 <1>   0.0800 
 30 H       -6.6770     1.1970     1.0360 H     1 <1>   0.0800 
 31 H       -5.5250     3.3790    -2.0230 H     1 <1>   0.0800 
 32 H       -6.5590     3.2560    -0.6230 H     1 <1>   0.0800 
 33 H       -6.1710     1.8300    -1.5670 H     1 <1>   0.0800 
 34 H       -0.6780     6.0310     1.7600 H     1 <1>   0.0800 
 35 H       -0.7930     7.3000     0.5850 H     1 <1>   0.0800 
 36 H        1.6780     3.7000    -1.2480 H     1 <1>   0.0800 
 37 H        1.1250     2.5600    -0.0810 H     1 <1>   0.0800 
 38 H        0.8470     5.9690    -0.7730 H     1 <1>   0.4500 
 39 H        2.2020     4.4820     0.9790 H     1 <1>   0.0800 
 40 H        0.5660     4.2490     1.5150 H     1 <1>   0.0800 
 41 H        1.7630     6.9750     1.8350 H     1 <1>   0.0800 
 42 H        1.3670     9.0130     1.0230 H     1 <1>   0.0800 
 43 H        0.6460     8.3880    -0.4430 H     1 <1>   0.0800 
 44 H        3.2150     6.0130    -0.5920 H     1 <1>   0.0800 
 45 H        3.7720     6.0840     1.0750 H     1 <1>   0.0800 
 46 H        2.9430     9.8350    -0.4850 H     1 <1>   0.0800 
 47 H        2.6280     8.5460    -1.6290 H     1 <1>   0.0800 
 48 H        4.7030     7.8390    -0.7060 H     1 <1>   0.0800 
 49 H        4.2500     8.3970     0.8940 H     1 <1>   0.0800 
@<TRIPOS>BOND
  1   1   2  3   
  2   2   3  1   
  3   3   4  ar  
  4   3   5  ar  
  5   4   6  ar  
  6   4   7  1   
  7   5   8  ar  
  8   5  23  1   
  9   6   9  ar  
 10   7  10  1   
 11   7  11  1   
 12   8   9  ar  
 13   8  12  1   
 14   9  13  1   
 15  10  14  1   
 16  10  24  1   
 17  10  25  1   
 18  11  15  1   
 19  11  26  1   
 20  11  27  1   
 21  12  28  1   
 22  12  29  1   
 23  12  30  1   
 24  13  31  1   
 25  13  32  1   
 26  13  33  1   
 27  14  16  1   
 28  14  34  1   
 29  14  35  1   
 30  15  17  1   
 31  15  36  1   
 32  15  37  1   
 33  16  17  1   
 34  16  18  1   
 35  16  38  1   
 36  17  39  1   
 37  17  40  1   
 38  18  19  1   
 39  18  20  1   
 40  18  41  1   
 41  19  21  1   
 42  19  42  1   
 43  19  43  1   
 44  20  22  1   
 45  20  44  1   
 46  20  45  1   
 47  21  22  1   
 48  21  46  1   
 49  21  47  1   
 50  22  48  1   
 51  22  49  1   
@<TRIPOS>SUBSTRUCTURE
  1 ****   7 GROUP 4 **** **** 0

# MOE 2024.06 (io_trps.svl 2023.06)
