@<TRIPOS>MOLECULE
NONAME
54 57 1 0 0 
SMALL
USER_CHARGES


@<TRIPOS>ATOM
  1 O        1.7790    -0.3150     2.7560 O.3   1 <1>  -0.6800 
  2 C        1.6790    -0.3570     1.3670 C.3   1 <1>   0.2000 
  3 C        2.2530    -1.6740     0.8330 C.3   1 <1>  -0.0800 
  4 C        2.5950     0.7150     0.7620 C.3   1 <1>   0.2090 
  5 C        3.7570    -1.4140     0.7420 C.3   1 <1>   0.2090 
  6 C        1.8950    -2.9470     1.6260 C.3   1 <1>  -0.0170 
  7 N        3.8860     0.0340     0.4410 N.pl3 1 <1>  -0.8380 
  8 C        2.5810    -4.1790     1.0420 C.ar  1 <1>  -0.1440 
  9 C        4.9820     0.6760    -0.0080 C.ar  1 <1>   0.4100 
 10 C        2.1450    -4.8060    -0.1500 C.ar  1 <1>   0.0000 
 11 C        3.6660    -4.7140     1.6730 C.ar  1 <1>  -0.1500 
 12 N        4.8710     1.9920    -0.2380 N.ar  1 <1>  -0.6200 
 13 C        6.2000     0.0230    -0.2310 C.ar  1 <1>  -0.1500 
 14 C        2.8840    -5.9210    -0.6150 C.ar  1 <1>   0.3100 
 15 C        1.0200    -4.3970    -0.9040 C.ar  1 <1>  -0.1500 
 16 C        4.3190    -5.8280     1.1340 C.ar  1 <1>   0.1600 
 17 C        5.9140     2.6380    -0.6630 C.ar  1 <1>   0.5280 
 18 C        7.2740     0.7300    -0.6810 C.ar  1 <1>   0.2180 
 19 N        3.9660    -6.4170     0.0360 N.ar  1 <1>  -0.6200 
 20 C        2.4860    -6.5540    -1.8030 C.ar  1 <1>  -0.1500 
 21 C        0.6580    -5.0370    -2.0580 C.ar  1 <1>  -0.1500 
 22 N        7.1070     2.0510    -0.8910 N.ar  1 <1>  -0.1790 
 23 C        5.7850     4.1340    -0.9180 C.3   1 <1>  -0.0170 
 24 C        8.6300     0.0990    -0.9470 C.3   1 <1>  -0.0970 
 25 C        1.3990    -6.1280    -2.5170 C.ar  1 <1>  -0.1500 
 26 C        6.5680     4.9740     0.1060 C.3   1 <1>  -0.1600 
 27 C        6.4130     6.4720    -0.1720 C.3   1 <1>  -0.2400 
 28 H        1.1070    -0.8870     3.1710 H     1 <1>   0.4000 
 29 H        0.6490    -0.2000     1.0960 H     1 <1>   0.0800 
 30 H        1.9040    -1.7880    -0.1770 H     1 <1>   0.0800 
 31 H        2.7450     1.5320     1.4480 H     1 <1>   0.0800 
 32 H        2.1660     1.0890    -0.1510 H     1 <1>   0.0800 
 33 H        4.2030    -2.0210    -0.0270 H     1 <1>   0.0800 
 34 H        4.2260    -1.6170     1.6900 H     1 <1>   0.0800 
 35 H        0.8290    -3.0930     1.6360 H     1 <1>   0.0800 
 36 H        2.2060    -2.8350     2.6500 H     1 <1>   0.0800 
 37 H        4.0490    -4.3010     2.5890 H     1 <1>   0.1500 
 38 H        6.2700    -1.0300    -0.0410 H     1 <1>   0.1500 
 39 H        0.4300    -3.5670    -0.5670 H     1 <1>   0.1500 
 40 H        5.1710    -6.2190     1.6650 H     1 <1>   0.1500 
 41 H        3.0680    -7.3940    -2.1350 H     1 <1>   0.1500 
 42 H       -0.1990    -4.7130    -2.6250 H     1 <1>   0.1500 
 43 H        7.8800     2.6270    -1.2220 H     1 <1>   0.4570 
 44 H        6.1200     4.3570    -1.9150 H     1 <1>   0.0800 
 45 H        4.7430     4.4040    -0.8640 H     1 <1>   0.0800 
 46 H        8.6020    -0.9560    -0.7350 H     1 <1>   0.0800 
 47 H        9.3830     0.5450    -0.3210 H     1 <1>   0.0800 
 48 H        8.9080     0.2240    -1.9780 H     1 <1>   0.0800 
 49 H        1.1060    -6.6230    -3.4270 H     1 <1>   0.1500 
 50 H        6.1970     4.7640     1.0970 H     1 <1>   0.0800 
 51 H        7.6150     4.7250     0.0830 H     1 <1>   0.0800 
 52 H        5.3780     6.7630    -0.1180 H     1 <1>   0.0800 
 53 H        6.7920     6.7260    -1.1470 H     1 <1>   0.0800 
 54 H        6.9590     7.0420     0.5610 H     1 <1>   0.0800 
@<TRIPOS>BOND
  1   1   2  1   
  2   1  28  1   
  3   2   3  1   
  4   2   4  1   
  5   2  29  1   
  6   3   5  1   
  7   3   6  1   
  8   3  30  1   
  9   4   7  1   
 10   4  31  1   
 11   4  32  1   
 12   5   7  1   
 13   5  33  1   
 14   5  34  1   
 15   6   8  1   
 16   6  35  1   
 17   6  36  1   
 18   7   9  1   
 19   8  10  ar  
 20   8  11  ar  
 21   9  12  ar  
 22   9  13  ar  
 23  10  14  ar  
 24  10  15  ar  
 25  11  16  ar  
 26  11  37  1   
 27  12  17  ar  
 28  13  18  ar  
 29  13  38  1   
 30  14  19  ar  
 31  14  20  ar  
 32  15  21  ar  
 33  15  39  1   
 34  16  19  ar  
 35  16  40  1   
 36  17  22  ar  
 37  17  23  1   
 38  18  22  ar  
 39  18  24  1   
 40  20  25  ar  
 41  20  41  1   
 42  21  25  ar  
 43  21  42  1   
 44  22  43  1   
 45  23  26  1   
 46  23  44  1   
 47  23  45  1   
 48  24  46  1   
 49  24  47  1   
 50  24  48  1   
 51  25  49  1   
 52  26  27  1   
 53  26  50  1   
 54  26  51  1   
 55  27  52  1   
 56  27  53  1   
 57  27  54  1   
@<TRIPOS>SUBSTRUCTURE
  1 ****   5 GROUP 4 **** **** 0

# MOE 2024.06 (io_trps.svl 2023.06)
