@<TRIPOS>MOLECULE
NONAME
46 49 1 0 0 
SMALL
USER_CHARGES


@<TRIPOS>ATOM
  1 S       -0.8140    -0.1200     1.0110 S.o2  1 <1>   1.4470 
  2 O       -0.7160    -1.5250     1.3290 O.2   1 <1>  -0.6500 
  3 O       -1.5460     0.7450     1.9040 O.2   1 <1>  -0.6500 
  4 N       -1.6600     0.0410    -0.4330 N.am  1 <1>  -0.9140 
  5 C        0.8160     0.5840     0.6450 C.ar  1 <1>  -0.0090 
  6 C       -1.6820    -1.0170    -1.4550 C.3   1 <1>   0.2760 
  7 C        0.9330     1.8200     0.0190 C.ar  1 <1>  -0.1500 
  8 C        1.9860    -0.0930     0.9820 C.ar  1 <1>  -0.1500 
  9 C       -2.6100    -2.2060    -1.1810 C.3   1 <1>  -0.0800 
 10 C       -0.3250    -1.6690    -1.7760 C.3   1 <1>   0.1200 
 11 C        2.1720     2.3600    -0.2700 C.ar  1 <1>   0.0820 
 12 C        3.2340     0.4360     0.6940 C.ar  1 <1>  -0.1500 
 13 C       -1.6420    -3.3760    -1.0420 C.3   1 <1>   0.1200 
 14 C       -3.6410    -2.0900    -0.0400 C.3   1 <1>  -0.0160 
 15 O       -0.5590    -3.0410    -1.8470 O.3   1 <1>  -0.5600 
 16 O        2.2330     3.5740    -0.8720 O.3   1 <1>  -0.3630 
 17 C        3.3320     1.6600     0.0610 C.ar  1 <1>   0.0820 
 18 C       -4.4810    -3.3520     0.0620 C.ar  1 <1>  -0.1430 
 19 C        3.4840     4.2360    -0.8540 C.3   1 <1>   0.1200 
 20 O        4.5600     2.1550    -0.2320 O.3   1 <1>  -0.3630 
 21 C       -5.5540    -3.5890    -0.7740 C.ar  1 <1>  -0.1500 
 22 C       -4.2100    -4.3300     0.9970 C.ar  1 <1>  -0.1500 
 23 C        4.6170     3.2400    -1.1390 C.3   1 <1>   0.1200 
 24 C       -6.2810    -4.7600    -0.6390 C.ar  1 <1>   0.1600 
 25 C       -5.0000    -5.4660     1.0490 C.ar  1 <1>   0.1600 
 26 N       -6.0290    -5.7050     0.2520 N.ar  1 <1>  -0.6200 
 27 H       -2.6100     0.2540    -0.1420 H     1 <1>   0.4200 
 28 H       -2.0270    -0.5510    -2.3630 H     1 <1>   0.0800 
 29 H        0.0490     2.3740    -0.2470 H     1 <1>   0.1500 
 30 H        1.9220    -1.0500     1.4740 H     1 <1>   0.1500 
 31 H       -3.1580    -2.3890    -2.0890 H     1 <1>   0.0800 
 32 H        0.4150    -1.5100    -1.0160 H     1 <1>   0.0800 
 33 H        0.0550    -1.3440    -2.7270 H     1 <1>   0.0800 
 34 H        4.1320    -0.0970     0.9550 H     1 <1>   0.1500 
 35 H       -2.0660    -4.3040    -1.3870 H     1 <1>   0.0800 
 36 H       -1.2880    -3.4910    -0.0320 H     1 <1>   0.0800 
 37 H       -4.2910    -1.2520    -0.2220 H     1 <1>   0.0800 
 38 H       -3.1550    -1.9260     0.9030 H     1 <1>   0.0800 
 39 H        3.4600     5.0120    -1.5970 H     1 <1>   0.0800 
 40 H        3.6130     4.6800     0.1180 H     1 <1>   0.0800 
 41 H       -5.8320    -2.8760    -1.5280 H     1 <1>   0.1500 
 42 H       -3.3920    -4.2200     1.6860 H     1 <1>   0.1500 
 43 H        5.5770     3.7120    -1.0320 H     1 <1>   0.0800 
 44 H        4.5270     2.8470    -2.1360 H     1 <1>   0.0800 
 45 H       -7.1140    -4.9280    -1.2990 H     1 <1>   0.1500 
 46 H       -4.7730    -6.2180     1.7850 H     1 <1>   0.1500 
@<TRIPOS>BOND
  1   1   2  2   
  2   1   3  2   
  3   1   4  am  
  4   1   5  1   
  5   4   6  1   
  6   4  27  1   
  7   5   7  ar  
  8   5   8  ar  
  9   6   9  1   
 10   6  10  1   
 11   6  28  1   
 12   7  11  ar  
 13   7  29  1   
 14   8  12  ar  
 15   8  30  1   
 16   9  13  1   
 17   9  14  1   
 18   9  31  1   
 19  10  15  1   
 20  10  32  1   
 21  10  33  1   
 22  11  16  1   
 23  11  17  ar  
 24  12  17  ar  
 25  12  34  1   
 26  13  15  1   
 27  13  35  1   
 28  13  36  1   
 29  14  18  1   
 30  14  37  1   
 31  14  38  1   
 32  16  19  1   
 33  17  20  1   
 34  18  21  ar  
 35  18  22  ar  
 36  19  23  1   
 37  19  39  1   
 38  19  40  1   
 39  20  23  1   
 40  21  24  ar  
 41  21  41  1   
 42  22  25  ar  
 43  22  42  1   
 44  23  43  1   
 45  23  44  1   
 46  24  26  ar  
 47  24  45  1   
 48  25  26  ar  
 49  25  46  1   
@<TRIPOS>SUBSTRUCTURE
  1 ****   4 GROUP 4 **** **** 0

# MOE 2024.06 (io_trps.svl 2023.06)
