@<TRIPOS>MOLECULE
NONAME
51 53 1 0 0 
SMALL
USER_CHARGES


@<TRIPOS>ATOM
  1 O        2.3490     0.2010     1.6350 O.2   1 <1>  -0.5700 
  2 C        2.1230    -0.2820     0.5430 C.2   1 <1>   0.5440 
  3 N        2.0050     0.5600    -0.5290 N.am  1 <1>  -0.7300 
  4 C        1.9740    -1.7190     0.3790 C.ar  1 <1>   0.0860 
  5 C        2.0390     2.0410    -0.4550 C.3   1 <1>   0.1400 
  6 C        1.5290    -2.5150     1.4340 C.ar  1 <1>  -0.1500 
  7 C        2.2660    -2.3630    -0.8250 C.ar  1 <1>  -0.1500 
  8 C        3.4870     2.5190    -0.3250 C.3   1 <1>  -0.0990 
  9 C        1.3690    -3.8820     1.2940 C.ar  1 <1>  -0.1500 
 10 C        2.1070    -3.7290    -0.9710 C.ar  1 <1>  -0.1500 
 11 C        3.6020     4.0340    -0.3260 C.2   1 <1>   0.5690 
 12 C        1.6540    -4.4980     0.0870 C.ar  1 <1>  -0.1430 
 13 O        2.6770     4.6770    -0.7660 O.2   1 <1>  -0.5700 
 14 N        4.7380     4.6460     0.1410 N.am  1 <1>  -0.6600 
 15 C        1.4800    -5.9980    -0.0690 C.3   1 <1>  -0.0970 
 16 C        4.8380     6.1370     0.2200 C.3   1 <1>   0.1400 
 17 C        5.9970     3.9530     0.5620 C.3   1 <1>   0.1400 
 18 C        6.0370     6.6580    -0.5860 C.3   1 <1>   0.1400 
 19 C        7.1930     4.4600    -0.2560 C.3   1 <1>   0.1400 
 20 N        7.2940     5.9490    -0.1960 N.am  1 <1>  -0.6600 
 21 C        8.3210     6.5680     0.4780 C.2   1 <1>   0.7150 
 22 O        8.9370     5.9360     1.3180 O.2   1 <1>  -0.5700 
 23 C        8.6800     7.9410     0.2420 C.2   1 <1>  -0.2370 
 24 N        9.3950     8.6450     1.1710 N.pl3 1 <1>   0.0330 
 25 C        8.4630     8.7810    -0.8230 C.2   1 <1>  -0.1500 
 26 C        9.6030     9.9000     0.7050 C.2   1 <1>  -0.3020 
 27 C        9.0380    10.0150    -0.5260 C.2   1 <1>  -0.1500 
 28 H        1.6880     0.1750    -1.4190 H     1 <1>   0.3700 
 29 H        1.4710     2.3730     0.3980 H     1 <1>   0.0800 
 30 H        1.5880     2.4520    -1.3430 H     1 <1>   0.0800 
 31 H        1.3060    -2.0490     2.3780 H     1 <1>   0.1500 
 32 H        2.6310    -1.7920    -1.6590 H     1 <1>   0.1500 
 33 H        4.0670     2.1350    -1.1410 H     1 <1>   0.0800 
 34 H        3.8750     2.1410     0.6010 H     1 <1>   0.0800 
 35 H        1.0230    -4.4640     2.1300 H     1 <1>   0.1500 
 36 H        2.3410    -4.1960    -1.9120 H     1 <1>   0.1500 
 37 H        0.6840    -6.3510     0.5620 H     1 <1>   0.0800 
 38 H        2.3900    -6.5000     0.2070 H     1 <1>   0.0800 
 39 H        1.2410    -6.2460    -1.0870 H     1 <1>   0.0800 
 40 H        4.9530     6.4250     1.2510 H     1 <1>   0.0800 
 41 H        3.9390     6.6010    -0.1470 H     1 <1>   0.0800 
 42 H        5.9210     2.8890     0.4360 H     1 <1>   0.0800 
 43 H        6.1770     4.1490     1.6060 H     1 <1>   0.0800 
 44 H        6.1260     7.7150    -0.4110 H     1 <1>   0.0800 
 45 H        5.8540     6.5060    -1.6360 H     1 <1>   0.0800 
 46 H        7.0740     4.1590    -1.2820 H     1 <1>   0.0800 
 47 H        8.0970     4.0060     0.1130 H     1 <1>   0.0800 
 48 H        9.7210     8.2450     2.0600 H     1 <1>   0.2700 
 49 H        7.9520     8.5490    -1.7410 H     1 <1>   0.1500 
 50 H       10.1430    10.6440     1.2640 H     1 <1>   0.1500 
 51 H        9.0300    10.8800    -1.1680 H     1 <1>   0.1500 
@<TRIPOS>BOND
  1   1   2  2   
  2   2   3  am  
  3   2   4  1   
  4   3   5  1   
  5   3  28  1   
  6   4   6  ar  
  7   4   7  ar  
  8   5   8  1   
  9   5  29  1   
 10   5  30  1   
 11   6   9  ar  
 12   6  31  1   
 13   7  10  ar  
 14   7  32  1   
 15   8  11  1   
 16   8  33  1   
 17   8  34  1   
 18   9  12  ar  
 19   9  35  1   
 20  10  12  ar  
 21  10  36  1   
 22  11  13  2   
 23  11  14  am  
 24  12  15  1   
 25  14  16  1   
 26  14  17  1   
 27  15  37  1   
 28  15  38  1   
 29  15  39  1   
 30  16  18  1   
 31  16  40  1   
 32  16  41  1   
 33  17  19  1   
 34  17  42  1   
 35  17  43  1   
 36  18  20  1   
 37  18  44  1   
 38  18  45  1   
 39  19  20  1   
 40  19  46  1   
 41  19  47  1   
 42  20  21  am  
 43  21  22  2   
 44  21  23  1   
 45  23  24  1   
 46  23  25  2   
 47  24  26  1   
 48  24  48  1   
 49  25  27  1   
 50  25  49  1   
 51  26  27  2   
 52  26  50  1   
 53  27  51  1   
@<TRIPOS>SUBSTRUCTURE
  1 ****   8 GROUP 4 **** **** 0

# MOE 2024.06 (io_trps.svl 2023.06)
