@<TRIPOS>MOLECULE
NONAME
43 45 1 0 0 
SMALL
USER_CHARGES


@<TRIPOS>ATOM
  1 O        0.4350     0.7610     1.0700 O.co2 1 <1>  -0.9000 
  2 C       -0.1290     1.5090     0.2650 C.2   1 <1>   0.9060 
  3 O        0.1780     1.5310    -0.9360 O.co2 1 <1>  -0.9000 
  4 C       -1.4380     2.1980     0.7410 C.3   1 <1>   0.4600 
  5 N       -2.6890     1.6570     0.0750 N.4   1 <1>  -0.9590 
  6 C       -1.5000     3.7300     0.6910 C.ar  1 <1>  -0.1430 
  7 C       -2.7190     0.1780     0.2530 C.3   1 <1>   0.5240 
  8 C       -2.6980     1.9780    -1.3920 C.3   1 <1>   0.3430 
  9 C       -2.2400     4.4330     1.6410 C.ar  1 <1>  -0.1440 
 10 C       -0.8360     4.4380    -0.3050 C.ar  1 <1>  -0.1500 
 11 C       -3.9840    -0.3350    -0.4000 C.2   1 <1>  -0.1810 
 12 C       -4.0470     1.6220    -2.0300 C.3   1 <1>   0.0210 
 13 C       -2.3170     5.8150     1.5620 C.ar  1 <1>  -0.1500 
 14 C       -2.9660     3.7360     2.7870 C.3   1 <1>  -0.0970 
 15 C       -0.9120     5.8170    -0.3770 C.ar  1 <1>  -0.1430 
 16 C       -4.5840     0.3270    -1.4610 C.2   1 <1>   0.1080 
 17 C       -4.7640    -1.4160    -0.1780 C.2   1 <1>  -0.3320 
 18 C       -1.6610     6.5040     0.5590 C.ar  1 <1>  -0.1500 
 19 C       -0.1750     6.5660    -1.4740 C.3   1 <1>  -0.0970 
 20 N       -5.6520    -0.2700    -1.8780 N.2   1 <1>  -0.7070 
 21 N       -5.7640    -1.3550    -1.0870 N.pl3 1 <1>   0.3000 
 22 C       -4.6280    -2.5310     0.8450 C.3   1 <1>  -0.0600 
 23 H       -1.4860     1.9320     1.7800 H     1 <1>   0.0800 
 24 H       -3.5070     2.0780     0.5170 H     1 <1>   0.4500 
 25 H       -2.7070    -0.0800     1.2980 H     1 <1>   0.0800 
 26 H       -1.8590    -0.2690    -0.2230 H     1 <1>   0.0800 
 27 H       -1.9160     1.4190    -1.8810 H     1 <1>   0.0800 
 28 H       -2.4990     3.0250    -1.5480 H     1 <1>   0.0800 
 29 H       -0.2450     3.9210    -1.0430 H     1 <1>   0.1500 
 30 H       -3.9300     1.5290    -3.0940 H     1 <1>   0.0800 
 31 H       -4.7550     2.4070    -1.8400 H     1 <1>   0.0800 
 32 H       -2.8860     6.3720     2.2850 H     1 <1>   0.1500 
 33 H       -3.7440     3.0970     2.4120 H     1 <1>   0.0800 
 34 H       -3.4180     4.4560     3.4460 H     1 <1>   0.0800 
 35 H       -2.2720     3.1540     3.3670 H     1 <1>   0.0800 
 36 H       -1.7320     7.5760     0.5160 H     1 <1>   0.1500 
 37 H        0.7240     6.0420    -1.7460 H     1 <1>   0.0800 
 38 H        0.0970     7.5510    -1.1400 H     1 <1>   0.0800 
 39 H       -0.8030     6.6530    -2.3420 H     1 <1>   0.0800 
 40 H       -6.5300    -2.0320    -1.1960 H     1 <1>   0.2700 
 41 H       -3.7540    -2.3840     1.4530 H     1 <1>   0.0800 
 42 H       -4.5400    -3.4810     0.3480 H     1 <1>   0.0800 
 43 H       -5.4910    -2.5540     1.4880 H     1 <1>   0.0800 
@<TRIPOS>BOND
  1   1   2  ar  
  2   2   3  ar  
  3   2   4  1   
  4   4   5  1   
  5   4   6  1   
  6   4  23  1   
  7   5   7  1   
  8   5   8  1   
  9   5  24  1   
 10   6   9  ar  
 11   6  10  ar  
 12   7  11  1   
 13   7  25  1   
 14   7  26  1   
 15   8  12  1   
 16   8  27  1   
 17   8  28  1   
 18   9  13  ar  
 19   9  14  1   
 20  10  15  ar  
 21  10  29  1   
 22  11  16  1   
 23  11  17  2   
 24  12  16  1   
 25  12  30  1   
 26  12  31  1   
 27  13  18  ar  
 28  13  32  1   
 29  14  33  1   
 30  14  34  1   
 31  14  35  1   
 32  15  18  ar  
 33  15  19  1   
 34  16  20  2   
 35  17  21  1   
 36  17  22  1   
 37  18  36  1   
 38  19  37  1   
 39  19  38  1   
 40  19  39  1   
 41  20  21  1   
 42  21  40  1   
 43  22  41  1   
 44  22  42  1   
 45  22  43  1   
@<TRIPOS>SUBSTRUCTURE
  1 ****   5 GROUP 4 **** **** 0

# MOE 2024.06 (io_trps.svl 2023.06)
