@<TRIPOS>MOLECULE
NONAME
46 49 1 0 0 
SMALL
USER_CHARGES


@<TRIPOS>ATOM
  1 S       -0.7790    -0.4920     1.3790 S.3   1 <1>  -0.0800 
  2 C       -1.1680     1.0650     0.6650 C.2   1 <1>  -0.1400 
  3 C       -2.4350    -1.0400     1.1610 C.2   1 <1>  -0.1100 
  4 C       -2.4610     1.1210     0.3220 C.2   1 <1>  -0.1810 
  5 C       -0.1390     2.1700     0.4880 C.3   1 <1>   0.4600 
  6 C       -3.1910    -0.0790     0.5940 C.2   1 <1>  -0.1500 
  7 C       -3.0190     2.3860    -0.2880 C.3   1 <1>   0.0210 
  8 O       -0.7290     3.2490    -0.2180 O.3   1 <1>  -0.5600 
  9 C        0.3840     2.6950     1.8290 C.3   1 <1>  -0.1600 
 10 C        1.0410     1.6960    -0.3740 C.3   1 <1>  -0.1600 
 11 C       -2.0810     3.5600     0.0570 C.3   1 <1>   0.1200 
 12 C        1.3750     3.8520     1.6610 C.3   1 <1>   0.3430 
 13 C        2.2710     2.6050    -0.2930 C.3   1 <1>   0.3430 
 14 N        1.8910     3.9290     0.2590 N.4   1 <1>  -0.9590 
 15 C        2.9220     4.9780     0.0740 C.3   1 <1>   0.5240 
 16 C        2.2890     6.3040     0.4220 C.2   1 <1>  -0.1810 
 17 C        2.6170     7.0960     1.5150 C.2   1 <1>   0.1390 
 18 C        1.2990     6.9790    -0.2060 C.2   1 <1>  -0.3020 
 19 N        1.8880     8.1630     1.5750 N.2   1 <1>  -0.7070 
 20 N        1.0770     8.1050     0.5040 N.pl3 1 <1>   0.3140 
 21 C        0.0990     9.1730     0.2040 C.3   1 <1>   0.0960 
 22 C        0.5750    10.0510    -0.9600 C.3   1 <1>  -0.2400 
 23 H       -2.6720    -2.0380     1.4840 H     1 <1>   0.1500 
 24 H       -4.2360    -0.1650     0.3550 H     1 <1>   0.1500 
 25 H       -3.9990     2.5850     0.1050 H     1 <1>   0.0800 
 26 H       -3.0960     2.2750    -1.3550 H     1 <1>   0.0800 
 27 H        0.8780     1.8920     2.3450 H     1 <1>   0.0800 
 28 H       -0.4340     3.0010     2.4550 H     1 <1>   0.0800 
 29 H        0.7130     1.6050    -1.3950 H     1 <1>   0.0800 
 30 H        1.3470     0.7140    -0.0640 H     1 <1>   0.0800 
 31 H       -2.1680     3.8060     1.1020 H     1 <1>   0.0800 
 32 H       -2.3470     4.4250    -0.5230 H     1 <1>   0.0800 
 33 H        2.1910     3.7290     2.3550 H     1 <1>   0.0800 
 34 H        0.8730     4.7770     1.8990 H     1 <1>   0.0800 
 35 H        2.6950     2.7160    -1.2780 H     1 <1>   0.0800 
 36 H        3.0120     2.1500     0.3450 H     1 <1>   0.0800 
 37 H        1.0650     4.2300    -0.2900 H     1 <1>   0.4500 
 38 H        3.2500     5.0000    -0.9530 H     1 <1>   0.0800 
 39 H        3.7720     4.7910     0.7080 H     1 <1>   0.0800 
 40 H        3.3800     6.8750     2.2450 H     1 <1>   0.1500 
 41 H        0.7460     6.7440    -1.0980 H     1 <1>   0.1500 
 42 H       -0.0230     9.7730     1.0880 H     1 <1>   0.0800 
 43 H       -0.8450     8.7180    -0.0330 H     1 <1>   0.0800 
 44 H        1.5190    10.5070    -0.7140 H     1 <1>   0.0800 
 45 H       -0.1410    10.8320    -1.1430 H     1 <1>   0.0800 
 46 H        0.6830     9.4690    -1.8570 H     1 <1>   0.0800 
@<TRIPOS>BOND
  1   1   2  1   
  2   1   3  1   
  3   2   4  2   
  4   2   5  1   
  5   3   6  2   
  6   3  23  1   
  7   4   6  1   
  8   4   7  1   
  9   5   8  1   
 10   5   9  1   
 11   5  10  1   
 12   6  24  1   
 13   7  11  1   
 14   7  25  1   
 15   7  26  1   
 16   8  11  1   
 17   9  12  1   
 18   9  27  1   
 19   9  28  1   
 20  10  13  1   
 21  10  29  1   
 22  10  30  1   
 23  11  31  1   
 24  11  32  1   
 25  12  14  1   
 26  12  33  1   
 27  12  34  1   
 28  13  14  1   
 29  13  35  1   
 30  13  36  1   
 31  14  15  1   
 32  14  37  1   
 33  15  16  1   
 34  15  38  1   
 35  15  39  1   
 36  16  17  1   
 37  16  18  2   
 38  17  19  2   
 39  17  40  1   
 40  18  20  1   
 41  18  41  1   
 42  19  20  1   
 43  20  21  1   
 44  21  22  1   
 45  21  42  1   
 46  21  43  1   
 47  22  44  1   
 48  22  45  1   
 49  22  46  1   
@<TRIPOS>SUBSTRUCTURE
  1 ****   8 GROUP 4 **** **** 0

# MOE 2024.06 (io_trps.svl 2023.06)
