@<TRIPOS>MOLECULE
NONAME
64 70 1 0 0 
SMALL
USER_CHARGES


@<TRIPOS>ATOM
  1 O        0.1640    -0.5160    -0.0480 O.2   1 <1>  -0.5700 
  2 C        1.1700    -1.1720     0.0440 C.2   1 <1>   0.4950 
  3 C        2.4840    -0.6740     0.4300 C.2   1 <1>  -0.1360 
  4 C        1.2060    -2.6950    -0.1760 C.3   1 <1>   0.2610 
  5 C        3.5410    -1.5570     0.4200 C.2   1 <1>  -0.2760 
  6 O        2.4240    -2.6520    -0.8140 O.3   1 <1>  -0.5600 
  7 C        1.3180    -4.2140    -0.3370 C.3   1 <1>   0.2800 
  8 C        5.0110    -1.1220     0.6440 C.3   1 <1>   0.4180 
  9 C        3.2340    -3.1080     0.1550 C.3   1 <1>   0.6980 
 10 O        2.7190    -4.3550    -0.2510 O.3   1 <1>  -0.5600 
 11 C        0.7310    -5.0280     0.8250 C.3   1 <1>  -0.2400 
 12 C        0.8480    -4.7690    -1.6890 C.3   1 <1>  -0.2400 
 13 O        5.0910    -0.9930     2.0310 O.3   1 <1>  -0.6800 
 14 C        6.0080    -2.2460     0.1400 C.3   1 <1>   0.0000 
 15 C        5.3740     0.3090     0.0650 C.3   1 <1>   0.2000 
 16 C        4.1810    -3.7120     1.2340 C.3   1 <1>  -0.1600 
 17 C        7.5050    -1.7710     0.3260 C.3   1 <1>   0.1800 
 18 C        5.6860    -3.5630     0.9030 C.3   1 <1>  -0.1600 
 19 C        5.7650    -2.5540    -1.3830 C.3   1 <1>  -0.2400 
 20 O        4.7390     1.3170     0.7790 O.3   1 <1>  -0.6800 
 21 C        6.8720     0.6970     0.0990 C.3   1 <1>  -0.1600 
 22 C        8.6170    -2.5590    -0.3300 C.2   1 <1>  -0.3320 
 23 C        7.7010    -0.4500    -0.4720 C.3   1 <1>  -0.0800 
 24 C        8.0090    -1.6300     1.7910 C.3   1 <1>  -0.2400 
 25 N        8.9590    -3.8730    -0.4620 N.pl3 1 <1>   0.0330 
 26 C        9.5500    -1.7750    -0.8900 C.2   1 <1>  -0.1810 
 27 C        9.2100    -0.3080    -0.7590 C.3   1 <1>   0.0210 
 28 C       10.1580    -3.9100    -1.1420 C.ar  1 <1>  -0.1520 
 29 C       10.5570    -2.6010    -1.4250 C.ar  1 <1>   0.0000 
 30 C       10.9420    -4.9940    -1.5420 C.ar  1 <1>  -0.1500 
 31 C       11.7520    -2.3720    -2.1130 C.ar  1 <1>  -0.1500 
 32 C       12.1150    -4.7540    -2.2190 C.ar  1 <1>  -0.1500 
 33 C       12.5200    -3.4440    -2.5040 C.ar  1 <1>  -0.1500 
 34 H        2.5280     0.3770     0.6380 H     1 <1>   0.1500 
 35 H        0.2400    -2.7950     0.2830 H     1 <1>   0.0800 
 36 H       -0.3430    -4.9710     0.8160 H     1 <1>   0.0800 
 37 H        1.0850    -4.6560     1.7690 H     1 <1>   0.0800 
 38 H        1.0130    -6.0620     0.7280 H     1 <1>   0.0800 
 39 H       -0.2150    -4.6440    -1.7890 H     1 <1>   0.0800 
 40 H        1.0800    -5.8160    -1.7610 H     1 <1>   0.0800 
 41 H        1.3270    -4.2490    -2.4990 H     1 <1>   0.0800 
 42 H        5.0140    -1.8780     2.4270 H     1 <1>   0.4000 
 43 H        5.0250     0.3690    -0.9500 H     1 <1>   0.0800 
 44 H        3.9580    -3.2400     2.1720 H     1 <1>   0.0800 
 45 H        4.0040    -4.7590     1.4260 H     1 <1>   0.0800 
 46 H        6.0030    -4.4040     0.3100 H     1 <1>   0.0800 
 47 H        6.2190    -3.6280     1.8310 H     1 <1>   0.0800 
 48 H        6.6480    -2.9370    -1.8590 H     1 <1>   0.0800 
 49 H        5.4600    -1.6780    -1.9250 H     1 <1>   0.0800 
 50 H        5.0130    -3.2980    -1.5600 H     1 <1>   0.0800 
 51 H        4.7630     1.0490     1.7240 H     1 <1>   0.4000 
 52 H        7.0190     1.5780    -0.5010 H     1 <1>   0.0800 
 53 H        7.1850     0.9180     1.1030 H     1 <1>   0.0800 
 54 H        7.3140    -0.5920    -1.4630 H     1 <1>   0.0800 
 55 H        7.4520    -0.9280     2.3750 H     1 <1>   0.0800 
 56 H        9.0280    -1.2880     1.8050 H     1 <1>   0.0800 
 57 H        8.0090    -2.5760     2.2960 H     1 <1>   0.0800 
 58 H        8.4440    -4.6860    -0.1160 H     1 <1>   0.2700 
 59 H        9.7450     0.1360     0.0620 H     1 <1>   0.0800 
 60 H        9.3980     0.2290    -1.6710 H     1 <1>   0.0800 
 61 H       10.6250    -5.9970    -1.3200 H     1 <1>   0.1500 
 62 H       12.0470    -1.3610    -2.3220 H     1 <1>   0.1500 
 63 H       12.7350    -5.5730    -2.5380 H     1 <1>   0.1500 
 64 H       13.4420    -3.2850    -3.0350 H     1 <1>   0.1500 
@<TRIPOS>BOND
  1   1   2  2   
  2   2   3  1   
  3   2   4  1   
  4   3   5  2   
  5   3  34  1   
  6   4   6  1   
  7   4   7  1   
  8   4  35  1   
  9   5   8  1   
 10   5   9  1   
 11   6   9  1   
 12   7  10  1   
 13   7  11  1   
 14   7  12  1   
 15   8  13  1   
 16   8  14  1   
 17   8  15  1   
 18   9  10  1   
 19   9  16  1   
 20  11  36  1   
 21  11  37  1   
 22  11  38  1   
 23  12  39  1   
 24  12  40  1   
 25  12  41  1   
 26  13  42  1   
 27  14  17  1   
 28  14  18  1   
 29  14  19  1   
 30  15  20  1   
 31  15  21  1   
 32  15  43  1   
 33  16  18  1   
 34  16  44  1   
 35  16  45  1   
 36  17  22  1   
 37  17  23  1   
 38  17  24  1   
 39  18  46  1   
 40  18  47  1   
 41  19  48  1   
 42  19  49  1   
 43  19  50  1   
 44  20  51  1   
 45  21  23  1   
 46  21  52  1   
 47  21  53  1   
 48  22  25  1   
 49  22  26  2   
 50  23  27  1   
 51  23  54  1   
 52  24  55  1   
 53  24  56  1   
 54  24  57  1   
 55  25  28  1   
 56  25  58  1   
 57  26  27  1   
 58  26  29  1   
 59  27  59  1   
 60  27  60  1   
 61  28  29  ar  
 62  28  30  ar  
 63  29  31  ar  
 64  30  32  ar  
 65  30  61  1   
 66  31  33  ar  
 67  31  62  1   
 68  32  33  ar  
 69  32  63  1   
 70  33  64  1   
@<TRIPOS>SUBSTRUCTURE
  1 ****  14 GROUP 4 **** **** 0

# MOE 2024.06 (io_trps.svl 2023.06)
