@<TRIPOS>MOLECULE
NONAME
45 46 1 0 0 
SMALL
USER_CHARGES


@<TRIPOS>ATOM
  1 O       -1.5300    -0.0070    -0.1560 O.2   1 <1>  -0.5700 
  2 C       -2.4430     0.7440    -0.4600 C.2   1 <1>   0.7160 
  3 N       -3.4320     0.2580    -1.2900 N.am  1 <1>  -0.6600 
  4 C       -2.4790     2.0920     0.0640 C.2   1 <1>  -0.0860 
  5 C       -3.2160    -0.9970    -2.0560 C.3   1 <1>   0.3200 
  6 C       -4.8540     0.7030    -1.1740 C.3   1 <1>   0.1400 
  7 C       -1.9590     2.5400     1.2870 C.2   1 <1>   0.1080 
  8 C       -3.0010     3.2330    -0.4720 C.2   1 <1>  -0.3020 
  9 C       -3.6900    -2.1660    -1.2230 C.2   1 <1>  -0.3320 
 10 C       -5.3460     1.3240    -2.4860 C.3   1 <1>   0.1200 
 11 N       -2.1500     3.8040     1.4850 N.2   1 <1>  -0.7070 
 12 C       -1.2440     1.6850     2.3120 C.3   1 <1>  -0.0590 
 13 N       -2.7950     4.2350     0.3920 N.pl3 1 <1>   0.3140 
 14 N       -3.1310    -2.4670    -0.0390 N.pl3 1 <1>   0.0330 
 15 C       -4.6610    -3.0820    -1.4280 C.2   1 <1>   0.0770 
 16 O       -6.5820     1.9200    -2.2800 O.3   1 <1>  -0.6800 
 17 C       -3.1950     5.6450     0.2260 C.3   1 <1>   0.0960 
 18 C       -3.8050    -3.5470     0.4090 C.2   1 <1>   0.0070 
 19 N       -4.7330    -3.9460    -0.3980 N.2   1 <1>  -0.5650 
 20 C       -2.1750     6.4060    -0.6330 C.3   1 <1>  -0.1600 
 21 C       -3.4930    -4.2130     1.7310 C.3   1 <1>  -0.0600 
 22 C       -2.5850     7.8710    -0.8180 C.3   1 <1>  -0.2400 
 23 H       -2.1700    -1.1150    -2.2870 H     1 <1>   0.0800 
 24 H       -3.7560    -0.9600    -2.9860 H     1 <1>   0.0800 
 25 H       -4.9490     1.4260    -0.3820 H     1 <1>   0.0800 
 26 H       -5.4690    -0.1430    -0.9210 H     1 <1>   0.0800 
 27 H       -3.4970     3.3740    -1.4130 H     1 <1>   0.1500 
 28 H       -5.4570     0.5800    -3.2540 H     1 <1>   0.0800 
 29 H       -4.6700     2.0900    -2.8190 H     1 <1>   0.0800 
 30 H       -1.8380     0.8230     2.5510 H     1 <1>   0.0800 
 31 H       -1.0750     2.2520     3.2100 H     1 <1>   0.0800 
 32 H       -0.2970     1.3660     1.9190 H     1 <1>   0.0800 
 33 H       -2.3620    -1.9510     0.4080 H     1 <1>   0.2700 
 34 H       -5.3260    -3.1710    -2.2710 H     1 <1>   0.1500 
 35 H       -7.2670     1.2530    -2.0750 H     1 <1>   0.4000 
 36 H       -3.2620     6.0910     1.2020 H     1 <1>   0.0800 
 37 H       -4.1660     5.6720    -0.2320 H     1 <1>   0.0800 
 38 H       -2.0950     5.9360    -1.5980 H     1 <1>   0.0800 
 39 H       -1.2120     6.3650    -0.1530 H     1 <1>   0.0800 
 40 H       -3.6340    -3.5160     2.5370 H     1 <1>   0.0800 
 41 H       -2.4780    -4.5650     1.7350 H     1 <1>   0.0800 
 42 H       -4.1510    -5.0510     1.8790 H     1 <1>   0.0800 
 43 H       -3.5390     7.9390    -1.3120 H     1 <1>   0.0800 
 44 H       -1.8530     8.3830    -1.4190 H     1 <1>   0.0800 
 45 H       -2.6490     8.3680     0.1340 H     1 <1>   0.0800 
@<TRIPOS>BOND
  1   1   2  2   
  2   2   3  am  
  3   2   4  1   
  4   3   5  1   
  5   3   6  1   
  6   4   7  1   
  7   4   8  2   
  8   5   9  1   
  9   5  23  1   
 10   5  24  1   
 11   6  10  1   
 12   6  25  1   
 13   6  26  1   
 14   7  11  2   
 15   7  12  1   
 16   8  13  1   
 17   8  27  1   
 18   9  14  1   
 19   9  15  2   
 20  10  16  1   
 21  10  28  1   
 22  10  29  1   
 23  11  13  1   
 24  12  30  1   
 25  12  31  1   
 26  12  32  1   
 27  13  17  1   
 28  14  18  1   
 29  14  33  1   
 30  15  19  1   
 31  15  34  1   
 32  16  35  1   
 33  17  20  1   
 34  17  36  1   
 35  17  37  1   
 36  18  19  2   
 37  18  21  1   
 38  20  22  1   
 39  20  38  1   
 40  20  39  1   
 41  21  40  1   
 42  21  41  1   
 43  21  42  1   
 44  22  43  1   
 45  22  44  1   
 46  22  45  1   
@<TRIPOS>SUBSTRUCTURE
  1 ****   2 GROUP 4 **** **** 0

# MOE 2024.06 (io_trps.svl 2023.06)
