@<TRIPOS>MOLECULE
NONAME
35 36 1 0 0 
SMALL
USER_CHARGES


@<TRIPOS>ATOM
  1 F       -1.2060    -0.1580     0.5130 F     1 <1>  -0.3400 
  2 C       -1.9140     0.3780    -0.4700 C.3   1 <1>   1.1640 
  3 F       -1.0490     1.0910    -1.1830 F     1 <1>  -0.3400 
  4 F       -2.2860    -0.6150    -1.2660 F     1 <1>  -0.3400 
  5 C       -3.0980     1.2230     0.0270 C.ar  1 <1>  -0.1440 
  6 C       -4.1620     0.6040     0.6960 C.ar  1 <1>   0.0860 
  7 C       -3.1310     2.6000    -0.1850 C.ar  1 <1>  -0.1500 
  8 C       -4.2090    -0.8190     0.9660 C.2   1 <1>   0.5440 
  9 C       -5.2310     1.3940     1.1190 C.ar  1 <1>  -0.1500 
 10 C       -4.2010     3.3620     0.2470 C.ar  1 <1>  -0.1500 
 11 O       -3.6110    -1.2560     1.9300 O.2   1 <1>  -0.5700 
 12 N       -4.9200    -1.6740     0.1610 N.am  1 <1>  -0.6600 
 13 C       -5.2560     2.7560     0.9000 C.ar  1 <1>  -0.1500 
 14 C       -5.1350    -3.1130     0.5440 C.3   1 <1>   0.1400 
 15 C       -5.6290    -1.2590    -1.0810 C.3   1 <1>   0.1400 
 16 C       -6.4940    -3.6740     0.0700 C.3   1 <1>   0.2000 
 17 C       -7.1470    -1.3880    -0.8920 C.3   1 <1>  -0.1600 
 18 O       -6.3670    -4.2160    -1.2000 O.3   1 <1>  -0.6800 
 19 C       -7.5640    -2.5750     0.0170 C.3   1 <1>  -0.1860 
 20 C       -8.9060    -3.1590    -0.3710 C.2   1 <1>   0.9060 
 21 O       -9.8810    -2.9310     0.3470 O.co2 1 <1>  -0.9000 
 22 O       -8.9730    -3.8550    -1.3940 O.co2 1 <1>  -0.9000 
 23 H       -2.3230     3.1020    -0.6920 H     1 <1>   0.1500 
 24 H       -6.0520     0.9190     1.6290 H     1 <1>   0.1500 
 25 H       -4.2110     4.4260     0.0760 H     1 <1>   0.1500 
 26 H       -6.0930     3.3430     1.2380 H     1 <1>   0.1500 
 27 H       -4.3360    -3.7170     0.1520 H     1 <1>   0.0800 
 28 H       -5.1070    -3.1860     1.6170 H     1 <1>   0.0800 
 29 H       -5.3760    -0.2550    -1.3690 H     1 <1>   0.0800 
 30 H       -5.3160    -1.9130    -1.8780 H     1 <1>   0.0800 
 31 H       -6.8110    -4.4720     0.7200 H     1 <1>   0.0800 
 32 H       -7.5430    -0.4770    -0.4810 H     1 <1>   0.0800 
 33 H       -7.5890    -1.5140    -1.8660 H     1 <1>   0.0800 
 34 H       -7.3030    -4.2700    -1.5570 H     1 <1>   0.4000 
 35 H       -7.6710    -2.1980     1.0170 H     1 <1>   0.0800 
@<TRIPOS>BOND
  1   1   2  1   
  2   2   3  1   
  3   2   4  1   
  4   2   5  1   
  5   5   6  ar  
  6   5   7  ar  
  7   6   8  1   
  8   6   9  ar  
  9   7  10  ar  
 10   7  23  1   
 11   8  11  2   
 12   8  12  am  
 13   9  13  ar  
 14   9  24  1   
 15  10  13  ar  
 16  10  25  1   
 17  12  14  1   
 18  12  15  1   
 19  13  26  1   
 20  14  16  1   
 21  14  27  1   
 22  14  28  1   
 23  15  17  1   
 24  15  29  1   
 25  15  30  1   
 26  16  18  1   
 27  16  19  1   
 28  16  31  1   
 29  17  19  1   
 30  17  32  1   
 31  17  33  1   
 32  18  34  1   
 33  19  20  1   
 34  19  35  1   
 35  20  21  ar  
 36  20  22  ar  
@<TRIPOS>SUBSTRUCTURE
  1 ****  12 GROUP 4 **** **** 0

# MOE 2024.06 (io_trps.svl 2023.06)
