@<TRIPOS>MOLECULE
NONAME
48 51 1 0 0 
SMALL
USER_CHARGES


@<TRIPOS>ATOM
  1 F       -1.8340    -3.6060     4.5810 F     1 <1>  -0.1900 
  2 C       -2.3830    -4.0010     3.4630 C.ar  1 <1>   0.1900 
  3 C       -2.4850    -3.1050     2.4170 C.ar  1 <1>  -0.1500 
  4 C       -2.8440    -5.2990     3.3690 C.ar  1 <1>  -0.1500 
  5 C       -3.0670    -3.5310     1.2350 C.ar  1 <1>  -0.1500 
  6 C       -3.4260    -5.7130     2.1830 C.ar  1 <1>  -0.1500 
  7 C       -3.5420    -4.8370     1.0990 C.ar  1 <1>  -0.0230 
  8 N       -4.1360    -5.2670    -0.1250 N.pl3 1 <1>   0.5930 
  9 N       -4.7800    -4.4400    -0.9950 N.2   1 <1>  -0.7070 
 10 C       -4.2150    -6.5380    -0.5840 C.2   1 <1>  -0.3020 
 11 C       -5.2360    -5.1970    -1.9410 C.2   1 <1>   0.1390 
 12 C       -4.9250    -6.5340    -1.7300 C.2   1 <1>  -0.1810 
 13 C       -5.3210    -7.7260    -2.5720 C.3   1 <1>   0.5240 
 14 N       -6.2450    -8.5560    -1.7750 N.4   1 <1>  -0.9590 
 15 C       -6.4460    -9.9100    -2.3600 C.3   1 <1>   0.3430 
 16 C       -7.4960    -7.8840    -1.3430 C.3   1 <1>   0.3430 
 17 C       -7.6110   -10.6490    -1.6910 C.3   1 <1>  -0.1600 
 18 C       -8.1660    -8.6660    -0.2060 C.3   1 <1>  -0.1600 
 19 C       -7.9200   -10.1900    -0.2510 C.3   1 <1>   0.3000 
 20 N       -9.1230   -10.9170     0.1510 N.am  1 <1>  -0.7300 
 21 C       -6.9270   -10.6770     0.8330 C.3   1 <1>  -0.1860 
 22 C       -8.8710   -11.9990     0.9070 C.2   1 <1>   0.5690 
 23 C       -5.4970   -10.5170     0.4040 C.2   1 <1>   0.9060 
 24 C       -7.4040   -12.0900     1.2240 C.3   1 <1>  -0.0990 
 25 O       -9.7060   -12.7880     1.2660 O.2   1 <1>  -0.5700 
 26 O       -4.9470   -11.3950    -0.2570 O.co2 1 <1>  -0.9000 
 27 O       -5.0080    -9.3870     0.5020 O.co2 1 <1>  -0.9000 
 28 H       -2.1170    -2.1010     2.5280 H     1 <1>   0.1500 
 29 H       -2.7500    -5.9680     4.2060 H     1 <1>   0.1500 
 30 H       -3.1570    -2.8440     0.4090 H     1 <1>   0.1500 
 31 H       -3.7910    -6.7250     2.1090 H     1 <1>   0.1500 
 32 H       -3.7710    -7.3660    -0.0600 H     1 <1>   0.1500 
 33 H       -5.7940    -4.8120    -2.7790 H     1 <1>   0.1500 
 34 H       -4.4370    -8.2960    -2.8100 H     1 <1>   0.0800 
 35 H       -5.7910    -7.4050    -3.4860 H     1 <1>   0.0800 
 36 H       -5.6950    -8.7280    -0.8900 H     1 <1>   0.4500 
 37 H       -5.5410   -10.4840    -2.2240 H     1 <1>   0.0800 
 38 H       -6.6350    -9.8380    -3.4180 H     1 <1>   0.0800 
 39 H       -8.1700    -7.8210    -2.1810 H     1 <1>   0.0800 
 40 H       -7.2840    -6.8840    -1.0010 H     1 <1>   0.0800 
 41 H       -7.3880   -11.7020    -1.7030 H     1 <1>   0.0800 
 42 H       -8.4840   -10.5020    -2.3010 H     1 <1>   0.0800 
 43 H       -9.2200    -8.4610    -0.2480 H     1 <1>   0.0800 
 44 H       -7.8090    -8.2610     0.7240 H     1 <1>   0.0800 
 45 H      -10.0510   -10.7420    -0.2310 H     1 <1>   0.3700 
 46 H       -7.0450   -10.0670     1.7090 H     1 <1>   0.0800 
 47 H       -7.2360   -12.3030     2.2630 H     1 <1>   0.0800 
 48 H       -6.9530   -12.8480     0.6100 H     1 <1>   0.0800 
@<TRIPOS>BOND
  1   1   2  1   
  2   2   3  ar  
  3   2   4  ar  
  4   3   5  ar  
  5   3  28  1   
  6   4   6  ar  
  7   4  29  1   
  8   5   7  ar  
  9   5  30  1   
 10   6   7  ar  
 11   6  31  1   
 12   7   8  1   
 13   8   9  1   
 14   8  10  1   
 15   9  11  2   
 16  10  12  2   
 17  10  32  1   
 18  11  12  1   
 19  11  33  1   
 20  12  13  1   
 21  13  14  1   
 22  13  34  1   
 23  13  35  1   
 24  14  15  1   
 25  14  16  1   
 26  14  36  1   
 27  15  17  1   
 28  15  37  1   
 29  15  38  1   
 30  16  18  1   
 31  16  39  1   
 32  16  40  1   
 33  17  19  1   
 34  17  41  1   
 35  17  42  1   
 36  18  19  1   
 37  18  43  1   
 38  18  44  1   
 39  19  20  1   
 40  19  21  1   
 41  20  22  am  
 42  20  45  1   
 43  21  23  1   
 44  21  24  1   
 45  21  46  1   
 46  22  24  1   
 47  22  25  2   
 48  23  26  ar  
 49  23  27  ar  
 50  24  47  1   
 51  24  48  1   
@<TRIPOS>SUBSTRUCTURE
  1 ****  27 GROUP 4 **** **** 0

# MOE 2024.06 (io_trps.svl 2023.06)
