@<TRIPOS>MOLECULE
NONAME
46 48 1 0 0 
SMALL
USER_CHARGES


@<TRIPOS>ATOM
  1 O        0.4960     0.6600     0.0100 O.3   1 <1>  -0.6800 
  2 C        1.4590    -0.2890    -0.3290 C.3   1 <1>   0.2000 
  3 C        2.7170    -0.0890     0.5470 C.3   1 <1>   0.2890 
  4 C        0.8700    -1.6910    -0.1730 C.3   1 <1>  -0.1600 
  5 N        3.1060     1.3500     0.4250 N.pl3 1 <1>  -0.8690 
  6 C        3.7830    -1.1340     0.1930 C.3   1 <1>  -0.1600 
  7 C        1.9280    -2.7400    -0.5450 C.3   1 <1>  -0.1600 
  8 C        4.2250     2.0800     0.2860 C.ar  1 <1>   0.4610 
  9 C        3.2130    -2.5620     0.2770 C.3   1 <1>  -0.1600 
 10 N        4.0750     3.4030     0.2120 N.ar  1 <1>  -0.1790 
 11 C        5.5550     1.5970     0.2080 C.ar  1 <1>  -0.1500 
 12 C        5.0960     4.3260     0.0690 C.ar  1 <1>   0.3610 
 13 C        6.6230     2.4300     0.0660 C.ar  1 <1>  -0.1430 
 14 C        6.4150     3.8420    -0.0080 C.ar  1 <1>   0.0000 
 15 C        4.8220     5.7060     0.0020 C.ar  1 <1>  -0.1430 
 16 C        8.0340     1.8580    -0.0140 C.3   1 <1>  -0.0970 
 17 C        7.4450     4.7800    -0.1530 C.ar  1 <1>  -0.1500 
 18 C        5.8680     6.6010    -0.1420 C.ar  1 <1>  -0.1430 
 19 C        3.3660     6.1850     0.0910 C.3   1 <1>  -0.0970 
 20 C        7.1750     6.1220    -0.2180 C.ar  1 <1>  -0.1500 
 21 C        5.6770     8.1120    -0.2240 C.3   1 <1>  -0.0970 
 22 H       -0.3520     0.4400    -0.4280 H     1 <1>   0.4000 
 23 H        1.7210    -0.1320    -1.3620 H     1 <1>   0.0800 
 24 H        2.4250    -0.2640     1.5700 H     1 <1>   0.0800 
 25 H        0.5580    -1.8450     0.8470 H     1 <1>   0.0800 
 26 H        0.0170    -1.8080    -0.8180 H     1 <1>   0.0800 
 27 H        2.1890     1.8220     0.4320 H     1 <1>   0.4000 
 28 H        4.1540    -0.9560    -0.8020 H     1 <1>   0.0800 
 29 H        4.5870    -1.0800     0.9020 H     1 <1>   0.0800 
 30 H        1.5300    -3.7270    -0.3790 H     1 <1>   0.0800 
 31 H        2.1630    -2.6570    -1.5930 H     1 <1>   0.0800 
 32 H        3.9550    -3.2650    -0.0640 H     1 <1>   0.0800 
 33 H        3.0000    -2.7960     1.3080 H     1 <1>   0.0800 
 34 H        3.1330     3.7710     0.2710 H     1 <1>   0.4570 
 35 H        5.7230     0.5450     0.2600 H     1 <1>   0.1500 
 36 H        8.0250     0.7840     0.0560 H     1 <1>   0.0800 
 37 H        8.6350     2.2380     0.7930 H     1 <1>   0.0800 
 38 H        8.4920     2.1270    -0.9490 H     1 <1>   0.0800 
 39 H        8.4680     4.4540    -0.2160 H     1 <1>   0.1500 
 40 H        3.2770     7.2540     0.0270 H     1 <1>   0.0800 
 41 H        2.9310     5.8920     1.0300 H     1 <1>   0.0800 
 42 H        2.7860     5.7750    -0.7170 H     1 <1>   0.0800 
 43 H        7.9920     6.8160    -0.3300 H     1 <1>   0.1500 
 44 H        6.6180     8.6210    -0.3340 H     1 <1>   0.0800 
 45 H        5.2080     8.4780     0.6720 H     1 <1>   0.0800 
 46 H        5.0650     8.3650    -1.0720 H     1 <1>   0.0800 
@<TRIPOS>BOND
  1   1   2  1   
  2   1  22  1   
  3   2   3  1   
  4   2   4  1   
  5   2  23  1   
  6   3   5  1   
  7   3   6  1   
  8   3  24  1   
  9   4   7  1   
 10   4  25  1   
 11   4  26  1   
 12   5   8  1   
 13   5  27  1   
 14   6   9  1   
 15   6  28  1   
 16   6  29  1   
 17   7   9  1   
 18   7  30  1   
 19   7  31  1   
 20   8  10  ar  
 21   8  11  ar  
 22   9  32  1   
 23   9  33  1   
 24  10  12  ar  
 25  10  34  1   
 26  11  13  ar  
 27  11  35  1   
 28  12  14  ar  
 29  12  15  ar  
 30  13  14  ar  
 31  13  16  1   
 32  14  17  ar  
 33  15  18  ar  
 34  15  19  1   
 35  16  36  1   
 36  16  37  1   
 37  16  38  1   
 38  17  20  ar  
 39  17  39  1   
 40  18  20  ar  
 41  18  21  1   
 42  19  40  1   
 43  19  41  1   
 44  19  42  1   
 45  20  43  1   
 46  21  44  1   
 47  21  45  1   
 48  21  46  1   
@<TRIPOS>SUBSTRUCTURE
  1 ****   8 GROUP 4 **** **** 0

# MOE 2024.06 (io_trps.svl 2023.06)
