@<TRIPOS>MOLECULE
NONAME
54 58 1 0 0 
SMALL
USER_CHARGES


@<TRIPOS>ATOM
  1 O        0.3650     0.1730     0.2910 O.3   1 <1>  -0.5600 
  2 C        0.3090    -1.2090     0.0670 C.3   1 <1>   0.1200 
  3 C        1.4000     0.8030    -0.3960 C.3   1 <1>   0.1200 
  4 C        1.6280    -1.8990     0.4850 C.3   1 <1>   0.2850 
  5 C        2.7520     0.2210     0.0560 C.3   1 <1>   0.1900 
  6 N        2.7950    -1.2480    -0.1690 N.3   1 <1>  -0.8100 
  7 C        1.5580    -3.3850     0.1010 C.3   1 <1>  -0.1950 
  8 C        3.9070     0.9220    -0.6910 C.3   1 <1>   0.3430 
  9 C        4.0920    -1.8110     0.2630 C.3   1 <1>   0.1100 
 10 C        0.7020    -4.3310     0.8860 C.3   1 <1>  -0.2000 
 11 C        2.1960    -4.4610     0.9280 C.3   1 <1>  -0.2000 
 12 N        5.2550     0.3540    -0.3190 N.4   1 <1>  -0.9590 
 13 C        5.2690    -1.1410    -0.4730 C.3   1 <1>   0.3430 
 14 C        6.3550     0.9960    -1.0870 C.3   1 <1>   0.4860 
 15 C        6.3660     2.4770    -0.7660 C.ar  1 <1>  -0.1440 
 16 C        5.8830     3.3930    -1.6890 C.ar  1 <1>  -0.1500 
 17 C        6.8430     2.9340     0.4530 C.ar  1 <1>  -0.1500 
 18 C        5.8640     4.7410    -1.3850 C.ar  1 <1>  -0.1500 
 19 C        6.8200     4.2850     0.7480 C.ar  1 <1>  -0.1500 
 20 C        6.3290     5.2180    -0.1630 C.ar  1 <1>   0.0000 
 21 C        6.2980     6.6350     0.1410 C.ar  1 <1>   0.3100 
 22 N        5.1560     7.2900    -0.0770 N.ar  1 <1>  -0.6200 
 23 C        7.4340     7.2690     0.6410 C.ar  1 <1>  -0.1500 
 24 C        5.1490     8.5800     0.2110 C.ar  1 <1>   0.1600 
 25 C        7.4150     8.6130     0.9380 C.ar  1 <1>  -0.1500 
 26 C        6.2310     9.2800     0.7140 C.ar  1 <1>  -0.1500 
 27 H       -0.5110    -1.6010     0.6430 H     1 <1>   0.0800 
 28 H        0.1080    -1.3810    -0.9760 H     1 <1>   0.0800 
 29 H        1.2480     0.6620    -1.4530 H     1 <1>   0.0800 
 30 H        1.3430     1.8540    -0.1710 H     1 <1>   0.0800 
 31 H        1.7180    -1.8160     1.5560 H     1 <1>   0.0800 
 32 H        2.8550     0.4270     1.1090 H     1 <1>   0.0800 
 33 H        1.5440    -3.5180    -0.9670 H     1 <1>   0.1000 
 34 H        3.8800     1.9760    -0.4660 H     1 <1>   0.0800 
 35 H        3.7430     0.8050    -1.7490 H     1 <1>   0.0800 
 36 H        4.2090    -1.7000     1.3280 H     1 <1>   0.0800 
 37 H        4.1240    -2.8620     0.0350 H     1 <1>   0.0800 
 38 H        0.1970    -3.9870     1.7730 H     1 <1>   0.1000 
 39 H        0.1350    -5.0780     0.3570 H     1 <1>   0.1000 
 40 H        2.6490    -5.3020     0.4300 H     1 <1>   0.1000 
 41 H        2.6950    -4.2100     1.8480 H     1 <1>   0.1000 
 42 H        5.4050     0.5820     0.6700 H     1 <1>   0.4500 
 43 H        5.1970    -1.3980    -1.5170 H     1 <1>   0.0800 
 44 H        6.1950    -1.5420    -0.0960 H     1 <1>   0.0800 
 45 H        7.3040     0.5650    -0.8120 H     1 <1>   0.0800 
 46 H        6.2070     0.8500    -2.1450 H     1 <1>   0.0800 
 47 H        5.5160     3.0760    -2.6510 H     1 <1>   0.1500 
 48 H        7.2380     2.2520     1.1870 H     1 <1>   0.1500 
 49 H        5.4810     5.4500    -2.1010 H     1 <1>   0.1500 
 50 H        7.1820     4.6270     1.7030 H     1 <1>   0.1500 
 51 H        8.3350     6.7030     0.7890 H     1 <1>   0.1500 
 52 H        4.2280     9.1110     0.0380 H     1 <1>   0.1500 
 53 H        8.2820     9.1200     1.3250 H     1 <1>   0.1500 
 54 H        6.1440    10.3300     0.9250 H     1 <1>   0.1500 
@<TRIPOS>BOND
  1   1   2  1   
  2   1   3  1   
  3   2   4  1   
  4   2  27  1   
  5   2  28  1   
  6   3   5  1   
  7   3  29  1   
  8   3  30  1   
  9   4   6  1   
 10   4   7  1   
 11   4  31  1   
 12   5   6  1   
 13   5   8  1   
 14   5  32  1   
 15   6   9  1   
 16   7  10  1   
 17   7  11  1   
 18   7  33  1   
 19   8  12  1   
 20   8  34  1   
 21   8  35  1   
 22   9  13  1   
 23   9  36  1   
 24   9  37  1   
 25  10  11  1   
 26  10  38  1   
 27  10  39  1   
 28  11  40  1   
 29  11  41  1   
 30  12  13  1   
 31  12  14  1   
 32  12  42  1   
 33  13  43  1   
 34  13  44  1   
 35  14  15  1   
 36  14  45  1   
 37  14  46  1   
 38  15  16  ar  
 39  15  17  ar  
 40  16  18  ar  
 41  16  47  1   
 42  17  19  ar  
 43  17  48  1   
 44  18  20  ar  
 45  18  49  1   
 46  19  20  ar  
 47  19  50  1   
 48  20  21  1   
 49  21  22  ar  
 50  21  23  ar  
 51  22  24  ar  
 52  23  25  ar  
 53  23  51  1   
 54  24  26  ar  
 55  24  52  1   
 56  25  26  ar  
 57  25  53  1   
 58  26  54  1   
@<TRIPOS>SUBSTRUCTURE
  1 ****   8 GROUP 4 **** **** 0

# MOE 2024.06 (io_trps.svl 2023.06)
