@<TRIPOS>MOLECULE
NONAME
39 41 1 0 0 
SMALL
USER_CHARGES


@<TRIPOS>ATOM
  1 CL      -0.5260    -1.7150    -1.5680 Cl    1 <1>  -0.1770 
  2 C       -2.0140    -1.9050    -0.6800 C.ar  1 <1>   0.1770 
  3 C       -3.2270    -1.9150    -1.3460 C.ar  1 <1>   0.1600 
  4 C       -1.9820    -2.0460     0.6870 C.ar  1 <1>  -0.1500 
  5 N       -4.4020    -2.0510    -0.7520 N.ar  1 <1>  -0.6200 
  6 C       -3.2020    -2.1920     1.3130 C.ar  1 <1>  -0.1500 
  7 C       -4.4010    -2.1910     0.5900 C.ar  1 <1>   0.3960 
  8 C       -5.6560    -2.3660     1.3300 C.2   1 <1>   0.5440 
  9 O       -5.6890    -3.1920     2.2280 O.2   1 <1>  -0.5700 
 10 N       -6.8080    -1.6320     1.0890 N.am  1 <1>  -0.6600 
 11 C       -8.1430    -2.0740     1.5930 C.3   1 <1>   0.1400 
 12 C       -6.8900    -0.4480     0.1940 C.3   1 <1>   0.1400 
 13 C       -9.0320    -2.5070     0.4110 C.3   1 <1>   0.0000 
 14 C       -7.7460    -0.7970    -1.0290 C.3   1 <1>  -0.1600 
 15 C      -10.4050    -2.9890     0.9180 C.3   1 <1>   0.2000 
 16 C       -9.1280    -1.3440    -0.6210 C.3   1 <1>  -0.1600 
 17 C       -8.5020    -3.7880    -0.2600 C.3   1 <1>  -0.1600 
 18 O      -11.3000    -1.9560     1.1280 O.3   1 <1>  -0.6800 
 19 C      -10.9450    -3.9500    -0.1410 C.3   1 <1>  -0.1600 
 20 C       -9.7180    -4.4520    -0.9140 C.3   1 <1>  -0.1600 
 21 H       -3.2200    -1.8060    -2.4170 H     1 <1>   0.1500 
 22 H       -1.0520    -2.0450     1.2270 H     1 <1>   0.1500 
 23 H       -3.2450    -2.3160     2.3810 H     1 <1>   0.1500 
 24 H       -8.0380    -2.8870     2.2890 H     1 <1>   0.0800 
 25 H       -8.6090    -1.2570     2.1150 H     1 <1>   0.0800 
 26 H       -7.3480     0.3620     0.7350 H     1 <1>   0.0800 
 27 H       -5.9130    -0.1220    -0.1140 H     1 <1>   0.0800 
 28 H       -7.8730     0.0850    -1.6300 H     1 <1>   0.0800 
 29 H       -7.2160    -1.5160    -1.6280 H     1 <1>   0.0800 
 30 H      -10.2860    -3.5180     1.8500 H     1 <1>   0.0800 
 31 H       -9.6610    -1.6590    -1.5000 H     1 <1>   0.0800 
 32 H       -9.6720    -0.5260    -0.1830 H     1 <1>   0.0800 
 33 H       -7.7140    -3.6060    -0.9680 H     1 <1>   0.0800 
 34 H       -8.1150    -4.4500     0.4970 H     1 <1>   0.0800 
 35 H      -11.4570    -1.4900     0.2860 H     1 <1>   0.4000 
 36 H      -11.4600    -4.7670     0.3320 H     1 <1>   0.0800 
 37 H      -11.6150    -3.4470    -0.8160 H     1 <1>   0.0800 
 38 H       -9.6370    -5.5250    -0.8740 H     1 <1>   0.0800 
 39 H       -9.7890    -4.1490    -1.9440 H     1 <1>   0.0800 
@<TRIPOS>BOND
  1   1   2  1   
  2   2   3  ar  
  3   2   4  ar  
  4   3   5  ar  
  5   3  21  1   
  6   4   6  ar  
  7   4  22  1   
  8   5   7  ar  
  9   6   7  ar  
 10   6  23  1   
 11   7   8  1   
 12   8   9  2   
 13   8  10  am  
 14  10  11  1   
 15  10  12  1   
 16  11  13  1   
 17  11  24  1   
 18  11  25  1   
 19  12  14  1   
 20  12  26  1   
 21  12  27  1   
 22  13  15  1   
 23  13  16  1   
 24  13  17  1   
 25  14  16  1   
 26  14  28  1   
 27  14  29  1   
 28  15  18  1   
 29  15  19  1   
 30  15  30  1   
 31  16  31  1   
 32  16  32  1   
 33  17  20  1   
 34  17  33  1   
 35  17  34  1   
 36  18  35  1   
 37  19  20  1   
 38  19  36  1   
 39  19  37  1   
 40  20  38  1   
 41  20  39  1   
@<TRIPOS>SUBSTRUCTURE
  1 ****  10 GROUP 4 **** **** 0

# MOE 2024.06 (io_trps.svl 2023.06)
