@<TRIPOS>MOLECULE
NONAME
46 49 1 0 0 
SMALL
USER_CHARGES


@<TRIPOS>ATOM
  1 O        0.4700     0.2540     1.0280 O.3   1 <1>  -0.6800 
  2 C        1.3760    -0.0390     0.0180 C.3   1 <1>   0.2000 
  3 C        1.9930    -1.4050     0.3310 C.3   1 <1>  -0.0800 
  4 C        2.5610     0.9400     0.1360 C.3   1 <1>   0.3430 
  5 C        3.0090    -1.0170     1.4050 C.3   1 <1>   0.3430 
  6 C        2.6510    -2.0140    -0.9390 C.3   1 <1>   0.0210 
  7 N        3.6540     0.1660     0.8060 N.4   1 <1>  -0.9590 
  8 C        4.0200    -2.6330    -0.6980 C.2   1 <1>   0.1080 
  9 C        4.5390     0.9510     1.6910 C.3   1 <1>   0.4860 
 10 N        5.1160    -1.9360    -0.5830 N.2   1 <1>  -0.7070 
 11 C        4.2460    -3.9980    -0.5810 C.2   1 <1>  -0.1500 
 12 C        5.1000     2.1210     0.9040 C.ar  1 <1>  -0.1440 
 13 N        6.0860    -2.8710    -0.4110 N.pl3 1 <1>   0.3000 
 14 C        5.5760    -4.1170    -0.3960 C.2   1 <1>  -0.3320 
 15 C        5.8410     1.9390    -0.2780 C.ar  1 <1>  -0.1520 
 16 C        4.8700     3.4070     1.3470 C.ar  1 <1>  -0.1500 
 17 C        6.4070    -5.3760    -0.2150 C.3   1 <1>  -0.0600 
 18 N        6.2330     0.8100    -0.9680 N.pl3 1 <1>   0.0330 
 19 C        6.3210     3.0440    -0.9790 C.ar  1 <1>   0.0000 
 20 C        5.3570     4.5120     0.6430 C.ar  1 <1>  -0.1500 
 21 C        6.9310     1.1990    -2.0730 C.2   1 <1>  -0.3020 
 22 C        6.0770     4.3370    -0.5140 C.ar  1 <1>  -0.1500 
 23 C        7.0050     2.5490    -2.1080 C.2   1 <1>  -0.1500 
 24 H       -0.3890    -0.1960     0.8830 H     1 <1>   0.4000 
 25 H        0.8710     0.0250    -0.9310 H     1 <1>   0.0800 
 26 H        1.2730    -2.0990     0.7280 H     1 <1>   0.0800 
 27 H        2.2700     1.7960     0.7220 H     1 <1>   0.0800 
 28 H        2.8910     1.2670    -0.8360 H     1 <1>   0.0800 
 29 H        3.7170    -1.8050     1.6050 H     1 <1>   0.0800 
 30 H        2.4950    -0.7420     2.3130 H     1 <1>   0.0800 
 31 H        2.7790    -1.2650    -1.7010 H     1 <1>   0.0800 
 32 H        1.9960    -2.7610    -1.3520 H     1 <1>   0.0800 
 33 H        4.2540    -0.2350     0.0630 H     1 <1>   0.4500 
 34 H        3.9820     1.3150     2.5380 H     1 <1>   0.0800 
 35 H        5.3480     0.3350     2.0480 H     1 <1>   0.0800 
 36 H        3.5070    -4.7790    -0.6370 H     1 <1>   0.1500 
 37 H        7.0860    -2.6450    -0.3180 H     1 <1>   0.2700 
 38 H        4.3110     3.5940     2.2480 H     1 <1>   0.1500 
 39 H        5.7740    -6.2460    -0.2420 H     1 <1>   0.0800 
 40 H        6.9180    -5.3560     0.7320 H     1 <1>   0.0800 
 41 H        7.1340    -5.4610    -1.0030 H     1 <1>   0.0800 
 42 H        6.0230    -0.1720    -0.7370 H     1 <1>   0.2700 
 43 H        5.1630     5.5040     1.0150 H     1 <1>   0.1500 
 44 H        7.3370     0.4900    -2.7740 H     1 <1>   0.1500 
 45 H        6.4590     5.1760    -1.0680 H     1 <1>   0.1500 
 46 H        7.4850     3.1720    -2.8430 H     1 <1>   0.1500 
@<TRIPOS>BOND
  1   1   2  1   
  2   1  24  1   
  3   2   3  1   
  4   2   4  1   
  5   2  25  1   
  6   3   5  1   
  7   3   6  1   
  8   3  26  1   
  9   4   7  1   
 10   4  27  1   
 11   4  28  1   
 12   5   7  1   
 13   5  29  1   
 14   5  30  1   
 15   6   8  1   
 16   6  31  1   
 17   6  32  1   
 18   7   9  1   
 19   7  33  1   
 20   8  10  2   
 21   8  11  1   
 22   9  12  1   
 23   9  34  1   
 24   9  35  1   
 25  10  13  1   
 26  11  14  2   
 27  11  36  1   
 28  12  15  ar  
 29  12  16  ar  
 30  13  14  1   
 31  13  37  1   
 32  14  17  1   
 33  15  18  1   
 34  15  19  ar  
 35  16  20  ar  
 36  16  38  1   
 37  17  39  1   
 38  17  40  1   
 39  17  41  1   
 40  18  21  1   
 41  18  42  1   
 42  19  22  ar  
 43  19  23  1   
 44  20  22  ar  
 45  20  43  1   
 46  21  23  2   
 47  21  44  1   
 48  22  45  1   
 49  23  46  1   
@<TRIPOS>SUBSTRUCTURE
  1 ****   7 GROUP 4 **** **** 0

# MOE 2024.06 (io_trps.svl 2023.06)
