@<TRIPOS>MOLECULE
Untitled Document
51 52 1 0 0 
SMALL
USER_CHARGES


@<TRIPOS>ATOM
  1 S        0.1900     0.5680     0.8090 S.o2  1 <1>   1.3330 
  2 O       -0.0760     1.9270     1.2260 O.2   1 <1>  -0.6500 
  3 O        0.5910    -0.4110     1.7920 O.2   1 <1>  -0.6500 
  4 N       -1.2230    -0.0920     0.1910 N.am  1 <1>  -0.9140 
  5 C        1.3650     0.5680    -0.6080 C.3   1 <1>   0.1050 
  6 C       -2.4400     0.5190     0.6750 C.3   1 <1>   0.2760 
  7 C        0.8660     1.4650    -1.7610 C.3   1 <1>  -0.2400 
  8 C        2.7490     1.0980    -0.1780 C.3   1 <1>  -0.2400 
  9 C        1.5730    -0.8500    -1.1830 C.3   1 <1>  -0.2400 
 10 C       -3.5270    -0.5610     0.7040 C.3   1 <1>  -0.1600 
 11 C       -2.8480     1.6610    -0.2660 C.3   1 <1>  -0.1600 
 12 C       -4.8880     0.0250     1.1120 C.3   1 <1>  -0.1600 
 13 C       -4.2060     2.2600     0.1350 C.3   1 <1>  -0.1600 
 14 C       -5.3090     1.1870     0.1880 C.3   1 <1>  -0.0190 
 15 C       -6.6440     1.8030     0.6130 C.2   1 <1>   0.5690 
 16 O       -6.8280     2.0620     1.7770 O.2   1 <1>  -0.5700 
 17 N       -7.5680     2.0420    -0.3610 N.am  1 <1>  -0.5470 
 18 C       -8.8330     2.5850    -0.3440 C.ar  1 <1>   0.4270 
 19 N       -9.3760     2.6390    -1.5510 N.ar  1 <1>  -0.6200 
 20 C       -9.4880     3.0340     0.8010 C.ar  1 <1>  -0.1500 
 21 C      -10.5940     3.1490    -1.6260 C.ar  1 <1>   0.1600 
 22 C      -10.7550     3.5630     0.7100 C.ar  1 <1>  -0.1500 
 23 C      -11.3280     3.6220    -0.5510 C.ar  1 <1>  -0.1440 
 24 C      -12.7230     4.1800    -0.8110 C.3   1 <1>   1.1630 
 25 F      -13.3330     4.6060     0.2880 F     1 <1>  -0.3400 
 26 F      -13.5240     3.2760    -1.3580 F     1 <1>  -0.3400 
 27 F      -12.6970     5.2080    -1.6480 F     1 <1>  -0.3400 
 28 H       -1.1990    -1.0300     0.5870 H     1 <1>   0.4200 
 29 H       -2.3050     0.8950     1.6790 H     1 <1>   0.0800 
 30 H        0.7330     2.4750    -1.4140 H     1 <1>   0.0800 
 31 H       -0.0820     1.1100    -2.1260 H     1 <1>   0.0800 
 32 H        1.5660     1.4730    -2.5780 H     1 <1>   0.0800 
 33 H        2.6600     2.1020     0.2000 H     1 <1>   0.0800 
 34 H        3.4390     1.1020    -1.0030 H     1 <1>   0.0800 
 35 H        3.1540     0.4810     0.6060 H     1 <1>   0.0800 
 36 H        0.6430    -1.2470    -1.5500 H     1 <1>   0.0800 
 37 H        1.9430    -1.5100    -0.4180 H     1 <1>   0.0800 
 38 H        2.2800    -0.8380    -1.9940 H     1 <1>   0.0800 
 39 H       -3.2540    -1.3270     1.4080 H     1 <1>   0.0800 
 40 H       -3.6160    -1.0080    -0.2720 H     1 <1>   0.0800 
 41 H       -2.9080     1.2880    -1.2730 H     1 <1>   0.0800 
 42 H       -2.1080     2.4400    -0.2390 H     1 <1>   0.0800 
 43 H       -4.8260     0.3810     2.1280 H     1 <1>   0.0800 
 44 H       -5.6370    -0.7470     1.0850 H     1 <1>   0.0800 
 45 H       -4.4790     3.0280    -0.5680 H     1 <1>   0.0800 
 46 H       -4.1140     2.7230     1.1040 H     1 <1>   0.0800 
 47 H       -5.4280     0.7850    -0.8020 H     1 <1>   0.0800 
 48 H       -7.3030     1.7950    -1.3100 H     1 <1>   0.3700 
 49 H       -9.0120     2.9730     1.7610 H     1 <1>   0.1500 
 50 H      -11.0310     3.1900    -2.6120 H     1 <1>   0.1500 
 51 H      -11.2670     3.9120     1.5920 H     1 <1>   0.1500 
@<TRIPOS>BOND
  1   1   2  2   
  2   1   3  2   
  3   1   4  am  
  4   1   5  1   
  5   4   6  1   
  6   4  28  1   
  7   5   7  1   
  8   5   8  1   
  9   5   9  1   
 10   6  10  1   
 11   6  11  1   
 12   6  29  1   
 13   7  30  1   
 14   7  31  1   
 15   7  32  1   
 16   8  33  1   
 17   8  34  1   
 18   8  35  1   
 19   9  36  1   
 20   9  37  1   
 21   9  38  1   
 22  10  12  1   
 23  10  39  1   
 24  10  40  1   
 25  11  13  1   
 26  11  41  1   
 27  11  42  1   
 28  12  14  1   
 29  12  43  1   
 30  12  44  1   
 31  13  14  1   
 32  13  45  1   
 33  13  46  1   
 34  14  15  1   
 35  14  47  1   
 36  15  16  2   
 37  15  17  am  
 38  17  18  1   
 39  17  48  1   
 40  18  19  ar  
 41  18  20  ar  
 42  19  21  ar  
 43  20  22  ar  
 44  20  49  1   
 45  21  23  ar  
 46  21  50  1   
 47  22  23  ar  
 48  22  51  1   
 49  23  24  1   
 50  24  25  1   
 51  24  26  1   
 52  24  27  1   
@<TRIPOS>SUBSTRUCTURE
  1 ****  14 GROUP 4 **** **** 0

# MOE 2024.06 (io_trps.svl 2023.06)
