@<TRIPOS>MOLECULE
NONAME
56 58 1 0 0 
SMALL
USER_CHARGES


@<TRIPOS>ATOM
  1 O       -0.4540    -2.6800    -0.4450 O.2   1 <1>  -0.5700 
  2 C        0.6820    -3.0610    -0.5890 C.2   1 <1>   0.5690 
  3 N        1.1980    -3.4580    -1.7920 N.am  1 <1>  -0.6600 
  4 C        1.5970    -3.1150     0.6180 C.3   1 <1>  -0.0990 
  5 C        2.6000    -3.9360    -1.8870 C.3   1 <1>   0.1400 
  6 C        0.3920    -3.4840    -3.0420 C.3   1 <1>   0.0600 
  7 C        2.9770    -2.5280     0.2740 C.3   1 <1>  -0.0800 
  8 C        3.5360    -3.0110    -1.0850 C.3   1 <1>  -0.0800 
  9 C        4.0450    -2.8420     1.3300 C.3   1 <1>  -0.1600 
 10 C        4.8930    -3.6600    -0.7810 C.3   1 <1>  -0.1600 
 11 C        5.3320    -3.0190     0.5320 C.3   1 <1>   0.2200 
 12 N        6.3700    -3.8060     1.2640 N.am  1 <1>  -0.6600 
 13 C        7.5890    -3.2600     1.6250 C.2   1 <1>   0.5440 
 14 C        6.0940    -5.2410     1.5790 C.3   1 <1>   0.0600 
 15 O        8.3570    -3.9370     2.2860 O.2   1 <1>  -0.5700 
 16 C        7.9820    -1.9080     1.2890 C.ar  1 <1>   0.0860 
 17 C        8.2550    -1.5100    -0.0250 C.ar  1 <1>   0.0820 
 18 C        8.1190    -0.9510     2.2940 C.ar  1 <1>  -0.1500 
 19 O        8.1400    -2.3950    -1.0370 O.3   1 <1>  -0.3630 
 20 C        8.6220    -0.2040    -0.3150 C.ar  1 <1>  -0.1500 
 21 C        8.4900     0.3500     2.0080 C.ar  1 <1>  -0.1500 
 22 C        9.3200    -2.8510    -1.6630 C.3   1 <1>   0.1200 
 23 C        8.7410     0.7270     0.6990 C.ar  1 <1>  -0.1500 
 24 C        9.9570    -3.9520    -0.8090 C.3   1 <1>  -0.1600 
 25 C       11.1830    -4.5560    -1.5030 C.3   1 <1>  -0.1600 
 26 C       11.8140    -5.6520    -0.6400 C.3   1 <1>  -0.2400 
 27 H        1.1540    -2.5680     1.4300 H     1 <1>   0.0800 
 28 H        1.6860    -4.1440     0.9130 H     1 <1>   0.0800 
 29 H        2.6400    -4.9370    -1.4930 H     1 <1>   0.0800 
 30 H        2.9160    -3.9650    -2.9160 H     1 <1>   0.0800 
 31 H        0.3530    -4.4870    -3.4290 H     1 <1>   0.0800 
 32 H        0.8360    -2.8340    -3.7750 H     1 <1>   0.0800 
 33 H       -0.6130    -3.1490    -2.8500 H     1 <1>   0.0800 
 34 H        2.8690    -1.4570     0.2100 H     1 <1>   0.0800 
 35 H        3.7190    -2.1370    -1.6880 H     1 <1>   0.0800 
 36 H        3.7950    -3.7480     1.8490 H     1 <1>   0.0800 
 37 H        4.1400    -2.0430     2.0430 H     1 <1>   0.0800 
 38 H        5.6070    -3.4690    -1.5620 H     1 <1>   0.0800 
 39 H        4.7700    -4.7200    -0.6620 H     1 <1>   0.0800 
 40 H        5.6980    -2.0350     0.3000 H     1 <1>   0.0800 
 41 H        5.0550    -5.4820     1.4550 H     1 <1>   0.0800 
 42 H        6.3740    -5.4490     2.5980 H     1 <1>   0.0800 
 43 H        6.6810    -5.8650     0.9280 H     1 <1>   0.0800 
 44 H        7.9320    -1.2450     3.3120 H     1 <1>   0.1500 
 45 H        8.8100     0.0820    -1.3340 H     1 <1>   0.1500 
 46 H        8.5880     1.0700     2.8020 H     1 <1>   0.1500 
 47 H        9.0410    -3.2410    -2.6260 H     1 <1>   0.0800 
 48 H        9.9940    -2.0230    -1.7990 H     1 <1>   0.0800 
 49 H        9.0270     1.7400     0.4750 H     1 <1>   0.1500 
 50 H       10.2570    -3.5400     0.1400 H     1 <1>   0.0800 
 51 H        9.2290    -4.7240    -0.6290 H     1 <1>   0.0800 
 52 H       10.8940    -4.9760    -2.4520 H     1 <1>   0.0800 
 53 H       11.9130    -3.7860    -1.6850 H     1 <1>   0.0800 
 54 H       11.1070    -6.4440    -0.4620 H     1 <1>   0.0800 
 55 H       12.1250    -5.2500     0.3080 H     1 <1>   0.0800 
 56 H       12.6740    -6.0650    -1.1360 H     1 <1>   0.0800 
@<TRIPOS>BOND
  1   1   2  2   
  2   2   3  am  
  3   2   4  1   
  4   3   5  1   
  5   3   6  1   
  6   4   7  1   
  7   4  27  1   
  8   4  28  1   
  9   5   8  1   
 10   5  29  1   
 11   5  30  1   
 12   6  31  1   
 13   6  32  1   
 14   6  33  1   
 15   7   8  1   
 16   7   9  1   
 17   7  34  1   
 18   8  10  1   
 19   8  35  1   
 20   9  11  1   
 21   9  36  1   
 22   9  37  1   
 23  10  11  1   
 24  10  38  1   
 25  10  39  1   
 26  11  12  1   
 27  11  40  1   
 28  12  13  am  
 29  12  14  1   
 30  13  15  2   
 31  13  16  1   
 32  14  41  1   
 33  14  42  1   
 34  14  43  1   
 35  16  17  ar  
 36  16  18  ar  
 37  17  19  1   
 38  17  20  ar  
 39  18  21  ar  
 40  18  44  1   
 41  19  22  1   
 42  20  23  ar  
 43  20  45  1   
 44  21  23  ar  
 45  21  46  1   
 46  22  24  1   
 47  22  47  1   
 48  22  48  1   
 49  23  49  1   
 50  24  25  1   
 51  24  50  1   
 52  24  51  1   
 53  25  26  1   
 54  25  52  1   
 55  25  53  1   
 56  26  54  1   
 57  26  55  1   
 58  26  56  1   
@<TRIPOS>SUBSTRUCTURE
  1 ****  11 GROUP 4 **** **** 0

# MOE 2024.06 (io_trps.svl 2023.06)
