@<TRIPOS>MOLECULE
NONAME
44 46 1 0 0 
SMALL
USER_CHARGES


@<TRIPOS>ATOM
  1 O        0.5250     0.3250     1.1900 O.3   1 <1>  -0.6800 
  2 C        1.1070    -0.1770     0.0320 C.3   1 <1>   0.2000 
  3 C        1.8010    -1.4920     0.3890 C.3   1 <1>  -0.0800 
  4 C        2.2720     0.7410    -0.3370 C.3   1 <1>   0.3430 
  5 C        3.1980    -1.0760     0.8860 C.3   1 <1>   0.3430 
  6 C        1.8900    -2.4380    -0.8250 C.3   1 <1>  -0.0170 
  7 N        3.3190     0.3970     0.6680 N.4   1 <1>  -0.9590 
  8 C        2.8270    -3.6020    -0.5450 C.ar  1 <1>  -0.1440 
  9 C        4.7030     0.8490     0.3670 C.3   1 <1>   0.3430 
 10 C        3.9940    -3.7880    -1.2600 C.ar  1 <1>  -0.1500 
 11 C        2.5630    -4.5320     0.4430 C.ar  1 <1>  -0.1500 
 12 C        4.7780     2.3760     0.3720 C.3   1 <1>  -0.1600 
 13 C        4.8280    -4.8490    -0.9460 C.ar  1 <1>   0.1600 
 14 C        3.4650    -5.5560     0.6780 C.ar  1 <1>   0.1600 
 15 C        6.2220     2.8570     0.1680 C.3   1 <1>   0.0960 
 16 N        4.5960    -5.7260     0.0140 N.ar  1 <1>  -0.6200 
 17 N        6.2610     4.3300     0.1370 N.pl3 1 <1>   0.0480 
 18 C        6.5560     5.1770     1.1490 C.2   1 <1>   0.0360 
 19 C        5.9870     5.1300    -0.9090 C.2   1 <1>  -0.3020 
 20 N        6.4850     6.4270     0.8250 N.2   1 <1>  -0.5650 
 21 C        6.1290     6.4010    -0.4720 C.2   1 <1>   0.0770 
 22 H       -0.3340    -0.1110     1.3790 H     1 <1>   0.4000 
 23 H        0.3580    -0.2520    -0.7390 H     1 <1>   0.0800 
 24 H        1.2740    -2.0050     1.1760 H     1 <1>   0.0800 
 25 H        1.9810     1.7780    -0.2840 H     1 <1>   0.0800 
 26 H        2.6190     0.5090    -1.3300 H     1 <1>   0.0800 
 27 H        3.9600    -1.6020     0.3330 H     1 <1>   0.0800 
 28 H        3.3090    -1.3100     1.9330 H     1 <1>   0.0800 
 29 H        2.2380    -1.9050    -1.6930 H     1 <1>   0.0800 
 30 H        0.9120    -2.8260    -1.0560 H     1 <1>   0.0800 
 31 H        2.9850     0.8370     1.5420 H     1 <1>   0.4500 
 32 H        5.3750     0.4600     1.1160 H     1 <1>   0.0800 
 33 H        5.0130     0.4690    -0.5940 H     1 <1>   0.0800 
 34 H        4.2700    -3.1300    -2.0640 H     1 <1>   0.1500 
 35 H        1.6660    -4.4800     1.0330 H     1 <1>   0.1500 
 36 H        4.4200     2.7510     1.3160 H     1 <1>   0.0800 
 37 H        4.1690     2.7740    -0.4200 H     1 <1>   0.0800 
 38 H        5.7340    -4.9850    -1.5140 H     1 <1>   0.1500 
 39 H        3.2470    -6.2730     1.4520 H     1 <1>   0.1500 
 40 H        6.6180     2.4910    -0.7630 H     1 <1>   0.0800 
 41 H        6.8550     2.5150     0.9690 H     1 <1>   0.0800 
 42 H        6.8230     4.8300     2.1310 H     1 <1>   0.1500 
 43 H        5.7150     4.7740    -1.8860 H     1 <1>   0.1500 
 44 H        5.9930     7.3130    -1.0300 H     1 <1>   0.1500 
@<TRIPOS>BOND
  1   1   2  1   
  2   1  22  1   
  3   2   3  1   
  4   2   4  1   
  5   2  23  1   
  6   3   5  1   
  7   3   6  1   
  8   3  24  1   
  9   4   7  1   
 10   4  25  1   
 11   4  26  1   
 12   5   7  1   
 13   5  27  1   
 14   5  28  1   
 15   6   8  1   
 16   6  29  1   
 17   6  30  1   
 18   7   9  1   
 19   7  31  1   
 20   8  10  ar  
 21   8  11  ar  
 22   9  12  1   
 23   9  32  1   
 24   9  33  1   
 25  10  13  ar  
 26  10  34  1   
 27  11  14  ar  
 28  11  35  1   
 29  12  15  1   
 30  12  36  1   
 31  12  37  1   
 32  13  16  ar  
 33  13  38  1   
 34  14  16  ar  
 35  14  39  1   
 36  15  17  1   
 37  15  40  1   
 38  15  41  1   
 39  17  18  1   
 40  17  19  1   
 41  18  20  2   
 42  18  42  1   
 43  19  21  2   
 44  19  43  1   
 45  20  21  1   
 46  21  44  1   
@<TRIPOS>SUBSTRUCTURE
  1 ****   7 GROUP 4 **** **** 0

# MOE 2024.06 (io_trps.svl 2023.06)
