@<TRIPOS>MOLECULE
NONAME
52 54 1 0 0 
SMALL
USER_CHARGES


@<TRIPOS>ATOM
  1 S       -0.1300    -0.5770     0.6460 S.o2  1 <1>   1.4470 
  2 O       -1.2660     0.1560     1.1540 O.2   1 <1>  -0.6500 
  3 O        0.2730    -1.8130     1.2770 O.2   1 <1>  -0.6500 
  4 N       -0.5830    -0.9040    -0.9380 N.am  1 <1>  -0.9140 
  5 C        1.3010     0.5160     0.4430 C.ar  1 <1>  -0.0090 
  6 C       -1.1590    -2.2120    -1.2730 C.3   1 <1>   0.2760 
  7 C        1.1940     1.8910     0.5980 C.ar  1 <1>  -0.1500 
  8 C        2.5460     0.0060     0.1020 C.ar  1 <1>  -0.1500 
  9 C       -2.2720    -2.7190    -0.3450 C.3   1 <1>  -0.0800 
 10 C       -0.1500    -3.3630    -1.3240 C.3   1 <1>   0.1200 
 11 C        2.2870     2.7200     0.4210 C.ar  1 <1>  -0.1500 
 12 C        3.6410     0.8330    -0.0770 C.ar  1 <1>  -0.1500 
 13 C       -1.7540    -4.0980     0.0790 C.3   1 <1>   0.1200 
 14 C       -3.6210    -2.8070    -1.0810 C.3   1 <1>  -0.0170 
 15 O       -0.8710    -4.4830    -0.9220 O.3   1 <1>  -0.5600 
 16 C        3.5340     2.2110     0.0790 C.ar  1 <1>  -0.1430 
 17 C       -4.7290    -3.3040    -0.1650 C.ar  1 <1>  -0.1430 
 18 C        4.7250     3.1770    -0.1100 C.3   1 <1>   0.1440 
 19 C       -5.2330    -2.5240     0.8570 C.ar  1 <1>  -0.1500 
 20 C       -5.2890    -4.5570    -0.3070 C.ar  1 <1>  -0.1500 
 21 C        4.9780     3.9420     1.1980 C.3   1 <1>  -0.2400 
 22 C        4.4040     4.1750    -1.2320 C.3   1 <1>  -0.2400 
 23 C        6.0320     2.4590    -0.4870 C.3   1 <1>  -0.2400 
 24 C       -6.2410    -3.0230     1.6660 C.ar  1 <1>   0.1600 
 25 C       -6.2950    -4.9600     0.5560 C.ar  1 <1>   0.1600 
 26 N       -6.7850    -4.2220     1.5390 N.ar  1 <1>  -0.6200 
 27 H       -1.3030    -0.2040    -1.1070 H     1 <1>   0.4200 
 28 H       -1.5540    -2.1300    -2.2720 H     1 <1>   0.0800 
 29 H        0.2440     2.3230     0.8640 H     1 <1>   0.1500 
 30 H        2.6610    -1.0570    -0.0250 H     1 <1>   0.1500 
 31 H       -2.4010    -2.1170     0.5330 H     1 <1>   0.0800 
 32 H        0.6670    -3.2310    -0.6390 H     1 <1>   0.0800 
 33 H        0.2220    -3.5310    -2.3180 H     1 <1>   0.0800 
 34 H        2.1520     3.7790     0.5540 H     1 <1>   0.1500 
 35 H        4.5740     0.3690    -0.3390 H     1 <1>   0.1500 
 36 H       -2.5260    -4.8400     0.1760 H     1 <1>   0.0800 
 37 H       -1.2000    -4.0310     1.0000 H     1 <1>   0.0800 
 38 H       -3.5300    -3.4640    -1.9290 H     1 <1>   0.0800 
 39 H       -3.8930    -1.8330    -1.4490 H     1 <1>   0.0800 
 40 H       -4.8500    -1.5360     1.0350 H     1 <1>   0.1500 
 41 H       -4.9530    -5.2270    -1.0780 H     1 <1>   0.1500 
 42 H        5.8270     4.5940     1.0980 H     1 <1>   0.0800 
 43 H        5.1700     3.2490     1.9980 H     1 <1>   0.0800 
 44 H        4.1280     4.5410     1.4680 H     1 <1>   0.0800 
 45 H        5.2360     4.8330    -1.4050 H     1 <1>   0.0800 
 46 H        3.5500     4.7770    -0.9840 H     1 <1>   0.0800 
 47 H        4.1910     3.6460    -2.1440 H     1 <1>   0.0800 
 48 H        6.8310     3.1690    -0.6090 H     1 <1>   0.0800 
 49 H        5.9170     1.9270    -1.4140 H     1 <1>   0.0800 
 50 H        6.3190     1.7660     0.2830 H     1 <1>   0.0800 
 51 H       -6.6200    -2.4010     2.4590 H     1 <1>   0.1500 
 52 H       -6.7200    -5.9410     0.4300 H     1 <1>   0.1500 
@<TRIPOS>BOND
  1   1   2  2   
  2   1   3  2   
  3   1   4  am  
  4   1   5  1   
  5   4   6  1   
  6   4  27  1   
  7   5   7  ar  
  8   5   8  ar  
  9   6   9  1   
 10   6  10  1   
 11   6  28  1   
 12   7  11  ar  
 13   7  29  1   
 14   8  12  ar  
 15   8  30  1   
 16   9  13  1   
 17   9  14  1   
 18   9  31  1   
 19  10  15  1   
 20  10  32  1   
 21  10  33  1   
 22  11  16  ar  
 23  11  34  1   
 24  12  16  ar  
 25  12  35  1   
 26  13  15  1   
 27  13  36  1   
 28  13  37  1   
 29  14  17  1   
 30  14  38  1   
 31  14  39  1   
 32  16  18  1   
 33  17  19  ar  
 34  17  20  ar  
 35  18  21  1   
 36  18  22  1   
 37  18  23  1   
 38  19  24  ar  
 39  19  40  1   
 40  20  25  ar  
 41  20  41  1   
 42  21  42  1   
 43  21  43  1   
 44  21  44  1   
 45  22  45  1   
 46  22  46  1   
 47  22  47  1   
 48  23  48  1   
 49  23  49  1   
 50  23  50  1   
 51  24  26  ar  
 52  24  51  1   
 53  25  26  ar  
 54  25  52  1   
@<TRIPOS>SUBSTRUCTURE
  1 ****   1 GROUP 4 **** **** 0

# MOE 2024.06 (io_trps.svl 2023.06)
