@<TRIPOS>MOLECULE
NONAME
41 43 1 0 0 
SMALL
USER_CHARGES


@<TRIPOS>ATOM
  1 O       -0.8070    -0.2870     1.0150 O.3   1 <1>  -0.2800 
  2 C       -1.7960    -1.0570     0.6080 C.2   1 <1>  -0.0400 
  3 C       -1.2360     0.9580     1.0060 C.2   1 <1>  -0.0100 
  4 C       -2.8880    -0.3090     0.3290 C.2   1 <1>  -0.1500 
  5 C       -1.5290    -2.5480     0.5370 C.3   1 <1>   0.0200 
  6 C       -2.5190     1.0160     0.5900 C.2   1 <1>  -0.1500 
  7 C       -2.7280    -3.3310    -0.0150 C.3   1 <1>  -0.1600 
  8 C       -2.4100    -4.8240    -0.0820 C.3   1 <1>   0.3430 
  9 N       -3.6010    -5.5890    -0.5340 N.4   1 <1>  -0.9590 
 10 C       -3.4970    -7.0470    -0.2390 C.3   1 <1>   0.5240 
 11 C       -4.0030    -5.3510    -1.9530 C.3   1 <1>   0.2630 
 12 C       -4.8960    -7.5290     0.1310 C.2   1 <1>   0.1080 
 13 N       -5.8220    -6.7200     0.5660 N.2   1 <1>  -0.7070 
 14 C       -5.3410    -8.8440     0.0520 C.2   1 <1>  -0.1500 
 15 N       -6.8930    -7.5200     0.7840 N.pl3 1 <1>   0.3000 
 16 C       -6.6220    -8.8030     0.4760 C.2   1 <1>  -0.2370 
 17 C       -7.6340    -9.9210     0.6180 C.3   1 <1>  -0.0150 
 18 C       -7.6130   -11.0800    -0.3250 C.3   1 <1>  -0.2000 
 19 C       -8.7160   -10.0660    -0.4020 C.3   1 <1>  -0.2000 
 20 H       -0.5640     1.7410     1.3100 H     1 <1>   0.1500 
 21 H       -3.8570    -0.6150    -0.0210 H     1 <1>   0.1500 
 22 H       -1.2860    -2.8910     1.5280 H     1 <1>   0.0800 
 23 H       -0.6690    -2.7020    -0.0900 H     1 <1>   0.0800 
 24 H       -3.1510     1.8780     0.4740 H     1 <1>   0.1500 
 25 H       -2.9560    -2.9530    -0.9950 H     1 <1>   0.0800 
 26 H       -3.5730    -3.1700     0.6320 H     1 <1>   0.0800 
 27 H       -2.1200    -5.1590     0.9020 H     1 <1>   0.0800 
 28 H       -1.5840    -4.9940    -0.7540 H     1 <1>   0.0800 
 29 H       -4.4230    -5.3390     0.0560 H     1 <1>   0.4500 
 30 H       -2.8470    -7.2120     0.6030 H     1 <1>   0.0800 
 31 H       -3.1200    -7.5880    -1.0900 H     1 <1>   0.0800 
 32 H       -3.2140    -5.6460    -2.6250 H     1 <1>   0.0800 
 33 H       -4.2220    -4.3080    -2.1120 H     1 <1>   0.0800 
 34 H       -4.8900    -5.9200    -2.1850 H     1 <1>   0.0800 
 35 H       -4.7840    -9.7060    -0.2730 H     1 <1>   0.1500 
 36 H       -7.7940    -7.1730     1.1380 H     1 <1>   0.2700 
 37 H       -7.8840   -10.1320     1.6450 H     1 <1>   0.1000 
 38 H       -7.8360   -12.0600     0.0590 H     1 <1>   0.1000 
 39 H       -6.8860   -11.1040    -1.1180 H     1 <1>   0.1000 
 40 H       -8.7350    -9.3990    -1.2460 H     1 <1>   0.1000 
 41 H       -9.7010   -10.3520    -0.0770 H     1 <1>   0.1000 
@<TRIPOS>BOND
  1   1   2  1   
  2   1   3  1   
  3   2   4  2   
  4   2   5  1   
  5   3   6  2   
  6   3  20  1   
  7   4   6  1   
  8   4  21  1   
  9   5   7  1   
 10   5  22  1   
 11   5  23  1   
 12   6  24  1   
 13   7   8  1   
 14   7  25  1   
 15   7  26  1   
 16   8   9  1   
 17   8  27  1   
 18   8  28  1   
 19   9  10  1   
 20   9  11  1   
 21   9  29  1   
 22  10  12  1   
 23  10  30  1   
 24  10  31  1   
 25  11  32  1   
 26  11  33  1   
 27  11  34  1   
 28  12  13  2   
 29  12  14  1   
 30  13  15  1   
 31  14  16  2   
 32  14  35  1   
 33  15  16  1   
 34  15  36  1   
 35  16  17  1   
 36  17  18  1   
 37  17  19  1   
 38  17  37  1   
 39  18  19  1   
 40  18  38  1   
 41  18  39  1   
 42  19  40  1   
 43  19  41  1   
@<TRIPOS>SUBSTRUCTURE
  1 ****   9 GROUP 4 **** **** 0

# MOE 2024.06 (io_trps.svl 2023.06)
