@<TRIPOS>MOLECULE
NONAME
45 47 1 0 0 
SMALL
USER_CHARGES


@<TRIPOS>ATOM
  1 O       -0.0080     0.9640     2.4830 O.2   1 <1>  -0.5700 
  2 C        0.6950     0.1370     1.9510 C.2   1 <1>   0.5690 
  3 N        2.0160     0.3470     1.7520 N.am  1 <1>  -0.7300 
  4 C        0.0770    -1.1830     1.4750 C.3   1 <1>   0.1710 
  5 C        2.7100     1.6420     1.8590 C.3   1 <1>   0.3210 
  6 N        0.7790    -1.8390     0.3300 N.3   1 <1>  -0.8100 
  7 C        3.5670     1.8730     0.6140 C.2   1 <1>   0.1080 
  8 C        0.7740    -0.9730    -0.8790 C.3   1 <1>   0.1100 
  9 C        0.2500    -3.1940     0.0510 C.3   1 <1>   0.1100 
 10 N        4.0360     0.9020    -0.1190 N.2   1 <1>  -0.7070 
 11 C        3.9510     3.1230     0.1240 C.2   1 <1>  -0.1810 
 12 C        0.8320    -1.7890    -2.1820 C.3   1 <1>   0.1200 
 13 C       -0.7740    -3.2060    -1.1010 C.3   1 <1>   0.1200 
 14 N        4.7290     1.5140    -1.0940 N.pl3 1 <1>   0.3000 
 15 C        4.6910     2.8550    -0.9700 C.2   1 <1>  -0.3320 
 16 C        3.6310     4.5000     0.6790 C.3   1 <1>   0.0210 
 17 O       -0.2520    -2.6780    -2.2960 O.3   1 <1>  -0.5600 
 18 C        5.3790     3.8180    -1.9180 C.3   1 <1>   0.0200 
 19 C        2.9790     5.4060    -0.3750 C.3   1 <1>  -0.1600 
 20 C        4.3980     4.8580    -2.4750 C.3   1 <1>  -0.1600 
 21 C        3.9470     5.9180    -1.4560 C.3   1 <1>  -0.1600 
 22 H        2.5170    -0.3130     1.1430 H     1 <1>   0.3700 
 23 H       -0.9480    -0.9980     1.2080 H     1 <1>   0.0800 
 24 H        0.0830    -1.8510     2.3170 H     1 <1>   0.0800 
 25 H        3.3420     1.6320     2.7280 H     1 <1>   0.0800 
 26 H        1.9860     2.4310     1.9620 H     1 <1>   0.0800 
 27 H        1.6190    -0.3080    -0.8440 H     1 <1>   0.0800 
 28 H       -0.1180    -0.3690    -0.9040 H     1 <1>   0.0800 
 29 H       -0.1930    -3.6150     0.9370 H     1 <1>   0.0800 
 30 H        1.0710    -3.8330    -0.2250 H     1 <1>   0.0800 
 31 H        1.7410    -2.3630    -2.2130 H     1 <1>   0.0800 
 32 H        0.8090    -1.1360    -3.0360 H     1 <1>   0.0800 
 33 H       -1.6340    -2.6190    -0.8310 H     1 <1>   0.0800 
 34 H       -1.0970    -4.2110    -1.3050 H     1 <1>   0.0800 
 35 H        5.2190     0.9890    -1.8280 H     1 <1>   0.2700 
 36 H        4.5360     4.9540     1.0440 H     1 <1>   0.0800 
 37 H        2.9590     4.4080     1.5120 H     1 <1>   0.0800 
 38 H        5.8000     3.2680    -2.7410 H     1 <1>   0.0800 
 39 H        6.1870     4.3120    -1.4060 H     1 <1>   0.0800 
 40 H        2.5700     6.2610     0.1350 H     1 <1>   0.0800 
 41 H        2.1580     4.8840    -0.8350 H     1 <1>   0.0800 
 42 H        3.5370     4.3550    -2.8820 H     1 <1>   0.0800 
 43 H        4.8850     5.3670    -3.2880 H     1 <1>   0.0800 
 44 H        4.8090     6.3680    -0.9920 H     1 <1>   0.0800 
 45 H        3.4410     6.6970    -2.0000 H     1 <1>   0.0800 
@<TRIPOS>BOND
  1   1   2  2   
  2   2   3  am  
  3   2   4  1   
  4   3   5  1   
  5   3  22  1   
  6   4   6  1   
  7   4  23  1   
  8   4  24  1   
  9   5   7  1   
 10   5  25  1   
 11   5  26  1   
 12   6   8  1   
 13   6   9  1   
 14   7  10  2   
 15   7  11  1   
 16   8  12  1   
 17   8  27  1   
 18   8  28  1   
 19   9  13  1   
 20   9  29  1   
 21   9  30  1   
 22  10  14  1   
 23  11  15  2   
 24  11  16  1   
 25  12  17  1   
 26  12  31  1   
 27  12  32  1   
 28  13  17  1   
 29  13  33  1   
 30  13  34  1   
 31  14  15  1   
 32  14  35  1   
 33  15  18  1   
 34  16  19  1   
 35  16  36  1   
 36  16  37  1   
 37  18  20  1   
 38  18  38  1   
 39  18  39  1   
 40  19  21  1   
 41  19  40  1   
 42  19  41  1   
 43  20  21  1   
 44  20  42  1   
 45  20  43  1   
 46  21  44  1   
 47  21  45  1   
@<TRIPOS>SUBSTRUCTURE
  1 ****   7 GROUP 4 **** **** 0

# MOE 2024.06 (io_trps.svl 2023.06)
