@<TRIPOS>MOLECULE
Untitled Document
42 42 1 0 0 
SMALL
USER_CHARGES


@<TRIPOS>ATOM
  1 CL       0.8410     0.6990    -1.7810 Cl    1 <1>  -0.1770 
  2 C        2.3530     1.3650    -1.2200 C.ar  1 <1>   0.1770 
  3 C        2.6140     2.7210    -1.3530 C.ar  1 <1>   0.0730 
  4 C        3.2660     0.5040    -0.6500 C.ar  1 <1>  -0.1500 
  5 C        1.6590     3.6090    -1.9470 C.1   1 <1>   0.4840 
  6 C        3.8350     3.1860    -0.8850 C.ar  1 <1>  -0.1500 
  7 C        4.4880     0.9850    -0.1860 C.ar  1 <1>   0.0830 
  8 N        0.9150     4.3360    -2.4150 N.1   1 <1>  -0.5570 
  9 C        4.7940     2.3550    -0.2940 C.ar  1 <1>   0.0860 
 10 O        5.4010     0.1490     0.3690 O.3   1 <1>  -0.3630 
 11 C        6.0420     2.9450     0.1730 C.2   1 <1>   0.5440 
 12 C        5.1950    -1.2450     0.4980 C.3   1 <1>   0.0400 
 13 O        6.4470     3.9950    -0.2900 O.2   1 <1>  -0.5700 
 14 N        6.8180     2.3670     1.1350 N.am  1 <1>  -0.7300 
 15 C        7.8690     3.0510     1.9470 C.3   1 <1>   0.1400 
 16 C        9.2610     3.0090     1.2830 C.3   1 <1>   0.3430 
 17 N        9.2000     3.4840    -0.1350 N.4   1 <1>  -0.9590 
 18 C        9.4490     2.3660    -1.0780 C.3   1 <1>   0.3430 
 19 C       10.0410     4.6810    -0.3970 C.3   1 <1>   0.3430 
 20 C        8.9310     2.7270    -2.4660 C.3   1 <1>  -0.2400 
 21 C        9.4550     5.8890     0.3260 C.3   1 <1>  -0.2400 
 22 H        2.9960    -0.5330    -0.5820 H     1 <1>   0.1500 
 23 H        4.0510     4.2390    -0.9790 H     1 <1>   0.1500 
 24 H        6.0680    -1.6750     0.9560 H     1 <1>   0.0800 
 25 H        5.0530    -1.6730    -0.4790 H     1 <1>   0.0800 
 26 H        4.3360    -1.4190     1.1220 H     1 <1>   0.0800 
 27 H        6.5080     1.4420     1.4650 H     1 <1>   0.3700 
 28 H        7.9220     2.5890     2.9180 H     1 <1>   0.0800 
 29 H        7.5830     4.0790     2.0950 H     1 <1>   0.0800 
 30 H        9.6340     1.9990     1.3180 H     1 <1>   0.0800 
 31 H        9.9370     3.6250     1.8510 H     1 <1>   0.0800 
 32 H        8.2050     3.7680    -0.2840 H     1 <1>   0.4500 
 33 H        8.9220     1.4890    -0.7350 H     1 <1>   0.0800 
 34 H       10.5020     2.1370    -1.1190 H     1 <1>   0.0800 
 35 H       10.0580     4.8910    -1.4530 H     1 <1>   0.0800 
 36 H       11.0540     4.5050    -0.0720 H     1 <1>   0.0800 
 37 H        7.8910     2.9960    -2.4270 H     1 <1>   0.0800 
 38 H        9.0280     1.8720    -3.1100 H     1 <1>   0.0800 
 39 H        9.4960     3.5300    -2.9030 H     1 <1>   0.0800 
 40 H        8.4320     6.0470     0.0280 H     1 <1>   0.0800 
 41 H       10.0170     6.7660     0.0580 H     1 <1>   0.0800 
 42 H        9.5090     5.7780     1.3930 H     1 <1>   0.0800 
@<TRIPOS>BOND
  1   1   2  1   
  2   2   3  ar  
  3   2   4  ar  
  4   3   5  1   
  5   3   6  ar  
  6   4   7  ar  
  7   4  22  1   
  8   5   8  3   
  9   6   9  ar  
 10   6  23  1   
 11   7   9  ar  
 12   7  10  1   
 13   9  11  1   
 14  10  12  1   
 15  11  13  2   
 16  11  14  am  
 17  12  24  1   
 18  12  25  1   
 19  12  26  1   
 20  14  15  1   
 21  14  27  1   
 22  15  16  1   
 23  15  28  1   
 24  15  29  1   
 25  16  17  1   
 26  16  30  1   
 27  16  31  1   
 28  17  18  1   
 29  17  19  1   
 30  17  32  1   
 31  18  20  1   
 32  18  33  1   
 33  18  34  1   
 34  19  21  1   
 35  19  35  1   
 36  19  36  1   
 37  20  37  1   
 38  20  38  1   
 39  20  39  1   
 40  21  40  1   
 41  21  41  1   
 42  21  42  1   
@<TRIPOS>SUBSTRUCTURE
  1 ****  11 GROUP 4 **** **** 0

# MOE 2024.06 (io_trps.svl 2023.06)
