@<TRIPOS>MOLECULE
NONAME
56 57 1 0 0 
SMALL
USER_CHARGES


@<TRIPOS>ATOM
  1 O       -1.8230     0.0710     0.8290 O.2   1 <1>  -0.5700 
  2 C       -2.3050     0.6970    -0.0920 C.2   1 <1>   0.5440 
  3 N       -3.0620     0.0150    -1.0210 N.am  1 <1>  -0.6600 
  4 C       -2.1680     2.1410    -0.1210 C.ar  1 <1>   0.0860 
  5 C       -2.9280    -1.4740    -1.1470 C.3   1 <1>   0.3210 
  6 C       -4.1070     0.6420    -1.8970 C.3   1 <1>   0.1400 
  7 C       -1.7630     2.8270    -1.2640 C.ar  1 <1>  -0.1500 
  8 C       -2.4590     2.8980     1.0140 C.ar  1 <1>  -0.1500 
  9 C       -4.0720    -2.2180    -0.4580 C.2   1 <1>   0.0460 
 10 C       -5.4800     0.8490    -1.2160 C.3   1 <1>   0.3430 
 11 C       -1.7000     4.2080    -1.2890 C.ar  1 <1>  -0.1500 
 12 C       -2.3970     4.2790     0.9940 C.ar  1 <1>  -0.1500 
 13 N       -5.3130    -2.2570    -0.9950 N.2   1 <1>  -0.5650 
 14 C       -4.0300    -2.9300     0.6940 C.2   1 <1>  -0.3320 
 15 N       -5.4020     1.4320     0.1680 N.4   1 <1>  -0.9590 
 16 C       -2.0230     4.9450    -0.1610 C.ar  1 <1>  -0.1430 
 17 C       -5.9800    -3.0140    -0.1850 C.2   1 <1>   0.0360 
 18 N       -5.2570    -3.4540     0.8650 N.pl3 1 <1>   0.0330 
 19 C       -2.8900    -3.1820     1.6690 C.3   1 <1>  -0.0600 
 20 C       -5.2770     0.3350     1.1820 C.3   1 <1>   0.2630 
 21 C       -6.5880     2.2860     0.4650 C.3   1 <1>   0.2630 
 22 C       -1.9480     6.4670    -0.1810 C.3   1 <1>  -0.0170 
 23 C       -0.6950     7.0050     0.5350 C.3   1 <1>  -0.0800 
 24 C       -0.7190     8.5390     0.5680 C.3   1 <1>  -0.2400 
 25 C        0.5990     6.5240    -0.1370 C.3   1 <1>  -0.2400 
 26 H       -1.9920    -1.7930    -0.7240 H     1 <1>   0.0800 
 27 H       -2.9110    -1.7480    -2.1860 H     1 <1>   0.0800 
 28 H       -4.2550     0.0230    -2.7660 H     1 <1>   0.0800 
 29 H       -3.7620     1.5920    -2.2590 H     1 <1>   0.0800 
 30 H       -1.4890     2.2700    -2.1440 H     1 <1>   0.1500 
 31 H       -2.7230     2.3930     1.9270 H     1 <1>   0.1500 
 32 H       -6.0070    -0.0890    -1.1810 H     1 <1>   0.0800 
 33 H       -6.0570     1.5030    -1.8470 H     1 <1>   0.0800 
 34 H       -1.3860     4.7120    -2.1880 H     1 <1>   0.1500 
 35 H       -2.6260     4.8390     1.8840 H     1 <1>   0.1500 
 36 H       -4.5480     2.0110     0.2160 H     1 <1>   0.4500 
 37 H       -7.0130    -3.2880    -0.3190 H     1 <1>   0.1500 
 38 H       -5.5710    -4.0790     1.6150 H     1 <1>   0.2700 
 39 H       -2.0090    -2.6360     1.3810 H     1 <1>   0.0800 
 40 H       -2.6470    -4.2290     1.6950 H     1 <1>   0.0800 
 41 H       -3.1680    -2.8650     2.6580 H     1 <1>   0.0800 
 42 H       -6.1070    -0.3470     1.1000 H     1 <1>   0.0800 
 43 H       -5.2530     0.7420     2.1790 H     1 <1>   0.0800 
 44 H       -4.3700    -0.2260     1.0260 H     1 <1>   0.0800 
 45 H       -7.4920     1.7000     0.4150 H     1 <1>   0.0800 
 46 H       -6.6570     3.0910    -0.2490 H     1 <1>   0.0800 
 47 H       -6.5040     2.7090     1.4520 H     1 <1>   0.0800 
 48 H       -2.8260     6.8620     0.2990 H     1 <1>   0.0800 
 49 H       -1.9570     6.8200    -1.1980 H     1 <1>   0.0800 
 50 H       -0.7010     6.6480     1.5510 H     1 <1>   0.0800 
 51 H       -0.7060     8.9420    -0.4300 H     1 <1>   0.0800 
 52 H        0.1390     8.9140     1.0990 H     1 <1>   0.0800 
 53 H       -1.6030     8.8910     1.0700 H     1 <1>   0.0800 
 54 H        0.6320     6.8350    -1.1660 H     1 <1>   0.0800 
 55 H        0.6700     5.4520    -0.0970 H     1 <1>   0.0800 
 56 H        1.4550     6.9300     0.3720 H     1 <1>   0.0800 
@<TRIPOS>BOND
  1   1   2  2   
  2   2   3  am  
  3   2   4  1   
  4   3   5  1   
  5   3   6  1   
  6   4   7  ar  
  7   4   8  ar  
  8   5   9  1   
  9   5  26  1   
 10   5  27  1   
 11   6  10  1   
 12   6  28  1   
 13   6  29  1   
 14   7  11  ar  
 15   7  30  1   
 16   8  12  ar  
 17   8  31  1   
 18   9  13  1   
 19   9  14  2   
 20  10  15  1   
 21  10  32  1   
 22  10  33  1   
 23  11  16  ar  
 24  11  34  1   
 25  12  16  ar  
 26  12  35  1   
 27  13  17  2   
 28  14  18  1   
 29  14  19  1   
 30  15  20  1   
 31  15  21  1   
 32  15  36  1   
 33  16  22  1   
 34  17  18  1   
 35  17  37  1   
 36  18  38  1   
 37  19  39  1   
 38  19  40  1   
 39  19  41  1   
 40  20  42  1   
 41  20  43  1   
 42  20  44  1   
 43  21  45  1   
 44  21  46  1   
 45  21  47  1   
 46  22  23  1   
 47  22  48  1   
 48  22  49  1   
 49  23  24  1   
 50  23  25  1   
 51  23  50  1   
 52  24  51  1   
 53  24  52  1   
 54  24  53  1   
 55  25  54  1   
 56  25  55  1   
 57  25  56  1   
@<TRIPOS>SUBSTRUCTURE
  1 ****   2 GROUP 4 **** **** 0

# MOE 2024.06 (io_trps.svl 2023.06)
