@<TRIPOS>MOLECULE
NONAME
48 49 1 0 0 
SMALL
USER_CHARGES


@<TRIPOS>ATOM
  1 O        0.8740     0.4410    -2.9430 O.2   1 <1>  -0.5700 
  2 C        0.8280    -0.2370    -1.9450 C.2   1 <1>   0.5690 
  3 N        1.1050     0.2650    -0.7140 N.am  1 <1>  -0.7300 
  4 C        0.4630    -1.7220    -2.0610 C.3   1 <1>   0.1710 
  5 C        1.4580     1.6690    -0.4070 C.3   1 <1>   0.1400 
  6 N       -0.1430    -2.3270    -0.8260 N.3   1 <1>  -0.8100 
  7 C        2.9650     1.7900    -0.1840 C.3   1 <1>  -0.0170 
  8 C       -0.2280    -3.8160    -0.9070 C.3   1 <1>   0.3330 
  9 C       -1.4930    -1.7490    -0.6350 C.3   1 <1>   0.0300 
 10 C        3.3330     3.2210     0.1760 C.ar  1 <1>  -0.1440 
 11 C       -0.9680    -4.4300     0.2930 C.ar  1 <1>   0.1670 
 12 C        1.1730    -4.4380    -0.9790 C.3   1 <1>  -0.2400 
 13 C        3.5140     3.5920     1.5000 C.ar  1 <1>  -0.1500 
 14 C        3.4870     4.1700    -0.8230 C.ar  1 <1>  -0.1500 
 15 N       -1.9610    -5.2650     0.0500 N.ar  1 <1>  -0.6200 
 16 C       -0.5990    -4.1200     1.5840 C.ar  1 <1>  -0.1500 
 17 C        3.8450     4.8970     1.8250 C.ar  1 <1>  -0.1500 
 18 C        3.8180     5.4740    -0.5010 C.ar  1 <1>  -0.1500 
 19 C       -2.5610    -5.7670     1.1180 C.ar  1 <1>   0.4700 
 20 C       -1.2970    -4.7060     2.6110 C.ar  1 <1>   0.1600 
 21 C        3.9990     5.8480     0.8200 C.ar  1 <1>   0.0820 
 22 N       -2.2900    -5.5390     2.3930 N.ar  1 <1>  -0.6200 
 23 O        4.3220     7.1460     1.0510 O.3   1 <1>  -0.3630 
 24 C        4.5370     7.6250     2.3590 C.3   1 <1>   0.0400 
 25 H        0.9850    -0.3820     0.0720 H     1 <1>   0.3700 
 26 H        1.3790    -2.2200    -2.3080 H     1 <1>   0.0800 
 27 H       -0.2080    -1.8440    -2.8930 H     1 <1>   0.0800 
 28 H        0.9270     1.9880     0.4730 H     1 <1>   0.0800 
 29 H        1.1640     2.3050    -1.2270 H     1 <1>   0.0800 
 30 H        3.4810     1.5050    -1.0840 H     1 <1>   0.0800 
 31 H        3.2690     1.1270     0.6050 H     1 <1>   0.0800 
 32 H       -0.7710    -4.0860    -1.7980 H     1 <1>   0.0800 
 33 H       -1.4530    -0.6730    -0.6380 H     1 <1>   0.0800 
 34 H       -1.9090    -2.0520     0.3100 H     1 <1>   0.0800 
 35 H       -2.1560    -2.0700    -1.4210 H     1 <1>   0.0800 
 36 H        1.8050    -4.0320    -0.2100 H     1 <1>   0.0800 
 37 H        1.6220    -4.2860    -1.9410 H     1 <1>   0.0800 
 38 H        1.0970    -5.5010    -0.8310 H     1 <1>   0.0800 
 39 H        3.3980     2.8670     2.2850 H     1 <1>   0.1500 
 40 H        3.3500     3.8970    -1.8560 H     1 <1>   0.1500 
 41 H        0.2080    -3.4390     1.7760 H     1 <1>   0.1500 
 42 H        3.9780     5.1520     2.8580 H     1 <1>   0.1500 
 43 H        3.9390     6.2110    -1.2740 H     1 <1>   0.1500 
 44 H       -3.3730    -6.4490     0.9250 H     1 <1>   0.1500 
 45 H       -1.0370    -4.4870     3.6330 H     1 <1>   0.1500 
 46 H        4.7830     8.6700     2.2950 H     1 <1>   0.0800 
 47 H        5.3560     7.0830     2.7980 H     1 <1>   0.0800 
 48 H        3.6360     7.4950     2.9310 H     1 <1>   0.0800 
@<TRIPOS>BOND
  1   1   2  2   
  2   2   3  am  
  3   2   4  1   
  4   3   5  1   
  5   3  25  1   
  6   4   6  1   
  7   4  26  1   
  8   4  27  1   
  9   5   7  1   
 10   5  28  1   
 11   5  29  1   
 12   6   8  1   
 13   6   9  1   
 14   7  10  1   
 15   7  30  1   
 16   7  31  1   
 17   8  11  1   
 18   8  12  1   
 19   8  32  1   
 20   9  33  1   
 21   9  34  1   
 22   9  35  1   
 23  10  13  ar  
 24  10  14  ar  
 25  11  15  ar  
 26  11  16  ar  
 27  12  36  1   
 28  12  37  1   
 29  12  38  1   
 30  13  17  ar  
 31  13  39  1   
 32  14  18  ar  
 33  14  40  1   
 34  15  19  ar  
 35  16  20  ar  
 36  16  41  1   
 37  17  21  ar  
 38  17  42  1   
 39  18  21  ar  
 40  18  43  1   
 41  19  22  ar  
 42  19  44  1   
 43  20  22  ar  
 44  20  45  1   
 45  21  23  1   
 46  23  24  1   
 47  24  46  1   
 48  24  47  1   
 49  24  48  1   
@<TRIPOS>SUBSTRUCTURE
  1 ****   3 GROUP 4 **** **** 0

# MOE 2024.06 (io_trps.svl 2023.06)
