@<TRIPOS>MOLECULE
NONAME
57 60 1 0 0 
SMALL
USER_CHARGES


@<TRIPOS>ATOM
  1 O        0.0300     4.9210    -1.9520 O.2   1 <1>  -0.5700 
  2 C       -0.0880     4.2270    -0.9660 C.2   1 <1>   0.5690 
  3 N       -1.3310     3.7450    -0.6020 N.am  1 <1>  -0.6600 
  4 C        1.1720     3.8850    -0.1430 C.3   1 <1>   0.2680 
  5 C       -1.5790     2.7050     0.4380 C.3   1 <1>   0.1400 
  6 C       -2.5590     4.1810    -1.3250 C.3   1 <1>   0.1400 
  7 C        2.3520     4.8430    -0.3600 C.ar  1 <1>  -0.1440 
  8 C        1.6250     2.4280    -0.3200 C.ar  1 <1>  -0.1440 
  9 C       -2.6180     3.2170     1.4370 C.3   1 <1>  -0.1600 
 10 C       -3.6040     4.6790    -0.3220 C.3   1 <1>  -0.1600 
 11 C        3.1330     4.7630    -1.5050 C.ar  1 <1>  -0.1500 
 12 C        2.6590     5.8060     0.5930 C.ar  1 <1>  -0.1500 
 13 C        2.3040     1.7980     0.7130 C.ar  1 <1>  -0.1500 
 14 C        1.3710     1.7180    -1.4880 C.ar  1 <1>  -0.1500 
 15 C       -3.9340     3.6230     0.7550 C.3   1 <1>   0.2800 
 16 C        4.2020     5.6200    -1.6930 C.ar  1 <1>  -0.1500 
 17 C        3.7290     6.6650     0.4070 C.ar  1 <1>  -0.1500 
 18 C        2.7110     0.4810     0.5900 C.ar  1 <1>  -0.1500 
 19 C        1.7770     0.4010    -1.6120 C.ar  1 <1>  -0.1500 
 20 O       -4.6940     4.2220     1.7660 O.3   1 <1>  -0.5600 
 21 C       -4.6800     2.3650     0.2410 C.3   1 <1>  -0.1600 
 22 C        4.5020     6.5720    -0.7350 C.ar  1 <1>  -0.1500 
 23 C        2.4460    -0.2200    -0.5730 C.ar  1 <1>  -0.1500 
 24 C       -6.0170     4.5790     1.4920 C.3   1 <1>   0.1200 
 25 C       -6.1770     2.5580    -0.0200 C.3   1 <1>   0.2800 
 26 C       -6.8220     3.3300     1.1290 C.3   1 <1>  -0.1600 
 27 O       -6.3360     3.2890    -1.1710 O.3   1 <1>  -0.6800 
 28 C       -6.8810     1.2260    -0.2680 C.3   1 <1>  -0.2400 
 29 H        0.8800     3.9990     0.8830 H     1 <1>   0.0800 
 30 H       -0.6810     2.4470     0.9670 H     1 <1>   0.0800 
 31 H       -1.9340     1.8090    -0.0440 H     1 <1>   0.0800 
 32 H       -2.9460     3.3560    -1.8970 H     1 <1>   0.0800 
 33 H       -2.3330     4.9770    -2.0150 H     1 <1>   0.0800 
 34 H       -2.2050     4.0690     1.9470 H     1 <1>   0.0800 
 35 H       -2.8060     2.4570     2.1740 H     1 <1>   0.0800 
 36 H       -4.4720     4.9800    -0.8690 H     1 <1>   0.0800 
 37 H       -3.2060     5.5560     0.1580 H     1 <1>   0.0800 
 38 H        2.9070     4.0300    -2.2600 H     1 <1>   0.1500 
 39 H        2.0700     5.8980     1.4880 H     1 <1>   0.1500 
 40 H        2.5270     2.3320     1.6200 H     1 <1>   0.1500 
 41 H        0.8590     2.1830    -2.3140 H     1 <1>   0.1500 
 42 H        4.7980     5.5460    -2.5850 H     1 <1>   0.1500 
 43 H        3.9590     7.4070     1.1510 H     1 <1>   0.1500 
 44 H        3.2380     0.0020     1.3970 H     1 <1>   0.1500 
 45 H        1.5750    -0.1390    -2.5210 H     1 <1>   0.1500 
 46 H       -4.5900     1.6070     0.9970 H     1 <1>   0.0800 
 47 H       -4.2120     1.9680    -0.6410 H     1 <1>   0.0800 
 48 H        5.3330     7.2400    -0.8810 H     1 <1>   0.1500 
 49 H        2.7630    -1.2440    -0.6710 H     1 <1>   0.1500 
 50 H       -6.0330     5.3110     0.7040 H     1 <1>   0.0800 
 51 H       -6.4190     5.0310     2.3820 H     1 <1>   0.0800 
 52 H       -7.8310     3.5990     0.8740 H     1 <1>   0.0800 
 53 H       -6.8660     2.7010     2.0000 H     1 <1>   0.0800 
 54 H       -5.9900     4.1860    -1.0310 H     1 <1>   0.4000 
 55 H       -6.8070     0.5970     0.6000 H     1 <1>   0.0800 
 56 H       -6.4290     0.7140    -1.0990 H     1 <1>   0.0800 
 57 H       -7.9220     1.3890    -0.4810 H     1 <1>   0.0800 
@<TRIPOS>BOND
  1   1   2  2   
  2   2   3  am  
  3   2   4  1   
  4   3   5  1   
  5   3   6  1   
  6   4   7  1   
  7   4   8  1   
  8   4  29  1   
  9   5   9  1   
 10   5  30  1   
 11   5  31  1   
 12   6  10  1   
 13   6  32  1   
 14   6  33  1   
 15   7  11  ar  
 16   7  12  ar  
 17   8  13  ar  
 18   8  14  ar  
 19   9  15  1   
 20   9  34  1   
 21   9  35  1   
 22  10  15  1   
 23  10  36  1   
 24  10  37  1   
 25  11  16  ar  
 26  11  38  1   
 27  12  17  ar  
 28  12  39  1   
 29  13  18  ar  
 30  13  40  1   
 31  14  19  ar  
 32  14  41  1   
 33  15  20  1   
 34  15  21  1   
 35  16  22  ar  
 36  16  42  1   
 37  17  22  ar  
 38  17  43  1   
 39  18  23  ar  
 40  18  44  1   
 41  19  23  ar  
 42  19  45  1   
 43  20  24  1   
 44  21  25  1   
 45  21  46  1   
 46  21  47  1   
 47  22  48  1   
 48  23  49  1   
 49  24  26  1   
 50  24  50  1   
 51  24  51  1   
 52  25  26  1   
 53  25  27  1   
 54  25  28  1   
 55  26  52  1   
 56  26  53  1   
 57  27  54  1   
 58  28  55  1   
 59  28  56  1   
 60  28  57  1   
@<TRIPOS>SUBSTRUCTURE
  1 ****   3 GROUP 4 **** **** 0

# MOE 2024.06 (io_trps.svl 2023.06)
