@<TRIPOS>MOLECULE
NONAME
57 61 1 0 0 
SMALL
USER_CHARGES


@<TRIPOS>ATOM
  1 O       -0.9060     0.7520    -1.3540 O.2   1 <1>  -0.5700 
  2 C       -0.6950     1.8120    -0.8100 C.2   1 <1>   0.5690 
  3 N       -1.6870     2.5800    -0.2600 N.am  1 <1>  -0.5090 
  4 C        0.7480     2.3160    -0.7880 C.3   1 <1>   0.1810 
  5 C       -1.4200     3.9630     0.2450 C.3   1 <1>   0.3640 
  6 C       -3.0870     2.1030    -0.1300 C.3   1 <1>   0.0490 
  7 O        0.9660     3.3630     0.1280 O.3   1 <1>  -0.5600 
  8 C       -2.3500     4.9620    -0.4460 C.ar  1 <1>  -0.1440 
  9 C        0.0450     4.4300     0.0300 C.3   1 <1>   0.2610 
 10 C       -3.7090     2.0560     1.2310 C.3   1 <1>  -0.2000 
 11 C       -3.3610     0.7860     0.5250 C.3   1 <1>  -0.2000 
 12 C       -2.9820     5.9480     0.3000 C.ar  1 <1>   0.1600 
 13 C       -2.5690     4.9270    -1.8120 C.ar  1 <1>  -0.1500 
 14 C        0.4350     5.5670     0.9970 C.2   1 <1>   0.5690 
 15 N       -3.7780     6.8810    -0.1970 N.ar  1 <1>  -0.6200 
 16 C       -3.4040     5.8860    -2.3420 C.ar  1 <1>  -0.1500 
 17 O       -0.3180     5.8430     1.9020 O.2   1 <1>  -0.5700 
 18 N        1.6060     6.2830     0.8460 N.am  1 <1>  -0.6600 
 19 C       -3.9740     6.8270    -1.5030 C.ar  1 <1>   0.1600 
 20 C        2.6580     6.0080    -0.1820 C.3   1 <1>   0.1400 
 21 C        1.9800     7.3460     1.8350 C.3   1 <1>   0.1400 
 22 C        3.1250     7.3120    -0.8640 C.3   1 <1>   0.3430 
 23 C        2.4330     8.6330     1.1260 C.3   1 <1>   0.3430 
 24 N        3.5300     8.3710     0.1260 N.4   1 <1>  -0.9590 
 25 C        3.9520     9.6170    -0.5690 C.3   1 <1>   0.4380 
 26 C        4.6470    10.5470     0.4260 C.3   1 <1>  -0.1950 
 27 C        3.9040    11.5390     1.2700 C.3   1 <1>  -0.2000 
 28 C        4.7550    12.0090     0.1260 C.3   1 <1>  -0.2000 
 29 H        1.0200     2.6560    -1.7700 H     1 <1>   0.0800 
 30 H        1.3960     1.5030    -0.5140 H     1 <1>   0.0800 
 31 H       -1.6320     3.9530     1.3000 H     1 <1>   0.0800 
 32 H       -3.7020     2.3860    -0.9690 H     1 <1>   0.1000 
 33 H        0.1220     4.8190    -0.9690 H     1 <1>   0.0800 
 34 H       -3.1340     2.3110     2.1030 H     1 <1>   0.1000 
 35 H       -4.7490     2.3110     1.3320 H     1 <1>   0.1000 
 36 H       -4.1560     0.1770     0.1340 H     1 <1>   0.1000 
 37 H       -2.5250     0.2010     0.8690 H     1 <1>   0.1000 
 38 H       -2.8230     5.9810     1.3660 H     1 <1>   0.1500 
 39 H       -2.1200     4.1800    -2.4450 H     1 <1>   0.1500 
 40 H       -3.6170     5.9060    -3.3960 H     1 <1>   0.1500 
 41 H       -4.6260     7.5720    -1.9270 H     1 <1>   0.1500 
 42 H        3.4960     5.5280     0.2950 H     1 <1>   0.0800 
 43 H        2.2920     5.3360    -0.9370 H     1 <1>   0.0800 
 44 H        1.1470     7.5860     2.4740 H     1 <1>   0.0800 
 45 H        2.7710     6.9790     2.4670 H     1 <1>   0.0800 
 46 H        2.3170     7.6820    -1.4740 H     1 <1>   0.0800 
 47 H        3.9530     7.0870    -1.5180 H     1 <1>   0.0800 
 48 H        2.7730     9.3350     1.8700 H     1 <1>   0.0800 
 49 H        1.5810     9.0670     0.6290 H     1 <1>   0.0800 
 50 H        4.3450     8.0290     0.6500 H     1 <1>   0.4500 
 51 H        4.6420     9.3810    -1.3640 H     1 <1>   0.0800 
 52 H        3.0970    10.1140    -0.9990 H     1 <1>   0.0800 
 53 H        5.5400    10.1040     0.8350 H     1 <1>   0.1000 
 54 H        2.8390    11.6710     1.1710 H     1 <1>   0.1000 
 55 H        4.2490    11.7480     2.2690 H     1 <1>   0.1000 
 56 H        5.6730    12.5260     0.3550 H     1 <1>   0.1000 
 57 H        4.2590    12.4290    -0.7330 H     1 <1>   0.1000 
@<TRIPOS>BOND
  1   1   2  2   
  2   2   3  am  
  3   2   4  1   
  4   3   5  1   
  5   3   6  1   
  6   4   7  1   
  7   4  29  1   
  8   4  30  1   
  9   5   8  1   
 10   5   9  1   
 11   5  31  1   
 12   6  10  1   
 13   6  11  1   
 14   6  32  1   
 15   7   9  1   
 16   8  12  ar  
 17   8  13  ar  
 18   9  14  1   
 19   9  33  1   
 20  10  11  1   
 21  10  34  1   
 22  10  35  1   
 23  11  36  1   
 24  11  37  1   
 25  12  15  ar  
 26  12  38  1   
 27  13  16  ar  
 28  13  39  1   
 29  14  17  2   
 30  14  18  am  
 31  15  19  ar  
 32  16  19  ar  
 33  16  40  1   
 34  18  20  1   
 35  18  21  1   
 36  19  41  1   
 37  20  22  1   
 38  20  42  1   
 39  20  43  1   
 40  21  23  1   
 41  21  44  1   
 42  21  45  1   
 43  22  24  1   
 44  22  46  1   
 45  22  47  1   
 46  23  24  1   
 47  23  48  1   
 48  23  49  1   
 49  24  25  1   
 50  24  50  1   
 51  25  26  1   
 52  25  51  1   
 53  25  52  1   
 54  26  27  1   
 55  26  28  1   
 56  26  53  1   
 57  27  28  1   
 58  27  54  1   
 59  27  55  1   
 60  28  56  1   
 61  28  57  1   
@<TRIPOS>SUBSTRUCTURE
  1 ****  14 GROUP 4 **** **** 0

# MOE 2024.06 (io_trps.svl 2023.06)
