@<TRIPOS>MOLECULE
NONAME
58 62 1 0 0 
SMALL
USER_CHARGES


@<TRIPOS>ATOM
  1 O       -2.1970     1.9020     1.7820 O.2   1 <1>  -0.5700 
  2 C       -2.1420     1.3370     0.7070 C.2   1 <1>   0.7160 
  3 N       -2.3210    -0.0230     0.6620 N.am  1 <1>  -0.6600 
  4 C       -1.9510     2.0720    -0.4970 C.2   1 <1>  -0.0860 
  5 C       -2.3450    -0.8430    -0.5640 C.3   1 <1>   0.2200 
  6 C       -2.6380    -0.8520     1.8320 C.3   1 <1>   0.2200 
  7 C       -2.9750     2.5370    -1.3250 C.2   1 <1>   0.3720 
  8 C       -0.8160     2.3940    -1.1670 C.2   1 <1>   0.0870 
  9 C       -3.7800    -0.8980    -1.1530 C.3   1 <1>   0.3430 
 10 C       -1.8650    -2.2080    -0.0740 C.3   1 <1>  -0.1600 
 11 C       -4.1420    -0.7240     2.1330 C.3   1 <1>  -0.1600 
 12 C       -2.2200    -2.2710     1.4170 C.3   1 <1>  -0.1600 
 13 N       -2.4910     3.0460    -2.4020 N.2   1 <1>  -0.4100 
 14 N       -4.3490     2.4410    -1.0390 N.pl3 1 <1>  -0.8210 
 15 O       -1.1910     2.9620    -2.2840 O.3   1 <1>  -0.0190 
 16 C        0.5780     2.1820    -0.8710 C.ar  1 <1>   0.0530 
 17 N       -4.8390    -1.3850    -0.1890 N.4   1 <1>  -0.9590 
 18 C       -5.0450    -0.4150     0.9290 C.3   1 <1>   0.3430 
 19 C       -5.2720     2.6260    -2.2170 C.3   1 <1>   0.2090 
 20 C       -4.7750     3.3280     0.1040 C.3   1 <1>   0.2090 
 21 C        1.5130     2.0370    -1.8970 C.ar  1 <1>  -0.1500 
 22 C        1.0480     2.1080     0.4410 C.ar  1 <1>  -0.1500 
 23 C       -6.1230    -1.6270    -0.9090 C.3   1 <1>   0.2630 
 24 C       -5.5590     4.1090    -2.5280 C.3   1 <1>   0.1200 
 25 C       -5.0730     4.7690    -0.3490 C.3   1 <1>   0.1200 
 26 C        2.8500     1.8130    -1.6280 C.ar  1 <1>  -0.1500 
 27 C        2.3840     1.8820     0.7160 C.ar  1 <1>  -0.1500 
 28 O       -6.0120     4.7680    -1.3830 O.3   1 <1>  -0.5600 
 29 C        3.2890     1.7320    -0.3190 C.ar  1 <1>  -0.1500 
 30 H       -1.6640    -0.4530    -1.3020 H     1 <1>   0.0800 
 31 H       -2.0590    -0.5330     2.6850 H     1 <1>   0.0800 
 32 H       -3.7570    -1.5500    -2.0100 H     1 <1>   0.0800 
 33 H       -4.0410     0.0850    -1.5080 H     1 <1>   0.0800 
 34 H       -2.2870    -3.0240    -0.6350 H     1 <1>   0.0800 
 35 H       -0.7940    -2.2500    -0.1830 H     1 <1>   0.0800 
 36 H       -4.4970    -1.5970     2.6500 H     1 <1>   0.0800 
 37 H       -4.2550     0.0920     2.8250 H     1 <1>   0.0800 
 38 H       -1.3550    -2.5690     1.9860 H     1 <1>   0.0800 
 39 H       -2.9950    -2.9910     1.6090 H     1 <1>   0.0800 
 40 H       -4.5040    -2.2640     0.2270 H     1 <1>   0.4500 
 41 H       -4.8420     0.5850     0.5770 H     1 <1>   0.0800 
 42 H       -6.0710    -0.4450     1.2570 H     1 <1>   0.0800 
 43 H       -4.8500     2.1620    -3.0920 H     1 <1>   0.0800 
 44 H       -6.2080     2.1380    -2.0100 H     1 <1>   0.0800 
 45 H       -5.6610     2.9210     0.5580 H     1 <1>   0.0800 
 46 H       -4.0110     3.3640     0.8600 H     1 <1>   0.0800 
 47 H        1.1900     2.0990    -2.9220 H     1 <1>   0.1500 
 48 H        0.3680     2.2360     1.2640 H     1 <1>   0.1500 
 49 H       -6.4860    -0.7100    -1.3430 H     1 <1>   0.0800 
 50 H       -6.8690    -2.0050    -0.2280 H     1 <1>   0.0800 
 51 H       -5.9810    -2.3500    -1.6960 H     1 <1>   0.0800 
 52 H       -6.3240     4.1910    -3.2780 H     1 <1>   0.0800 
 53 H       -4.6730     4.6040    -2.8870 H     1 <1>   0.0800 
 54 H       -4.1750     5.2540    -0.6930 H     1 <1>   0.0800 
 55 H       -5.4820     5.3380     0.4660 H     1 <1>   0.0800 
 56 H        3.5530     1.7020    -2.4370 H     1 <1>   0.1500 
 57 H        2.7220     1.8260     1.7360 H     1 <1>   0.1500 
 58 H        4.3300     1.5570    -0.1060 H     1 <1>   0.1500 
@<TRIPOS>BOND
  1   1   2  2   
  2   2   3  am  
  3   2   4  1   
  4   3   5  1   
  5   3   6  1   
  6   4   7  1   
  7   4   8  2   
  8   5   9  1   
  9   5  10  1   
 10   5  30  1   
 11   6  11  1   
 12   6  12  1   
 13   6  31  1   
 14   7  13  2   
 15   7  14  1   
 16   8  15  1   
 17   8  16  1   
 18   9  17  1   
 19   9  32  1   
 20   9  33  1   
 21  10  12  1   
 22  10  34  1   
 23  10  35  1   
 24  11  18  1   
 25  11  36  1   
 26  11  37  1   
 27  12  38  1   
 28  12  39  1   
 29  13  15  1   
 30  14  19  1   
 31  14  20  1   
 32  16  21  ar  
 33  16  22  ar  
 34  17  18  1   
 35  17  23  1   
 36  17  40  1   
 37  18  41  1   
 38  18  42  1   
 39  19  24  1   
 40  19  43  1   
 41  19  44  1   
 42  20  25  1   
 43  20  45  1   
 44  20  46  1   
 45  21  26  ar  
 46  21  47  1   
 47  22  27  ar  
 48  22  48  1   
 49  23  49  1   
 50  23  50  1   
 51  23  51  1   
 52  24  28  1   
 53  24  52  1   
 54  24  53  1   
 55  25  28  1   
 56  25  54  1   
 57  25  55  1   
 58  26  29  ar  
 59  26  56  1   
 60  27  29  ar  
 61  27  57  1   
 62  29  58  1   
@<TRIPOS>SUBSTRUCTURE
  1 ****   4 GROUP 4 **** **** 0

# MOE 2024.06 (io_trps.svl 2023.06)
