@<TRIPOS>MOLECULE
NONAME
41 43 1 0 0 
SMALL
USER_CHARGES


@<TRIPOS>ATOM
  1 S       -0.0560     0.0580    -0.1480 S.3   1 <1>  -0.0800 
  2 C        1.2810     1.0360     0.4670 C.2   1 <1>  -0.0450 
  3 C        0.7770    -1.4420     0.1990 C.2   1 <1>  -0.1400 
  4 C        1.1540     2.4740     0.4240 C.2   1 <1>   0.7150 
  5 C        2.2590     0.1990     0.9010 C.2   1 <1>  -0.1500 
  6 C        1.9790    -1.1900     0.7470 C.2   1 <1>  -0.1500 
  7 C        0.0610    -2.7300    -0.1470 C.3   1 <1>  -0.0600 
  8 O        0.0760     2.9930     0.6490 O.2   1 <1>  -0.5700 
  9 N        2.2330     3.2910     0.1310 N.am  1 <1>  -0.6600 
 10 C        3.3650     2.8230    -0.7220 C.3   1 <1>   0.1400 
 11 C        2.1690     4.7520     0.3950 C.3   1 <1>   0.1400 
 12 C        4.6770     2.7700     0.0680 C.3   1 <1>   0.1400 
 13 C        3.4140     5.2530     1.1320 C.3   1 <1>  -0.1600 
 14 N        5.4180     4.0730     0.1210 N.am  1 <1>  -0.6600 
 15 C        4.6550     5.3520     0.2390 C.3   1 <1>   0.1400 
 16 C        6.7930     4.0380     0.2680 C.2   1 <1>   0.6160 
 17 O        7.3010     3.0190     0.7070 O.2   1 <1>  -0.5700 
 18 C        7.6510     5.1540    -0.0810 C.2   1 <1>   0.1230 
 19 N        8.9370     5.3250     0.4540 N.am  1 <1>  -0.5390 
 20 C        7.4750     6.1950    -0.9350 C.2   1 <1>  -0.0410 
 21 C        9.4900     6.4320    -0.0720 C.2   1 <1>   0.6900 
 22 N        8.6020     6.9900    -0.9220 N.am  1 <1>  -0.5390 
 23 O       10.6060     6.8610     0.1650 O.2   1 <1>  -0.5700 
 24 H        3.1850     0.5170     1.3440 H     1 <1>   0.1500 
 25 H        2.6890    -1.9380     1.0570 H     1 <1>   0.1500 
 26 H       -0.1470    -2.7620    -1.2010 H     1 <1>   0.0800 
 27 H       -0.8660    -2.7890     0.3940 H     1 <1>   0.0800 
 28 H        0.6710    -3.5760     0.1140 H     1 <1>   0.0800 
 29 H        3.4750     3.4650    -1.5780 H     1 <1>   0.0800 
 30 H        3.1500     1.8370    -1.0950 H     1 <1>   0.0800 
 31 H        1.3100     4.9750     1.0060 H     1 <1>   0.0800 
 32 H        2.0450     5.2780    -0.5370 H     1 <1>   0.0800 
 33 H        5.3130     2.0410    -0.4060 H     1 <1>   0.0800 
 34 H        4.4890     2.4290     1.0700 H     1 <1>   0.0800 
 35 H        3.6100     4.6590     2.0080 H     1 <1>   0.0800 
 36 H        3.1900     6.2480     1.4730 H     1 <1>   0.0800 
 37 H        5.2990     6.0990     0.6720 H     1 <1>   0.0800 
 38 H        4.3740     5.6910    -0.7430 H     1 <1>   0.0800 
 39 H        9.4270     4.6710     1.0650 H     1 <1>   0.3700 
 40 H        6.6270     6.4170    -1.5610 H     1 <1>   0.1500 
 41 H        8.8280     7.8320    -1.4510 H     1 <1>   0.3700 
@<TRIPOS>BOND
  1   1   2  1   
  2   1   3  1   
  3   2   4  1   
  4   2   5  2   
  5   3   6  2   
  6   3   7  1   
  7   4   8  2   
  8   4   9  am  
  9   5   6  1   
 10   5  24  1   
 11   6  25  1   
 12   7  26  1   
 13   7  27  1   
 14   7  28  1   
 15   9  10  1   
 16   9  11  1   
 17  10  12  1   
 18  10  29  1   
 19  10  30  1   
 20  11  13  1   
 21  11  31  1   
 22  11  32  1   
 23  12  14  1   
 24  12  33  1   
 25  12  34  1   
 26  13  15  1   
 27  13  35  1   
 28  13  36  1   
 29  14  15  1   
 30  14  16  am  
 31  15  37  1   
 32  15  38  1   
 33  16  17  2   
 34  16  18  1   
 35  18  19  1   
 36  18  20  2   
 37  19  21  am  
 38  19  39  1   
 39  20  22  1   
 40  20  40  1   
 41  21  22  am  
 42  21  23  2   
 43  22  41  1   
@<TRIPOS>SUBSTRUCTURE
  1 ****  12 GROUP 4 **** **** 0

# MOE 2024.06 (io_trps.svl 2023.06)
