@<TRIPOS>MOLECULE
NONAME
43 44 1 0 0 
SMALL
USER_CHARGES


@<TRIPOS>ATOM
  1 O        0.4470     1.1110     2.2940 O.co2 1 <1>  -0.9000 
  2 C        0.1980     2.3300     2.3900 C.2   1 <1>   1.0330 
  3 O       -0.3830     2.7260     3.4190 O.co2 1 <1>  -0.9000 
  4 C        0.5840     3.2210     1.2930 C.2   1 <1>  -0.0060 
  5 N        0.4370     4.5880     1.1930 N.2   1 <1>  -0.5650 
  6 C        1.1690     2.8110     0.1490 C.2   1 <1>  -0.0100 
  7 C        0.9300     4.8740     0.0440 C.2   1 <1>   0.2980 
  8 O        1.3770     3.8360    -0.6260 O.3   1 <1>  -0.2800 
  9 C        0.9850     6.2630    -0.5940 C.3   1 <1>   0.2900 
 10 N        2.3300     6.9170    -0.6250 N.3   1 <1>  -0.8100 
 11 C        2.2570     8.3000    -1.0930 C.3   1 <1>   0.1100 
 12 C        3.3090     6.1150    -1.3780 C.3   1 <1>   0.0300 
 13 C        3.2570     9.1240    -0.2760 C.3   1 <1>  -0.1600 
 14 C        3.4090    10.5800    -0.7470 C.3   1 <1>   0.4230 
 15 N        4.3670    11.2970     0.1450 N.4   1 <1>  -0.9590 
 16 C        2.0690    11.3240    -0.7190 C.3   1 <1>  -0.2400 
 17 C        4.6480    12.7050    -0.2430 C.3   1 <1>   0.3430 
 18 C        5.7040    10.6580     0.2710 C.3   1 <1>   0.3430 
 19 C        5.9160    13.0700     0.5160 C.3   1 <1>  -0.1600 
 20 C        6.5990    11.7430     0.8510 C.3   1 <1>  -0.1600 
 21 H        1.4510     1.8190    -0.1560 H     1 <1>   0.1500 
 22 H        0.3150     6.8840    -0.0270 H     1 <1>   0.0800 
 23 H        0.5970     6.1880    -1.5940 H     1 <1>   0.0800 
 24 H        1.2630     8.6830    -0.9280 H     1 <1>   0.0800 
 25 H        2.4710     8.3490    -2.1490 H     1 <1>   0.0800 
 26 H        3.4870     5.1830    -0.8690 H     1 <1>   0.0800 
 27 H        4.2490     6.6310    -1.4490 H     1 <1>   0.0800 
 28 H        2.9450     5.9070    -2.3700 H     1 <1>   0.0800 
 29 H        4.2060     8.6270    -0.3460 H     1 <1>   0.0800 
 30 H        2.9370     9.1060     0.7510 H     1 <1>   0.0800 
 31 H        3.7910    10.5810    -1.7560 H     1 <1>   0.0800 
 32 H        3.9550    11.3140     1.0860 H     1 <1>   0.4500 
 33 H        1.6460    11.3150     0.2700 H     1 <1>   0.0800 
 34 H        1.3680    10.8550    -1.3860 H     1 <1>   0.0800 
 35 H        2.1700    12.3390    -1.0560 H     1 <1>   0.0800 
 36 H        3.8320    13.3620     0.0130 H     1 <1>   0.0800 
 37 H        4.8350    12.7600    -1.3030 H     1 <1>   0.0800 
 38 H        6.0660    10.3750    -0.7050 H     1 <1>   0.0800 
 39 H        5.6730     9.7870     0.9070 H     1 <1>   0.0800 
 40 H        5.6630    13.6010     1.4170 H     1 <1>   0.0800 
 41 H        6.5450    13.7030    -0.0870 H     1 <1>   0.0800 
 42 H        7.5870    11.6820     0.4280 H     1 <1>   0.0800 
 43 H        6.6780    11.6190     1.9180 H     1 <1>   0.0800 
@<TRIPOS>BOND
  1   1   2  ar  
  2   2   3  ar  
  3   2   4  1   
  4   4   5  1   
  5   4   6  2   
  6   5   7  2   
  7   6   8  1   
  8   6  21  1   
  9   7   8  1   
 10   7   9  1   
 11   9  10  1   
 12   9  22  1   
 13   9  23  1   
 14  10  11  1   
 15  10  12  1   
 16  11  13  1   
 17  11  24  1   
 18  11  25  1   
 19  12  26  1   
 20  12  27  1   
 21  12  28  1   
 22  13  14  1   
 23  13  29  1   
 24  13  30  1   
 25  14  15  1   
 26  14  16  1   
 27  14  31  1   
 28  15  17  1   
 29  15  18  1   
 30  15  32  1   
 31  16  33  1   
 32  16  34  1   
 33  16  35  1   
 34  17  19  1   
 35  17  36  1   
 36  17  37  1   
 37  18  20  1   
 38  18  38  1   
 39  18  39  1   
 40  19  20  1   
 41  19  40  1   
 42  19  41  1   
 43  20  42  1   
 44  20  43  1   
@<TRIPOS>SUBSTRUCTURE
  1 ****  10 GROUP 4 **** **** 0

# MOE 2024.06 (io_trps.svl 2023.06)
