@<TRIPOS>MOLECULE
NONAME
51 54 1 0 0 
SMALL
USER_CHARGES


@<TRIPOS>ATOM
  1 S        0.4290     0.1290    -0.7740 S.3   1 <1>  -0.0800 
  2 C       -1.2670     0.4820    -0.4640 C.2   1 <1>   0.3250 
  3 C       -0.0290    -1.2040    -1.7840 C.2   1 <1>  -0.1100 
  4 N       -2.0600    -0.3410    -1.0650 N.2   1 <1>  -0.5650 
  5 C       -1.6100     1.5980     0.3880 C.ar  1 <1>   0.0530 
  6 C       -1.3670    -1.2870    -1.8090 C.2   1 <1>   0.0460 
  7 C       -0.7850     2.0250     1.4310 C.ar  1 <1>  -0.1500 
  8 C       -2.8080     2.2880     0.1940 C.ar  1 <1>  -0.1500 
  9 C       -2.1660    -2.3220    -2.5980 C.3   1 <1>   0.3900 
 10 C       -1.1430     3.0860     2.2430 C.ar  1 <1>  -0.1500 
 11 C       -3.1700     3.3490     1.0030 C.ar  1 <1>  -0.1500 
 12 N       -2.5600    -3.5010    -1.7530 N.pl3 1 <1>  -0.8380 
 13 C       -2.3370     3.7510     2.0310 C.ar  1 <1>  -0.1500 
 14 C       -3.4910    -3.4830    -0.7570 C.ar  1 <1>   0.7710 
 15 C       -1.9540    -4.7900    -2.2260 C.3   1 <1>   0.1290 
 16 N       -4.0270    -4.6280    -0.3600 N.ar  1 <1>  -0.6200 
 17 N       -3.8480    -2.3150    -0.1960 N.ar  1 <1>  -0.1790 
 18 C       -4.9490    -4.6080     0.5840 C.ar  1 <1>   0.4100 
 19 C       -4.7620    -2.2440     0.7970 C.ar  1 <1>   0.2110 
 20 N       -5.5210    -5.7900     0.9390 N.pl3 1 <1>  -0.8380 
 21 C       -5.3300    -3.4020     1.2040 C.ar  1 <1>  -0.1500 
 22 C       -6.9510    -5.9310     1.3720 C.3   1 <1>   0.2090 
 23 C       -4.8390    -7.1060     0.7360 C.3   1 <1>   0.2090 
 24 C       -7.7400    -6.7810     0.3600 C.3   1 <1>   0.2000 
 25 C       -5.6000    -7.9280    -0.3110 C.3   1 <1>  -0.1600 
 26 O       -9.0140    -7.0180     0.8460 O.3   1 <1>  -0.6800 
 27 C       -7.0720    -8.1320     0.0840 C.3   1 <1>  -0.1600 
 28 H        0.7560    -1.7760    -2.2470 H     1 <1>   0.1500 
 29 H        0.1480     1.5250     1.6210 H     1 <1>   0.1500 
 30 H       -3.4610     1.9950    -0.6080 H     1 <1>   0.1500 
 31 H       -1.5670    -2.6570    -3.4270 H     1 <1>   0.0800 
 32 H       -3.0460    -1.8590    -3.0120 H     1 <1>   0.0800 
 33 H       -0.4910     3.3990     3.0410 H     1 <1>   0.1500 
 34 H       -4.0970     3.8700     0.8330 H     1 <1>   0.1500 
 35 H       -2.6140     4.5790     2.6620 H     1 <1>   0.1500 
 36 H       -0.9090    -4.6530    -2.4450 H     1 <1>   0.0800 
 37 H       -2.4590    -5.1290    -3.1150 H     1 <1>   0.0800 
 38 H       -2.0300    -5.5600    -1.4750 H     1 <1>   0.0800 
 39 H       -3.3220    -1.4960    -0.5130 H     1 <1>   0.4570 
 40 H       -4.9950    -1.2850     1.2310 H     1 <1>   0.1500 
 41 H       -6.0500    -3.4220     1.9990 H     1 <1>   0.1500 
 42 H       -7.4300    -4.9720     1.4430 H     1 <1>   0.0800 
 43 H       -6.9750    -6.4040     2.3390 H     1 <1>   0.0800 
 44 H       -4.8200    -7.6380     1.6720 H     1 <1>   0.0800 
 45 H       -3.8190    -6.9690     0.4210 H     1 <1>   0.0800 
 46 H       -7.8440    -6.2240    -0.5560 H     1 <1>   0.0800 
 47 H       -5.1220    -8.8840    -0.4260 H     1 <1>   0.0800 
 48 H       -5.5420    -7.4170    -1.2560 H     1 <1>   0.0800 
 49 H       -8.9960    -7.7250     1.5180 H     1 <1>   0.4000 
 50 H       -7.5910    -8.6350    -0.7140 H     1 <1>   0.0800 
 51 H       -7.1110    -8.7470     0.9660 H     1 <1>   0.0800 
@<TRIPOS>BOND
  1   1   2  1   
  2   1   3  1   
  3   2   4  2   
  4   2   5  1   
  5   3   6  2   
  6   3  28  1   
  7   4   6  1   
  8   5   7  ar  
  9   5   8  ar  
 10   6   9  1   
 11   7  10  ar  
 12   7  29  1   
 13   8  11  ar  
 14   8  30  1   
 15   9  12  1   
 16   9  31  1   
 17   9  32  1   
 18  10  13  ar  
 19  10  33  1   
 20  11  13  ar  
 21  11  34  1   
 22  12  14  1   
 23  12  15  1   
 24  13  35  1   
 25  14  16  ar  
 26  14  17  ar  
 27  15  36  1   
 28  15  37  1   
 29  15  38  1   
 30  16  18  ar  
 31  17  19  ar  
 32  17  39  1   
 33  18  20  1   
 34  18  21  ar  
 35  19  21  ar  
 36  19  40  1   
 37  20  22  1   
 38  20  23  1   
 39  21  41  1   
 40  22  24  1   
 41  22  42  1   
 42  22  43  1   
 43  23  25  1   
 44  23  44  1   
 45  23  45  1   
 46  24  26  1   
 47  24  27  1   
 48  24  46  1   
 49  25  27  1   
 50  25  47  1   
 51  25  48  1   
 52  26  49  1   
 53  27  50  1   
 54  27  51  1   
@<TRIPOS>SUBSTRUCTURE
  1 ****  17 GROUP 4 **** **** 0

# MOE 2024.06 (io_trps.svl 2023.06)
