@<TRIPOS>MOLECULE
NONAME
50 53 1 0 0 
SMALL
USER_CHARGES


@<TRIPOS>ATOM
  1 S        0.2320     0.1330     1.7170 S.o2  1 <1>   1.4470 
  2 O       -0.2050    -0.8570     2.6760 O.2   1 <1>  -0.6500 
  3 O        0.6150     1.4500     2.1780 O.2   1 <1>  -0.6500 
  4 N       -1.0180     0.3400     0.5920 N.am  1 <1>  -0.8490 
  5 C        1.5760    -0.5780     0.7250 C.ar  1 <1>  -0.0090 
  6 C       -2.3120     0.5480     1.2640 C.3   1 <1>   0.1960 
  7 C       -0.7530     1.4460    -0.3340 C.3   1 <1>   0.1960 
  8 C        2.8770    -0.0960     0.8420 C.ar  1 <1>  -0.1500 
  9 C        1.3280    -1.6310    -0.1640 C.ar  1 <1>  -0.1500 
 10 C       -3.4810     0.5300     0.2600 C.3   1 <1>   0.0000 
 11 C       -1.8210     1.4890    -1.4310 C.3   1 <1>  -0.1600 
 12 C        3.8890    -0.6590     0.0810 C.ar  1 <1>   0.1170 
 13 C        2.3380    -2.1980    -0.9280 C.ar  1 <1>  -0.1500 
 14 C       -4.8190     0.7220     0.9960 C.3   1 <1>   0.2000 
 15 C       -3.2340     1.6010    -0.8360 C.3   1 <1>  -0.1600 
 16 C       -3.6860    -0.8600    -0.3720 C.3   1 <1>  -0.1600 
 17 N        5.2400    -0.4060    -0.0230 N.am  1 <1>  -0.4770 
 18 C        3.6140    -1.6910    -0.7860 C.ar  1 <1>   0.0830 
 19 O       -5.0640     2.0660     1.2860 O.3   1 <1>  -0.5600 
 20 C       -5.8850     0.1400     0.0650 C.3   1 <1>  -0.1600 
 21 C       -5.1630    -0.9200    -0.7780 C.3   1 <1>  -0.1600 
 22 C        5.7250    -1.2950    -0.9460 C.2   1 <1>   0.7800 
 23 C        6.0150     0.6040     0.7300 C.3   1 <1>   0.0600 
 24 O        4.7450    -2.0720    -1.4110 O.3   1 <1>  -0.2320 
 25 C       -6.0920     2.2950     2.1970 C.3   1 <1>   0.0400 
 26 O        6.8780    -1.3970    -1.3180 O.2   1 <1>  -0.5700 
 27 H       -2.4730    -0.2290     1.9920 H     1 <1>   0.0800 
 28 H       -2.3020     1.4910     1.7880 H     1 <1>   0.0800 
 29 H       -0.7470     2.3810     0.2030 H     1 <1>   0.0800 
 30 H        0.2130     1.3160    -0.7920 H     1 <1>   0.0800 
 31 H        3.1010     0.7090     1.5200 H     1 <1>   0.1500 
 32 H        0.3220    -2.0090    -0.2520 H     1 <1>   0.1500 
 33 H       -1.6370     2.3360    -2.0680 H     1 <1>   0.0800 
 34 H       -1.7350     0.6060    -2.0380 H     1 <1>   0.0800 
 35 H        2.1450    -3.0080    -1.6110 H     1 <1>   0.1500 
 36 H       -4.8000     0.1640     1.9180 H     1 <1>   0.0800 
 37 H       -3.9680     1.5270    -1.6180 H     1 <1>   0.0800 
 38 H       -3.3280     2.5810    -0.4010 H     1 <1>   0.0800 
 39 H       -3.0330    -1.0470    -1.2040 H     1 <1>   0.0800 
 40 H       -3.5010    -1.6180     0.3700 H     1 <1>   0.0800 
 41 H       -6.6890    -0.2960     0.6280 H     1 <1>   0.0800 
 42 H       -6.2680     0.9120    -0.5800 H     1 <1>   0.0800 
 43 H       -5.5660    -1.9040    -0.6040 H     1 <1>   0.0800 
 44 H       -5.2680    -0.6840    -1.8240 H     1 <1>   0.0800 
 45 H        5.6250     1.5850     0.5280 H     1 <1>   0.0800 
 46 H        7.0490     0.5690     0.4320 H     1 <1>   0.0800 
 47 H        5.9470     0.4010     1.7840 H     1 <1>   0.0800 
 48 H       -6.1650     3.3560     2.3560 H     1 <1>   0.0800 
 49 H       -5.8610     1.8050     3.1260 H     1 <1>   0.0800 
 50 H       -7.0190     1.9270     1.7920 H     1 <1>   0.0800 
@<TRIPOS>BOND
  1   1   2  2   
  2   1   3  2   
  3   1   4  am  
  4   1   5  1   
  5   4   6  1   
  6   4   7  1   
  7   5   8  ar  
  8   5   9  ar  
  9   6  10  1   
 10   6  27  1   
 11   6  28  1   
 12   7  11  1   
 13   7  29  1   
 14   7  30  1   
 15   8  12  ar  
 16   8  31  1   
 17   9  13  ar  
 18   9  32  1   
 19  10  14  1   
 20  10  15  1   
 21  10  16  1   
 22  11  15  1   
 23  11  33  1   
 24  11  34  1   
 25  12  17  1   
 26  12  18  ar  
 27  13  18  ar  
 28  13  35  1   
 29  14  19  1   
 30  14  20  1   
 31  14  36  1   
 32  15  37  1   
 33  15  38  1   
 34  16  21  1   
 35  16  39  1   
 36  16  40  1   
 37  17  22  am  
 38  17  23  1   
 39  18  24  1   
 40  19  25  1   
 41  20  21  1   
 42  20  41  1   
 43  20  42  1   
 44  21  43  1   
 45  21  44  1   
 46  22  24  1   
 47  22  26  2   
 48  23  45  1   
 49  23  46  1   
 50  23  47  1   
 51  25  48  1   
 52  25  49  1   
 53  25  50  1   
@<TRIPOS>SUBSTRUCTURE
  1 ****   4 GROUP 4 **** **** 0

# MOE 2024.06 (io_trps.svl 2023.06)
