@<TRIPOS>MOLECULE
NONAME
35 36 1 0 0 
SMALL
USER_CHARGES


@<TRIPOS>ATOM
  1 O        0.2020     0.4410    -0.6720 O.3   1 <1>  -0.6800 
  2 C        0.2390     1.7260    -0.1470 C.3   1 <1>   0.2000 
  3 C       -1.1580     2.3730    -0.2430 C.3   1 <1>  -0.0800 
  4 C        1.2900     2.5310    -0.9250 C.3   1 <1>   0.2090 
  5 C       -1.0730     3.8620     0.1690 C.3   1 <1>  -0.1600 
  6 C       -2.1790     1.6010     0.6110 C.3   1 <1>   0.1200 
  7 N        1.3150     3.9550    -0.4510 N.pl3 1 <1>  -0.8380 
  8 C       -0.0030     4.6320    -0.6130 C.3   1 <1>   0.2090 
  9 O       -3.4300     2.1810     0.4980 O.3   1 <1>  -0.6800 
 10 C        2.4310     4.5660     0.0300 C.ar  1 <1>   0.1000 
 11 C        2.7050     5.9170    -0.2290 C.ar  1 <1>  -0.1500 
 12 C        3.3700     3.8760     0.8090 C.ar  1 <1>  -0.1500 
 13 C        3.8340     6.5240     0.2580 C.ar  1 <1>   0.2180 
 14 C        4.4910     4.5030     1.2820 C.ar  1 <1>   0.2110 
 15 N        4.7120     5.8120     1.0060 N.ar  1 <1>  -0.1790 
 16 C        4.1430     7.9860    -0.0200 C.3   1 <1>  -0.0970 
 17 H       -0.4530    -0.1110    -0.2040 H     1 <1>   0.4000 
 18 H        0.5490     1.6510     0.8810 H     1 <1>   0.0800 
 19 H       -1.4710     2.3250    -1.2730 H     1 <1>   0.0800 
 20 H        1.0380     2.5200    -1.9720 H     1 <1>   0.0800 
 21 H        2.2560     2.0730    -0.8120 H     1 <1>   0.0800 
 22 H       -0.8490     3.9400     1.2190 H     1 <1>   0.0800 
 23 H       -2.0180     4.3430    -0.0030 H     1 <1>   0.0800 
 24 H       -1.9000     1.6010     1.6510 H     1 <1>   0.0800 
 25 H       -2.2710     0.5840     0.2710 H     1 <1>   0.0800 
 26 H        0.0410     5.6410    -0.2420 H     1 <1>   0.0800 
 27 H       -0.2620     4.6650    -1.6580 H     1 <1>   0.0800 
 28 H       -3.4280     3.0830     0.8710 H     1 <1>   0.4000 
 29 H        2.0130     6.4690    -0.8370 H     1 <1>   0.1500 
 30 H        3.1920     2.8420     1.0410 H     1 <1>   0.1500 
 31 H        5.2120     3.9690     1.8820 H     1 <1>   0.1500 
 32 H        5.5540     6.2720     1.3650 H     1 <1>   0.4570 
 33 H        3.3700     8.4270    -0.6250 H     1 <1>   0.0800 
 34 H        5.0750     8.0790    -0.5500 H     1 <1>   0.0800 
 35 H        4.2040     8.5400     0.9000 H     1 <1>   0.0800 
@<TRIPOS>BOND
  1   1   2  1   
  2   1  17  1   
  3   2   3  1   
  4   2   4  1   
  5   2  18  1   
  6   3   5  1   
  7   3   6  1   
  8   3  19  1   
  9   4   7  1   
 10   4  20  1   
 11   4  21  1   
 12   5   8  1   
 13   5  22  1   
 14   5  23  1   
 15   6   9  1   
 16   6  24  1   
 17   6  25  1   
 18   7   8  1   
 19   7  10  1   
 20   8  26  1   
 21   8  27  1   
 22   9  28  1   
 23  10  11  ar  
 24  10  12  ar  
 25  11  13  ar  
 26  11  29  1   
 27  12  14  ar  
 28  12  30  1   
 29  13  15  ar  
 30  13  16  1   
 31  14  15  ar  
 32  14  31  1   
 33  15  32  1   
 34  16  33  1   
 35  16  34  1   
 36  16  35  1   
@<TRIPOS>SUBSTRUCTURE
  1 ****   7 GROUP 4 **** **** 0

# MOE 2024.06 (io_trps.svl 2023.06)
