@<TRIPOS>MOLECULE
NONAME
40 41 1 0 0 
SMALL
USER_CHARGES


@<TRIPOS>ATOM
  1 CL       1.5100    -0.3960    -2.5270 Cl    1 <1>  -0.1770 
  2 C        2.5360     0.7030    -1.6370 C.ar  1 <1>   0.1770 
  3 C        2.2090     2.0480    -1.5560 C.ar  1 <1>   0.1600 
  4 C        3.6700     0.2200    -1.0200 C.ar  1 <1>  -0.1500 
  5 N        2.9230     2.9620    -0.9060 N.ar  1 <1>  -0.6200 
  6 C        4.4050     1.1650    -0.3480 C.ar  1 <1>   0.1900 
  7 C        4.0210     2.5160    -0.2970 C.ar  1 <1>   0.4100 
  8 F        5.5030     0.7790     0.2590 F     1 <1>  -0.1900 
  9 N        4.7710     3.4430     0.4010 N.pl3 1 <1>  -0.8690 
 10 C        4.8000     4.8660     0.0190 C.3   1 <1>   0.4330 
 11 C        6.2570     5.3010     0.0760 C.ar  1 <1>  -0.1430 
 12 C        3.8520     5.6420     0.9550 C.3   1 <1>  -0.1600 
 13 C        6.9450     5.3480     1.2820 C.ar  1 <1>   0.1600 
 14 C        6.9290     5.6500    -1.0800 C.ar  1 <1>  -0.1500 
 15 C        3.5570     7.1260     0.6180 C.3   1 <1>   0.0000 
 16 N        8.2100     5.7090     1.4230 N.ar  1 <1>  -0.6200 
 17 C        8.2470     6.0300    -0.9520 C.ar  1 <1>  -0.1500 
 18 C        2.4450     7.6090     1.5620 C.3   1 <1>  -0.2400 
 19 C        4.7800     8.0300     0.8360 C.3   1 <1>  -0.2400 
 20 C        3.0640     7.2830    -0.8280 C.3   1 <1>  -0.2400 
 21 C        8.8300     6.0430     0.3030 C.ar  1 <1>   0.1600 
 22 H        1.3150     2.3840    -2.0520 H     1 <1>   0.1500 
 23 H        3.9550    -0.8150    -1.0640 H     1 <1>   0.1500 
 24 H        5.7050     3.1100     0.6540 H     1 <1>   0.4000 
 25 H        4.4480     4.9610    -0.9940 H     1 <1>   0.0800 
 26 H        4.2180     5.5750     1.9620 H     1 <1>   0.0800 
 27 H        2.9130     5.1170     0.9340 H     1 <1>   0.0800 
 28 H        6.4270     5.0690     2.1840 H     1 <1>   0.1500 
 29 H        6.4490     5.6270    -2.0440 H     1 <1>   0.1500 
 30 H        8.8210     6.3150    -1.8150 H     1 <1>   0.1500 
 31 H        2.7550     7.5220     2.5880 H     1 <1>   0.0800 
 32 H        1.5520     7.0240     1.4280 H     1 <1>   0.0800 
 33 H        2.2010     8.6390     1.3700 H     1 <1>   0.0800 
 34 H        5.1930     7.8820     1.8180 H     1 <1>   0.0800 
 35 H        4.5030     9.0650     0.7400 H     1 <1>   0.0800 
 36 H        5.5470     7.8360     0.1100 H     1 <1>   0.0800 
 37 H        2.2340     6.6250    -1.0160 H     1 <1>   0.0800 
 38 H        3.8450     7.0610    -1.5310 H     1 <1>   0.0800 
 39 H        2.7400     8.2940    -1.0060 H     1 <1>   0.0800 
 40 H        9.8610     6.3430     0.3910 H     1 <1>   0.1500 
@<TRIPOS>BOND
  1   1   2  1   
  2   2   3  ar  
  3   2   4  ar  
  4   3   5  ar  
  5   3  22  1   
  6   4   6  ar  
  7   4  23  1   
  8   5   7  ar  
  9   6   7  ar  
 10   6   8  1   
 11   7   9  1   
 12   9  10  1   
 13   9  24  1   
 14  10  11  1   
 15  10  12  1   
 16  10  25  1   
 17  11  13  ar  
 18  11  14  ar  
 19  12  15  1   
 20  12  26  1   
 21  12  27  1   
 22  13  16  ar  
 23  13  28  1   
 24  14  17  ar  
 25  14  29  1   
 26  15  18  1   
 27  15  19  1   
 28  15  20  1   
 29  16  21  ar  
 30  17  21  ar  
 31  17  30  1   
 32  18  31  1   
 33  18  32  1   
 34  18  33  1   
 35  19  34  1   
 36  19  35  1   
 37  19  36  1   
 38  20  37  1   
 39  20  38  1   
 40  20  39  1   
 41  21  40  1   
@<TRIPOS>SUBSTRUCTURE
  1 ****  10 GROUP 4 **** **** 0

# MOE 2024.06 (io_trps.svl 2023.06)
