@<TRIPOS>MOLECULE
NONAME
50 51 1 0 0 
SMALL
USER_CHARGES


@<TRIPOS>ATOM
  1 CL      -1.7800    -0.7290     1.2600 Cl    1 <1>  -0.1770 
  2 C       -2.2080     0.4010     0.0010 C.ar  1 <1>   0.1770 
  3 C       -2.7340    -0.0570    -1.2070 C.ar  1 <1>   0.0860 
  4 C       -2.0060     1.7420     0.2540 C.ar  1 <1>  -0.1500 
  5 C       -2.9810    -1.4520    -1.4850 C.2   1 <1>   0.5440 
  6 C       -3.0220     0.9100    -2.1710 C.ar  1 <1>  -0.1500 
  7 C       -2.3180     2.6970    -0.7060 C.ar  1 <1>   0.1170 
  8 O       -2.2840    -2.0080    -2.3130 O.2   1 <1>  -0.5700 
  9 N       -4.0210    -2.1550    -0.9040 N.am  1 <1>  -0.6600 
 10 C       -2.8190     2.2560    -1.9270 C.ar  1 <1>  -0.1500 
 11 N       -2.1360     4.0680    -0.5000 N.am  1 <1>  -0.5470 
 12 C       -4.3570    -3.5500    -1.3330 C.3   1 <1>   0.1400 
 13 C       -4.9980    -1.5510     0.0380 C.3   1 <1>   0.1400 
 14 C       -2.1250     4.7880     0.6610 C.2   1 <1>   0.5690 
 15 C       -4.5720    -4.5400    -0.1580 C.3   1 <1>   0.0000 
 16 C       -5.0720    -2.4080     1.2960 C.3   1 <1>  -0.1600 
 17 O       -2.3220     4.3110     1.7490 O.2   1 <1>  -0.5700 
 18 C       -1.8650     6.2700     0.5570 C.3   1 <1>  -0.1790 
 19 C       -5.4330    -3.8540     0.9440 C.3   1 <1>   0.2000 
 20 C       -5.4310    -5.7200    -0.6850 C.3   1 <1>   0.1200 
 21 C       -3.2160    -5.1440     0.3370 C.3   1 <1>  -0.1600 
 22 O       -5.4100    -4.5930     2.1110 O.3   1 <1>  -0.6800 
 23 O       -4.8190    -6.3960    -1.7380 O.3   1 <1>  -0.6800 
 24 C       -2.1930    -4.2060     0.9950 C.3   1 <1>  -0.1600 
 25 C       -0.8890    -4.9470     1.3000 C.3   1 <1>  -0.2400 
 26 H       -1.5990     2.0370     1.2040 H     1 <1>   0.1500 
 27 H       -3.4080     0.5880    -3.1230 H     1 <1>   0.1500 
 28 H       -3.0570     2.9720    -2.6930 H     1 <1>   0.1500 
 29 H       -2.0390     4.6250    -1.3470 H     1 <1>   0.3700 
 30 H       -5.2590    -3.4930    -1.9160 H     1 <1>   0.0800 
 31 H       -3.5880    -3.9380    -1.9780 H     1 <1>   0.0800 
 32 H       -4.7190    -0.5480     0.3060 H     1 <1>   0.0800 
 33 H       -5.9640    -1.5110    -0.4360 H     1 <1>   0.0800 
 34 H       -5.8310    -2.0060     1.9420 H     1 <1>   0.0800 
 35 H       -4.1370    -2.3440     1.8130 H     1 <1>   0.0800 
 36 H       -0.9230     6.4440     0.0720 H     1 <1>   0.0800 
 37 H       -1.8310     6.7010     1.5410 H     1 <1>   0.0800 
 38 H       -2.6530     6.7410     0.0010 H     1 <1>   0.0800 
 39 H       -6.4590    -3.8430     0.6160 H     1 <1>   0.0800 
 40 H       -6.3880    -5.3740    -1.0360 H     1 <1>   0.0800 
 41 H       -5.6020    -6.4370     0.1010 H     1 <1>   0.0800 
 42 H       -3.4210    -5.9490     1.0220 H     1 <1>   0.0800 
 43 H       -2.7250    -5.5950    -0.5090 H     1 <1>   0.0800 
 44 H       -4.4830    -4.7000     2.4030 H     1 <1>   0.4000 
 45 H       -4.6210    -5.7980    -2.4830 H     1 <1>   0.4000 
 46 H       -1.9710    -3.3880     0.3340 H     1 <1>   0.0800 
 47 H       -2.5750    -3.8130     1.9170 H     1 <1>   0.0800 
 48 H       -0.4510    -5.3260     0.3920 H     1 <1>   0.0800 
 49 H       -1.0670    -5.7690     1.9700 H     1 <1>   0.0800 
 50 H       -0.1860    -4.2740     1.7590 H     1 <1>   0.0800 
@<TRIPOS>BOND
  1   1   2  1   
  2   2   3  ar  
  3   2   4  ar  
  4   3   5  1   
  5   3   6  ar  
  6   4   7  ar  
  7   4  26  1   
  8   5   8  2   
  9   5   9  am  
 10   6  10  ar  
 11   6  27  1   
 12   7  10  ar  
 13   7  11  1   
 14   9  12  1   
 15   9  13  1   
 16  10  28  1   
 17  11  14  am  
 18  11  29  1   
 19  12  15  1   
 20  12  30  1   
 21  12  31  1   
 22  13  16  1   
 23  13  32  1   
 24  13  33  1   
 25  14  17  2   
 26  14  18  1   
 27  15  19  1   
 28  15  20  1   
 29  15  21  1   
 30  16  19  1   
 31  16  34  1   
 32  16  35  1   
 33  18  36  1   
 34  18  37  1   
 35  18  38  1   
 36  19  22  1   
 37  19  39  1   
 38  20  23  1   
 39  20  40  1   
 40  20  41  1   
 41  21  24  1   
 42  21  42  1   
 43  21  43  1   
 44  22  44  1   
 45  23  45  1   
 46  24  25  1   
 47  24  46  1   
 48  24  47  1   
 49  25  48  1   
 50  25  49  1   
 51  25  50  1   
@<TRIPOS>SUBSTRUCTURE
  1 ****   5 GROUP 4 **** **** 0

# MOE 2024.06 (io_trps.svl 2023.06)
