@<TRIPOS>MOLECULE
NONAME
54 57 1 0 0 
SMALL
USER_CHARGES


@<TRIPOS>ATOM
  1 O       -0.3480    -0.6650     0.8450 O.3   1 <1>  -0.5600 
  2 C        0.4970     0.4430     0.8010 C.3   1 <1>   0.1200 
  3 C       -1.6880    -0.2820     0.9260 C.3   1 <1>   0.1200 
  4 C       -0.3670     1.5940     0.3060 C.3   1 <1>   0.2890 
  5 C       -1.7210     1.2490     0.9000 C.3   1 <1>  -0.0800 
  6 N        0.1040     2.9170     0.7840 N.pl3 1 <1>  -0.8690 
  7 C       -2.8950     1.8380     0.0950 C.3   1 <1>  -0.0170 
  8 C        0.8240     3.8510     0.1650 C.ar  1 <1>   0.4100 
  9 C       -4.3000     1.5350     0.6290 C.ar  1 <1>  -0.1430 
 10 N        1.0320     4.9490     0.8890 N.ar  1 <1>  -0.6200 
 11 C        1.3430     3.7290    -1.1290 C.ar  1 <1>  -0.1500 
 12 C       -5.4360     1.7680    -0.1870 C.ar  1 <1>   0.0000 
 13 C       -4.5330     1.0530     1.8880 C.ar  1 <1>  -0.1500 
 14 C        1.7310     5.9090     0.3610 C.ar  1 <1>   0.5280 
 15 C        2.0730     4.7550    -1.6530 C.ar  1 <1>   0.2180 
 16 C       -6.7110     1.4510     0.3420 C.ar  1 <1>   0.3100 
 17 C       -5.3850     2.3050    -1.4960 C.ar  1 <1>  -0.1500 
 18 C       -5.8380     0.7820     2.3160 C.ar  1 <1>   0.1600 
 19 N        2.2560     5.8470    -0.8820 N.ar  1 <1>  -0.1790 
 20 C        1.9710     7.1680     1.1840 C.3   1 <1>  -0.0170 
 21 C        2.6790     4.7170    -3.0460 C.3   1 <1>  -0.0970 
 22 N       -6.8950     0.9580     1.5910 N.ar  1 <1>  -0.6200 
 23 C       -7.8510     1.6570    -0.4510 C.ar  1 <1>  -0.1500 
 24 C       -6.5160     2.4980    -2.2420 C.ar  1 <1>  -0.1500 
 25 C        1.2060     8.3840     0.6320 C.3   1 <1>  -0.1600 
 26 C       -7.7660     2.1670    -1.7170 C.ar  1 <1>  -0.1500 
 27 C        1.4550     9.6290     1.4900 C.3   1 <1>  -0.2400 
 28 H        0.8510     0.6250     1.8000 H     1 <1>   0.0800 
 29 H        1.3180     0.2310     0.1400 H     1 <1>   0.0800 
 30 H       -2.1990    -0.7060     0.0780 H     1 <1>   0.0800 
 31 H       -2.1060    -0.6820     1.8340 H     1 <1>   0.0800 
 32 H       -0.4100     1.5620    -0.7690 H     1 <1>   0.0800 
 33 H       -1.7540     1.6030     1.9150 H     1 <1>   0.0800 
 34 H       -0.1760     3.1350     1.7460 H     1 <1>   0.4000 
 35 H       -2.8210     1.4540    -0.9080 H     1 <1>   0.0800 
 36 H       -2.7800     2.9070     0.0460 H     1 <1>   0.0800 
 37 H        1.1620     2.8300    -1.6860 H     1 <1>   0.1500 
 38 H       -3.7500     0.8640     2.5950 H     1 <1>   0.1500 
 39 H       -4.4390     2.5770    -1.9230 H     1 <1>   0.1500 
 40 H       -5.9700     0.3990     3.3140 H     1 <1>   0.1500 
 41 H        2.7930     6.6430    -1.2260 H     1 <1>   0.4570 
 42 H        1.6500     6.9850     2.1960 H     1 <1>   0.0800 
 43 H        3.0250     7.3780     1.2180 H     1 <1>   0.0800 
 44 H        2.4480     3.7850    -3.5320 H     1 <1>   0.0800 
 45 H        3.7490     4.8110    -2.9940 H     1 <1>   0.0800 
 46 H        2.2850     5.5160    -3.6500 H     1 <1>   0.0800 
 47 H       -8.8030     1.3990    -0.0240 H     1 <1>   0.1500 
 48 H       -6.4590     2.9050    -3.2370 H     1 <1>   0.1500 
 49 H        1.5040     8.5970    -0.3790 H     1 <1>   0.0800 
 50 H        0.1490     8.1700     0.6300 H     1 <1>   0.0800 
 51 H       -8.6490     2.3210    -2.3140 H     1 <1>   0.1500 
 52 H        2.4990     9.8890     1.5000 H     1 <1>   0.0800 
 53 H        1.1300     9.4640     2.5030 H     1 <1>   0.0800 
 54 H        0.9030    10.4650     1.0940 H     1 <1>   0.0800 
@<TRIPOS>BOND
  1   1   2  1   
  2   1   3  1   
  3   2   4  1   
  4   2  28  1   
  5   2  29  1   
  6   3   5  1   
  7   3  30  1   
  8   3  31  1   
  9   4   5  1   
 10   4   6  1   
 11   4  32  1   
 12   5   7  1   
 13   5  33  1   
 14   6   8  1   
 15   6  34  1   
 16   7   9  1   
 17   7  35  1   
 18   7  36  1   
 19   8  10  ar  
 20   8  11  ar  
 21   9  12  ar  
 22   9  13  ar  
 23  10  14  ar  
 24  11  15  ar  
 25  11  37  1   
 26  12  16  ar  
 27  12  17  ar  
 28  13  18  ar  
 29  13  38  1   
 30  14  19  ar  
 31  14  20  1   
 32  15  19  ar  
 33  15  21  1   
 34  16  22  ar  
 35  16  23  ar  
 36  17  24  ar  
 37  17  39  1   
 38  18  22  ar  
 39  18  40  1   
 40  19  41  1   
 41  20  25  1   
 42  20  42  1   
 43  20  43  1   
 44  21  44  1   
 45  21  45  1   
 46  21  46  1   
 47  23  26  ar  
 48  23  47  1   
 49  24  26  ar  
 50  24  48  1   
 51  25  27  1   
 52  25  49  1   
 53  25  50  1   
 54  26  51  1   
 55  27  52  1   
 56  27  53  1   
 57  27  54  1   
@<TRIPOS>SUBSTRUCTURE
  1 ****   7 GROUP 4 **** **** 0

# MOE 2024.06 (io_trps.svl 2023.06)
