@<TRIPOS>MOLECULE
NONAME
55 58 1 0 0 
SMALL
USER_CHARGES


@<TRIPOS>ATOM
  1 S       -1.5310    -0.9080     1.0040 S.3   1 <1>  -0.0800 
  2 C       -2.8860    -1.0260    -0.1110 C.2   1 <1>  -0.1400 
  3 C       -1.8620     0.7890     1.3020 C.2   1 <1>  -0.1100 
  4 C       -3.5100     0.1650    -0.2130 C.2   1 <1>  -0.1500 
  5 C       -3.1270    -2.3840    -0.7480 C.3   1 <1>   0.3800 
  6 C       -2.9280     1.1960     0.5910 C.2   1 <1>  -0.1500 
  7 O       -4.0200    -2.2160    -1.7910 O.3   1 <1>  -0.6800 
  8 C       -3.7000    -3.4120     0.2560 C.3   1 <1>  -0.0800 
  9 C       -3.8670    -4.8070    -0.3820 C.3   1 <1>  -0.1600 
 10 C       -5.0370    -2.9530     0.8780 C.3   1 <1>  -0.1600 
 11 C       -4.4720    -5.8160     0.5930 C.3   1 <1>   0.3430 
 12 C       -5.6230    -3.9990     1.8210 C.3   1 <1>   0.3430 
 13 N       -5.7650    -5.2840     1.0960 N.4   1 <1>  -0.9590 
 14 C       -6.5800    -6.2710     1.8480 C.3   1 <1>   0.4860 
 15 C       -6.7990    -7.5240     1.0100 C.ar  1 <1>  -0.1430 
 16 C       -7.6400    -7.5270    -0.1100 C.ar  1 <1>  -0.0230 
 17 C       -6.1380    -8.6880     1.3790 C.ar  1 <1>  -0.1500 
 18 N       -8.3530    -6.3660    -0.5290 N.pl3 1 <1>   0.5930 
 19 C       -7.7760    -8.7030    -0.8430 C.ar  1 <1>  -0.1500 
 20 C       -6.2930    -9.8480     0.6440 C.ar  1 <1>  -0.1500 
 21 N       -7.7170    -5.2350    -0.9330 N.2   1 <1>  -0.7070 
 22 C       -9.6970    -6.1620    -0.5250 C.2   1 <1>  -0.3320 
 23 C       -7.1110    -9.8550    -0.4700 C.ar  1 <1>  -0.1500 
 24 C       -8.6520    -4.3840    -1.2020 C.2   1 <1>   0.1080 
 25 C       -9.9160    -4.9040    -0.9590 C.2   1 <1>  -0.1500 
 26 C      -10.7290    -7.1970    -0.1020 C.3   1 <1>  -0.0600 
 27 C       -8.3710    -2.9910    -1.7210 C.3   1 <1>  -0.0590 
 28 H       -1.2140     1.3080     1.9870 H     1 <1>   0.1500 
 29 H       -4.3730     0.3710    -0.8240 H     1 <1>   0.1500 
 30 H       -2.2050    -2.7490    -1.1690 H     1 <1>   0.0800 
 31 H       -3.3380     2.1920     0.5940 H     1 <1>   0.1500 
 32 H       -3.6930    -1.4960    -2.3650 H     1 <1>   0.4000 
 33 H       -2.9820    -3.5050     1.0530 H     1 <1>   0.0800 
 34 H       -2.9100    -5.1720    -0.7120 H     1 <1>   0.0800 
 35 H       -4.5030    -4.7470    -1.2490 H     1 <1>   0.0800 
 36 H       -5.7540    -2.7460     0.1030 H     1 <1>   0.0800 
 37 H       -4.8880    -2.0400     1.4290 H     1 <1>   0.0800 
 38 H       -3.7970    -5.9860     1.4160 H     1 <1>   0.0800 
 39 H       -4.6300    -6.7510     0.0780 H     1 <1>   0.0800 
 40 H       -6.5870    -3.6610     2.1670 H     1 <1>   0.0800 
 41 H       -4.9750    -4.1250     2.6730 H     1 <1>   0.0800 
 42 H       -6.3240    -5.0790     0.2400 H     1 <1>   0.4500 
 43 H       -7.5370    -5.8390     2.0920 H     1 <1>   0.0800 
 44 H       -6.0820    -6.5320     2.7670 H     1 <1>   0.0800 
 45 H       -5.4950    -8.7100     2.2430 H     1 <1>   0.1500 
 46 H       -8.4070    -8.7180    -1.7160 H     1 <1>   0.1500 
 47 H       -5.7790   -10.7490     0.9350 H     1 <1>   0.1500 
 48 H       -7.2290   -10.7570    -1.0460 H     1 <1>   0.1500 
 49 H      -10.8510    -4.3880    -1.1000 H     1 <1>   0.1500 
 50 H      -10.5350    -7.5330     0.9020 H     1 <1>   0.0800 
 51 H      -10.7020    -8.0450    -0.7630 H     1 <1>   0.0800 
 52 H      -11.7170    -6.7730    -0.1350 H     1 <1>   0.0800 
 53 H       -7.4360    -2.9790    -2.2520 H     1 <1>   0.0800 
 54 H       -8.3170    -2.2990    -0.9020 H     1 <1>   0.0800 
 55 H       -9.1530    -2.6830    -2.3910 H     1 <1>   0.0800 
@<TRIPOS>BOND
  1   1   2  1   
  2   1   3  1   
  3   2   4  2   
  4   2   5  1   
  5   3   6  2   
  6   3  28  1   
  7   4   6  1   
  8   4  29  1   
  9   5   7  1   
 10   5   8  1   
 11   5  30  1   
 12   6  31  1   
 13   7  32  1   
 14   8   9  1   
 15   8  10  1   
 16   8  33  1   
 17   9  11  1   
 18   9  34  1   
 19   9  35  1   
 20  10  12  1   
 21  10  36  1   
 22  10  37  1   
 23  11  13  1   
 24  11  38  1   
 25  11  39  1   
 26  12  13  1   
 27  12  40  1   
 28  12  41  1   
 29  13  14  1   
 30  13  42  1   
 31  14  15  1   
 32  14  43  1   
 33  14  44  1   
 34  15  16  ar  
 35  15  17  ar  
 36  16  18  1   
 37  16  19  ar  
 38  17  20  ar  
 39  17  45  1   
 40  18  21  1   
 41  18  22  1   
 42  19  23  ar  
 43  19  46  1   
 44  20  23  ar  
 45  20  47  1   
 46  21  24  2   
 47  22  25  2   
 48  22  26  1   
 49  23  48  1   
 50  24  25  1   
 51  24  27  1   
 52  25  49  1   
 53  26  50  1   
 54  26  51  1   
 55  26  52  1   
 56  27  53  1   
 57  27  54  1   
 58  27  55  1   
@<TRIPOS>SUBSTRUCTURE
  1 ****  13 GROUP 4 **** **** 0

# MOE 2024.06 (io_trps.svl 2023.06)
