@<TRIPOS>MOLECULE
NONAME
46 49 1 0 0 
SMALL
USER_CHARGES


@<TRIPOS>ATOM
  1 S       -0.7800    -1.4610    -0.9720 S.3   1 <1>  -0.2420 
  2 C       -2.0600    -1.7460     0.2070 C.2   1 <1>   0.6510 
  3 C       -1.0110     0.2950    -0.8850 C.2   1 <1>  -0.0370 
  4 N       -2.4110    -2.9300     0.5970 N.2   1 <1>  -0.6210 
  5 N       -2.5900    -0.5460     0.5990 N.am  1 <1>  -0.2290 
  6 C       -1.9940     0.5750    -0.0180 C.2   1 <1>  -0.0410 
  7 C       -0.1100     1.1430    -1.7560 C.3   1 <1>  -0.1020 
  8 C       -3.4260    -2.9770     1.5160 C.2   1 <1>   0.0330 
  9 C       -3.6180    -0.5720     1.5080 C.2   1 <1>   0.6160 
 10 C       -4.0310    -1.8470     1.9710 C.2   1 <1>  -0.1360 
 11 C       -3.8320    -4.3730     1.9850 C.3   1 <1>   0.4810 
 12 O       -4.1500     0.4590     1.8870 O.2   1 <1>  -0.5700 
 13 N       -3.8650    -5.2770     0.8030 N.4   1 <1>  -0.9590 
 14 C       -5.0670    -5.0110    -0.0430 C.3   1 <1>   0.3430 
 15 C       -3.9090    -6.7130     1.2100 C.3   1 <1>   0.3430 
 16 C       -6.0520    -6.1350     0.2900 C.3   1 <1>   0.2000 
 17 C       -5.1380    -7.3350     0.5270 C.3   1 <1>  -0.0800 
 18 O       -6.6780    -5.8220     1.4930 O.3   1 <1>  -0.6800 
 19 C       -4.7880    -8.0480    -0.7960 C.3   1 <1>   0.0200 
 20 C       -3.8570    -9.2220    -0.5660 C.2   1 <1>  -0.0400 
 21 O       -2.5980    -9.0120    -0.2900 O.3   1 <1>  -0.0190 
 22 C       -4.0560   -10.5480    -0.5880 C.2   1 <1>  -0.1500 
 23 N       -1.9490   -10.1210    -0.1070 N.2   1 <1>  -0.4100 
 24 C       -2.8000   -11.0670    -0.2870 C.2   1 <1>   0.1080 
 25 C       -2.4690   -12.5400    -0.1820 C.3   1 <1>  -0.0590 
 26 H       -2.3600     1.5550     0.2450 H     1 <1>   0.1500 
 27 H       -0.2510     0.8850    -2.7910 H     1 <1>   0.0800 
 28 H        0.9190     0.9730    -1.4930 H     1 <1>   0.0800 
 29 H       -0.3360     2.1850    -1.6240 H     1 <1>   0.0800 
 30 H       -4.8320    -1.8500     2.6870 H     1 <1>   0.1500 
 31 H       -4.7940    -4.3520     2.4730 H     1 <1>   0.0800 
 32 H       -3.0950    -4.7260     2.6870 H     1 <1>   0.0800 
 33 H       -3.0060    -5.0400     0.2760 H     1 <1>   0.4500 
 34 H       -5.4990    -4.0420     0.1480 H     1 <1>   0.0800 
 35 H       -4.7930    -5.0760    -1.0830 H     1 <1>   0.0800 
 36 H       -2.9960    -7.2170     0.9430 H     1 <1>   0.0800 
 37 H       -4.0360    -6.7830     2.2780 H     1 <1>   0.0800 
 38 H       -6.8010    -6.2790    -0.4700 H     1 <1>   0.0800 
 39 H       -5.6000    -8.0550     1.1800 H     1 <1>   0.0800 
 40 H       -7.4380    -6.4190     1.6650 H     1 <1>   0.4000 
 41 H       -4.3220    -7.3740    -1.4950 H     1 <1>   0.0800 
 42 H       -5.6910    -8.4190    -1.2490 H     1 <1>   0.0800 
 43 H       -4.9480   -11.1160    -0.7830 H     1 <1>   0.1500 
 44 H       -2.6590   -13.0240    -1.1220 H     1 <1>   0.0800 
 45 H       -3.0710   -12.9970     0.5810 H     1 <1>   0.0800 
 46 H       -1.4320   -12.6670     0.0710 H     1 <1>   0.0800 
@<TRIPOS>BOND
  1   1   2  1   
  2   1   3  1   
  3   2   4  2   
  4   2   5  1   
  5   3   6  2   
  6   3   7  1   
  7   4   8  1   
  8   5   6  1   
  9   5   9  am  
 10   6  26  1   
 11   7  27  1   
 12   7  28  1   
 13   7  29  1   
 14   8  10  2   
 15   8  11  1   
 16   9  10  1   
 17   9  12  2   
 18  10  30  1   
 19  11  13  1   
 20  11  31  1   
 21  11  32  1   
 22  13  14  1   
 23  13  15  1   
 24  13  33  1   
 25  14  16  1   
 26  14  34  1   
 27  14  35  1   
 28  15  17  1   
 29  15  36  1   
 30  15  37  1   
 31  16  17  1   
 32  16  18  1   
 33  16  38  1   
 34  17  19  1   
 35  17  39  1   
 36  18  40  1   
 37  19  20  1   
 38  19  41  1   
 39  19  42  1   
 40  20  21  1   
 41  20  22  2   
 42  21  23  1   
 43  22  24  1   
 44  22  43  1   
 45  23  24  2   
 46  24  25  1   
 47  25  44  1   
 48  25  45  1   
 49  25  46  1   
@<TRIPOS>SUBSTRUCTURE
  1 ****  13 GROUP 4 **** **** 0

# MOE 2024.06 (io_trps.svl 2023.06)
