@<TRIPOS>MOLECULE
NONAME
64 66 1 0 0 
SMALL
USER_CHARGES


@<TRIPOS>ATOM
  1 O       -1.2890    -0.5900    -0.3180 O.2   1 <1>  -0.5700 
  2 C       -1.7400     0.5170    -0.5210 C.2   1 <1>   0.6900 
  3 N       -3.0850     0.7630    -0.5250 N.am  1 <1>  -0.6600 
  4 N       -0.8690     1.5130    -0.7190 N.am  1 <1>  -0.8000 
  5 C       -4.0380    -0.2790    -0.0400 C.3   1 <1>   0.1400 
  6 C       -3.7080     1.9220    -1.2210 C.3   1 <1>   0.1400 
  7 C       -5.1370     0.3550     0.8260 C.3   1 <1>  -0.0190 
  8 C       -4.7500     2.5790    -0.3090 C.3   1 <1>  -0.1600 
  9 C       -6.1010    -0.7070     1.3630 C.2   1 <1>   0.5690 
 10 C       -5.8090     1.5640     0.1440 C.3   1 <1>  -0.1600 
 11 O       -6.1840    -0.7890     2.5670 O.2   1 <1>  -0.5700 
 12 N       -6.8170    -1.5710     0.5680 N.am  1 <1>  -0.6600 
 13 C       -7.3310    -2.8490     1.1590 C.3   1 <1>   0.1400 
 14 C       -7.2160    -1.3790    -0.8570 C.3   1 <1>   0.1400 
 15 C       -8.8100    -2.7750     1.5670 C.3   1 <1>   0.1400 
 16 C       -8.5610    -0.6470    -0.9950 C.3   1 <1>  -0.1600 
 17 N       -9.6910    -2.3500     0.4320 N.am  1 <1>  -0.6600 
 18 C       -9.5810    -0.9000     0.1210 C.3   1 <1>   0.1400 
 19 C      -10.5450    -3.1480    -0.2950 C.2   1 <1>   0.5690 
 20 O      -11.1070    -2.7130    -1.2750 O.2   1 <1>  -0.5700 
 21 C      -10.8060    -4.6120     0.0950 C.3   1 <1>  -0.0190 
 22 C       -9.7230    -5.5430    -0.4810 C.3   1 <1>  -0.1600 
 23 C      -12.1990    -5.1070    -0.3440 C.3   1 <1>  -0.1600 
 24 C       -9.9550    -7.0030    -0.0690 C.3   1 <1>  -0.1600 
 25 C      -12.4410    -6.5670     0.0670 C.3   1 <1>  -0.1600 
 26 C      -11.3490    -7.5010    -0.4890 C.3   1 <1>  -0.0800 
 27 C      -11.5390    -8.9580    -0.0270 C.3   1 <1>  -0.1600 
 28 C      -12.8300    -9.6010    -0.5500 C.3   1 <1>  -0.2400 
 29 H        0.1140     1.2870    -0.5820 H     1 <1>   0.3700 
 30 H       -1.1450     2.4700    -0.5280 H     1 <1>   0.3700 
 31 H       -3.5140    -1.0120     0.5510 H     1 <1>   0.0800 
 32 H       -4.4530    -0.7830    -0.8910 H     1 <1>   0.0800 
 33 H       -4.1840     1.5680    -2.1200 H     1 <1>   0.0800 
 34 H       -2.9670     2.6470    -1.5060 H     1 <1>   0.0800 
 35 H       -4.6280     0.7430     1.6910 H     1 <1>   0.0800 
 36 H       -5.2260     3.3850    -0.8380 H     1 <1>   0.0800 
 37 H       -4.2520     2.9970     0.5480 H     1 <1>   0.0800 
 38 H       -6.4940     2.0310     0.8310 H     1 <1>   0.0800 
 39 H       -6.3600     1.2500    -0.7190 H     1 <1>   0.0800 
 40 H       -6.7500    -3.1000     2.0310 H     1 <1>   0.0800 
 41 H       -7.1930    -3.6480     0.4550 H     1 <1>   0.0800 
 42 H       -7.3100    -2.3470    -1.3210 H     1 <1>   0.0800 
 43 H       -6.4620    -0.8470    -1.4030 H     1 <1>   0.0800 
 44 H       -8.9090    -2.0740     2.3780 H     1 <1>   0.0800 
 45 H       -9.1040    -3.7340     1.9460 H     1 <1>   0.0800 
 46 H       -9.0060    -0.9310    -1.9320 H     1 <1>   0.0800 
 47 H       -8.3940     0.4100    -1.0500 H     1 <1>   0.0800 
 48 H      -10.5430    -0.5210    -0.1810 H     1 <1>   0.0800 
 49 H       -9.2850    -0.3630     1.0060 H     1 <1>   0.0800 
 50 H      -10.7910    -4.6800     1.1660 H     1 <1>   0.0800 
 51 H       -8.7520    -5.2310    -0.1430 H     1 <1>   0.0800 
 52 H       -9.7330    -5.4690    -1.5560 H     1 <1>   0.0800 
 53 H      -12.2880    -5.0260    -1.4150 H     1 <1>   0.0800 
 54 H      -12.9560    -4.4800     0.0920 H     1 <1>   0.0800 
 55 H       -9.8500    -7.0910     0.9990 H     1 <1>   0.0800 
 56 H       -9.2010    -7.6200    -0.5260 H     1 <1>   0.0800 
 57 H      -13.4050    -6.8660    -0.3030 H     1 <1>   0.0800 
 58 H      -12.4630    -6.6360     1.1410 H     1 <1>   0.0800 
 59 H      -11.4010    -7.4770    -1.5660 H     1 <1>   0.0800 
 60 H      -11.5310    -9.0030     1.0480 H     1 <1>   0.0800 
 61 H      -10.7080    -9.5450    -0.3820 H     1 <1>   0.0800 
 62 H      -13.6970    -9.1330    -0.1200 H     1 <1>   0.0800 
 63 H      -12.8500   -10.6440    -0.2860 H     1 <1>   0.0800 
 64 H      -12.8840    -9.5200    -1.6220 H     1 <1>   0.0800 
@<TRIPOS>BOND
  1   1   2  2   
  2   2   3  am  
  3   2   4  am  
  4   3   5  1   
  5   3   6  1   
  6   4  29  1   
  7   4  30  1   
  8   5   7  1   
  9   5  31  1   
 10   5  32  1   
 11   6   8  1   
 12   6  33  1   
 13   6  34  1   
 14   7   9  1   
 15   7  10  1   
 16   7  35  1   
 17   8  10  1   
 18   8  36  1   
 19   8  37  1   
 20   9  11  2   
 21   9  12  am  
 22  10  38  1   
 23  10  39  1   
 24  12  13  1   
 25  12  14  1   
 26  13  15  1   
 27  13  40  1   
 28  13  41  1   
 29  14  16  1   
 30  14  42  1   
 31  14  43  1   
 32  15  17  1   
 33  15  44  1   
 34  15  45  1   
 35  16  18  1   
 36  16  46  1   
 37  16  47  1   
 38  17  18  1   
 39  17  19  am  
 40  18  48  1   
 41  18  49  1   
 42  19  20  2   
 43  19  21  1   
 44  21  22  1   
 45  21  23  1   
 46  21  50  1   
 47  22  24  1   
 48  22  51  1   
 49  22  52  1   
 50  23  25  1   
 51  23  53  1   
 52  23  54  1   
 53  24  26  1   
 54  24  55  1   
 55  24  56  1   
 56  25  26  1   
 57  25  57  1   
 58  25  58  1   
 59  26  27  1   
 60  26  59  1   
 61  27  28  1   
 62  27  60  1   
 63  27  61  1   
 64  28  62  1   
 65  28  63  1   
 66  28  64  1   
@<TRIPOS>SUBSTRUCTURE
  1 ****  12 GROUP 4 **** **** 0

# MOE 2024.06 (io_trps.svl 2023.06)
