@<TRIPOS>MOLECULE
NONAME
36 38 1 0 0 
SMALL
USER_CHARGES


@<TRIPOS>ATOM
  1 CL      -0.1380     0.2590    -1.1380 Cl    1 <1>  -0.1770 
  2 C       -0.2750     1.8130    -0.3670 C.ar  1 <1>   0.4870 
  3 N        0.8250     2.3750     0.0080 N.ar  1 <1>  -0.6200 
  4 C       -1.5570     2.3630    -0.1970 C.ar  1 <1>   0.0000 
  5 C        0.6840     3.5710     0.6000 C.ar  1 <1>   0.4700 
  6 C       -1.5740     3.6150     0.4320 C.ar  1 <1>   0.3100 
  7 C       -2.7790     1.7780    -0.5890 C.ar  1 <1>  -0.1500 
  8 N       -0.4240     4.2030     0.8250 N.ar  1 <1>  -0.6200 
  9 C       -2.7980     4.2580     0.6460 C.ar  1 <1>  -0.1500 
 10 C       -3.9710     2.4140    -0.3620 C.ar  1 <1>   0.0830 
 11 C       -3.9800     3.6890     0.2490 C.ar  1 <1>   0.0830 
 12 O       -5.1080     1.7900    -0.7490 O.3   1 <1>  -0.3630 
 13 O       -5.1270     4.3670     0.4630 O.3   1 <1>  -0.3620 
 14 C       -6.0380     1.4440     0.2600 C.3   1 <1>   0.1200 
 15 C       -5.7490     4.9570    -0.6610 C.3   1 <1>   0.1200 
 16 C       -7.3560     1.0280    -0.3920 C.3   1 <1>   0.1200 
 17 C       -7.2390     5.1710    -0.3760 C.3   1 <1>   0.1200 
 18 O       -8.3790     1.1400     0.5590 O.3   1 <1>  -0.5600 
 19 O       -7.9110     3.9530    -0.4920 O.3   1 <1>  -0.5600 
 20 C       -9.2990     2.1830     0.3670 C.3   1 <1>   0.1200 
 21 C       -8.6910     3.5790     0.6040 C.3   1 <1>   0.1200 
 22 H        1.6020     4.0410     0.9140 H     1 <1>   0.1500 
 23 H       -2.7810     0.8160    -1.0700 H     1 <1>   0.1500 
 24 H       -2.7920     5.2180     1.1280 H     1 <1>   0.1500 
 25 H       -6.2010     2.2920     0.8950 H     1 <1>   0.0800 
 26 H       -5.6280     0.6350     0.8360 H     1 <1>   0.0800 
 27 H       -5.6250     4.3200    -1.5200 H     1 <1>   0.0800 
 28 H       -5.2620     5.8980    -0.8410 H     1 <1>   0.0800 
 29 H       -7.3050     0.0000    -0.7000 H     1 <1>   0.0800 
 30 H       -7.5770     1.6440    -1.2460 H     1 <1>   0.0800 
 31 H       -7.6590     5.8340    -1.1110 H     1 <1>   0.0800 
 32 H       -7.3770     5.5970     0.6030 H     1 <1>   0.0800 
 33 H      -10.0880     2.0250     1.0790 H     1 <1>   0.0800 
 34 H       -9.7180     2.1100    -0.6220 H     1 <1>   0.0800 
 35 H       -9.4790     4.3040     0.7080 H     1 <1>   0.0800 
 36 H       -8.0840     3.5740     1.4930 H     1 <1>   0.0800 
@<TRIPOS>BOND
  1   1   2  1   
  2   2   3  ar  
  3   2   4  ar  
  4   3   5  ar  
  5   4   6  ar  
  6   4   7  ar  
  7   5   8  ar  
  8   5  22  1   
  9   6   8  ar  
 10   6   9  ar  
 11   7  10  ar  
 12   7  23  1   
 13   9  11  ar  
 14   9  24  1   
 15  10  11  ar  
 16  10  12  1   
 17  11  13  1   
 18  12  14  1   
 19  13  15  1   
 20  14  16  1   
 21  14  25  1   
 22  14  26  1   
 23  15  17  1   
 24  15  27  1   
 25  15  28  1   
 26  16  18  1   
 27  16  29  1   
 28  16  30  1   
 29  17  19  1   
 30  17  31  1   
 31  17  32  1   
 32  18  20  1   
 33  19  21  1   
 34  20  21  1   
 35  20  33  1   
 36  20  34  1   
 37  21  35  1   
 38  21  36  1   
@<TRIPOS>SUBSTRUCTURE
  1 ****  10 GROUP 4 **** **** 0

# MOE 2024.06 (io_trps.svl 2023.06)
