@<TRIPOS>MOLECULE
NONAME
53 55 1 0 0 
SMALL
USER_CHARGES


@<TRIPOS>ATOM
  1 O       -0.0850     0.7450     1.3390 O.2   1 <1>  -0.5700 
  2 C       -0.0280     1.7660     0.7020 C.2   1 <1>   0.5690 
  3 N       -0.6580     2.8820     1.1340 N.am  1 <1>  -0.7300 
  4 C        0.7440     1.8040    -0.6230 C.3   1 <1>   0.1810 
  5 C       -0.5880     4.1800     0.4230 C.3   1 <1>   0.3640 
  6 O        1.0500     3.1170    -1.0480 O.3   1 <1>  -0.5600 
  7 C       -1.9540     4.8530     0.4490 C.ar  1 <1>  -0.1440 
  8 C       -0.0590     4.0050    -1.0190 C.3   1 <1>   0.2610 
  9 C       -2.0360     6.2060     0.7420 C.ar  1 <1>  -0.1500 
 10 C       -3.1220     4.1560     0.1750 C.ar  1 <1>  -0.1500 
 11 C        0.2500     5.3730    -1.6430 C.2   1 <1>   0.5690 
 12 C       -3.2530     6.8630     0.7630 C.ar  1 <1>   0.0830 
 13 C       -4.3480     4.7980     0.2020 C.ar  1 <1>  -0.1500 
 14 O       -0.4540     5.7020    -2.5720 O.2   1 <1>  -0.5700 
 15 N        1.2380     6.2150    -1.1720 N.am  1 <1>  -0.6600 
 16 O       -3.1990     8.1910     1.0500 O.3   1 <1>  -0.3620 
 17 C       -4.4350     6.1550     0.5030 C.ar  1 <1>   0.0830 
 18 C        1.3690     7.6020    -1.7010 C.3   1 <1>   0.1400 
 19 C        2.3260     5.8390    -0.2250 C.3   1 <1>   0.1400 
 20 C       -3.9020     9.0950     0.2260 C.3   1 <1>   0.0400 
 21 O       -5.6330     6.8050     0.5680 O.3   1 <1>  -0.3630 
 22 C        1.3790     8.5990    -0.5380 C.3   1 <1>  -0.1600 
 23 C        2.3400     6.8140     0.9570 C.3   1 <1>  -0.1600 
 24 C       -6.8600     6.1230     0.4290 C.3   1 <1>   0.0400 
 25 C        2.4800     8.2730     0.4890 C.3   1 <1>  -0.0800 
 26 C        2.4340     9.2240     1.6960 C.3   1 <1>   0.1200 
 27 O        2.6670    10.5230     1.2790 O.3   1 <1>  -0.6800 
 28 H       -1.1790     2.8530     2.0120 H     1 <1>   0.3700 
 29 H        0.1610     1.3280    -1.3900 H     1 <1>   0.0800 
 30 H        1.6710     1.2720    -0.5120 H     1 <1>   0.0800 
 31 H        0.0980     4.8030     0.9660 H     1 <1>   0.0800 
 32 H       -0.8360     3.5580    -1.6140 H     1 <1>   0.0800 
 33 H       -1.1500     6.7790     0.9500 H     1 <1>   0.1500 
 34 H       -3.0850     3.1060    -0.0620 H     1 <1>   0.1500 
 35 H       -5.2240     4.2170    -0.0130 H     1 <1>   0.1500 
 36 H        2.2840     7.6800    -2.2620 H     1 <1>   0.0800 
 37 H        0.5540     7.8410    -2.3630 H     1 <1>   0.0800 
 38 H        2.2080     4.8360     0.1400 H     1 <1>   0.0800 
 39 H        3.2670     5.8850    -0.7460 H     1 <1>   0.0800 
 40 H       -3.4330    10.0580     0.3090 H     1 <1>   0.0800 
 41 H       -4.9200     9.1570     0.5660 H     1 <1>   0.0800 
 42 H       -3.8610     8.7500    -0.7920 H     1 <1>   0.0800 
 43 H        1.5280     9.5880    -0.9340 H     1 <1>   0.0800 
 44 H        0.4130     8.5860    -0.0630 H     1 <1>   0.0800 
 45 H        1.4320     6.6970     1.5210 H     1 <1>   0.0800 
 46 H        3.1620     6.5620     1.6040 H     1 <1>   0.0800 
 47 H       -7.6540     6.8350     0.5640 H     1 <1>   0.0800 
 48 H       -6.9220     5.3600     1.1840 H     1 <1>   0.0800 
 49 H       -6.9140     5.6990    -0.5580 H     1 <1>   0.0800 
 50 H        3.4410     8.3750     0.0140 H     1 <1>   0.0800 
 51 H        3.1870     8.9670     2.4210 H     1 <1>   0.0800 
 52 H        1.4660     9.1970     2.1690 H     1 <1>   0.0800 
 53 H        3.5420    10.5960     0.8530 H     1 <1>   0.4000 
@<TRIPOS>BOND
  1   1   2  2   
  2   2   3  am  
  3   2   4  1   
  4   3   5  1   
  5   3  28  1   
  6   4   6  1   
  7   4  29  1   
  8   4  30  1   
  9   5   7  1   
 10   5   8  1   
 11   5  31  1   
 12   6   8  1   
 13   7   9  ar  
 14   7  10  ar  
 15   8  11  1   
 16   8  32  1   
 17   9  12  ar  
 18   9  33  1   
 19  10  13  ar  
 20  10  34  1   
 21  11  14  2   
 22  11  15  am  
 23  12  16  1   
 24  12  17  ar  
 25  13  17  ar  
 26  13  35  1   
 27  15  18  1   
 28  15  19  1   
 29  16  20  1   
 30  17  21  1   
 31  18  22  1   
 32  18  36  1   
 33  18  37  1   
 34  19  23  1   
 35  19  38  1   
 36  19  39  1   
 37  20  40  1   
 38  20  41  1   
 39  20  42  1   
 40  21  24  1   
 41  22  25  1   
 42  22  43  1   
 43  22  44  1   
 44  23  25  1   
 45  23  45  1   
 46  23  46  1   
 47  24  47  1   
 48  24  48  1   
 49  24  49  1   
 50  25  26  1   
 51  25  50  1   
 52  26  27  1   
 53  26  51  1   
 54  26  52  1   
 55  27  53  1   
@<TRIPOS>SUBSTRUCTURE
  1 ****   9 GROUP 4 **** **** 0

# MOE 2024.06 (io_trps.svl 2023.06)
