@<TRIPOS>MOLECULE
NONAME
47 49 1 0 0 
SMALL
USER_CHARGES


@<TRIPOS>ATOM
  1 F       -2.5230    -0.3400    -1.2150 F     1 <1>  -0.1900 
  2 C       -2.0370     0.4790    -0.3170 C.ar  1 <1>   0.1900 
  3 C       -1.4550     1.6650    -0.7540 C.ar  1 <1>   0.0830 
  4 C       -2.1290     0.1090     1.0250 C.ar  1 <1>   0.0860 
  5 O       -1.4510     1.9080    -2.1020 O.3   1 <1>  -0.3630 
  6 C       -0.9320     2.5010     0.2370 C.ar  1 <1>   0.1900 
  7 C       -2.7620    -1.1190     1.4490 C.2   1 <1>   0.5440 
  8 C       -1.5740     0.9780     1.9660 C.ar  1 <1>  -0.1500 
  9 C       -0.6460     2.9000    -2.7020 C.3   1 <1>   0.0400 
 10 F       -0.3770     3.6480    -0.0510 F     1 <1>  -0.1900 
 11 C       -0.9810     2.1670     1.5800 C.ar  1 <1>  -0.1500 
 12 O       -2.0690    -1.9740     1.9680 O.2   1 <1>  -0.5700 
 13 N       -4.1220    -1.3370     1.3340 N.am  1 <1>  -0.6600 
 14 C       -5.0800    -0.2420     0.9900 C.3   1 <1>   0.2200 
 15 C       -4.6740    -2.6890     1.6640 C.3   1 <1>   0.0600 
 16 C       -5.7790    -0.4540    -0.3500 C.3   1 <1>  -0.1600 
 17 C       -6.2200    -0.0830     1.9930 C.3   1 <1>  -0.1600 
 18 C       -7.0190     0.4470    -0.2840 C.3   1 <1>  -0.0800 
 19 C       -7.3050     0.6770     1.2190 C.3   1 <1>  -0.0800 
 20 C       -8.2040    -0.1100    -1.0970 C.3   1 <1>   0.1400 
 21 C       -8.7340     0.2920     1.6440 C.3   1 <1>  -0.0990 
 22 N       -9.4600     0.5730    -0.6970 N.am  1 <1>  -0.6600 
 23 C       -9.7420     0.7830     0.6250 C.2   1 <1>   0.5690 
 24 C      -10.3870     0.9720    -1.7900 C.3   1 <1>   0.0600 
 25 O      -10.7460     1.3310     1.0120 O.2   1 <1>  -0.5700 
 26 H       -1.6110     0.7060     3.0080 H     1 <1>   0.1500 
 27 H       -0.7040     2.7750    -3.7680 H     1 <1>   0.0800 
 28 H        0.3710     2.7740    -2.3750 H     1 <1>   0.0800 
 29 H       -1.0230     3.8700    -2.4310 H     1 <1>   0.0800 
 30 H       -0.5590     2.8340     2.3110 H     1 <1>   0.1500 
 31 H       -4.5650     0.7010     0.9450 H     1 <1>   0.0800 
 32 H       -5.5900    -2.8750     1.1360 H     1 <1>   0.0800 
 33 H       -4.8550    -2.7530     2.7220 H     1 <1>   0.0800 
 34 H       -3.9660    -3.4530     1.3910 H     1 <1>   0.0800 
 35 H       -5.1440    -0.1830    -1.1730 H     1 <1>   0.0800 
 36 H       -6.0760    -1.4810    -0.4560 H     1 <1>   0.0800 
 37 H       -6.6000    -1.0420     2.2920 H     1 <1>   0.0800 
 38 H       -5.9020     0.4610     2.8640 H     1 <1>   0.0800 
 39 H       -6.7570     1.4000    -0.7120 H     1 <1>   0.0800 
 40 H       -7.1820     1.7310     1.4080 H     1 <1>   0.0800 
 41 H       -8.3200    -1.1640    -0.9120 H     1 <1>   0.0800 
 42 H       -8.0200     0.0320    -2.1480 H     1 <1>   0.0800 
 43 H       -8.9600     0.7130     2.6060 H     1 <1>   0.0800 
 44 H       -8.8360    -0.7750     1.7100 H     1 <1>   0.0800 
 45 H       -9.9000     1.6780    -2.4390 H     1 <1>   0.0800 
 46 H      -11.2720     1.4330    -1.3840 H     1 <1>   0.0800 
 47 H      -10.6780     0.1060    -2.3560 H     1 <1>   0.0800 
@<TRIPOS>BOND
  1   1   2  1   
  2   2   3  ar  
  3   2   4  ar  
  4   3   5  1   
  5   3   6  ar  
  6   4   7  1   
  7   4   8  ar  
  8   5   9  1   
  9   6  10  1   
 10   6  11  ar  
 11   7  12  2   
 12   7  13  am  
 13   8  11  ar  
 14   8  26  1   
 15   9  27  1   
 16   9  28  1   
 17   9  29  1   
 18  11  30  1   
 19  13  14  1   
 20  13  15  1   
 21  14  16  1   
 22  14  17  1   
 23  14  31  1   
 24  15  32  1   
 25  15  33  1   
 26  15  34  1   
 27  16  18  1   
 28  16  35  1   
 29  16  36  1   
 30  17  19  1   
 31  17  37  1   
 32  17  38  1   
 33  18  19  1   
 34  18  20  1   
 35  18  39  1   
 36  19  21  1   
 37  19  40  1   
 38  20  22  1   
 39  20  41  1   
 40  20  42  1   
 41  21  23  1   
 42  21  43  1   
 43  21  44  1   
 44  22  23  am  
 45  22  24  1   
 46  23  25  2   
 47  24  45  1   
 48  24  46  1   
 49  24  47  1   
@<TRIPOS>SUBSTRUCTURE
  1 ****  14 GROUP 4 **** **** 0

# MOE 2024.06 (io_trps.svl 2023.06)
