@<TRIPOS>MOLECULE
NONAME
45 46 1 0 0 
SMALL
USER_CHARGES


@<TRIPOS>ATOM
  1 S        0.8820     0.0330     0.3850 S.o2  1 <1>   1.3330 
  2 O        0.9500    -0.0020     1.8260 O.2   1 <1>  -0.6500 
  3 O        2.0580     0.4170    -0.3660 O.2   1 <1>  -0.6500 
  4 N        0.2790    -1.4340    -0.2060 N.am  1 <1>  -0.8490 
  5 C       -0.3710     1.2290    -0.0690 C.3   1 <1>  -0.0550 
  6 C       -0.6510    -2.0960     0.7170 C.3   1 <1>   0.1160 
  7 C        1.3460    -2.3670    -0.5840 C.3   1 <1>   0.1160 
  8 C       -0.0590     2.6370     0.4780 C.3   1 <1>  -0.0800 
  9 C       -1.0130     3.7090    -0.0560 C.3   1 <1>   0.2000 
 10 C        1.3370     3.1510     0.1150 C.3   1 <1>   0.3430 
 11 O       -1.9560     4.0080     0.9140 O.3   1 <1>  -0.6800 
 12 C       -0.1460     4.9350    -0.3800 C.3   1 <1>   0.3430 
 13 N        1.2200     4.6280     0.1440 N.4   1 <1>  -0.9590 
 14 C        2.3230     5.3220    -0.5780 C.3   1 <1>   0.5230 
 15 C        2.2950     6.7860    -0.2130 C.2   1 <1>  -0.1400 
 16 S        1.2000     7.8300    -1.0810 S.3   1 <1>  -0.0800 
 17 C        2.9760     7.5250     0.6780 C.2   1 <1>   0.0460 
 18 C        1.7720     9.1780    -0.1270 C.2   1 <1>   0.1980 
 19 N        2.6640     8.8690     0.7230 N.2   1 <1>  -0.5650 
 20 C        4.0490     7.0700     1.6460 C.3   1 <1>  -0.0590 
 21 C        1.1680    10.5370    -0.3970 C.3   1 <1>  -0.0600 
 22 H       -0.4470     1.2590    -1.1400 H     1 <1>   0.0800 
 23 H       -1.3220     0.9120     0.3160 H     1 <1>   0.0800 
 24 H       -1.0640    -2.9780     0.2570 H     1 <1>   0.0800 
 25 H       -1.4620    -1.4350     0.9680 H     1 <1>   0.0800 
 26 H       -0.1440    -2.3810     1.6250 H     1 <1>   0.0800 
 27 H        0.9250    -3.2760    -0.9810 H     1 <1>   0.0800 
 28 H        1.9580    -2.6060     0.2710 H     1 <1>   0.0800 
 29 H        1.9710    -1.9280    -1.3450 H     1 <1>   0.0800 
 30 H       -0.1070     2.5980     1.5540 H     1 <1>   0.0800 
 31 H       -1.5430     3.3940    -0.9400 H     1 <1>   0.0800 
 32 H        1.5960     2.8210    -0.8800 H     1 <1>   0.0800 
 33 H        2.0840     2.7920     0.8070 H     1 <1>   0.0800 
 34 H       -1.5730     4.1280     1.8060 H     1 <1>   0.4000 
 35 H       -0.5520     5.8300     0.0640 H     1 <1>   0.0800 
 36 H       -0.1040     5.0590    -1.4500 H     1 <1>   0.0800 
 37 H        1.2580     4.9520     1.1210 H     1 <1>   0.4500 
 38 H        3.2700     4.9070    -0.2730 H     1 <1>   0.0800 
 39 H        2.2240     5.2000    -1.6440 H     1 <1>   0.0800 
 40 H        4.2380     6.0170     1.5600 H     1 <1>   0.0800 
 41 H        3.7430     7.2910     2.6530 H     1 <1>   0.0800 
 42 H        4.9600     7.6050     1.4450 H     1 <1>   0.0800 
 43 H        1.6120    11.2660     0.2570 H     1 <1>   0.0800 
 44 H        0.1090    10.5110    -0.2220 H     1 <1>   0.0800 
 45 H        1.3540    10.8240    -1.4150 H     1 <1>   0.0800 
@<TRIPOS>BOND
  1   1   2  2   
  2   1   3  2   
  3   1   4  am  
  4   1   5  1   
  5   4   6  1   
  6   4   7  1   
  7   5   8  1   
  8   5  22  1   
  9   5  23  1   
 10   6  24  1   
 11   6  25  1   
 12   6  26  1   
 13   7  27  1   
 14   7  28  1   
 15   7  29  1   
 16   8   9  1   
 17   8  10  1   
 18   8  30  1   
 19   9  11  1   
 20   9  12  1   
 21   9  31  1   
 22  10  13  1   
 23  10  32  1   
 24  10  33  1   
 25  11  34  1   
 26  12  13  1   
 27  12  35  1   
 28  12  36  1   
 29  13  14  1   
 30  13  37  1   
 31  14  15  1   
 32  14  38  1   
 33  14  39  1   
 34  15  16  1   
 35  15  17  2   
 36  16  18  1   
 37  17  19  1   
 38  17  20  1   
 39  18  19  2   
 40  18  21  1   
 41  20  40  1   
 42  20  41  1   
 43  20  42  1   
 44  21  43  1   
 45  21  44  1   
 46  21  45  1   
@<TRIPOS>SUBSTRUCTURE
  1 ****  13 GROUP 4 **** **** 0

# MOE 2024.06 (io_trps.svl 2023.06)
