@<TRIPOS>MOLECULE
NONAME
35 36 1 0 0 
SMALL
USER_CHARGES


@<TRIPOS>ATOM
  1 F       -1.1740     0.2330    -1.2880 F     1 <1>  -0.3400 
  2 C       -1.8360     0.4090    -0.1490 C.3   1 <1>   1.0200 
  3 F       -0.9630     0.9290     0.7090 F     1 <1>  -0.3400 
  4 F       -2.1080    -0.8080     0.3080 F     1 <1>  -0.3400 
  5 C       -3.1280     1.2650    -0.3370 C.3   1 <1>   0.1900 
  6 N       -2.9870     2.6990    -0.8100 N.3   1 <1>  -0.9000 
  7 C       -3.9120     1.4200     0.9790 C.3   1 <1>   0.2200 
  8 C       -3.7370     3.4890     0.1900 C.3   1 <1>   0.1900 
  9 N       -5.3020     1.7830     0.5980 N.am  1 <1>  -0.6600 
 10 C       -3.3980     2.7600     1.4760 C.3   1 <1>  -0.1600 
 11 C       -5.2430     3.1740     0.0750 C.3   1 <1>   0.1400 
 12 C       -6.2770     0.8750     0.3240 C.2   1 <1>   0.7800 
 13 O       -6.1020    -0.3130     0.5030 O.2   1 <1>  -0.5700 
 14 O       -7.4180     1.3550    -0.1720 O.3   1 <1>  -0.4300 
 15 C       -8.5650     0.6180    -0.5360 C.3   1 <1>   0.2800 
 16 C       -9.1430    -0.1020     0.6880 C.3   1 <1>  -0.2400 
 17 C       -9.5700     1.6600    -1.0280 C.3   1 <1>  -0.2400 
 18 C       -8.2340    -0.3470    -1.6810 C.3   1 <1>  -0.2400 
 19 H       -3.7390     0.7230    -1.0360 H     1 <1>   0.0800 
 20 H       -3.4410     2.8000    -1.7260 H     1 <1>   0.3600 
 21 H       -3.8620     0.5940     1.6700 H     1 <1>   0.0800 
 22 H       -3.4930     4.5380     0.1670 H     1 <1>   0.0800 
 23 H       -2.3460     2.7810     1.6930 H     1 <1>   0.0800 
 24 H       -3.9520     3.1200     2.3260 H     1 <1>   0.0800 
 25 H       -5.5960     3.2370    -0.9390 H     1 <1>   0.0800 
 26 H       -5.8220     3.8220     0.7100 H     1 <1>   0.0800 
 27 H       -9.2920     0.5920     1.4950 H     1 <1>   0.0800 
 28 H       -8.4930    -0.8920     1.0180 H     1 <1>   0.0800 
 29 H      -10.0900    -0.5460     0.4400 H     1 <1>   0.0800 
 30 H       -9.7950     2.3600    -0.2450 H     1 <1>   0.0800 
 31 H      -10.4860     1.1830    -1.3290 H     1 <1>   0.0800 
 32 H       -9.1720     2.1920    -1.8730 H     1 <1>   0.0800 
 33 H       -7.5840    -1.1350    -1.3490 H     1 <1>   0.0800 
 34 H       -7.7680     0.1810    -2.4930 H     1 <1>   0.0800 
 35 H       -9.1360    -0.8050    -2.0450 H     1 <1>   0.0800 
@<TRIPOS>BOND
  1   1   2  1   
  2   2   3  1   
  3   2   4  1   
  4   2   5  1   
  5   5   6  1   
  6   5   7  1   
  7   5  19  1   
  8   6   8  1   
  9   6  20  1   
 10   7   9  1   
 11   7  10  1   
 12   7  21  1   
 13   8  10  1   
 14   8  11  1   
 15   8  22  1   
 16   9  11  1   
 17   9  12  am  
 18  10  23  1   
 19  10  24  1   
 20  11  25  1   
 21  11  26  1   
 22  12  13  2   
 23  12  14  1   
 24  14  15  1   
 25  15  16  1   
 26  15  17  1   
 27  15  18  1   
 28  16  27  1   
 29  16  28  1   
 30  16  29  1   
 31  17  30  1   
 32  17  31  1   
 33  17  32  1   
 34  18  33  1   
 35  18  34  1   
 36  18  35  1   
@<TRIPOS>SUBSTRUCTURE
  1 ****   9 GROUP 4 **** **** 0

# MOE 2024.06 (io_trps.svl 2023.06)
