@<TRIPOS>MOLECULE
NONAME
43 46 1 0 0 
SMALL
USER_CHARGES


@<TRIPOS>ATOM
  1 S        0.0350    -0.6970     2.3480 S.3   1 <1>  -0.0800 
  2 C       -0.5190     0.7230     1.4300 C.2   1 <1>  -0.0450 
  3 C       -1.0550    -1.7830     1.4990 C.2   1 <1>  -0.1100 
  4 C       -1.4720     0.3110     0.5490 C.2   1 <1>   0.0620 
  5 C        0.0700     1.9960     1.7350 C.2   1 <1>   0.7150 
  6 C       -1.7740    -1.0900     0.5990 C.2   1 <1>   0.0620 
  7 O       -2.1280     1.1200    -0.3150 O.3   1 <1>  -0.3420 
  8 O        0.4340     2.2470     2.8720 O.2   1 <1>  -0.5700 
  9 N        0.2820     2.9820     0.7850 N.am  1 <1>  -0.6600 
 10 O       -2.7240    -1.6310    -0.2060 O.3   1 <1>  -0.3420 
 11 C       -2.9620     0.5170    -1.2920 C.3   1 <1>   0.1200 
 12 C        0.3830     4.4160     1.2080 C.3   1 <1>   0.1400 
 13 C        0.4820     2.6640    -0.6510 C.3   1 <1>   0.1400 
 14 C       -3.6740    -0.7190    -0.7210 C.3   1 <1>   0.1200 
 15 C        1.8090     5.0060     1.1080 C.3   1 <1>   0.4230 
 16 C        1.7900     3.2340    -1.2250 C.3   1 <1>  -0.0800 
 17 N        2.1360     5.5730    -0.2500 N.4   1 <1>  -0.9590 
 18 C        2.9320     4.0030     1.4780 C.3   1 <1>   0.1200 
 19 C        3.0600     2.6990    -0.5110 C.3   1 <1>   0.1200 
 20 C        1.6940     4.7590    -1.4240 C.3   1 <1>   0.3430 
 21 C        1.8020     7.0200    -0.3920 C.3   1 <1>   0.2630 
 22 O        3.6660     3.6370     0.3330 O.3   1 <1>  -0.5600 
 23 H       -1.0510    -2.8230     1.7650 H     1 <1>   0.1500 
 24 H       -3.6780     1.2500    -1.6150 H     1 <1>   0.0800 
 25 H       -2.3470     0.2330    -2.1280 H     1 <1>   0.0800 
 26 H       -0.3040     5.0110     0.6330 H     1 <1>   0.0800 
 27 H        0.0680     4.5000     2.2350 H     1 <1>   0.0800 
 28 H        0.5020     1.5950    -0.7830 H     1 <1>   0.0800 
 29 H       -0.3620     3.0350    -1.2090 H     1 <1>   0.0800 
 30 H       -4.2370    -1.2240    -1.4850 H     1 <1>   0.0800 
 31 H       -4.3370    -0.4370     0.0780 H     1 <1>   0.0800 
 32 H        1.8580     5.8060     1.8270 H     1 <1>   0.0800 
 33 H        1.8280     2.8230    -2.2180 H     1 <1>   0.0800 
 34 H        3.1670     5.4480    -0.2630 H     1 <1>   0.4500 
 35 H        2.5740     3.1210     1.9770 H     1 <1>   0.0800 
 36 H        3.6210     4.4870     2.1480 H     1 <1>   0.0800 
 37 H        3.7990     2.4390    -1.2500 H     1 <1>   0.0800 
 38 H        2.8460     1.8100     0.0600 H     1 <1>   0.0800 
 39 H        0.6750     5.0080    -1.6710 H     1 <1>   0.0800 
 40 H        2.3060     5.0270    -2.2700 H     1 <1>   0.0800 
 41 H        0.7340     7.1630    -0.3660 H     1 <1>   0.0800 
 42 H        2.1800     7.4000    -1.3270 H     1 <1>   0.0800 
 43 H        2.2470     7.5870     0.4110 H     1 <1>   0.0800 
@<TRIPOS>BOND
  1   1   2  1   
  2   1   3  1   
  3   2   4  2   
  4   2   5  1   
  5   3   6  2   
  6   3  23  1   
  7   4   6  1   
  8   4   7  1   
  9   5   8  2   
 10   5   9  am  
 11   6  10  1   
 12   7  11  1   
 13   9  12  1   
 14   9  13  1   
 15  10  14  1   
 16  11  14  1   
 17  11  24  1   
 18  11  25  1   
 19  12  15  1   
 20  12  26  1   
 21  12  27  1   
 22  13  16  1   
 23  13  28  1   
 24  13  29  1   
 25  14  30  1   
 26  14  31  1   
 27  15  17  1   
 28  15  18  1   
 29  15  32  1   
 30  16  19  1   
 31  16  20  1   
 32  16  33  1   
 33  17  20  1   
 34  17  21  1   
 35  17  34  1   
 36  18  22  1   
 37  18  35  1   
 38  18  36  1   
 39  19  22  1   
 40  19  37  1   
 41  19  38  1   
 42  20  39  1   
 43  20  40  1   
 44  21  41  1   
 45  21  42  1   
 46  21  43  1   
@<TRIPOS>SUBSTRUCTURE
  1 ****   9 GROUP 4 **** **** 0

# MOE 2024.06 (io_trps.svl 2023.06)
