@<TRIPOS>MOLECULE
NONAME
54 57 1 0 0 
SMALL
USER_CHARGES


@<TRIPOS>ATOM
  1 S        0.4040     0.5320    -1.8900 S.3   1 <1>  -0.0800 
  2 C        1.5940     1.5990    -1.1600 C.2   1 <1>  -0.1400 
  3 C        1.3540    -0.8860    -1.4840 C.2   1 <1>  -0.1100 
  4 C        2.6210     0.8800    -0.6610 C.2   1 <1>  -0.1500 
  5 C        1.2800     3.0810    -1.2140 C.3   1 <1>   0.3200 
  6 C        2.4830    -0.5330    -0.8450 C.2   1 <1>  -0.1500 
  7 N        2.1980     3.8170    -0.3170 N.am  1 <1>  -0.7300 
  8 C        2.7540     5.0120    -0.6130 C.2   1 <1>   0.5690 
  9 O        2.5140     5.5970    -1.6390 O.2   1 <1>  -0.5700 
 10 C        3.7110     5.6400     0.3750 C.3   1 <1>  -0.0990 
 11 C        4.0830     7.0480    -0.0960 C.3   1 <1>   0.3430 
 12 N        5.0000     7.7390     0.8630 N.4   1 <1>  -0.9590 
 13 C        5.0520     9.2050     0.5210 C.3   1 <1>   0.3430 
 14 C        6.3730     7.1490     0.8520 C.3   1 <1>   0.3430 
 15 C        5.9380    10.0060     1.4930 C.3   1 <1>   0.1000 
 16 C        7.2570     7.8720     1.8720 C.3   1 <1>  -0.1600 
 17 C        6.0300    11.4430     1.0080 C.2   1 <1>   0.0060 
 18 C        7.3390     9.3800     1.5900 C.3   1 <1>  -0.1600 
 19 N        5.6260    11.8240    -0.1530 N.2   1 <1>  -0.5650 
 20 N        6.5480    12.4490     1.7630 N.pl3 1 <1>   0.0330 
 21 C        5.8880    13.1640    -0.1890 C.ar  1 <1>   0.2270 
 22 C        6.4630    13.5660     1.0030 C.ar  1 <1>  -0.1520 
 23 C        5.6600    14.0960    -1.2070 C.ar  1 <1>  -0.1430 
 24 C        6.8290    14.8950     1.2240 C.ar  1 <1>  -0.1500 
 25 C        6.0200    15.4100    -0.9900 C.ar  1 <1>  -0.1500 
 26 C        5.0280    13.6510    -2.5150 C.3   1 <1>  -0.0970 
 27 C        6.6020    15.8080     0.2200 C.ar  1 <1>  -0.1500 
 28 H        0.9600    -1.8450    -1.7720 H     1 <1>   0.1500 
 29 H        3.4900     1.2780    -0.1690 H     1 <1>   0.1500 
 30 H        0.2670     3.2460    -0.8900 H     1 <1>   0.0800 
 31 H        1.3760     3.4350    -2.2270 H     1 <1>   0.0800 
 32 H        3.2370    -1.2140    -0.4900 H     1 <1>   0.1500 
 33 H        2.3870     3.3280     0.5590 H     1 <1>   0.3700 
 34 H        4.5810     5.0140     0.4330 H     1 <1>   0.0800 
 35 H        3.2290     5.6860     1.3340 H     1 <1>   0.0800 
 36 H        3.1730     7.6200    -0.2030 H     1 <1>   0.0800 
 37 H        4.5410     6.9910    -1.0710 H     1 <1>   0.0800 
 38 H        4.6120     7.6550     1.8100 H     1 <1>   0.4500 
 39 H        4.0600     9.6270     0.5300 H     1 <1>   0.0800 
 40 H        5.4460     9.3290    -0.4750 H     1 <1>   0.0800 
 41 H        6.8050     7.2500    -0.1310 H     1 <1>   0.0800 
 42 H        6.3310     6.1000     1.0980 H     1 <1>   0.0800 
 43 H        5.4680    10.0050     2.4610 H     1 <1>   0.0800 
 44 H        8.2480     7.4530     1.8300 H     1 <1>   0.0800 
 45 H        6.8780     7.6980     2.8640 H     1 <1>   0.0800 
 46 H        7.9070     9.8650     2.3660 H     1 <1>   0.0800 
 47 H        7.8590     9.5390     0.6590 H     1 <1>   0.0800 
 48 H        6.9360    12.4020     2.7090 H     1 <1>   0.2700 
 49 H        7.2750    15.1930     2.1560 H     1 <1>   0.1500 
 50 H        5.8580    16.1520    -1.7530 H     1 <1>   0.1500 
 51 H        5.6410    12.8950    -2.9740 H     1 <1>   0.0800 
 52 H        4.9280    14.4760    -3.1960 H     1 <1>   0.0800 
 53 H        4.0540    13.2380    -2.3250 H     1 <1>   0.0800 
 54 H        6.8710    16.8420     0.3550 H     1 <1>   0.1500 
@<TRIPOS>BOND
  1   1   2  1   
  2   1   3  1   
  3   2   4  2   
  4   2   5  1   
  5   3   6  2   
  6   3  28  1   
  7   4   6  1   
  8   4  29  1   
  9   5   7  1   
 10   5  30  1   
 11   5  31  1   
 12   6  32  1   
 13   7   8  am  
 14   7  33  1   
 15   8   9  2   
 16   8  10  1   
 17  10  11  1   
 18  10  34  1   
 19  10  35  1   
 20  11  12  1   
 21  11  36  1   
 22  11  37  1   
 23  12  13  1   
 24  12  14  1   
 25  12  38  1   
 26  13  15  1   
 27  13  39  1   
 28  13  40  1   
 29  14  16  1   
 30  14  41  1   
 31  14  42  1   
 32  15  17  1   
 33  15  18  1   
 34  15  43  1   
 35  16  18  1   
 36  16  44  1   
 37  16  45  1   
 38  17  19  2   
 39  17  20  1   
 40  18  46  1   
 41  18  47  1   
 42  19  21  1   
 43  20  22  1   
 44  20  48  1   
 45  21  22  ar  
 46  21  23  ar  
 47  22  24  ar  
 48  23  25  ar  
 49  23  26  1   
 50  24  27  ar  
 51  24  49  1   
 52  25  27  ar  
 53  25  50  1   
 54  26  51  1   
 55  26  52  1   
 56  26  53  1   
 57  27  54  1   
@<TRIPOS>SUBSTRUCTURE
  1 ****  12 GROUP 4 **** **** 0

# MOE 2024.06 (io_trps.svl 2023.06)
