@<TRIPOS>MOLECULE
NONAME
42 44 1 0 0 
SMALL
USER_CHARGES


@<TRIPOS>ATOM
  1 O       -1.0620     1.6240     0.1090 O.3   1 <1>  -0.5160 
  2 C        0.2530     1.9830    -0.2540 C.3   1 <1>   0.2580 
  3 C       -1.2700     0.8970    -1.1010 C.3   1 <1>   0.2580 
  4 C        1.2640     1.0650     0.4410 C.3   1 <1>  -0.1600 
  5 C        0.4790     3.4610     0.0590 C.3   1 <1>  -0.1600 
  6 C       -0.0880     1.6550    -1.7160 C.3   1 <1>   0.0000 
  7 C        2.6880     1.5150     0.1260 C.3   1 <1>   0.3430 
  8 C        1.9190     3.8500    -0.2560 C.3   1 <1>   0.3430 
  9 N        2.8570     2.9520     0.4880 N.4   1 <1>  -0.9590 
 10 C        4.2630     3.3920     0.3290 C.3   1 <1>   0.5230 
 11 C        4.4250     4.7470     0.9790 C.2   1 <1>  -0.3320 
 12 N        5.3580     5.6580     0.6090 N.pl3 1 <1>   0.0480 
 13 C        3.7340     5.3050     2.0030 C.2   1 <1>   0.0770 
 14 C        5.1430     6.7110     1.4320 C.2   1 <1>   0.0360 
 15 C        6.4080     5.5750    -0.4460 C.3   1 <1>   0.1760 
 16 N        4.1790     6.5370     2.2740 N.2   1 <1>  -0.5650 
 17 C        7.8000     5.7510     0.1700 C.3   1 <1>  -0.2400 
 18 C        6.1520     6.6230    -1.5340 C.3   1 <1>  -0.2400 
 19 H       -2.2310     1.1360    -1.5200 H     1 <1>   0.0000 
 20 H       -1.0950    -0.1510    -0.9340 H     1 <1>   0.0000 
 21 H        1.1360     0.0470     0.1190 H     1 <1>   0.0800 
 22 H        1.1080     1.0990     1.5050 H     1 <1>   0.0800 
 23 H        0.2820     3.6450     1.1000 H     1 <1>   0.0800 
 24 H       -0.1930     4.0710    -0.5180 H     1 <1>   0.0800 
 25 H        0.6260     1.0240    -2.2160 H     1 <1>   0.0000 
 26 H       -0.3930     2.5030    -2.3030 H     1 <1>   0.0000 
 27 H        2.8830     1.3770    -0.9260 H     1 <1>   0.0800 
 28 H        3.3840     0.9070     0.6830 H     1 <1>   0.0800 
 29 H        2.0790     4.8780     0.0290 H     1 <1>   0.0800 
 30 H        2.0910     3.7640    -1.3170 H     1 <1>   0.0800 
 31 H        2.6440     3.0540     1.4880 H     1 <1>   0.4500 
 32 H        4.5050     3.4550    -0.7200 H     1 <1>   0.0800 
 33 H        4.9340     2.6900     0.7970 H     1 <1>   0.0800 
 34 H        2.9220     4.8980     2.5820 H     1 <1>   0.1500 
 35 H        5.7350     7.6090     1.3780 H     1 <1>   0.1500 
 36 H        6.3640     4.6000    -0.8970 H     1 <1>   0.0800 
 37 H        7.9130     6.7330     0.5950 H     1 <1>   0.0800 
 38 H        8.5560     5.6260    -0.5860 H     1 <1>   0.0800 
 39 H        7.9690     5.0150     0.9360 H     1 <1>   0.0800 
 40 H        6.2240     7.6190    -1.1320 H     1 <1>   0.0800 
 41 H        5.1760     6.4890    -1.9650 H     1 <1>   0.0800 
 42 H        6.8820     6.5260    -2.3180 H     1 <1>   0.0800 
@<TRIPOS>BOND
  1   1   2  1   
  2   1   3  1   
  3   2   4  1   
  4   2   5  1   
  5   2   6  1   
  6   3   6  1   
  7   3  19  1   
  8   3  20  1   
  9   4   7  1   
 10   4  21  1   
 11   4  22  1   
 12   5   8  1   
 13   5  23  1   
 14   5  24  1   
 15   6  25  1   
 16   6  26  1   
 17   7   9  1   
 18   7  27  1   
 19   7  28  1   
 20   8   9  1   
 21   8  29  1   
 22   8  30  1   
 23   9  10  1   
 24   9  31  1   
 25  10  11  1   
 26  10  32  1   
 27  10  33  1   
 28  11  12  1   
 29  11  13  2   
 30  12  14  1   
 31  12  15  1   
 32  13  16  1   
 33  13  34  1   
 34  14  16  2   
 35  14  35  1   
 36  15  17  1   
 37  15  18  1   
 38  15  36  1   
 39  17  37  1   
 40  17  38  1   
 41  17  39  1   
 42  18  40  1   
 43  18  41  1   
 44  18  42  1   
@<TRIPOS>SUBSTRUCTURE
  1 ****   9 GROUP 4 **** **** 0

# MOE 2024.06 (io_trps.svl 2023.06)
