@<TRIPOS>MOLECULE
NONAME
34 35 1 0 0 
SMALL
USER_CHARGES


@<TRIPOS>ATOM
  1 F       -0.8190    -0.0890    -1.0600 F     1 <1>  -0.1900 
  2 C       -1.7410    -0.9170    -0.6130 C.ar  1 <1>   0.1900 
  3 C       -2.9840    -0.4660    -0.1660 C.ar  1 <1>   0.4100 
  4 C       -1.4730    -2.2580    -0.6010 C.ar  1 <1>   0.1600 
  5 N       -3.8780    -1.3430     0.2540 N.ar  1 <1>  -0.6200 
  6 N       -3.3600     0.8770    -0.1340 N.pl3 1 <1>  -0.8380 
  7 N       -2.3620    -3.1360    -0.1780 N.ar  1 <1>  -0.6200 
  8 C       -3.5130    -2.6110     0.2310 C.ar  1 <1>   0.7200 
  9 C       -4.7980     1.2640    -0.1650 C.3   1 <1>   0.1290 
 10 C       -2.4380     1.9190     0.3960 C.3   1 <1>   0.1290 
 11 N       -4.4590    -3.4600     0.6820 N.pl3 1 <1>  -0.8690 
 12 C       -4.6010    -4.8320     0.1280 C.3   1 <1>   0.3890 
 13 C       -6.0600    -5.2420    -0.0270 C.2   1 <1>   0.2980 
 14 O       -6.8240    -4.5270    -0.8150 O.3   1 <1>  -0.0190 
 15 N       -6.6310    -6.2320     0.5370 N.2   1 <1>  -0.5650 
 16 N       -7.9810    -5.1110    -0.7430 N.2   1 <1>  -0.4100 
 17 C       -7.8560    -6.1020     0.0480 C.2   1 <1>   0.3350 
 18 C       -8.9470    -7.0860     0.4470 C.3   1 <1>   0.0210 
 19 C      -10.3030    -6.8250    -0.2270 C.3   1 <1>  -0.2400 
 20 H       -0.5200    -2.6170    -0.9440 H     1 <1>   0.1500 
 21 H       -5.3590     0.5580    -0.7530 H     1 <1>   0.0800 
 22 H       -4.9080     2.2390    -0.6050 H     1 <1>   0.0800 
 23 H       -5.1930     1.2750     0.8360 H     1 <1>   0.0800 
 24 H       -1.5710     1.4650     0.8430 H     1 <1>   0.0800 
 25 H       -2.9360     2.5070     1.1460 H     1 <1>   0.0800 
 26 H       -2.1230     2.5630    -0.4070 H     1 <1>   0.0800 
 27 H       -5.3410    -2.9730     0.8410 H     1 <1>   0.4000 
 28 H       -4.1090    -5.5250     0.7880 H     1 <1>   0.0800 
 29 H       -4.1270    -4.8930    -0.8370 H     1 <1>   0.0800 
 30 H       -9.0660    -7.0390     1.5140 H     1 <1>   0.0800 
 31 H       -8.6120    -8.0760     0.1960 H     1 <1>   0.0800 
 32 H      -10.6640    -5.8450     0.0320 H     1 <1>   0.0800 
 33 H      -11.0240    -7.5560     0.0950 H     1 <1>   0.0800 
 34 H      -10.2030    -6.8840    -1.2960 H     1 <1>   0.0800 
@<TRIPOS>BOND
  1   1   2  1   
  2   2   3  ar  
  3   2   4  ar  
  4   3   5  ar  
  5   3   6  1   
  6   4   7  ar  
  7   4  20  1   
  8   5   8  ar  
  9   6   9  1   
 10   6  10  1   
 11   7   8  ar  
 12   8  11  1   
 13   9  21  1   
 14   9  22  1   
 15   9  23  1   
 16  10  24  1   
 17  10  25  1   
 18  10  26  1   
 19  11  12  1   
 20  11  27  1   
 21  12  13  1   
 22  12  28  1   
 23  12  29  1   
 24  13  14  1   
 25  13  15  2   
 26  14  16  1   
 27  15  17  1   
 28  16  17  2   
 29  17  18  1   
 30  18  19  1   
 31  18  30  1   
 32  18  31  1   
 33  19  32  1   
 34  19  33  1   
 35  19  34  1   
@<TRIPOS>SUBSTRUCTURE
  1 ****  11 GROUP 4 **** **** 0

# MOE 2024.06 (io_trps.svl 2023.06)
