@<TRIPOS>MOLECULE
NONAME
57 59 1 0 0 
SMALL
USER_CHARGES


@<TRIPOS>ATOM
  1 O        0.1080     0.4880     0.7060 O.2   1 <1>  -0.5700 
  2 C        0.1560     1.6630     0.4270 C.2   1 <1>   0.5690 
  3 N       -0.9170     2.5000     0.6180 N.am  1 <1>  -0.6600 
  4 C        1.4680     2.1710    -0.1410 C.3   1 <1>  -0.0990 
  5 C       -2.2140     1.9830     1.1350 C.3   1 <1>   0.1400 
  6 C       -0.9510     3.9620     0.3430 C.3   1 <1>   0.1400 
  7 C        2.3480     2.7860     0.9530 C.3   1 <1>  -0.0160 
  8 C       -3.3130     2.2570     0.1030 C.3   1 <1>  -0.1600 
  9 C       -2.0250     4.2460    -0.7100 C.3   1 <1>  -0.1600 
 10 C        3.6400     3.3220     0.3580 C.ar  1 <1>  -0.1440 
 11 C       -3.4150     3.7490    -0.2620 C.3   1 <1>   0.2800 
 12 C        4.6970     2.4650     0.1020 C.ar  1 <1>  -0.1500 
 13 C        3.7720     4.6690     0.0620 C.ar  1 <1>  -0.1500 
 14 O       -3.7800     4.4130     0.9240 O.3   1 <1>  -0.5600 
 15 C       -4.4860     3.9730    -1.3600 C.3   1 <1>  -0.1600 
 16 C        5.8840     2.9440    -0.4480 C.ar  1 <1>   0.0820 
 17 C        4.9480     5.1530    -0.4830 C.ar  1 <1>  -0.1500 
 18 C       -4.2720     5.7190     0.8160 C.3   1 <1>   0.1200 
 19 C       -5.8200     4.4770    -0.8030 C.3   1 <1>   0.2800 
 20 O        6.9490     2.1400    -0.7180 O.3   1 <1>  -0.3630 
 21 C        6.0080     4.2990    -0.7410 C.ar  1 <1>  -0.1440 
 22 C       -5.5850     5.7500     0.0160 C.3   1 <1>  -0.1600 
 23 O       -6.3030     3.5290     0.0580 O.3   1 <1>  -0.6800 
 24 C       -6.8770     4.6680    -1.8870 C.3   1 <1>  -0.2400 
 25 C        6.9170     0.7550    -0.4550 C.3   1 <1>   0.0400 
 26 C        7.2940     4.8480    -1.3410 C.3   1 <1>  -0.0970 
 27 H        1.2870     2.8770    -0.9280 H     1 <1>   0.0800 
 28 H        1.9890     1.3390    -0.5810 H     1 <1>   0.0800 
 29 H       -2.4480     2.4780     2.0620 H     1 <1>   0.0800 
 30 H       -2.1580     0.9250     1.3280 H     1 <1>   0.0800 
 31 H        0.0000     4.3240    -0.0020 H     1 <1>   0.0800 
 32 H       -1.1890     4.4830     1.2550 H     1 <1>   0.0800 
 33 H        2.5750     2.0360     1.6920 H     1 <1>   0.0800 
 34 H        1.8180     3.5780     1.4510 H     1 <1>   0.0800 
 35 H       -4.2520     1.9030     0.4850 H     1 <1>   0.0800 
 36 H       -3.0910     1.6820    -0.7780 H     1 <1>   0.0800 
 37 H       -1.7470     3.7440    -1.6200 H     1 <1>   0.0800 
 38 H       -2.0510     5.2970    -0.9250 H     1 <1>   0.0800 
 39 H        4.5790     1.4250     0.3360 H     1 <1>   0.1500 
 40 H        2.9620     5.3500     0.2550 H     1 <1>   0.1500 
 41 H       -4.6430     3.0730    -1.9270 H     1 <1>   0.0800 
 42 H       -4.1250     4.7050    -2.0590 H     1 <1>   0.0800 
 43 H        5.0330     6.2010    -0.7060 H     1 <1>   0.1500 
 44 H       -3.5230     6.3320     0.3480 H     1 <1>   0.0800 
 45 H       -4.4370     6.0890     1.8140 H     1 <1>   0.0800 
 46 H       -5.5400     6.5960    -0.6450 H     1 <1>   0.0800 
 47 H       -6.4170     5.9190     0.6760 H     1 <1>   0.0800 
 48 H       -5.6560     3.4650     0.7920 H     1 <1>   0.4000 
 49 H       -6.5510     5.4010    -2.6020 H     1 <1>   0.0800 
 50 H       -7.8000     5.0040    -1.4490 H     1 <1>   0.0800 
 51 H       -7.0500     3.7410    -2.4030 H     1 <1>   0.0800 
 52 H        7.8630     0.3380    -0.7490 H     1 <1>   0.0800 
 53 H        6.1260     0.3100    -1.0320 H     1 <1>   0.0800 
 54 H        6.7610     0.6040     0.5980 H     1 <1>   0.0800 
 55 H        7.4910     4.3640    -2.2810 H     1 <1>   0.0800 
 56 H        8.1160     4.6540    -0.6760 H     1 <1>   0.0800 
 57 H        7.2280     5.9070    -1.5060 H     1 <1>   0.0800 
@<TRIPOS>BOND
  1   1   2  2   
  2   2   3  am  
  3   2   4  1   
  4   3   5  1   
  5   3   6  1   
  6   4   7  1   
  7   4  27  1   
  8   4  28  1   
  9   5   8  1   
 10   5  29  1   
 11   5  30  1   
 12   6   9  1   
 13   6  31  1   
 14   6  32  1   
 15   7  10  1   
 16   7  33  1   
 17   7  34  1   
 18   8  11  1   
 19   8  35  1   
 20   8  36  1   
 21   9  11  1   
 22   9  37  1   
 23   9  38  1   
 24  10  12  ar  
 25  10  13  ar  
 26  11  14  1   
 27  11  15  1   
 28  12  16  ar  
 29  12  39  1   
 30  13  17  ar  
 31  13  40  1   
 32  14  18  1   
 33  15  19  1   
 34  15  41  1   
 35  15  42  1   
 36  16  20  1   
 37  16  21  ar  
 38  17  21  ar  
 39  17  43  1   
 40  18  22  1   
 41  18  44  1   
 42  18  45  1   
 43  19  22  1   
 44  19  23  1   
 45  19  24  1   
 46  20  25  1   
 47  21  26  1   
 48  22  46  1   
 49  22  47  1   
 50  23  48  1   
 51  24  49  1   
 52  24  50  1   
 53  24  51  1   
 54  25  52  1   
 55  25  53  1   
 56  25  54  1   
 57  26  55  1   
 58  26  56  1   
 59  26  57  1   
@<TRIPOS>SUBSTRUCTURE
  1 ****   6 GROUP 4 **** **** 0

# MOE 2024.06 (io_trps.svl 2023.06)
