@<TRIPOS>MOLECULE
NONAME
49 52 1 0 0 
SMALL
USER_CHARGES


@<TRIPOS>ATOM
  1 O        0.6610    -0.1220     1.5660 O.2   1 <1>  -0.5700 
  2 C        1.5040    -0.7860     1.0070 C.2   1 <1>   0.9370 
  3 N        2.6260    -0.1550     0.4550 N.pl3 1 <1>  -0.5760 
  4 C        1.3790    -2.1900     0.8980 C.2   1 <1>  -0.1360 
  5 C        3.5720    -0.9010    -0.1670 C.cat 1 <1>   0.7390 
  6 C        2.7860     1.2100     0.5380 C.2   1 <1>   0.1910 
  7 C        2.3230    -2.9190     0.2700 C.2   1 <1>   0.2030 
  8 N        3.4120    -2.2440    -0.2490 N.pl3 1 <1>  -0.6450 
  9 C        4.6990    -0.2750    -0.7170 C.2   1 <1>  -0.1800 
 10 C        3.8800     1.8400     0.0070 C.2   1 <1>  -0.1380 
 11 C        2.2690    -4.4450     0.1100 C.3   1 <1>   0.2480 
 12 C        4.8630     1.0820    -0.6380 C.2   1 <1>  -0.1500 
 13 C        4.0610     3.3470     0.0950 C.3   1 <1>  -0.1020 
 14 N        0.9210    -4.9780     0.3640 N.3   1 <1>  -0.8100 
 15 C       -0.0250    -4.7940    -0.7480 C.3   1 <1>   0.1100 
 16 C        0.9080    -6.4240     0.6400 C.3   1 <1>   0.1100 
 17 C       -1.1790    -5.7300    -0.4050 C.3   1 <1>   0.2000 
 18 C       -0.4820    -6.9400     0.2210 C.3   1 <1>  -0.0800 
 19 O       -1.9380    -5.1180     0.5730 O.3   1 <1>  -0.6800 
 20 C       -0.3990    -8.1160    -0.7700 C.3   1 <1>   0.0200 
 21 C        0.4240    -9.2630    -0.2150 C.2   1 <1>  -0.0400 
 22 O        0.1240    -9.7860     0.9440 O.3   1 <1>  -0.0190 
 23 C        1.4940    -9.9140    -0.6960 C.2   1 <1>  -0.1500 
 24 N        0.9390   -10.7470     1.2670 N.2   1 <1>  -0.4100 
 25 C        1.7740   -10.8500     0.2960 C.2   1 <1>   0.1080 
 26 C        2.9020   -11.8560     0.2490 C.3   1 <1>  -0.0590 
 27 H        0.5030    -2.6230     1.3420 H     1 <1>   0.1500 
 28 H        2.0210     1.7890     1.0380 H     1 <1>   0.1500 
 29 H        4.1510    -2.7720    -0.7220 H     1 <1>   0.4500 
 30 H        5.4430    -0.8740    -1.2080 H     1 <1>   0.1500 
 31 H        2.9560    -4.8800     0.8160 H     1 <1>   0.0800 
 32 H        2.5830    -4.7280    -0.8810 H     1 <1>   0.0800 
 33 H        5.7280     1.5720    -1.0590 H     1 <1>   0.1500 
 34 H        4.9680     3.5810     0.6250 H     1 <1>   0.0800 
 35 H        3.2380     3.8090     0.6120 H     1 <1>   0.0800 
 36 H        4.1220     3.7720    -0.8920 H     1 <1>   0.0800 
 37 H       -0.3600    -3.7750    -0.8370 H     1 <1>   0.0800 
 38 H        0.4220    -5.1090    -1.6750 H     1 <1>   0.0800 
 39 H        1.6780    -6.9170     0.0690 H     1 <1>   0.0800 
 40 H        1.0830    -6.6070     1.6870 H     1 <1>   0.0800 
 41 H       -1.8170    -5.9600    -1.2420 H     1 <1>   0.0800 
 42 H       -1.0220    -7.2780     1.0900 H     1 <1>   0.0800 
 43 H       -1.3390    -4.8940     1.3140 H     1 <1>   0.4000 
 44 H        0.0360    -7.7900    -1.6980 H     1 <1>   0.0800 
 45 H       -1.3920    -8.4760    -0.9760 H     1 <1>   0.0800 
 46 H        2.0320    -9.7800    -1.6150 H     1 <1>   0.1500 
 47 H        2.8030   -12.4750    -0.6230 H     1 <1>   0.0800 
 48 H        2.8730   -12.4810     1.1230 H     1 <1>   0.0800 
 49 H        3.8470   -11.3450     0.2180 H     1 <1>   0.0800 
@<TRIPOS>BOND
  1   1   2  2   
  2   2   3  1   
  3   2   4  1   
  4   3   5  ar  
  5   3   6  1   
  6   4   7  2   
  7   4  27  1   
  8   5   8  ar  
  9   5   9  1   
 10   6  10  2   
 11   6  28  1   
 12   7   8  1   
 13   7  11  1   
 14   8  29  1   
 15   9  12  2   
 16   9  30  1   
 17  10  12  1   
 18  10  13  1   
 19  11  14  1   
 20  11  31  1   
 21  11  32  1   
 22  12  33  1   
 23  13  34  1   
 24  13  35  1   
 25  13  36  1   
 26  14  15  1   
 27  14  16  1   
 28  15  17  1   
 29  15  37  1   
 30  15  38  1   
 31  16  18  1   
 32  16  39  1   
 33  16  40  1   
 34  17  18  1   
 35  17  19  1   
 36  17  41  1   
 37  18  20  1   
 38  18  42  1   
 39  19  43  1   
 40  20  21  1   
 41  20  44  1   
 42  20  45  1   
 43  21  22  1   
 44  21  23  2   
 45  22  24  1   
 46  23  25  1   
 47  23  46  1   
 48  24  25  2   
 49  25  26  1   
 50  26  47  1   
 51  26  48  1   
 52  26  49  1   
@<TRIPOS>SUBSTRUCTURE
  1 ****  11 GROUP 4 **** **** 0

# MOE 2024.06 (io_trps.svl 2023.06)
