@<TRIPOS>MOLECULE
NONAME
44 46 1 0 0 
SMALL
USER_CHARGES


@<TRIPOS>ATOM
  1 F       -0.8700     0.2350    -0.4460 F     1 <1>  -0.3400 
  2 C       -1.8310    -0.3680     0.2370 C.3   1 <1>   1.0200 
  3 F       -2.7720     0.5390     0.4560 F     1 <1>  -0.3400 
  4 F       -1.3220    -0.6730     1.4220 F     1 <1>  -0.3400 
  5 C       -2.3680    -1.6010    -0.4890 C.3   1 <1>  -0.1600 
  6 C       -3.4920    -2.3310     0.2770 C.3   1 <1>  -0.0990 
  7 C       -3.9710    -3.5490    -0.4830 C.2   1 <1>   0.5690 
  8 O       -4.6050    -3.3920    -1.4960 O.2   1 <1>  -0.5700 
  9 N       -3.6750    -4.7800    -0.0060 N.am  1 <1>  -0.7300 
 10 C       -4.0990    -6.0430    -0.6500 C.3   1 <1>   0.2200 
 11 C       -5.3940    -6.5140    -0.0110 C.3   1 <1>  -0.0800 
 12 C       -3.1410    -7.1660    -0.2730 C.3   1 <1>   0.1200 
 13 C       -4.8960    -7.2910     1.2140 C.3   1 <1>   0.1200 
 14 C       -6.2080    -7.3990    -0.9760 C.3   1 <1>  -0.0170 
 15 O       -3.5550    -7.6160     0.9820 O.3   1 <1>  -0.5600 
 16 C       -7.5590    -7.7810    -0.3800 C.ar  1 <1>  -0.1440 
 17 C       -8.6390    -6.8680    -0.3070 C.ar  1 <1>   0.0000 
 18 C       -7.7630    -9.0390     0.1080 C.ar  1 <1>  -0.1500 
 19 C       -9.8440    -7.3220     0.2840 C.ar  1 <1>   0.3100 
 20 C       -8.5980    -5.5370    -0.7870 C.ar  1 <1>  -0.1500 
 21 C       -8.9980    -9.3870     0.6670 C.ar  1 <1>   0.1600 
 22 N      -10.0060    -8.5800     0.7660 N.ar  1 <1>  -0.6200 
 23 C      -10.9290    -6.4370     0.3800 C.ar  1 <1>  -0.1500 
 24 C       -9.6760    -4.7010    -0.6790 C.ar  1 <1>  -0.1500 
 25 C      -10.8570    -5.1530    -0.0870 C.ar  1 <1>  -0.1500 
 26 H       -2.7370    -1.2890    -1.4500 H     1 <1>   0.0800 
 27 H       -1.5480    -2.2770    -0.6530 H     1 <1>   0.0800 
 28 H       -4.3310    -1.6710     0.4100 H     1 <1>   0.0800 
 29 H       -3.1470    -2.6280     1.2500 H     1 <1>   0.0800 
 30 H       -3.2040    -4.9050     0.8930 H     1 <1>   0.3700 
 31 H       -4.1740    -5.9090    -1.7160 H     1 <1>   0.0800 
 32 H       -5.9990    -5.6790     0.2940 H     1 <1>   0.0800 
 33 H       -2.1170    -6.8420    -0.2230 H     1 <1>   0.0800 
 34 H       -3.2300    -7.9890    -0.9600 H     1 <1>   0.0800 
 35 H       -5.4490    -8.1960     1.3910 H     1 <1>   0.0800 
 36 H       -4.9320    -6.6740     2.0950 H     1 <1>   0.0800 
 37 H       -5.6520    -8.2900    -1.2090 H     1 <1>   0.0800 
 38 H       -6.3690    -6.8800    -1.9050 H     1 <1>   0.0800 
 39 H       -6.9920    -9.7870     0.0800 H     1 <1>   0.1500 
 40 H       -7.7020    -5.1650    -1.2500 H     1 <1>   0.1500 
 41 H       -9.1150   -10.3900     1.0410 H     1 <1>   0.1500 
 42 H      -11.8280    -6.8070     0.8370 H     1 <1>   0.1500 
 43 H       -9.6280    -3.6910    -1.0490 H     1 <1>   0.1500 
 44 H      -11.6980    -4.4850    -0.0080 H     1 <1>   0.1500 
@<TRIPOS>BOND
  1   1   2  1   
  2   2   3  1   
  3   2   4  1   
  4   2   5  1   
  5   5   6  1   
  6   5  26  1   
  7   5  27  1   
  8   6   7  1   
  9   6  28  1   
 10   6  29  1   
 11   7   8  2   
 12   7   9  am  
 13   9  10  1   
 14   9  30  1   
 15  10  11  1   
 16  10  12  1   
 17  10  31  1   
 18  11  13  1   
 19  11  14  1   
 20  11  32  1   
 21  12  15  1   
 22  12  33  1   
 23  12  34  1   
 24  13  15  1   
 25  13  35  1   
 26  13  36  1   
 27  14  16  1   
 28  14  37  1   
 29  14  38  1   
 30  16  17  ar  
 31  16  18  ar  
 32  17  19  ar  
 33  17  20  ar  
 34  18  21  ar  
 35  18  39  1   
 36  19  22  ar  
 37  19  23  ar  
 38  20  24  ar  
 39  20  40  1   
 40  21  22  ar  
 41  21  41  1   
 42  23  25  ar  
 43  23  42  1   
 44  24  25  ar  
 45  24  43  1   
 46  25  44  1   
@<TRIPOS>SUBSTRUCTURE
  1 ****  11 GROUP 4 **** **** 0

# MOE 2024.06 (io_trps.svl 2023.06)
