@<TRIPOS>MOLECULE
NONAME
47 49 1 0 0 
SMALL
USER_CHARGES


@<TRIPOS>ATOM
  1 O        0.6180     0.1340     2.5580 O.co2 1 <1>  -0.9000 
  2 C        1.0870    -0.1960     1.4630 C.2   1 <1>   0.9060 
  3 O        0.7340    -1.2410     0.8970 O.co2 1 <1>  -0.9000 
  4 C        2.1720     0.6460     0.7890 C.3   1 <1>  -0.1060 
  5 C        3.4060    -0.3030     0.7220 C.3   1 <1>   0.2000 
  6 C        2.5760     1.8860     1.6340 C.3   1 <1>  -0.1600 
  7 C        1.6400     1.0940    -0.6130 C.3   1 <1>  -0.0160 
  8 O        3.5300    -0.8780    -0.5370 O.3   1 <1>  -0.6800 
  9 C        4.7460     0.3400     1.1550 C.3   1 <1>   0.1100 
 10 C        3.7850     2.6260     1.0390 C.3   1 <1>   0.1100 
 11 C        0.6510     2.2610    -0.6170 C.ar  1 <1>  -0.1430 
 12 N        4.9420     1.7450     0.7230 N.3   1 <1>  -0.8100 
 13 C        0.9940     3.4640    -1.2170 C.ar  1 <1>  -0.1500 
 14 C       -0.6010     2.1330    -0.0330 C.ar  1 <1>  -0.1500 
 15 C        5.3570     1.8110    -0.7130 C.3   1 <1>   0.1710 
 16 C        0.1050     4.5250    -1.2270 C.ar  1 <1>  -0.1500 
 17 C       -1.4910     3.1930    -0.0400 C.ar  1 <1>  -0.1500 
 18 C        5.9170     3.1700    -1.1400 C.2   1 <1>   0.5690 
 19 C       -1.1400     4.3910    -0.6370 C.ar  1 <1>  -0.1500 
 20 O        5.8870     3.4970    -2.3050 O.2   1 <1>  -0.5700 
 21 N        6.4320     3.9610    -0.1640 N.am  1 <1>  -0.5790 
 22 C        6.9800     5.3130    -0.3130 C.3   1 <1>   0.0490 
 23 C        8.0330     5.7540     0.6480 C.3   1 <1>  -0.2000 
 24 C        6.6470     6.3180     0.7390 C.3   1 <1>  -0.2000 
 25 H        3.2510    -1.1290     1.3970 H     1 <1>   0.0800 
 26 H        2.8110     1.5780     2.6370 H     1 <1>   0.0800 
 27 H        1.7460     2.5640     1.7240 H     1 <1>   0.0800 
 28 H        2.4650     1.3650    -1.2380 H     1 <1>   0.0800 
 29 H        1.1630     0.2610    -1.0990 H     1 <1>   0.0800 
 30 H        2.6840    -1.3540    -0.7000 H     1 <1>   0.4000 
 31 H        5.5640    -0.2750     0.8260 H     1 <1>   0.0800 
 32 H        4.7680     0.3330     2.2310 H     1 <1>   0.0800 
 33 H        4.1060     3.3740     1.7430 H     1 <1>   0.0800 
 34 H        3.4660     3.1450     0.1520 H     1 <1>   0.0800 
 35 H        1.9570     3.5800    -1.6820 H     1 <1>   0.1500 
 36 H       -0.8870     1.2060     0.4370 H     1 <1>   0.1500 
 37 H        6.1280     1.0840    -0.8890 H     1 <1>   0.0800 
 38 H        4.5350     1.5580    -1.3530 H     1 <1>   0.0800 
 39 H        0.3830     5.4530    -1.6940 H     1 <1>   0.1500 
 40 H       -2.4540     3.0770     0.4240 H     1 <1>   0.1500 
 41 H       -1.8320     5.2130    -0.6410 H     1 <1>   0.1500 
 42 H        6.3350     3.5910     0.7860 H     1 <1>   0.3700 
 43 H        7.0430     5.6360    -1.3400 H     1 <1>   0.1000 
 44 H        8.3700     5.0610     1.3990 H     1 <1>   0.1000 
 45 H        8.8210     6.3930     0.2890 H     1 <1>   0.1000 
 46 H        6.4910     7.3400     0.4410 H     1 <1>   0.1000 
 47 H        6.0110     6.0210     1.5540 H     1 <1>   0.1000 
@<TRIPOS>BOND
  1   1   2  ar  
  2   2   3  ar  
  3   2   4  1   
  4   4   5  1   
  5   4   6  1   
  6   4   7  1   
  7   5   8  1   
  8   5   9  1   
  9   5  25  1   
 10   6  10  1   
 11   6  26  1   
 12   6  27  1   
 13   7  11  1   
 14   7  28  1   
 15   7  29  1   
 16   8  30  1   
 17   9  12  1   
 18   9  31  1   
 19   9  32  1   
 20  10  12  1   
 21  10  33  1   
 22  10  34  1   
 23  11  13  ar  
 24  11  14  ar  
 25  12  15  1   
 26  13  16  ar  
 27  13  35  1   
 28  14  17  ar  
 29  14  36  1   
 30  15  18  1   
 31  15  37  1   
 32  15  38  1   
 33  16  19  ar  
 34  16  39  1   
 35  17  19  ar  
 36  17  40  1   
 37  18  20  2   
 38  18  21  am  
 39  19  41  1   
 40  21  22  1   
 41  21  42  1   
 42  22  23  1   
 43  22  24  1   
 44  22  43  1   
 45  23  24  1   
 46  23  44  1   
 47  23  45  1   
 48  24  46  1   
 49  24  47  1   
@<TRIPOS>SUBSTRUCTURE
  1 ****  10 GROUP 4 **** **** 0

# MOE 2024.06 (io_trps.svl 2023.06)
