@<TRIPOS>MOLECULE
NONAME
49 51 1 0 0 
SMALL
USER_CHARGES


@<TRIPOS>ATOM
  1 O       -2.5560     1.9820    -1.7090 O.2   1 <1>  -0.5700 
  2 C       -2.9690     1.9570    -0.5500 C.2   1 <1>   0.5440 
  3 N       -3.6490     0.8010    -0.1760 N.am  1 <1>  -0.6600 
  4 C       -2.6640     3.0720     0.3370 C.ar  1 <1>   0.0860 
  5 C       -4.3500    -0.1590    -1.1160 C.3   1 <1>   0.2200 
  6 C       -3.3570     0.2810     1.1950 C.3   1 <1>   0.0600 
  7 C       -3.4610     3.4840     1.4580 C.ar  1 <1>  -0.1710 
  8 C       -1.5020     3.8450     0.1100 C.ar  1 <1>   0.0820 
  9 C       -5.0180     0.4520    -2.3700 C.3   1 <1>  -0.1600 
 10 C       -5.5660    -0.8250    -0.4510 C.3   1 <1>  -0.1600 
 11 O       -4.5450     2.9520     1.7910 O.3   1 <1>  -0.8290 
 12 C       -3.0480     4.5540     2.2660 C.ar  1 <1>  -0.1500 
 13 O       -0.6980     3.5830    -0.9380 O.3   1 <1>  -0.5320 
 14 C       -1.1220     4.8980     0.9160 C.ar  1 <1>  -0.1500 
 15 C       -6.4920     0.7770    -2.0500 C.3   1 <1>  -0.0800 
 16 C       -6.7760     0.0860    -0.7070 C.3   1 <1>  -0.0800 
 17 C       -1.9010     5.2530     2.0070 C.ar  1 <1>  -0.1500 
 18 C       -6.7290     2.2760    -1.8170 C.3   1 <1>  -0.1600 
 19 C       -6.9140     1.2200     0.3230 C.3   1 <1>  -0.1600 
 20 C       -6.3090     2.4330    -0.3720 C.3   1 <1>   0.4230 
 21 N       -6.5760     3.7330     0.2720 N.4   1 <1>  -0.9590 
 22 C       -7.9670     4.0420     0.6770 C.3   1 <1>   0.2630 
 23 C       -5.8700     4.8400    -0.4200 C.3   1 <1>   0.2630 
 24 H       -3.6320    -0.9040    -1.4120 H     1 <1>   0.0800 
 25 H       -3.1200    -0.7660     1.1550 H     1 <1>   0.0800 
 26 H       -4.2080     0.4390     1.8330 H     1 <1>   0.0800 
 27 H       -2.5220     0.8030     1.6290 H     1 <1>   0.0800 
 28 H       -4.4990     1.2830    -2.8030 H     1 <1>   0.0800 
 29 H       -5.0210    -0.3180    -3.1210 H     1 <1>   0.0800 
 30 H       -5.7430    -1.7530    -0.9660 H     1 <1>   0.0800 
 31 H       -5.4410    -1.0650     0.5870 H     1 <1>   0.0800 
 32 H       -3.6680     4.8030     3.1080 H     1 <1>   0.1500 
 33 H       -1.1290     2.8960    -1.5090 H     1 <1>   0.4500 
 34 H       -0.2220     5.4410     0.6960 H     1 <1>   0.1500 
 35 H       -7.1310     0.4080    -2.8350 H     1 <1>   0.0800 
 36 H       -7.6830    -0.4940    -0.7400 H     1 <1>   0.0800 
 37 H       -1.5990     6.0680     2.6400 H     1 <1>   0.1500 
 38 H       -7.7740     2.5030    -1.9270 H     1 <1>   0.0800 
 39 H       -6.1410     2.8830    -2.4810 H     1 <1>   0.0800 
 40 H       -6.3930     1.0110     1.2400 H     1 <1>   0.0800 
 41 H       -7.9570     1.3720     0.5250 H     1 <1>   0.0800 
 42 H       -5.2480     2.3080    -0.3480 H     1 <1>   0.0800 
 43 H       -5.9700     3.5860     1.1340 H     1 <1>   0.4500 
 44 H       -8.6030     4.0950    -0.1900 H     1 <1>   0.0800 
 45 H       -7.9960     4.9850     1.1970 H     1 <1>   0.0800 
 46 H       -8.3350     3.2770     1.3400 H     1 <1>   0.0800 
 47 H       -6.3180     5.0330    -1.3800 H     1 <1>   0.0800 
 48 H       -4.8340     4.5730    -0.5600 H     1 <1>   0.0800 
 49 H       -5.9060     5.7340     0.1800 H     1 <1>   0.0800 
@<TRIPOS>BOND
  1   1   2  2   
  2   2   3  am  
  3   2   4  1   
  4   3   5  1   
  5   3   6  1   
  6   4   7  ar  
  7   4   8  ar  
  8   5   9  1   
  9   5  10  1   
 10   5  24  1   
 11   6  25  1   
 12   6  26  1   
 13   6  27  1   
 14   7  11  1   
 15   7  12  ar  
 16   8  13  1   
 17   8  14  ar  
 18   9  15  1   
 19   9  28  1   
 20   9  29  1   
 21  10  16  1   
 22  10  30  1   
 23  10  31  1   
 24  12  17  ar  
 25  12  32  1   
 26  13  33  1   
 27  14  17  ar  
 28  14  34  1   
 29  15  16  1   
 30  15  18  1   
 31  15  35  1   
 32  16  19  1   
 33  16  36  1   
 34  17  37  1   
 35  18  20  1   
 36  18  38  1   
 37  18  39  1   
 38  19  20  1   
 39  19  40  1   
 40  19  41  1   
 41  20  21  1   
 42  20  42  1   
 43  21  22  1   
 44  21  23  1   
 45  21  43  1   
 46  22  44  1   
 47  22  45  1   
 48  22  46  1   
 49  23  47  1   
 50  23  48  1   
 51  23  49  1   
@<TRIPOS>SUBSTRUCTURE
  1 ****   2 GROUP 4 **** **** 0

# MOE 2024.06 (io_trps.svl 2023.06)
