@<TRIPOS>MOLECULE
NONAME
48 50 1 0 0 
SMALL
USER_CHARGES


@<TRIPOS>ATOM
  1 O       -1.7830    -0.3020     2.1130 O.2   1 <1>  -0.5700 
  2 C       -2.3400     0.3430     1.2490 C.2   1 <1>   0.7800 
  3 O       -2.3220     1.6730     1.3500 O.3   1 <1>  -0.4300 
  4 N       -2.9860    -0.2510     0.1930 N.am  1 <1>  -0.6600 
  5 C       -2.7640     2.5120     0.3080 C.3   1 <1>   0.1200 
  6 C       -3.7590     0.5110    -0.8160 C.3   1 <1>   0.1400 
  7 C       -2.9590    -1.7270     0.0160 C.3   1 <1>   0.1400 
  8 C       -4.0330     1.9250    -0.3070 C.3   1 <1>  -0.1600 
  9 C       -4.0330    -2.3840     0.8880 C.3   1 <1>   0.1400 
 10 N       -4.0840    -3.8460     0.6370 N.am  1 <1>  -0.7300 
 11 C       -4.7090    -4.4140    -0.4240 C.2   1 <1>   0.5690 
 12 O       -5.2380    -3.7510    -1.2820 O.2   1 <1>  -0.5700 
 13 C       -4.7470    -5.9220    -0.5260 C.3   1 <1>  -0.0990 
 14 C       -6.1100    -6.4660    -0.0640 C.3   1 <1>  -0.0170 
 15 C       -6.2400    -7.9910    -0.0920 C.ar  1 <1>   0.1670 
 16 N       -5.1890    -8.7030    -0.3700 N.ar  1 <1>  -0.6200 
 17 C       -7.5150    -8.5610     0.2000 C.ar  1 <1>   0.3930 
 18 C       -5.4000   -10.0450    -0.3730 C.ar  1 <1>   0.3100 
 19 O       -8.5280    -7.7130     0.4870 O.3   1 <1>  -0.3630 
 20 N       -7.7510    -9.8430     0.2080 N.ar  1 <1>  -0.6200 
 21 C       -6.6700   -10.6050    -0.0870 C.ar  1 <1>   0.3100 
 22 C       -4.3330   -10.9060    -0.6680 C.ar  1 <1>  -0.1500 
 23 C       -9.8300    -8.1850     0.7760 C.3   1 <1>   0.0400 
 24 C       -6.8080   -12.0020    -0.1090 C.ar  1 <1>  -0.1500 
 25 C       -4.4960   -12.2680    -0.6830 C.ar  1 <1>  -0.1500 
 26 C       -5.7480   -12.8210    -0.4000 C.ar  1 <1>  -0.1500 
 27 H       -1.9750     2.5770    -0.4220 H     1 <1>   0.0800 
 28 H       -2.9480     3.4870     0.7230 H     1 <1>   0.0800 
 29 H       -4.6900     0.0090    -1.0210 H     1 <1>   0.0800 
 30 H       -3.1860     0.5540    -1.7270 H     1 <1>   0.0800 
 31 H       -1.9900    -2.1020     0.2990 H     1 <1>   0.0800 
 32 H       -3.1320    -1.9690    -1.0190 H     1 <1>   0.0800 
 33 H       -4.3680     2.5420    -1.1210 H     1 <1>   0.0800 
 34 H       -4.8150     1.9030     0.4320 H     1 <1>   0.0800 
 35 H       -4.9930    -1.9560     0.6520 H     1 <1>   0.0800 
 36 H       -3.8180    -2.2050     1.9270 H     1 <1>   0.0800 
 37 H       -3.6170    -4.4340     1.3310 H     1 <1>   0.3700 
 38 H       -3.9600    -6.3420     0.0730 H     1 <1>   0.0800 
 39 H       -4.5760    -6.2030    -1.5490 H     1 <1>   0.0800 
 40 H       -6.8730    -6.0460    -0.6970 H     1 <1>   0.0800 
 41 H       -6.2990    -6.1300     0.9400 H     1 <1>   0.0800 
 42 H       -3.3780   -10.4620    -0.8840 H     1 <1>   0.1500 
 43 H      -10.4640    -7.3390     0.9670 H     1 <1>   0.0800 
 44 H       -9.7850    -8.8190     1.6440 H     1 <1>   0.0800 
 45 H      -10.1950    -8.7380    -0.0720 H     1 <1>   0.0800 
 46 H       -7.7780   -12.4110     0.1110 H     1 <1>   0.1500 
 47 H       -3.6710   -12.9210    -0.9110 H     1 <1>   0.1500 
 48 H       -5.8660   -13.8920    -0.4140 H     1 <1>   0.1500 
@<TRIPOS>BOND
  1   1   2  2   
  2   2   3  1   
  3   2   4  am  
  4   3   5  1   
  5   4   6  1   
  6   4   7  1   
  7   5   8  1   
  8   5  27  1   
  9   5  28  1   
 10   6   8  1   
 11   6  29  1   
 12   6  30  1   
 13   7   9  1   
 14   7  31  1   
 15   7  32  1   
 16   8  33  1   
 17   8  34  1   
 18   9  10  1   
 19   9  35  1   
 20   9  36  1   
 21  10  11  am  
 22  10  37  1   
 23  11  12  2   
 24  11  13  1   
 25  13  14  1   
 26  13  38  1   
 27  13  39  1   
 28  14  15  1   
 29  14  40  1   
 30  14  41  1   
 31  15  16  ar  
 32  15  17  ar  
 33  16  18  ar  
 34  17  19  1   
 35  17  20  ar  
 36  18  21  ar  
 37  18  22  ar  
 38  19  23  1   
 39  20  21  ar  
 40  21  24  ar  
 41  22  25  ar  
 42  22  42  1   
 43  23  43  1   
 44  23  44  1   
 45  23  45  1   
 46  24  26  ar  
 47  24  46  1   
 48  25  26  ar  
 49  25  47  1   
 50  26  48  1   
@<TRIPOS>SUBSTRUCTURE
  1 ****  13 GROUP 4 **** **** 0

# MOE 2024.06 (io_trps.svl 2023.06)
