@<TRIPOS>MOLECULE
NONAME
60 62 1 0 0 
SMALL
USER_CHARGES


@<TRIPOS>ATOM
  1 O       -2.2600     0.9010     2.0690 O.2   1 <1>  -0.5700 
  2 C       -2.4330     1.2270     0.9150 C.2   1 <1>   0.5690 
  3 N       -2.9320     0.3420    -0.0060 N.am  1 <1>  -0.6600 
  4 C       -2.0370     2.6630     0.5180 C.3   1 <1>   0.1710 
  5 C       -2.7280    -1.1230     0.2250 C.3   1 <1>   0.3640 
  6 C       -3.5760     0.7640    -1.2870 C.3   1 <1>   0.1400 
  7 N       -0.6120     2.8550     0.1100 N.3   1 <1>  -0.8100 
  8 C       -1.2880    -1.4400    -0.2020 C.ar  1 <1>  -0.1440 
  9 C       -3.8020    -2.0390    -0.4410 C.3   1 <1>   0.2000 
 10 C       -4.2580    -0.3810    -2.0520 C.3   1 <1>   0.1200 
 11 C        0.2990     2.4640     1.2100 C.3   1 <1>   0.2540 
 12 C       -0.2810     2.1300    -1.1250 C.3   1 <1>   0.0300 
 13 C       -0.3010    -1.4380     0.7750 C.ar  1 <1>  -0.1500 
 14 C       -0.9190    -1.6810    -1.5210 C.ar  1 <1>  -0.1500 
 15 O       -4.7720    -1.3280    -1.1710 O.3   1 <1>  -0.5600 
 16 C       -4.5610    -2.8730     0.5990 C.3   1 <1>   0.1200 
 17 C        1.7530     2.8130     0.9080 C.ar  1 <1>  -0.1440 
 18 C        1.0270    -1.6570     0.4520 C.ar  1 <1>   0.0820 
 19 C        0.4080    -1.8870    -1.8570 C.ar  1 <1>  -0.1500 
 20 O       -3.6940    -3.7470     1.2510 O.3   1 <1>  -0.6800 
 21 C        2.0990     4.0640     0.4210 C.ar  1 <1>  -0.1500 
 22 C        2.7490     1.8730     1.1280 C.ar  1 <1>  -0.1500 
 23 O        1.9260    -1.6700     1.4660 O.3   1 <1>  -0.3620 
 24 C        1.3910    -1.8520    -0.8840 C.ar  1 <1>   0.0820 
 25 C        3.4220     4.3720     0.1520 C.ar  1 <1>  -0.1500 
 26 C        4.0730     2.1790     0.8620 C.ar  1 <1>  -0.1500 
 27 C        2.5240    -2.9150     1.7450 C.3   1 <1>   0.0400 
 28 O        2.6760    -1.9960    -1.2890 O.3   1 <1>  -0.3630 
 29 C        4.4100     3.4280     0.3730 C.ar  1 <1>  -0.1500 
 30 C        3.5280    -0.8920    -1.0700 C.3   1 <1>   0.0400 
 31 H       -2.2310     3.2940     1.3660 H     1 <1>   0.0800 
 32 H       -2.6730     3.0110    -0.2730 H     1 <1>   0.0800 
 33 H       -2.7850    -1.3040     1.2850 H     1 <1>   0.0800 
 34 H       -4.3230     1.5050    -1.0610 H     1 <1>   0.0800 
 35 H       -2.8450     1.2210    -1.9280 H     1 <1>   0.0800 
 36 H       -3.3320    -2.7200    -1.1270 H     1 <1>   0.0800 
 37 H       -3.5740    -0.8660    -2.7240 H     1 <1>   0.0800 
 38 H       -5.0760     0.0050    -2.6340 H     1 <1>   0.0800 
 39 H        0.0080     2.9760     2.1120 H     1 <1>   0.0800 
 40 H        0.2180     1.4060     1.3920 H     1 <1>   0.0800 
 41 H        0.7230     2.3650    -1.4360 H     1 <1>   0.0800 
 42 H       -0.9470     2.4260    -1.9150 H     1 <1>   0.0800 
 43 H       -0.3500     1.0670    -0.9740 H     1 <1>   0.0800 
 44 H       -0.5550    -1.2550     1.8050 H     1 <1>   0.1500 
 45 H       -1.6490    -1.6990    -2.3060 H     1 <1>   0.1500 
 46 H       -5.3330    -3.4550     0.1290 H     1 <1>   0.0800 
 47 H       -4.9980    -2.2280     1.3420 H     1 <1>   0.0800 
 48 H        0.6920    -2.0640    -2.8780 H     1 <1>   0.1500 
 49 H       -3.4190    -4.4770     0.6620 H     1 <1>   0.4000 
 50 H        1.3290     4.7960     0.2470 H     1 <1>   0.1500 
 51 H        2.4940     0.9000     1.5090 H     1 <1>   0.1500 
 52 H        3.6780     5.3450    -0.2280 H     1 <1>   0.1500 
 53 H        4.8380     1.4450     1.0400 H     1 <1>   0.1500 
 54 H        3.1580    -2.7990     2.6060 H     1 <1>   0.0800 
 55 H        3.1080    -3.2280     0.8980 H     1 <1>   0.0800 
 56 H        1.7500    -3.6330     1.9510 H     1 <1>   0.0800 
 57 H        5.4380     3.6670     0.1660 H     1 <1>   0.1500 
 58 H        4.4320    -1.0480    -1.6290 H     1 <1>   0.0800 
 59 H        3.7540    -0.8220    -0.0220 H     1 <1>   0.0800 
 60 H        3.0360     0.0050    -1.4050 H     1 <1>   0.0800 
@<TRIPOS>BOND
  1   1   2  2   
  2   2   3  am  
  3   2   4  1   
  4   3   5  1   
  5   3   6  1   
  6   4   7  1   
  7   4  31  1   
  8   4  32  1   
  9   5   8  1   
 10   5   9  1   
 11   5  33  1   
 12   6  10  1   
 13   6  34  1   
 14   6  35  1   
 15   7  11  1   
 16   7  12  1   
 17   8  13  ar  
 18   8  14  ar  
 19   9  15  1   
 20   9  16  1   
 21   9  36  1   
 22  10  15  1   
 23  10  37  1   
 24  10  38  1   
 25  11  17  1   
 26  11  39  1   
 27  11  40  1   
 28  12  41  1   
 29  12  42  1   
 30  12  43  1   
 31  13  18  ar  
 32  13  44  1   
 33  14  19  ar  
 34  14  45  1   
 35  16  20  1   
 36  16  46  1   
 37  16  47  1   
 38  17  21  ar  
 39  17  22  ar  
 40  18  23  1   
 41  18  24  ar  
 42  19  24  ar  
 43  19  48  1   
 44  20  49  1   
 45  21  25  ar  
 46  21  50  1   
 47  22  26  ar  
 48  22  51  1   
 49  23  27  1   
 50  24  28  1   
 51  25  29  ar  
 52  25  52  1   
 53  26  29  ar  
 54  26  53  1   
 55  27  54  1   
 56  27  55  1   
 57  27  56  1   
 58  28  30  1   
 59  29  57  1   
 60  30  58  1   
 61  30  59  1   
 62  30  60  1   
@<TRIPOS>SUBSTRUCTURE
  1 ****  13 GROUP 4 **** **** 0

# MOE 2024.06 (io_trps.svl 2023.06)
