@<TRIPOS>MOLECULE
NONAME
17 18 1 0 0 
SMALL
USER_CHARGES


@<TRIPOS>ATOM
  1 N        6.0720     3.2170     0.6510 N.1   1 <1>  -0.5570 
  2 C        5.9900     2.0960     0.4900 C.1   1 <1>   0.3760 
  3 C        5.8820     0.6240     0.2780 C.3   1 <1>   0.1810 
  4 C        4.7500    -0.1570    -0.4610 C.3   1 <1>   0.0000 
  5 C        6.8790    -0.3120    -0.4760 C.3   1 <1>   0.0000 
  6 C        5.8080    -0.4980     1.3620 C.3   1 <1>   0.0000 
  7 C        5.7430    -1.2580     0.0070 C.3   1 <1>   0.4720 
  8 N        5.6360    -2.7140    -0.2030 N.4   1 <1>  -0.8220 
  9 H        4.6960     0.0130    -1.5240 H     1 <1>   0.0000 
 10 H        3.7900    -0.1440     0.0320 H     1 <1>   0.0000 
 11 H        7.8370    -0.4370     0.0030 H     1 <1>   0.0000 
 12 H        6.9410    -0.1490    -1.5400 H     1 <1>   0.0000 
 13 H        4.9060    -0.5030     1.9520 H     1 <1>   0.0000 
 14 H        6.7090    -0.6330     1.9400 H     1 <1>   0.0000 
 15 H        5.6130    -2.9350    -1.2040 H     1 <1>   0.4500 
 16 H        4.7790    -3.0800     0.2270 H     1 <1>   0.4500 
 17 H        6.4380    -3.2000     0.2150 H     1 <1>   0.4500 
@<TRIPOS>BOND
  1   1   2  3   
  2   2   3  1   
  3   3   4  1   
  4   3   5  1   
  5   3   6  1   
  6   4   7  1   
  7   4   9  1   
  8   4  10  1   
  9   5   7  1   
 10   5  11  1   
 11   5  12  1   
 12   6   7  1   
 13   6  13  1   
 14   6  14  1   
 15   7   8  1   
 16   8  15  1   
 17   8  16  1   
 18   8  17  1   
@<TRIPOS>SUBSTRUCTURE
  1 ****   3 GROUP 4 **** **** 0

# MOE 2024.06 (io_trps.svl 2023.06)
