@<TRIPOS>MOLECULE
NONAME
47 49 1 0 0 
SMALL
USER_CHARGES


@<TRIPOS>ATOM
  1 O       -0.5550    -0.1670    -0.1790 O.2   1 <1>  -0.5700 
  2 C       -1.5370     0.5160    -0.4220 C.2   1 <1>   0.7160 
  3 N       -2.7740    -0.0900    -0.3970 N.am  1 <1>  -0.6600 
  4 C       -1.3990     1.9290    -0.7150 C.2   1 <1>  -0.0860 
  5 C       -4.0580     0.6360    -0.2950 C.3   1 <1>   0.1400 
  6 C       -2.9560    -1.5240    -0.0890 C.3   1 <1>   0.1400 
  7 C       -0.6420     2.8970    -0.0950 C.2   1 <1>  -0.3320 
  8 C       -2.0590     2.6030    -1.7630 C.2   1 <1>  -0.1500 
  9 C       -4.9740    -0.2890     0.5160 C.3   1 <1>  -0.0800 
 10 C       -4.4470    -1.7060     0.2140 C.3   1 <1>  -0.0800 
 11 N       -0.8170     4.0950    -0.7050 N.pl3 1 <1>   0.0480 
 12 C        0.2780     2.7130     1.1040 C.3   1 <1>  -0.0600 
 13 C       -1.6900     3.9050    -1.7260 C.2   1 <1>  -0.3020 
 14 C       -6.5080    -0.0950     0.3050 C.3   1 <1>   0.2800 
 15 C       -5.2130    -2.3390    -0.9580 C.3   1 <1>  -0.1600 
 16 C       -0.1850     5.3770    -0.3530 C.3   1 <1>   0.0160 
 17 O       -6.7610     0.4100    -0.9560 O.3   1 <1>  -0.6800 
 18 C       -7.2290    -1.4540     0.3830 C.3   1 <1>  -0.1600 
 19 C       -7.1310     0.8910     1.3180 C.3   1 <1>  -0.1600 
 20 C       -6.7130    -2.4870    -0.6430 C.3   1 <1>  -0.1600 
 21 C       -6.5620     2.3210     1.2930 C.3   1 <1>  -0.2400 
 22 H       -3.9300     1.5890     0.1870 H     1 <1>   0.0800 
 23 H       -4.4300     0.7890    -1.2920 H     1 <1>   0.0800 
 24 H       -2.6370    -2.1250    -0.9230 H     1 <1>   0.0800 
 25 H       -2.3650    -1.7760     0.7750 H     1 <1>   0.0800 
 26 H       -2.7310     2.1310    -2.4600 H     1 <1>   0.1500 
 27 H       -4.7580    -0.1100     1.5530 H     1 <1>   0.0800 
 28 H       -4.5570    -2.3410     1.0750 H     1 <1>   0.0800 
 29 H        0.2390     1.7000     1.4620 H     1 <1>   0.0800 
 30 H       -0.0180     3.3650     1.9040 H     1 <1>   0.0800 
 31 H        1.2930     2.9320     0.8250 H     1 <1>   0.0800 
 32 H       -1.9990     4.7040    -2.3760 H     1 <1>   0.1500 
 33 H       -5.0990    -1.7090    -1.8250 H     1 <1>   0.0800 
 34 H       -4.7980    -3.3020    -1.2010 H     1 <1>   0.0800 
 35 H       -0.5070     6.1380    -1.0400 H     1 <1>   0.0800 
 36 H        0.8820     5.2710    -0.4090 H     1 <1>   0.0800 
 37 H       -0.4720     5.6500     0.6450 H     1 <1>   0.0800 
 38 H       -7.7230     0.4760    -1.0900 H     1 <1>   0.4000 
 39 H       -7.0710    -1.8540     1.3690 H     1 <1>   0.0800 
 40 H       -8.2900    -1.3270     0.2650 H     1 <1>   0.0800 
 41 H       -8.1920     0.9420     1.1460 H     1 <1>   0.0800 
 42 H       -6.9980     0.4940     2.3100 H     1 <1>   0.0800 
 43 H       -6.9060    -3.4750    -0.2630 H     1 <1>   0.0800 
 44 H       -7.2630    -2.3830    -1.5630 H     1 <1>   0.0800 
 45 H       -6.6190     2.7380     0.3030 H     1 <1>   0.0800 
 46 H       -5.5380     2.3320     1.6170 H     1 <1>   0.0800 
 47 H       -7.1270     2.9490     1.9580 H     1 <1>   0.0800 
@<TRIPOS>BOND
  1   1   2  2   
  2   2   3  am  
  3   2   4  1   
  4   3   5  1   
  5   3   6  1   
  6   4   7  2   
  7   4   8  1   
  8   5   9  1   
  9   5  22  1   
 10   5  23  1   
 11   6  10  1   
 12   6  24  1   
 13   6  25  1   
 14   7  11  1   
 15   7  12  1   
 16   8  13  2   
 17   8  26  1   
 18   9  10  1   
 19   9  14  1   
 20   9  27  1   
 21  10  15  1   
 22  10  28  1   
 23  11  13  1   
 24  11  16  1   
 25  12  29  1   
 26  12  30  1   
 27  12  31  1   
 28  13  32  1   
 29  14  17  1   
 30  14  18  1   
 31  14  19  1   
 32  15  20  1   
 33  15  33  1   
 34  15  34  1   
 35  16  35  1   
 36  16  36  1   
 37  16  37  1   
 38  17  38  1   
 39  18  20  1   
 40  18  39  1   
 41  18  40  1   
 42  19  21  1   
 43  19  41  1   
 44  19  42  1   
 45  20  43  1   
 46  20  44  1   
 47  21  45  1   
 48  21  46  1   
 49  21  47  1   
@<TRIPOS>SUBSTRUCTURE
  1 ****   5 GROUP 4 **** **** 0

# MOE 2024.06 (io_trps.svl 2023.06)
