@<TRIPOS>MOLECULE
NONAME
60 63 1 0 0 
SMALL
USER_CHARGES


@<TRIPOS>ATOM
  1 O       -0.4640    -1.1250     1.3750 O.3   1 <1>  -0.5600 
  2 C       -1.6080    -1.9150     1.2210 C.3   1 <1>   0.1200 
  3 C        0.5650    -1.4340     0.4830 C.3   1 <1>   0.1200 
  4 C       -1.2730    -3.3980     1.4550 C.3   1 <1>   0.2090 
  5 C        1.0280    -2.8910     0.6760 C.3   1 <1>   0.2090 
  6 N       -0.1310    -3.8460     0.5730 N.pl3 1 <1>  -0.8380 
  7 C       -0.2340    -4.9440    -0.2260 C.ar  1 <1>   0.7710 
  8 N       -1.4140    -5.5250    -0.3790 N.ar  1 <1>  -0.6200 
  9 N        0.8690    -5.4160    -0.8330 N.ar  1 <1>  -0.1790 
 10 C       -1.4900    -6.6110    -1.1270 C.ar  1 <1>   0.4100 
 11 C        0.8350    -6.4960    -1.6450 C.ar  1 <1>   0.2180 
 12 N       -2.6890    -7.2480    -1.2000 N.pl3 1 <1>  -0.8380 
 13 C       -0.3610    -7.1020    -1.8110 C.ar  1 <1>  -0.1500 
 14 C        2.1160    -6.9630    -2.3130 C.3   1 <1>  -0.0970 
 15 C       -2.8210    -8.7320    -1.3960 C.3   1 <1>   0.2090 
 16 C       -3.9850    -6.5550    -0.9520 C.3   1 <1>   0.2090 
 17 C       -3.4860    -9.4260    -0.1860 C.3   1 <1>   0.0000 
 18 C       -4.6480    -7.1580     0.2830 C.3   1 <1>  -0.1600 
 19 C       -4.8130    -8.6690     0.0960 C.3   1 <1>   0.2000 
 20 C       -3.8980   -10.8600    -0.6050 C.3   1 <1>   0.1200 
 21 C       -2.5700    -9.4780     1.0870 C.3   1 <1>  -0.0170 
 22 O       -5.4560    -9.1820     1.2110 O.3   1 <1>  -0.6800 
 23 O       -2.8260   -11.5700    -1.1300 O.3   1 <1>  -0.6800 
 24 C       -1.0660    -9.2100     0.9610 C.ar  1 <1>  -0.1440 
 25 C       -0.2210   -10.0900     0.3010 C.ar  1 <1>  -0.1500 
 26 C       -0.5150    -8.0920     1.5730 C.ar  1 <1>  -0.1500 
 27 C        1.1430    -9.8580     0.2520 C.ar  1 <1>  -0.1500 
 28 C        0.8500    -7.8650     1.5410 C.ar  1 <1>  -0.1500 
 29 C        1.6820    -8.7480     0.8780 C.ar  1 <1>  -0.1500 
 30 H       -2.3360    -1.5810     1.9390 H     1 <1>   0.0800 
 31 H       -2.0050    -1.7650     0.2320 H     1 <1>   0.0800 
 32 H        0.2100    -1.2710    -0.5200 H     1 <1>   0.0800 
 33 H        1.3760    -0.7550     0.6770 H     1 <1>   0.0800 
 34 H       -2.1650    -3.9770     1.2920 H     1 <1>   0.0800 
 35 H       -0.9950    -3.5270     2.4860 H     1 <1>   0.0800 
 36 H        1.4780    -2.9790     1.6510 H     1 <1>   0.0800 
 37 H        1.7820    -3.1020    -0.0600 H     1 <1>   0.0800 
 38 H        1.7310    -4.9370    -0.6190 H     1 <1>   0.4570 
 39 H       -0.4660    -7.9520    -2.4550 H     1 <1>   0.1500 
 40 H        1.9280    -7.8410    -2.9070 H     1 <1>   0.0800 
 41 H        2.8550    -7.2150    -1.5730 H     1 <1>   0.0800 
 42 H        2.5070    -6.1970    -2.9580 H     1 <1>   0.0800 
 43 H       -3.4190    -8.9020    -2.2750 H     1 <1>   0.0800 
 44 H       -1.8690    -9.1930    -1.5730 H     1 <1>   0.0800 
 45 H       -3.8420    -5.4980    -0.8120 H     1 <1>   0.0800 
 46 H       -4.6220    -6.6860    -1.8110 H     1 <1>   0.0800 
 47 H       -5.6140    -6.7050     0.4120 H     1 <1>   0.0800 
 48 H       -4.0440    -6.9290     1.1410 H     1 <1>   0.0800 
 49 H       -5.4810    -8.8240    -0.7350 H     1 <1>   0.0800 
 50 H       -4.6610   -10.8270    -1.3640 H     1 <1>   0.0800 
 51 H       -4.2830   -11.4060     0.2400 H     1 <1>   0.0800 
 52 H       -2.9410    -8.7820     1.8140 H     1 <1>   0.0800 
 53 H       -2.6770   -10.4420     1.5530 H     1 <1>   0.0800 
 54 H       -4.9840    -8.9230     2.0260 H     1 <1>   0.4000 
 55 H       -3.0870   -12.4940    -1.3210 H     1 <1>   0.4000 
 56 H       -0.6180   -10.9720    -0.1670 H     1 <1>   0.1500 
 57 H       -1.1510    -7.3960     2.0920 H     1 <1>   0.1500 
 58 H        1.7830   -10.5570    -0.2590 H     1 <1>   0.1500 
 59 H        1.2600    -7.0090     2.0470 H     1 <1>   0.1500 
 60 H        2.7460    -8.5880     0.8620 H     1 <1>   0.1500 
@<TRIPOS>BOND
  1   1   2  1   
  2   1   3  1   
  3   2   4  1   
  4   2  30  1   
  5   2  31  1   
  6   3   5  1   
  7   3  32  1   
  8   3  33  1   
  9   4   6  1   
 10   4  34  1   
 11   4  35  1   
 12   5   6  1   
 13   5  36  1   
 14   5  37  1   
 15   6   7  1   
 16   7   8  ar  
 17   7   9  ar  
 18   8  10  ar  
 19   9  11  ar  
 20   9  38  1   
 21  10  12  1   
 22  10  13  ar  
 23  11  13  ar  
 24  11  14  1   
 25  12  15  1   
 26  12  16  1   
 27  13  39  1   
 28  14  40  1   
 29  14  41  1   
 30  14  42  1   
 31  15  17  1   
 32  15  43  1   
 33  15  44  1   
 34  16  18  1   
 35  16  45  1   
 36  16  46  1   
 37  17  19  1   
 38  17  20  1   
 39  17  21  1   
 40  18  19  1   
 41  18  47  1   
 42  18  48  1   
 43  19  22  1   
 44  19  49  1   
 45  20  23  1   
 46  20  50  1   
 47  20  51  1   
 48  21  24  1   
 49  21  52  1   
 50  21  53  1   
 51  22  54  1   
 52  23  55  1   
 53  24  25  ar  
 54  24  26  ar  
 55  25  27  ar  
 56  25  56  1   
 57  26  28  ar  
 58  26  57  1   
 59  27  29  ar  
 60  27  58  1   
 61  28  29  ar  
 62  28  59  1   
 63  29  60  1   
@<TRIPOS>SUBSTRUCTURE
  1 ****  10 GROUP 4 **** **** 0

# MOE 2024.06 (io_trps.svl 2023.06)
