@<TRIPOS>MOLECULE
NONAME
54 55 1 0 0 
SMALL
USER_CHARGES


@<TRIPOS>ATOM
  1 S        0.9460     0.3000     0.6700 S.o2  1 <1>   1.3330 
  2 O        2.0390     0.1830    -0.2680 O.2   1 <1>  -0.6500 
  3 O        1.2210     0.3910     2.0860 O.2   1 <1>  -0.6500 
  4 N       -0.1070    -1.0060     0.4100 N.am  1 <1>  -0.8490 
  5 C       -0.0550     1.7150     0.2190 C.3   1 <1>  -0.0550 
  6 C       -0.1340    -1.4650    -0.9830 C.3   1 <1>   0.1160 
  7 C        0.1780    -2.1350     1.3010 C.3   1 <1>   0.1160 
  8 C        0.6430     3.0610     0.4770 C.3   1 <1>  -0.0800 
  9 C       -0.2560     4.2510     0.1530 C.3   1 <1>   0.2000 
 10 C        1.8930     3.3020    -0.3750 C.3   1 <1>   0.1400 
 11 O       -1.1030     4.5110     1.2170 O.3   1 <1>  -0.6800 
 12 C        0.6940     5.4160    -0.1160 C.3   1 <1>   0.1400 
 13 N        1.9590     4.7730    -0.5460 N.am  1 <1>  -0.6600 
 14 C        3.1060     5.4260    -0.9200 C.2   1 <1>   0.5690 
 15 O        4.1100     4.8130    -1.1990 O.2   1 <1>  -0.5700 
 16 C        3.1500     6.9470    -1.0340 C.3   1 <1>   0.1810 
 17 O        2.7970     7.5750     0.1890 O.3   1 <1>  -0.3630 
 18 C        3.0450     8.9020     0.2530 C.ar  1 <1>   0.0820 
 19 C        4.3160     9.3590     0.6050 C.ar  1 <1>  -0.1430 
 20 C        2.0130     9.7900    -0.0340 C.ar  1 <1>  -0.1430 
 21 C        4.5600    10.7300     0.6190 C.ar  1 <1>  -0.1440 
 22 C        5.4240     8.3710     0.9740 C.3   1 <1>  -0.0970 
 23 C        2.2720    11.1480    -0.0050 C.ar  1 <1>  -0.1500 
 24 C        0.6130     9.2990    -0.3740 C.3   1 <1>  -0.0970 
 25 C        3.5350    11.6110     0.3130 C.ar  1 <1>  -0.1500 
 26 C        5.9280    11.3030     0.9640 C.3   1 <1>  -0.0970 
 27 H       -0.3260     1.6460    -0.8160 H     1 <1>   0.0800 
 28 H       -0.9600     1.6880     0.7960 H     1 <1>   0.0800 
 29 H       -0.8820    -2.2300    -1.1060 H     1 <1>   0.0800 
 30 H        0.8260    -1.8650    -1.2670 H     1 <1>   0.0800 
 31 H       -0.3750    -0.6470    -1.6400 H     1 <1>   0.0800 
 32 H       -0.5170    -2.9380     1.1210 H     1 <1>   0.0800 
 33 H        0.0760    -1.8280     2.3290 H     1 <1>   0.0800 
 34 H        1.1830    -2.4910     1.1450 H     1 <1>   0.0800 
 35 H        0.9480     3.1150     1.5090 H     1 <1>   0.0800 
 36 H       -0.8570     4.0630    -0.7210 H     1 <1>   0.0800 
 37 H        1.8010     2.8420    -1.3450 H     1 <1>   0.0800 
 38 H        2.7820     2.9310     0.1080 H     1 <1>   0.0800 
 39 H       -0.5890     4.6610     2.0350 H     1 <1>   0.4000 
 40 H        0.8700     5.9790     0.7840 H     1 <1>   0.0800 
 41 H        0.3100     6.0560    -0.8910 H     1 <1>   0.0800 
 42 H        2.4660     7.2760    -1.7930 H     1 <1>   0.0800 
 43 H        4.1450     7.2540    -1.3010 H     1 <1>   0.0800 
 44 H        5.9920     8.7320     1.8110 H     1 <1>   0.0800 
 45 H        6.0840     8.2340     0.1370 H     1 <1>   0.0800 
 46 H        5.0230     7.4150     1.2550 H     1 <1>   0.0800 
 47 H        1.4930    11.8550    -0.2290 H     1 <1>   0.1500 
 48 H       -0.0910    10.1110    -0.3640 H     1 <1>   0.0800 
 49 H        0.2960     8.5700     0.3490 H     1 <1>   0.0800 
 50 H        0.6080     8.8510    -1.3510 H     1 <1>   0.0800 
 51 H        3.7120    12.6720     0.3250 H     1 <1>   0.1500 
 52 H        5.9700    12.3560     0.7500 H     1 <1>   0.0800 
 53 H        6.6930    10.8150     0.3860 H     1 <1>   0.0800 
 54 H        6.1310    11.1610     2.0100 H     1 <1>   0.0800 
@<TRIPOS>BOND
  1   1   2  2   
  2   1   3  2   
  3   1   4  am  
  4   1   5  1   
  5   4   6  1   
  6   4   7  1   
  7   5   8  1   
  8   5  27  1   
  9   5  28  1   
 10   6  29  1   
 11   6  30  1   
 12   6  31  1   
 13   7  32  1   
 14   7  33  1   
 15   7  34  1   
 16   8   9  1   
 17   8  10  1   
 18   8  35  1   
 19   9  11  1   
 20   9  12  1   
 21   9  36  1   
 22  10  13  1   
 23  10  37  1   
 24  10  38  1   
 25  11  39  1   
 26  12  13  1   
 27  12  40  1   
 28  12  41  1   
 29  13  14  am  
 30  14  15  2   
 31  14  16  1   
 32  16  17  1   
 33  16  42  1   
 34  16  43  1   
 35  17  18  1   
 36  18  19  ar  
 37  18  20  ar  
 38  19  21  ar  
 39  19  22  1   
 40  20  23  ar  
 41  20  24  1   
 42  21  25  ar  
 43  21  26  1   
 44  22  44  1   
 45  22  45  1   
 46  22  46  1   
 47  23  25  ar  
 48  23  47  1   
 49  24  48  1   
 50  24  49  1   
 51  24  50  1   
 52  25  51  1   
 53  26  52  1   
 54  26  53  1   
 55  26  54  1   
@<TRIPOS>SUBSTRUCTURE
  1 ****  13 GROUP 4 **** **** 0

# MOE 2024.06 (io_trps.svl 2023.06)
