@<TRIPOS>MOLECULE
NONAME
47 50 1 0 0 
SMALL
USER_CHARGES


@<TRIPOS>ATOM
  1 N        0.3660     3.1310    -0.6280 N.ar  1 <1>  -0.6200 
  2 C        0.3170     2.4890     0.5310 C.ar  1 <1>   0.1660 
  3 C        0.1480     2.3870    -1.7040 C.ar  1 <1>   0.1600 
  4 C        0.0400     1.1360     0.6590 C.ar  1 <1>  -0.1500 
  5 C        0.5860     3.3250     1.7720 C.3   1 <1>  -0.0160 
  6 C       -0.1360     1.0330    -1.6790 C.ar  1 <1>  -0.1500 
  7 C       -0.1960     0.3790    -0.4680 C.ar  1 <1>  -0.1500 
  8 C       -0.6510     4.1180     2.2480 C.3   1 <1>  -0.1600 
  9 C       -1.5840     4.7070     1.1610 C.3   1 <1>   0.4230 
 10 N       -1.1380     6.0470     0.6610 N.4   1 <1>  -0.9590 
 11 C       -2.9960     4.8460     1.7560 C.3   1 <1>  -0.1600 
 12 C       -2.0800     6.6200    -0.3500 C.3   1 <1>   0.3430 
 13 C        0.2370     6.0460     0.0500 C.3   1 <1>   0.5240 
 14 C       -4.0030     5.4530     0.7750 C.3   1 <1>  -0.1600 
 15 C       -3.4740     6.7860     0.2480 C.3   1 <1>  -0.1600 
 16 C        0.7380     7.4700    -0.2070 C.2   1 <1>   0.3350 
 17 N        1.2830     8.1940     0.7230 N.2   1 <1>  -0.7070 
 18 N        0.5850     8.0300    -1.4060 N.2   1 <1>  -0.5650 
 19 N        1.5460     9.3240     0.0710 N.pl3 1 <1>   0.6010 
 20 C        1.1030     9.2030    -1.2140 C.2   1 <1>   0.3120 
 21 C        2.1320    10.4980     0.4930 C.2   1 <1>  -0.1810 
 22 N        1.1970    10.2070    -2.1430 N.2   1 <1>  -0.5760 
 23 C        2.2380    11.5020    -0.4170 C.2   1 <1>  -0.1360 
 24 C        1.7490    11.3060    -1.7410 C.2   1 <1>   0.3760 
 25 H        0.1990     2.8780    -2.6610 H     1 <1>   0.1500 
 26 H        0.0120     0.6700     1.6280 H     1 <1>   0.1500 
 27 H        1.4200     3.9730     1.5810 H     1 <1>   0.0800 
 28 H        0.9030     2.6760     2.5700 H     1 <1>   0.0800 
 29 H       -0.3030     0.4980    -2.5970 H     1 <1>   0.1500 
 30 H       -0.4130    -0.6740    -0.4060 H     1 <1>   0.1500 
 31 H       -0.3550     4.8850     2.9420 H     1 <1>   0.0800 
 32 H       -1.2320     3.4090     2.8130 H     1 <1>   0.0800 
 33 H       -1.6440     4.0200     0.3310 H     1 <1>   0.0800 
 34 H       -1.0980     6.6940     1.4560 H     1 <1>   0.4500 
 35 H       -2.9550     5.4490     2.6470 H     1 <1>   0.0800 
 36 H       -3.3560     3.8730     2.0450 H     1 <1>   0.0800 
 37 H       -2.1320     5.9670    -1.2060 H     1 <1>   0.0800 
 38 H       -1.7290     7.5830    -0.6870 H     1 <1>   0.0800 
 39 H        0.2350     5.5010    -0.8790 H     1 <1>   0.0800 
 40 H        0.9390     5.5840     0.7130 H     1 <1>   0.0800 
 41 H       -4.9510     5.6020     1.2650 H     1 <1>   0.0800 
 42 H       -4.1610     4.7740    -0.0480 H     1 <1>   0.0800 
 43 H       -4.1390     7.1600    -0.5120 H     1 <1>   0.0800 
 44 H       -3.4430     7.5160     1.0380 H     1 <1>   0.0800 
 45 H        2.4650    10.5390     1.5140 H     1 <1>   0.1500 
 46 H        2.6830    12.4530    -0.1780 H     1 <1>   0.1500 
 47 H        1.8490    12.1230    -2.4340 H     1 <1>   0.0600 
@<TRIPOS>BOND
  1   1   2  ar  
  2   1   3  ar  
  3   2   4  ar  
  4   2   5  1   
  5   3   6  ar  
  6   3  25  1   
  7   4   7  ar  
  8   4  26  1   
  9   5   8  1   
 10   5  27  1   
 11   5  28  1   
 12   6   7  ar  
 13   6  29  1   
 14   7  30  1   
 15   8   9  1   
 16   8  31  1   
 17   8  32  1   
 18   9  10  1   
 19   9  11  1   
 20   9  33  1   
 21  10  12  1   
 22  10  13  1   
 23  10  34  1   
 24  11  14  1   
 25  11  35  1   
 26  11  36  1   
 27  12  15  1   
 28  12  37  1   
 29  12  38  1   
 30  13  16  1   
 31  13  39  1   
 32  13  40  1   
 33  14  15  1   
 34  14  41  1   
 35  14  42  1   
 36  15  43  1   
 37  15  44  1   
 38  16  17  2   
 39  16  18  1   
 40  17  19  1   
 41  18  20  2   
 42  19  20  1   
 43  19  21  1   
 44  20  22  1   
 45  21  23  2   
 46  21  45  1   
 47  22  24  2   
 48  23  24  1   
 49  23  46  1   
 50  24  47  1   
@<TRIPOS>SUBSTRUCTURE
  1 ****  13 GROUP 4 **** **** 0

# MOE 2024.06 (io_trps.svl 2023.06)
