@<TRIPOS>MOLECULE
NONAME
49 51 1 0 0 
SMALL
USER_CHARGES


@<TRIPOS>ATOM
  1 F       -0.7350    -1.0490    -0.6480 F     1 <1>  -0.1900 
  2 C       -1.4430    -2.0860    -0.2810 C.ar  1 <1>   0.1900 
  3 C       -2.8130    -1.9860    -0.2650 C.ar  1 <1>  -0.1500 
  4 C       -0.7560    -3.2510     0.0760 C.ar  1 <1>  -0.1500 
  5 C       -3.5340    -3.1100     0.1300 C.ar  1 <1>   0.2270 
  6 C       -1.4730    -4.3620     0.4670 C.ar  1 <1>  -0.1500 
  7 N       -4.8830    -3.2810     0.2300 N.2   1 <1>  -0.5650 
  8 C       -2.8690    -4.2720     0.4890 C.ar  1 <1>  -0.1520 
  9 C       -5.0190    -4.4980     0.6350 C.2   1 <1>   0.0060 
 10 N       -3.8470    -5.1540     0.8140 N.pl3 1 <1>   0.0330 
 11 C       -6.3410    -5.1950     0.9020 C.3   1 <1>   0.2900 
 12 N       -6.2760    -6.6170     0.4950 N.3   1 <1>  -0.8100 
 13 C       -7.3930    -7.3920     1.1140 C.3   1 <1>   0.1710 
 14 C       -6.2500    -6.7400    -0.9720 C.3   1 <1>   0.0300 
 15 C       -7.3020    -8.9210     0.9950 C.2   1 <1>   0.5690 
 16 O       -6.9120    -9.5450     1.9520 O.2   1 <1>  -0.5700 
 17 N       -7.7180    -9.5080    -0.1640 N.am  1 <1>  -0.7300 
 18 C       -7.8850   -10.9350    -0.5160 C.3   1 <1>   0.3640 
 19 C       -9.3430   -11.3230    -0.3010 C.ar  1 <1>  -0.1430 
 20 C       -6.9240   -11.8770     0.2100 C.3   1 <1>  -0.2400 
 21 C      -10.1170   -11.7530    -1.3690 C.ar  1 <1>  -0.1500 
 22 C       -9.9200   -11.2500     0.9590 C.ar  1 <1>  -0.1500 
 23 C      -11.4440   -12.0990    -1.1810 C.ar  1 <1>  -0.1500 
 24 C      -11.2470   -11.5970     1.1470 C.ar  1 <1>  -0.1500 
 25 C      -12.0170   -12.0220     0.0780 C.ar  1 <1>  -0.1430 
 26 C      -13.4710   -12.4040     0.2860 C.3   1 <1>  -0.0970 
 27 H       -3.3270    -1.0870    -0.5420 H     1 <1>   0.1500 
 28 H        0.3180    -3.2600     0.0400 H     1 <1>   0.1500 
 29 H       -0.9810    -5.2770     0.7490 H     1 <1>   0.1500 
 30 H       -3.7650    -6.1410     1.0760 H     1 <1>   0.2700 
 31 H       -7.1330    -4.6880     0.3780 H     1 <1>   0.0800 
 32 H       -6.5380    -5.1270     1.9580 H     1 <1>   0.0800 
 33 H       -8.3300    -7.0710     0.6960 H     1 <1>   0.0800 
 34 H       -7.4210    -7.1730     2.1670 H     1 <1>   0.0800 
 35 H       -5.4630    -6.1340    -1.3870 H     1 <1>   0.0800 
 36 H       -7.1870    -6.4220    -1.3970 H     1 <1>   0.0800 
 37 H       -6.0570    -7.7610    -1.2550 H     1 <1>   0.0800 
 38 H       -8.1320    -8.8980    -0.8650 H     1 <1>   0.3700 
 39 H       -7.6650   -11.0230    -1.5660 H     1 <1>   0.0800 
 40 H       -7.1620   -11.9430     1.2560 H     1 <1>   0.0800 
 41 H       -5.9110   -11.5350     0.0950 H     1 <1>   0.0800 
 42 H       -7.0060   -12.8630    -0.2080 H     1 <1>   0.0800 
 43 H       -9.6950   -11.8230    -2.3560 H     1 <1>   0.1500 
 44 H       -9.3340   -10.9220     1.8000 H     1 <1>   0.1500 
 45 H      -12.0300   -12.4310    -2.0200 H     1 <1>   0.1500 
 46 H      -11.6740   -11.5360     2.1320 H     1 <1>   0.1500 
 47 H      -14.0390   -12.2300    -0.6110 H     1 <1>   0.0800 
 48 H      -13.9030   -11.8210     1.0790 H     1 <1>   0.0800 
 49 H      -13.5390   -13.4460     0.5440 H     1 <1>   0.0800 
@<TRIPOS>BOND
  1   1   2  1   
  2   2   3  ar  
  3   2   4  ar  
  4   3   5  ar  
  5   3  27  1   
  6   4   6  ar  
  7   4  28  1   
  8   5   7  1   
  9   5   8  ar  
 10   6   8  ar  
 11   6  29  1   
 12   7   9  2   
 13   8  10  1   
 14   9  10  1   
 15   9  11  1   
 16  10  30  1   
 17  11  12  1   
 18  11  31  1   
 19  11  32  1   
 20  12  13  1   
 21  12  14  1   
 22  13  15  1   
 23  13  33  1   
 24  13  34  1   
 25  14  35  1   
 26  14  36  1   
 27  14  37  1   
 28  15  16  2   
 29  15  17  am  
 30  17  18  1   
 31  17  38  1   
 32  18  19  1   
 33  18  20  1   
 34  18  39  1   
 35  19  21  ar  
 36  19  22  ar  
 37  20  40  1   
 38  20  41  1   
 39  20  42  1   
 40  21  23  ar  
 41  21  43  1   
 42  22  24  ar  
 43  22  44  1   
 44  23  25  ar  
 45  23  45  1   
 46  24  25  ar  
 47  24  46  1   
 48  25  26  1   
 49  26  47  1   
 50  26  48  1   
 51  26  49  1   
@<TRIPOS>SUBSTRUCTURE
  1 ****  12 GROUP 4 **** **** 0

# MOE 2024.06 (io_trps.svl 2023.06)
