@<TRIPOS>MOLECULE
NONAME
47 50 1 0 0 
SMALL
USER_CHARGES


@<TRIPOS>ATOM
  1 S       -0.3220    -0.1240     0.0610 S.3   1 <1>  -0.0800 
  2 C        0.4080     1.4580     0.3450 C.2   1 <1>   0.0410 
  3 C       -1.9360     0.4690     0.3980 C.2   1 <1>  -0.1400 
  4 C        1.8360     1.6020     0.2010 C.2   1 <1>   0.2880 
  5 C       -0.5750     2.3320     0.6760 C.2   1 <1>  -0.1500 
  6 C       -1.8910     1.7810     0.7070 C.2   1 <1>  -0.1500 
  7 C       -3.0410    -0.5610     0.2860 C.3   1 <1>   0.5230 
  8 N        2.6490     0.6440    -0.1730 N.2   1 <1>  -0.7070 
  9 C        2.5470     2.7830     0.4370 C.2   1 <1>  -0.1500 
 10 N       -4.3220     0.1190    -0.0240 N.4   1 <1>  -0.9590 
 11 N        3.8730     1.1960    -0.1780 N.pl3 1 <1>   0.3000 
 12 C        3.8380     2.4910     0.1880 C.2   1 <1>  -0.3020 
 13 C       -5.5190    -0.7300     0.1870 C.3   1 <1>   0.3430 
 14 C       -4.3170     0.7820    -1.3640 C.3   1 <1>   0.3430 
 15 C       -6.7830     0.1390     0.1710 C.3   1 <1>  -0.1600 
 16 C       -5.6820     1.4060    -1.6810 C.3   1 <1>  -0.1600 
 17 C       -6.5740     1.5310    -0.4420 C.3   1 <1>   0.4180 
 18 O       -5.8860     2.2870     0.5330 O.3   1 <1>  -0.5600 
 19 C       -7.9230     2.1590    -0.7700 C.2   1 <1>  -0.2880 
 20 C       -5.9750     3.6860     0.4430 C.3   1 <1>   0.1200 
 21 C       -8.3340     3.3350    -0.2930 C.2   1 <1>  -0.2760 
 22 C       -7.4270     4.1520     0.6060 C.3   1 <1>  -0.0220 
 23 C       -9.6930     3.9510    -0.5770 C.3   1 <1>  -0.1020 
 24 H       -0.4090     3.3700     0.9050 H     1 <1>   0.1500 
 25 H       -2.7290     2.4060     0.9660 H     1 <1>   0.1500 
 26 H       -3.1140    -1.0990     1.2170 H     1 <1>   0.0800 
 27 H       -2.8010    -1.2620    -0.4960 H     1 <1>   0.0800 
 28 H        2.1220     3.7170     0.7540 H     1 <1>   0.1500 
 29 H       -4.4330     0.9010     0.6480 H     1 <1>   0.4500 
 30 H        4.7130     0.6630    -0.4360 H     1 <1>   0.2700 
 31 H        4.7140     3.1110     0.2470 H     1 <1>   0.1500 
 32 H       -5.4540    -1.2440     1.1330 H     1 <1>   0.0800 
 33 H       -5.5780    -1.4680    -0.5970 H     1 <1>   0.0800 
 34 H       -4.0590     0.0710    -2.1330 H     1 <1>   0.0800 
 35 H       -3.5690     1.5600    -1.3690 H     1 <1>   0.0800 
 36 H       -7.1650     0.2520     1.1710 H     1 <1>   0.0800 
 37 H       -7.5350    -0.3900    -0.3860 H     1 <1>   0.0800 
 38 H       -6.1820     0.7880    -2.4050 H     1 <1>   0.0800 
 39 H       -5.5480     2.3660    -2.1440 H     1 <1>   0.0800 
 40 H       -8.5280     1.5550    -1.4230 H     1 <1>   0.1500 
 41 H       -5.5910     3.9960    -0.5130 H     1 <1>   0.0800 
 42 H       -5.3610     4.1110     1.2180 H     1 <1>   0.0800 
 43 H       -7.4830     5.1940     0.3450 H     1 <1>   0.0800 
 44 H       -7.7350     4.0480     1.6320 H     1 <1>   0.0800 
 45 H      -10.2290     4.1070     0.3420 H     1 <1>   0.0800 
 46 H      -10.2790     3.3050    -1.2070 H     1 <1>   0.0800 
 47 H       -9.5770     4.8970    -1.0760 H     1 <1>   0.0800 
@<TRIPOS>BOND
  1   1   2  1   
  2   1   3  1   
  3   2   4  1   
  4   2   5  2   
  5   3   6  2   
  6   3   7  1   
  7   4   8  2   
  8   4   9  1   
  9   5   6  1   
 10   5  24  1   
 11   6  25  1   
 12   7  10  1   
 13   7  26  1   
 14   7  27  1   
 15   8  11  1   
 16   9  12  2   
 17   9  28  1   
 18  10  13  1   
 19  10  14  1   
 20  10  29  1   
 21  11  12  1   
 22  11  30  1   
 23  12  31  1   
 24  13  15  1   
 25  13  32  1   
 26  13  33  1   
 27  14  16  1   
 28  14  34  1   
 29  14  35  1   
 30  15  17  1   
 31  15  36  1   
 32  15  37  1   
 33  16  17  1   
 34  16  38  1   
 35  16  39  1   
 36  17  18  1   
 37  17  19  1   
 38  18  20  1   
 39  19  21  2   
 40  19  40  1   
 41  20  22  1   
 42  20  41  1   
 43  20  42  1   
 44  21  22  1   
 45  21  23  1   
 46  22  43  1   
 47  22  44  1   
 48  23  45  1   
 49  23  46  1   
 50  23  47  1   
@<TRIPOS>SUBSTRUCTURE
  1 ****   6 GROUP 4 **** **** 0

# MOE 2024.06 (io_trps.svl 2023.06)
