@<TRIPOS>MOLECULE
NONAME
39 40 1 0 0 
SMALL
USER_CHARGES


@<TRIPOS>ATOM
  1 O        0.1140    -1.3070     0.2340 O.3   1 <1>  -0.5600 
  2 C       -0.7530    -1.9730     1.0840 C.3   1 <1>   0.1200 
  3 C        1.4250    -1.6240     0.5930 C.3   1 <1>   0.1200 
  4 C       -0.1310    -3.3580     1.1710 C.3   1 <1>  -0.0800 
  5 C        1.3360    -2.9690     1.3230 C.3   1 <1>  -0.1600 
  6 C       -0.3020    -4.1670    -0.1260 C.3   1 <1>   0.3430 
  7 N       -1.7340    -4.3270    -0.5100 N.4   1 <1>  -0.9590 
  8 C       -2.1130    -5.7220    -0.8130 C.3   1 <1>   0.5230 
  9 C       -2.1600    -3.3470    -1.5540 C.3   1 <1>   0.3430 
 10 C       -1.9130    -6.5140     0.4540 C.2   1 <1>  -0.3320 
 11 C       -3.6640    -3.0360    -1.4060 C.3   1 <1>   0.1200 
 12 N       -1.1580    -7.6290     0.5690 N.pl3 1 <1>   0.0480 
 13 C       -2.4300    -6.2720     1.6800 C.2   1 <1>   0.0770 
 14 O       -4.0360    -3.1190    -0.0590 O.3   1 <1>  -0.6800 
 15 C       -1.2580    -7.9720     1.8730 C.2   1 <1>   0.0360 
 16 C       -0.4000    -8.3600    -0.4660 C.3   1 <1>   0.0160 
 17 N       -2.0050    -7.1800     2.5690 N.2   1 <1>  -0.5650 
 18 H       -1.7500    -1.9430     0.6880 H     1 <1>   0.0800 
 19 H       -0.7360    -1.4750     2.0400 H     1 <1>   0.0800 
 20 H        1.8020    -0.8470     1.2380 H     1 <1>   0.0800 
 21 H        2.0200    -1.6790    -0.3030 H     1 <1>   0.0800 
 22 H       -0.4880    -3.9170     2.0200 H     1 <1>   0.0800 
 23 H        1.5790    -2.8190     2.3610 H     1 <1>   0.0800 
 24 H        2.0220    -3.6930     0.9160 H     1 <1>   0.0800 
 25 H        0.1500    -5.1340     0.0200 H     1 <1>   0.0800 
 26 H        0.2300    -3.6690    -0.9210 H     1 <1>   0.0800 
 27 H       -2.3170    -4.0710     0.3060 H     1 <1>   0.4500 
 28 H       -1.5020    -6.1120    -1.6100 H     1 <1>   0.0800 
 29 H       -3.1490    -5.7720    -1.1060 H     1 <1>   0.0800 
 30 H       -1.9420    -3.7110    -2.5450 H     1 <1>   0.0800 
 31 H       -1.6170    -2.4250    -1.4190 H     1 <1>   0.0800 
 32 H       -4.2550    -3.7430    -1.9630 H     1 <1>   0.0800 
 33 H       -3.8770    -2.0430    -1.7650 H     1 <1>   0.0800 
 34 H       -3.0960    -5.4810     1.9880 H     1 <1>   0.1500 
 35 H       -4.9630    -2.8170     0.0690 H     1 <1>   0.4000 
 36 H       -0.7570    -8.8340     2.2800 H     1 <1>   0.1500 
 37 H        0.3420    -7.7140    -0.8970 H     1 <1>   0.0800 
 38 H       -1.0750    -8.7040    -1.2290 H     1 <1>   0.0800 
 39 H        0.0880    -9.2090    -0.0220 H     1 <1>   0.0800 
@<TRIPOS>BOND
  1   1   2  1   
  2   1   3  1   
  3   2   4  1   
  4   2  18  1   
  5   2  19  1   
  6   3   5  1   
  7   3  20  1   
  8   3  21  1   
  9   4   5  1   
 10   4   6  1   
 11   4  22  1   
 12   5  23  1   
 13   5  24  1   
 14   6   7  1   
 15   6  25  1   
 16   6  26  1   
 17   7   8  1   
 18   7   9  1   
 19   7  27  1   
 20   8  10  1   
 21   8  28  1   
 22   8  29  1   
 23   9  11  1   
 24   9  30  1   
 25   9  31  1   
 26  10  12  1   
 27  10  13  2   
 28  11  14  1   
 29  11  32  1   
 30  11  33  1   
 31  12  15  1   
 32  12  16  1   
 33  13  17  1   
 34  13  34  1   
 35  14  35  1   
 36  15  17  2   
 37  15  36  1   
 38  16  37  1   
 39  16  38  1   
 40  16  39  1   
@<TRIPOS>SUBSTRUCTURE
  1 ****   7 GROUP 4 **** **** 0

# MOE 2024.06 (io_trps.svl 2023.06)
