@<TRIPOS>MOLECULE
NONAME
55 55 1 0 0 
SMALL
USER_CHARGES


@<TRIPOS>ATOM
  1 O        0.2700     1.6950     1.6370 O.2   1 <1>  -0.5700 
  2 C       -0.0250     2.1110     0.5140 C.2   1 <1>   0.5690 
  3 N       -1.3070     2.0090     0.0560 N.am  1 <1>  -0.7300 
  4 C        1.0960     2.6440    -0.4180 C.3   1 <1>   0.2810 
  5 C       -2.3820     1.2700     0.7710 C.3   1 <1>   0.1400 
  6 N        2.2860     1.8170    -0.1910 N.am  1 <1>  -0.7300 
  7 C        1.4070     4.1530    -0.2110 C.3   1 <1>  -0.0800 
  8 C       -2.5640    -0.1410     0.1900 C.3   1 <1>  -0.1600 
  9 C        3.1010     1.3310    -1.1310 C.2   1 <1>   0.5690 
 10 C        2.5390     4.6680    -1.1170 C.3   1 <1>  -0.2400 
 11 C        1.7310     4.5330     1.2460 C.3   1 <1>  -0.2400 
 12 C       -1.2240    -0.8290    -0.1000 C.3   1 <1>   0.1400 
 13 O        3.0260     1.7070    -2.2950 O.2   1 <1>  -0.5700 
 14 C        4.0700     0.1910    -0.7130 C.3   1 <1>   0.2810 
 15 N       -1.3120    -2.3150    -0.2350 N.am  1 <1>  -0.6600 
 16 N        3.4080    -0.7570     0.1900 N.am  1 <1>  -0.7300 
 17 C        5.3140     0.7280     0.0000 C.3   1 <1>  -0.2400 
 18 C       -2.1100    -2.9030    -1.1860 C.2   1 <1>   0.5690 
 19 C       -0.2310    -3.0390     0.4970 C.3   1 <1>   0.1400 
 20 C        3.4680    -2.1030     0.0500 C.2   1 <1>   0.5690 
 21 O       -2.7970    -2.2620    -1.9440 O.2   1 <1>  -0.5700 
 22 C       -2.1490    -4.4070    -1.3310 C.3   1 <1>  -0.1790 
 23 C        1.0970    -2.8500    -0.2530 C.3   1 <1>  -0.1600 
 24 O        4.3310    -2.6570    -0.5800 O.2   1 <1>  -0.5700 
 25 C        2.3380    -2.9090     0.6610 C.3   1 <1>  -0.0990 
 26 H       -1.5410     2.3010    -0.8960 H     1 <1>   0.3700 
 27 H        0.7630     2.5070    -1.4480 H     1 <1>   0.0800 
 28 H       -2.1250     1.1900     1.8150 H     1 <1>   0.0800 
 29 H       -3.3060     1.8190     0.7030 H     1 <1>   0.0800 
 30 H        2.4280     1.5470     0.7690 H     1 <1>   0.3700 
 31 H        0.5020     4.6960    -0.4890 H     1 <1>   0.0800 
 32 H       -3.1360    -0.0700    -0.7180 H     1 <1>   0.0800 
 33 H       -3.1270    -0.7290     0.8920 H     1 <1>   0.0800 
 34 H        3.4920     4.2220    -0.8290 H     1 <1>   0.0800 
 35 H        2.6200     5.7520    -1.0360 H     1 <1>   0.0800 
 36 H        2.3320     4.4090    -2.1560 H     1 <1>   0.0800 
 37 H        2.6140     3.9940     1.5900 H     1 <1>   0.0800 
 38 H        0.8920     4.2950     1.9010 H     1 <1>   0.0800 
 39 H        1.9230     5.6040     1.3170 H     1 <1>   0.0800 
 40 H       -0.5470    -0.5980     0.7030 H     1 <1>   0.0800 
 41 H       -0.8070    -0.4270    -1.0080 H     1 <1>   0.0800 
 42 H        4.3840    -0.3230    -1.6250 H     1 <1>   0.0800 
 43 H        2.6420    -0.3940     0.7290 H     1 <1>   0.3700 
 44 H        5.0300     1.2400     0.9190 H     1 <1>   0.0800 
 45 H        5.8340     1.4260    -0.6570 H     1 <1>   0.0800 
 46 H        5.9800    -0.1020     0.2380 H     1 <1>   0.0800 
 47 H       -0.1640    -2.6300     1.4910 H     1 <1>   0.0800 
 48 H       -0.4560    -4.0860     0.5980 H     1 <1>   0.0800 
 49 H       -2.4340    -4.8560    -0.3990 H     1 <1>   0.0800 
 50 H       -1.1870    -4.7700    -1.6360 H     1 <1>   0.0800 
 51 H       -2.8720    -4.6790    -2.0780 H     1 <1>   0.0800 
 52 H        1.1870    -3.5950    -1.0240 H     1 <1>   0.0800 
 53 H        1.0930    -1.8940    -0.7460 H     1 <1>   0.0800 
 54 H        2.6540    -3.9280     0.7940 H     1 <1>   0.0800 
 55 H        2.1190    -2.4970     1.6290 H     1 <1>   0.0800 
@<TRIPOS>BOND
  1   1   2  2   
  2   2   3  am  
  3   2   4  1   
  4   3   5  1   
  5   3  26  1   
  6   4   6  1   
  7   4   7  1   
  8   4  27  1   
  9   5   8  1   
 10   5  28  1   
 11   5  29  1   
 12   6   9  am  
 13   6  30  1   
 14   7  10  1   
 15   7  11  1   
 16   7  31  1   
 17   8  12  1   
 18   8  32  1   
 19   8  33  1   
 20   9  13  2   
 21   9  14  1   
 22  10  34  1   
 23  10  35  1   
 24  10  36  1   
 25  11  37  1   
 26  11  38  1   
 27  11  39  1   
 28  12  15  1   
 29  12  40  1   
 30  12  41  1   
 31  14  16  1   
 32  14  17  1   
 33  14  42  1   
 34  15  18  am  
 35  15  19  1   
 36  16  20  am  
 37  16  43  1   
 38  17  44  1   
 39  17  45  1   
 40  17  46  1   
 41  18  21  2   
 42  18  22  1   
 43  19  23  1   
 44  19  47  1   
 45  19  48  1   
 46  20  24  2   
 47  20  25  1   
 48  22  49  1   
 49  22  50  1   
 50  22  51  1   
 51  23  25  1   
 52  23  52  1   
 53  23  53  1   
 54  25  54  1   
 55  25  55  1   
@<TRIPOS>SUBSTRUCTURE
  1 ****   6 GROUP 4 **** **** 0

# MOE 2024.06 (io_trps.svl 2023.06)
