@<TRIPOS>MOLECULE
NONAME
42 44 1 0 0 
SMALL
USER_CHARGES


@<TRIPOS>ATOM
  1 F        1.0450     1.4180     1.3050 F     1 <1>  -0.1900 
  2 C        1.3780     2.4240     0.5370 C.ar  1 <1>   0.1900 
  3 C        1.2320     3.7040     1.0150 C.ar  1 <1>  -0.1500 
  4 C        1.8700     2.1360    -0.7400 C.ar  1 <1>  -0.1500 
  5 C        1.5970     4.7490     0.1700 C.ar  1 <1>   0.2270 
  6 C        2.2300     3.1730    -1.5730 C.ar  1 <1>  -0.1500 
  7 N        1.5550     6.0930     0.3880 N.2   1 <1>  -0.5650 
  8 C        2.0850     4.4810    -1.0980 C.ar  1 <1>  -0.1520 
  9 C        2.0010     6.6130    -0.7030 C.2   1 <1>   0.0060 
 10 N        2.3390     5.6960    -1.6460 N.pl3 1 <1>   0.0330 
 11 C        2.1450     8.1050    -0.9610 C.3   1 <1>   0.0200 
 12 C        2.1120     8.9130     0.3420 C.3   1 <1>   0.1100 
 13 N        2.3960    10.3430     0.0980 N.3   1 <1>  -0.8100 
 14 C        2.8180    11.0100     1.3700 C.3   1 <1>   0.1710 
 15 C        1.2200    11.0290    -0.4720 C.3   1 <1>   0.0300 
 16 C        3.5530    12.3350     1.1570 C.2   1 <1>   0.5690 
 17 O        3.6090    13.1360     2.0610 O.2   1 <1>  -0.5700 
 18 N        4.1140    12.5340    -0.0630 N.am  1 <1>  -0.4930 
 19 C        4.8270    13.6100    -0.5820 C.2   1 <1>   0.3520 
 20 N        5.2180    13.6380    -1.8080 N.2   1 <1>  -0.4100 
 21 C        5.2200    14.7700     0.0870 C.2   1 <1>  -0.1500 
 22 O        5.8500    14.7750    -1.9590 O.3   1 <1>  -0.0190 
 23 C        5.8680    15.4700    -0.8520 C.2   1 <1>  -0.0400 
 24 C        6.5520    16.8200    -0.8170 C.3   1 <1>  -0.0600 
 25 H        0.8540     3.9120     1.9960 H     1 <1>   0.1500 
 26 H        1.9580     1.1090    -1.0490 H     1 <1>   0.1500 
 27 H        2.6110     2.9890    -2.5620 H     1 <1>   0.1500 
 28 H        2.7120     5.8760    -2.5810 H     1 <1>   0.2700 
 29 H        1.3450     8.4150    -1.6060 H     1 <1>   0.0800 
 30 H        3.0830     8.2880    -1.4520 H     1 <1>   0.0800 
 31 H        2.8650     8.5020     0.9940 H     1 <1>   0.0800 
 32 H        1.1570     8.7940     0.8290 H     1 <1>   0.0800 
 33 H        3.4960    10.3690     1.9040 H     1 <1>   0.0800 
 34 H        1.9630    11.1790     2.0000 H     1 <1>   0.0800 
 35 H        0.9700    10.6140    -1.4320 H     1 <1>   0.0800 
 36 H        1.4260    12.0770    -0.6110 H     1 <1>   0.0800 
 37 H        0.3700    10.9300     0.1830 H     1 <1>   0.0800 
 38 H        3.9240    11.7800    -0.7280 H     1 <1>   0.3700 
 39 H        5.0240    15.0040     1.1170 H     1 <1>   0.1500 
 40 H        6.4730    17.2510     0.1640 H     1 <1>   0.0800 
 41 H        6.0910    17.4800    -1.5280 H     1 <1>   0.0800 
 42 H        7.5920    16.7070    -1.0670 H     1 <1>   0.0800 
@<TRIPOS>BOND
  1   1   2  1   
  2   2   3  ar  
  3   2   4  ar  
  4   3   5  ar  
  5   3  25  1   
  6   4   6  ar  
  7   4  26  1   
  8   5   7  1   
  9   5   8  ar  
 10   6   8  ar  
 11   6  27  1   
 12   7   9  2   
 13   8  10  1   
 14   9  10  1   
 15   9  11  1   
 16  10  28  1   
 17  11  12  1   
 18  11  29  1   
 19  11  30  1   
 20  12  13  1   
 21  12  31  1   
 22  12  32  1   
 23  13  14  1   
 24  13  15  1   
 25  14  16  1   
 26  14  33  1   
 27  14  34  1   
 28  15  35  1   
 29  15  36  1   
 30  15  37  1   
 31  16  17  2   
 32  16  18  am  
 33  18  19  1   
 34  18  38  1   
 35  19  20  2   
 36  19  21  1   
 37  20  22  1   
 38  21  23  2   
 39  21  39  1   
 40  22  23  1   
 41  23  24  1   
 42  24  40  1   
 43  24  41  1   
 44  24  42  1   
@<TRIPOS>SUBSTRUCTURE
  1 ****  12 GROUP 4 **** **** 0

# MOE 2024.06 (io_trps.svl 2023.06)
