@<TRIPOS>MOLECULE
NONAME
46 48 1 0 0 
SMALL
USER_CHARGES


@<TRIPOS>ATOM
  1 O       -0.9050     0.5550    -0.6950 O.2   1 <1>  -0.5700 
  2 C       -0.7210     1.7380    -0.8590 C.2   1 <1>   0.5690 
  3 N       -0.8130     2.6430     0.1660 N.am  1 <1>  -0.6600 
  4 C       -0.3890     2.2250    -2.2730 C.3   1 <1>   0.1810 
  5 C       -0.5940     4.1070    -0.0740 C.3   1 <1>   0.3640 
  6 C       -1.0070     2.2270     1.5860 C.3   1 <1>   0.0600 
  7 O        0.2660     3.4710    -2.2840 O.3   1 <1>  -0.5600 
  8 C       -1.6730     4.9670     0.6010 C.ar  1 <1>  -0.1430 
  9 C       -0.4280     4.4770    -1.5690 C.3   1 <1>   0.2610 
 10 C       -3.0520     4.7850     0.4460 C.ar  1 <1>  -0.1430 
 11 C       -1.2200     5.9950     1.4190 C.ar  1 <1>  -0.1500 
 12 C        0.2410     5.8520    -1.7080 C.2   1 <1>   0.5690 
 13 C       -3.9280     5.6320     1.1100 C.ar  1 <1>  -0.1500 
 14 C       -3.6710     3.6850    -0.4110 C.3   1 <1>  -0.0960 
 15 C       -2.1030     6.8300     2.0770 C.ar  1 <1>  -0.1500 
 16 O       -0.4500     6.7500    -2.1340 O.2   1 <1>  -0.5700 
 17 N        1.5480     6.0970    -1.3450 N.am  1 <1>  -0.6600 
 18 C       -3.4620     6.6490     1.9200 C.ar  1 <1>  -0.1500 
 19 C        2.0490     7.5020    -1.3310 C.3   1 <1>   0.3210 
 20 C        2.5540     5.0890    -0.8970 C.3   1 <1>   0.0600 
 21 C        1.7220     8.1620     0.0000 C.2   1 <1>   0.1080 
 22 N        2.5210     8.2170     1.0090 N.2   1 <1>  -0.4100 
 23 C        0.5140     8.7900     0.2940 C.2   1 <1>  -0.1500 
 24 O        1.8800     8.8600     1.9430 O.3   1 <1>  -0.0190 
 25 C        0.6870     9.2170     1.5530 C.2   1 <1>  -0.0100 
 26 H       -1.2930     2.3080    -2.8470 H     1 <1>   0.0800 
 27 H        0.2590     1.5120    -2.7500 H     1 <1>   0.0800 
 28 H        0.3370     4.3410     0.4070 H     1 <1>   0.0800 
 29 H       -0.1980     2.5990     2.1900 H     1 <1>   0.0800 
 30 H       -1.0330     1.1540     1.6690 H     1 <1>   0.0800 
 31 H       -1.9350     2.6220     1.9620 H     1 <1>   0.0800 
 32 H       -1.3980     4.5660    -2.0190 H     1 <1>   0.0800 
 33 H       -0.1640     6.1640     1.5560 H     1 <1>   0.1500 
 34 H       -4.9910     5.5050     1.0030 H     1 <1>   0.1500 
 35 H       -4.7210     3.8610    -0.5620 H     1 <1>   0.0800 
 36 H       -3.5630     2.7330     0.0770 H     1 <1>   0.0800 
 37 H       -3.2130     3.6330    -1.3780 H     1 <1>   0.0800 
 38 H       -1.7330     7.6190     2.7080 H     1 <1>   0.1500 
 39 H       -4.1560     7.2960     2.4280 H     1 <1>   0.1500 
 40 H        3.1130     7.5130    -1.4830 H     1 <1>   0.0800 
 41 H        1.5980     8.0650    -2.1290 H     1 <1>   0.0800 
 42 H        3.4130     5.1250    -1.5450 H     1 <1>   0.0800 
 43 H        2.1620     4.0900    -0.9200 H     1 <1>   0.0800 
 44 H        2.8670     5.3140     0.1090 H     1 <1>   0.0800 
 45 H       -0.3340     8.8800    -0.3620 H     1 <1>   0.1500 
 46 H        0.0450     9.7580     2.2240 H     1 <1>   0.1500 
@<TRIPOS>BOND
  1   1   2  2   
  2   2   3  am  
  3   2   4  1   
  4   3   5  1   
  5   3   6  1   
  6   4   7  1   
  7   4  26  1   
  8   4  27  1   
  9   5   8  1   
 10   5   9  1   
 11   5  28  1   
 12   6  29  1   
 13   6  30  1   
 14   6  31  1   
 15   7   9  1   
 16   8  10  ar  
 17   8  11  ar  
 18   9  12  1   
 19   9  32  1   
 20  10  13  ar  
 21  10  14  1   
 22  11  15  ar  
 23  11  33  1   
 24  12  16  2   
 25  12  17  am  
 26  13  18  ar  
 27  13  34  1   
 28  14  35  1   
 29  14  36  1   
 30  14  37  1   
 31  15  18  ar  
 32  15  38  1   
 33  17  19  1   
 34  17  20  1   
 35  18  39  1   
 36  19  21  1   
 37  19  40  1   
 38  19  41  1   
 39  20  42  1   
 40  20  43  1   
 41  20  44  1   
 42  21  22  2   
 43  21  23  1   
 44  22  24  1   
 45  23  25  2   
 46  23  45  1   
 47  24  25  1   
 48  25  46  1   
@<TRIPOS>SUBSTRUCTURE
  1 ****   5 GROUP 4 **** **** 0

# MOE 2024.06 (io_trps.svl 2023.06)
