@<TRIPOS>MOLECULE
NONAME
49 51 1 0 0 
SMALL
USER_CHARGES


@<TRIPOS>ATOM
  1 CL      -0.1920    -0.5190    -1.4970 Cl    1 <1>  -0.1770 
  2 C       -1.5370    -0.9800    -0.4700 C.ar  1 <1>   0.1770 
  3 C       -2.4300    -0.0660     0.1090 C.ar  1 <1>   0.0830 
  4 C       -1.6840    -2.3380    -0.2660 C.ar  1 <1>  -0.1500 
  5 O       -2.4200     1.2880     0.0080 O.3   1 <1>  -0.3630 
  6 C       -3.4580    -0.5760     0.8890 C.ar  1 <1>  -0.1500 
  7 C       -2.7210    -2.8520     0.5090 C.ar  1 <1>   0.0860 
  8 C       -1.3700     2.0440    -0.5440 C.3   1 <1>   0.1200 
  9 C       -3.5990    -1.9360     1.0890 C.ar  1 <1>  -0.1500 
 10 C       -2.8660    -4.2820     0.7030 C.2   1 <1>   0.5440 
 11 C       -1.6640     3.5180    -0.2790 C.3   1 <1>  -0.2400 
 12 O       -1.8890    -4.9530     0.9750 O.2   1 <1>  -0.5700 
 13 N       -4.0840    -4.9080     0.5620 N.am  1 <1>  -0.6600 
 14 C       -5.1940    -4.4010    -0.2880 C.3   1 <1>   0.1400 
 15 C       -4.2850    -6.3530     0.8240 C.3   1 <1>   0.1400 
 16 C       -6.1150    -5.6030    -0.5470 C.3   1 <1>   0.2000 
 17 C       -5.2200    -6.8200    -0.2920 C.3   1 <1>  -0.0800 
 18 O       -7.1590    -5.6080     0.3850 O.3   1 <1>  -0.5600 
 19 C       -5.9760    -8.1190     0.0410 C.3   1 <1>   0.0200 
 20 C       -8.2800    -4.8620     0.0260 C.3   1 <1>   0.0400 
 21 C       -5.0690    -9.3360     0.1150 C.2   1 <1>  -0.0400 
 22 O       -5.5840   -10.4830     0.4710 O.3   1 <1>  -0.0190 
 23 C       -3.7610    -9.5340    -0.1210 C.2   1 <1>  -0.1500 
 24 N       -4.6950   -11.4330     0.4900 N.2   1 <1>  -0.4100 
 25 C       -3.5860   -10.8900     0.1380 C.2   1 <1>   0.1080 
 26 C       -2.2730   -11.6300     0.0250 C.3   1 <1>  -0.0590 
 27 H       -0.9810    -3.0190    -0.7130 H     1 <1>   0.1500 
 28 H       -4.1490     0.1110     1.3460 H     1 <1>   0.1500 
 29 H       -0.4490     1.7520    -0.0700 H     1 <1>   0.0800 
 30 H       -1.3310     1.8540    -1.6020 H     1 <1>   0.0800 
 31 H       -4.3970    -2.3020     1.7120 H     1 <1>   0.1500 
 32 H       -1.7200     3.6990     0.7790 H     1 <1>   0.0800 
 33 H       -2.5930     3.7990    -0.7420 H     1 <1>   0.0800 
 34 H       -0.8780     4.1250    -0.6910 H     1 <1>   0.0800 
 35 H       -5.7230    -3.6050     0.2050 H     1 <1>   0.0800 
 36 H       -4.7870    -4.0450    -1.2190 H     1 <1>   0.0800 
 37 H       -3.3540    -6.8930     0.8190 H     1 <1>   0.0800 
 38 H       -4.7580    -6.4660     1.7840 H     1 <1>   0.0800 
 39 H       -6.5250    -5.6080    -1.5430 H     1 <1>   0.0800 
 40 H       -4.6250    -6.9800    -1.1740 H     1 <1>   0.0800 
 41 H       -6.7220    -8.2990    -0.7130 H     1 <1>   0.0800 
 42 H       -6.4850    -8.0140     0.9830 H     1 <1>   0.0800 
 43 H       -8.9960    -4.9310     0.8260 H     1 <1>   0.0800 
 44 H       -8.7060    -5.2710    -0.8740 H     1 <1>   0.0800 
 45 H       -8.0000    -3.8340    -0.1190 H     1 <1>   0.0800 
 46 H       -2.9960    -8.8480    -0.4340 H     1 <1>   0.1500 
 47 H       -1.5350   -11.1610     0.6500 H     1 <1>   0.0800 
 48 H       -1.9350   -11.6190    -0.9950 H     1 <1>   0.0800 
 49 H       -2.3990   -12.6500     0.3400 H     1 <1>   0.0800 
@<TRIPOS>BOND
  1   1   2  1   
  2   2   3  ar  
  3   2   4  ar  
  4   3   5  1   
  5   3   6  ar  
  6   4   7  ar  
  7   4  27  1   
  8   5   8  1   
  9   6   9  ar  
 10   6  28  1   
 11   7   9  ar  
 12   7  10  1   
 13   8  11  1   
 14   8  29  1   
 15   8  30  1   
 16   9  31  1   
 17  10  12  2   
 18  10  13  am  
 19  11  32  1   
 20  11  33  1   
 21  11  34  1   
 22  13  14  1   
 23  13  15  1   
 24  14  16  1   
 25  14  35  1   
 26  14  36  1   
 27  15  17  1   
 28  15  37  1   
 29  15  38  1   
 30  16  17  1   
 31  16  18  1   
 32  16  39  1   
 33  17  19  1   
 34  17  40  1   
 35  18  20  1   
 36  19  21  1   
 37  19  41  1   
 38  19  42  1   
 39  20  43  1   
 40  20  44  1   
 41  20  45  1   
 42  21  22  1   
 43  21  23  2   
 44  22  24  1   
 45  23  25  1   
 46  23  46  1   
 47  24  25  2   
 48  25  26  1   
 49  26  47  1   
 50  26  48  1   
 51  26  49  1   
@<TRIPOS>SUBSTRUCTURE
  1 ****  13 GROUP 4 **** **** 0

# MOE 2024.06 (io_trps.svl 2023.06)
