@<TRIPOS>MOLECULE
NONAME
59 62 1 0 0 
SMALL
USER_CHARGES


@<TRIPOS>ATOM
  1 O        0.1110     0.8860    -0.6460 O.2   1 <1>  -0.5700 
  2 C       -0.1180     1.9850    -0.1950 C.2   1 <1>   0.5690 
  3 N       -1.4140     2.4280    -0.0560 N.am  1 <1>  -0.6600 
  4 C        1.0660     2.8660     0.2190 C.3   1 <1>  -0.0190 
  5 C       -2.5290     1.6040    -0.6180 C.3   1 <1>   0.1400 
  6 C       -1.8090     3.6990     0.6250 C.3   1 <1>   0.1400 
  7 C        1.1960     4.1600    -0.6150 C.3   1 <1>  -0.0220 
  8 C        2.4610     2.1940     0.1730 C.3   1 <1>  -0.0220 
  9 C       -3.7190     2.4910    -0.9890 C.3   1 <1>  -0.1600 
 10 C       -3.1800     3.5260     1.2760 C.3   1 <1>  -0.1600 
 11 C        2.6860     4.3890    -0.6520 C.2   1 <1>  -0.2880 
 12 C        3.3670     3.3330    -0.2250 C.2   1 <1>  -0.2880 
 13 C       -4.2820     3.2750     0.2200 C.3   1 <1>   0.2800 
 14 O       -4.6460     4.5130    -0.3230 O.3   1 <1>  -0.5600 
 15 C       -5.5160     2.5460     0.8260 C.3   1 <1>  -0.1600 
 16 C       -5.4300     5.4370     0.3980 C.3   1 <1>   0.1200 
 17 C       -6.8340     3.3390     0.7660 C.3   1 <1>   0.3000 
 18 C       -6.5370     4.7830     1.2460 C.3   1 <1>   0.2000 
 19 N       -7.2660     3.3390    -0.6510 N.am  1 <1>  -0.7300 
 20 C       -7.8840     2.6190     1.6270 C.3   1 <1>  -0.2400 
 21 O       -6.1270     4.7840     2.5820 O.3   1 <1>  -0.6800 
 22 C       -8.3770     3.7500    -1.3110 C.2   1 <1>   0.5770 
 23 O       -8.3440     3.7410    -2.5160 O.2   1 <1>  -0.5700 
 24 C       -9.6390     4.2370    -0.5980 C.3   1 <1>   0.0530 
 25 C      -10.7360     3.1520    -0.4240 C.3   1 <1>   0.0000 
 26 C      -10.6730     5.0200    -1.4590 C.3   1 <1>   0.0000 
 27 C      -11.7760     4.2770    -0.6640 C.3   1 <1>   0.0000 
 28 H        0.9200     3.1540     1.2430 H     1 <1>   0.0800 
 29 H       -2.1870     1.0850    -1.4990 H     1 <1>   0.0800 
 30 H       -2.8230     0.8670     0.1090 H     1 <1>   0.0800 
 31 H       -1.0940     3.9580     1.3850 H     1 <1>   0.0800 
 32 H       -1.8470     4.4960    -0.0990 H     1 <1>   0.0800 
 33 H        0.8250     4.0190    -1.6150 H     1 <1>   0.0800 
 34 H        0.6880     4.9820    -0.1450 H     1 <1>   0.0800 
 35 H        2.7260     1.7870     1.1330 H     1 <1>   0.0800 
 36 H        2.5220     1.4230    -0.5760 H     1 <1>   0.0800 
 37 H       -4.4800     1.8880    -1.4490 H     1 <1>   0.0800 
 38 H       -3.3740     3.1780    -1.7430 H     1 <1>   0.0800 
 39 H       -3.4060     4.3900     1.8710 H     1 <1>   0.0800 
 40 H       -3.1060     2.6880     1.9460 H     1 <1>   0.0800 
 41 H        3.0610     5.3320    -1.0150 H     1 <1>   0.1500 
 42 H        4.4330     3.1990    -0.1510 H     1 <1>   0.1500 
 43 H       -5.6640     1.5850     0.3680 H     1 <1>   0.0800 
 44 H       -5.3040     2.3220     1.8550 H     1 <1>   0.0800 
 45 H       -4.7830     6.0470     1.0030 H     1 <1>   0.0800 
 46 H       -5.8900     6.0710    -0.3390 H     1 <1>   0.0800 
 47 H       -7.4270     5.3840     1.2060 H     1 <1>   0.0800 
 48 H       -6.4680     3.2180    -1.2800 H     1 <1>   0.3700 
 49 H       -7.4880     2.4080     2.6040 H     1 <1>   0.0800 
 50 H       -8.1720     1.6880     1.1730 H     1 <1>   0.0800 
 51 H       -8.7520     3.2290     1.7770 H     1 <1>   0.0800 
 52 H       -5.2970     4.2820     2.6790 H     1 <1>   0.4000 
 53 H       -9.4400     4.7700     0.3150 H     1 <1>   0.0000 
 54 H      -10.7330     2.4180    -1.2120 H     1 <1>   0.0000 
 55 H      -10.7840     2.7240     0.5610 H     1 <1>   0.0000 
 56 H      -10.6610     6.0830    -1.2930 H     1 <1>   0.0000 
 57 H      -10.6810     4.7500    -2.5010 H     1 <1>   0.0000 
 58 H      -12.0520     4.7890     0.2430 H     1 <1>   0.0000 
 59 H      -12.6160     3.9730    -1.2620 H     1 <1>   0.0000 
@<TRIPOS>BOND
  1   1   2  2   
  2   2   3  am  
  3   2   4  1   
  4   3   5  1   
  5   3   6  1   
  6   4   7  1   
  7   4   8  1   
  8   4  28  1   
  9   5   9  1   
 10   5  29  1   
 11   5  30  1   
 12   6  10  1   
 13   6  31  1   
 14   6  32  1   
 15   7  11  1   
 16   7  33  1   
 17   7  34  1   
 18   8  12  1   
 19   8  35  1   
 20   8  36  1   
 21   9  13  1   
 22   9  37  1   
 23   9  38  1   
 24  10  13  1   
 25  10  39  1   
 26  10  40  1   
 27  11  12  2   
 28  11  41  1   
 29  12  42  1   
 30  13  14  1   
 31  13  15  1   
 32  14  16  1   
 33  15  17  1   
 34  15  43  1   
 35  15  44  1   
 36  16  18  1   
 37  16  45  1   
 38  16  46  1   
 39  17  18  1   
 40  17  19  1   
 41  17  20  1   
 42  18  21  1   
 43  18  47  1   
 44  19  22  am  
 45  19  48  1   
 46  20  49  1   
 47  20  50  1   
 48  20  51  1   
 49  21  52  1   
 50  22  23  2   
 51  22  24  1   
 52  24  25  1   
 53  24  26  1   
 54  24  53  1   
 55  25  27  1   
 56  25  54  1   
 57  25  55  1   
 58  26  27  1   
 59  26  56  1   
 60  26  57  1   
 61  27  58  1   
 62  27  59  1   
@<TRIPOS>SUBSTRUCTURE
  1 ****  13 GROUP 4 **** **** 0

# MOE 2024.06 (io_trps.svl 2023.06)
