@<TRIPOS>MOLECULE
NONAME
44 46 1 0 0 
SMALL
USER_CHARGES


@<TRIPOS>ATOM
  1 O       -1.0340     0.0790     2.9070 O.2   1 <1>  -0.5700 
  2 C       -1.4690     0.7410     1.9950 C.2   1 <1>   0.5690 
  3 N       -2.3170     0.2030     1.0650 N.am  1 <1>  -0.6600 
  4 C       -1.0290     2.1950     1.9010 C.3   1 <1>   0.0440 
  5 C       -2.8090     0.8510    -0.1800 C.3   1 <1>   0.1400 
  6 C       -2.7400    -1.2140     1.0920 C.3   1 <1>   0.1400 
  7 C       -0.2100     2.4930     0.6490 C.ar  1 <1>  -0.1440 
  8 C       -3.6470    -0.2130    -0.9020 C.3   1 <1>   0.2000 
  9 C       -3.0970    -1.5360    -0.3600 C.3   1 <1>  -0.0800 
 10 C        0.7420     1.5910     0.1900 C.ar  1 <1>   0.1600 
 11 C       -0.4090     3.6630    -0.0570 C.ar  1 <1>  -0.1500 
 12 O       -4.9900    -0.0970    -0.5270 O.3   1 <1>  -0.5600 
 13 C       -4.0470    -2.7380    -0.5090 C.3   1 <1>   0.0200 
 14 N        1.4750     1.7530    -0.9000 N.ar  1 <1>  -0.6200 
 15 C        0.3550     3.8520    -1.1880 C.ar  1 <1>  -0.1500 
 16 C       -5.7420     0.7990    -1.2850 C.3   1 <1>   0.0400 
 17 C       -3.3960    -4.0590    -0.1320 C.2   1 <1>  -0.0400 
 18 C        1.2670     2.8790    -1.5610 C.ar  1 <1>   0.1600 
 19 O       -4.1270    -5.1420    -0.1280 O.3   1 <1>  -0.0190 
 20 C       -2.1480    -4.4090     0.2200 C.2   1 <1>  -0.1500 
 21 N       -3.4390    -6.1940     0.2090 N.2   1 <1>  -0.4100 
 22 C       -2.2420    -5.7820     0.4260 C.2   1 <1>   0.1080 
 23 C       -1.0970    -6.6750     0.8480 C.3   1 <1>  -0.0590 
 24 H       -1.9070     2.8120     1.9300 H     1 <1>   0.0800 
 25 H       -0.4370     2.4320     2.7660 H     1 <1>   0.0800 
 26 H       -3.3860     1.7300     0.0420 H     1 <1>   0.0800 
 27 H       -1.9670     1.1130    -0.7970 H     1 <1>   0.0800 
 28 H       -1.9550    -1.8470     1.4680 H     1 <1>   0.0800 
 29 H       -3.6080    -1.3030     1.7240 H     1 <1>   0.0800 
 30 H       -3.5670    -0.1530    -1.9740 H     1 <1>   0.0800 
 31 H       -2.1830    -1.7490    -0.8860 H     1 <1>   0.0800 
 32 H        0.9090     0.6820     0.7450 H     1 <1>   0.1500 
 33 H       -1.1260     4.4030     0.2560 H     1 <1>   0.1500 
 34 H       -4.3810    -2.8040    -1.5280 H     1 <1>   0.0800 
 35 H       -4.9160    -2.5940     0.1100 H     1 <1>   0.0800 
 36 H        0.2490     4.7440    -1.7790 H     1 <1>   0.1500 
 37 H       -6.7430     0.8100    -0.8900 H     1 <1>   0.0800 
 38 H       -5.7630     0.4670    -2.3090 H     1 <1>   0.0800 
 39 H       -5.3150     1.7830    -1.2120 H     1 <1>   0.0800 
 40 H        1.8580     3.0370    -2.4470 H     1 <1>   0.1500 
 41 H       -1.2600    -3.8150     0.3280 H     1 <1>   0.1500 
 42 H       -0.2900    -6.5920     0.1440 H     1 <1>   0.0800 
 43 H       -1.4250    -7.6990     0.8840 H     1 <1>   0.0800 
 44 H       -0.7510    -6.3850     1.8230 H     1 <1>   0.0800 
@<TRIPOS>BOND
  1   1   2  2   
  2   2   3  am  
  3   2   4  1   
  4   3   5  1   
  5   3   6  1   
  6   4   7  1   
  7   4  24  1   
  8   4  25  1   
  9   5   8  1   
 10   5  26  1   
 11   5  27  1   
 12   6   9  1   
 13   6  28  1   
 14   6  29  1   
 15   7  10  ar  
 16   7  11  ar  
 17   8   9  1   
 18   8  12  1   
 19   8  30  1   
 20   9  13  1   
 21   9  31  1   
 22  10  14  ar  
 23  10  32  1   
 24  11  15  ar  
 25  11  33  1   
 26  12  16  1   
 27  13  17  1   
 28  13  34  1   
 29  13  35  1   
 30  14  18  ar  
 31  15  18  ar  
 32  15  36  1   
 33  16  37  1   
 34  16  38  1   
 35  16  39  1   
 36  17  19  1   
 37  17  20  2   
 38  18  40  1   
 39  19  21  1   
 40  20  22  1   
 41  20  41  1   
 42  21  22  2   
 43  22  23  1   
 44  23  42  1   
 45  23  43  1   
 46  23  44  1   
@<TRIPOS>SUBSTRUCTURE
  1 ****   6 GROUP 4 **** **** 0

# MOE 2024.06 (io_trps.svl 2023.06)
