@<TRIPOS>MOLECULE
NONAME
56 59 1 0 0 
SMALL
USER_CHARGES


@<TRIPOS>ATOM
  1 O       -0.5310     1.2680    -1.3030 O.2   1 <1>  -0.5700 
  2 C       -0.6800     2.4530    -1.1080 C.2   1 <1>   0.5690 
  3 N       -1.5220     2.9670    -0.1590 N.am  1 <1>  -0.5090 
  4 C        0.1200     3.4310    -1.9590 C.3   1 <1>   0.1810 
  5 C       -1.6700     4.4500     0.0100 C.3   1 <1>   0.3640 
  6 C       -2.1310     2.1180     0.8950 C.3   1 <1>   0.0490 
  7 O        0.5280     4.5330    -1.1910 O.3   1 <1>  -0.5600 
  8 C       -3.0160     4.9110    -0.5530 C.ar  1 <1>  -0.1440 
  9 C       -0.5370     5.2980    -0.6400 C.3   1 <1>   0.2610 
 10 C       -3.0270     0.9930     0.4800 C.3   1 <1>  -0.2000 
 11 C       -3.6020     2.1820     1.1770 C.3   1 <1>  -0.2000 
 12 C       -3.7150     5.9190     0.0970 C.ar  1 <1>   0.1600 
 13 C       -3.5660     4.3630    -1.7000 C.ar  1 <1>  -0.1500 
 14 C       -0.0010     6.2980     0.3890 C.2   1 <1>   0.5690 
 15 N       -4.8830     6.4050    -0.2910 N.ar  1 <1>  -0.6200 
 16 C       -4.7820     4.8600    -2.1160 C.ar  1 <1>  -0.1500 
 17 O       -0.7810     7.0070     0.9790 O.2   1 <1>  -0.5700 
 18 N        1.3370     6.3610     0.6180 N.am  1 <1>  -0.7300 
 19 C       -5.3890     5.8650    -1.3860 C.ar  1 <1>   0.1600 
 20 C        2.0320     7.3220     1.5070 C.3   1 <1>   0.1400 
 21 C        3.0040     8.2200     0.7060 C.3   1 <1>   0.0000 
 22 C        2.2590     9.2550    -0.1940 C.3   1 <1>   0.0000 
 23 C        3.4930     9.4290     1.5640 C.3   1 <1>   0.0000 
 24 C        4.1020     7.3810    -0.0020 C.3   1 <1>  -0.1600 
 25 C        2.2980    10.2430     1.0020 C.3   1 <1>   0.0000 
 26 C        5.2600     8.1440    -0.6710 C.3   1 <1>  -0.1600 
 27 C        6.1860     7.1770    -1.4150 C.3   1 <1>  -0.2400 
 28 H       -0.4700     3.7780    -2.7870 H     1 <1>   0.0800 
 29 H        1.0020     2.9440    -2.3320 H     1 <1>   0.0800 
 30 H       -1.6730     4.6440     1.0700 H     1 <1>   0.0800 
 31 H       -1.4570     1.9400     1.7170 H     1 <1>   0.1000 
 32 H       -0.9510     5.8750    -1.4480 H     1 <1>   0.0800 
 33 H       -3.2200     0.8550    -0.5700 H     1 <1>   0.1000 
 34 H       -2.9610     0.0620     1.0130 H     1 <1>   0.1000 
 35 H       -3.9420     2.0550     2.1900 H     1 <1>   0.1000 
 36 H       -4.2530     2.8190     0.6060 H     1 <1>   0.1000 
 37 H       -3.2940     6.3590     0.9870 H     1 <1>   0.1500 
 38 H       -3.0840     3.5740    -2.2510 H     1 <1>   0.1500 
 39 H       -5.2590     4.4710    -2.9970 H     1 <1>   0.1500 
 40 H        1.9320     5.7330     0.0670 H     1 <1>   0.3700 
 41 H       -6.3400     6.2450    -1.7200 H     1 <1>   0.1500 
 42 H        1.3010     7.9230     2.0210 H     1 <1>   0.0800 
 43 H        2.5810     6.7730     2.2520 H     1 <1>   0.0800 
 44 H        2.8360     9.6180    -1.0250 H     1 <1>   0.0000 
 45 H        1.2610     8.9700    -0.4760 H     1 <1>   0.0000 
 46 H        3.4390     9.2690     2.6270 H     1 <1>   0.0000 
 47 H        4.4280     9.8590     1.2570 H     1 <1>   0.0000 
 48 H        4.5280     6.7060     0.7210 H     1 <1>   0.0800 
 49 H        3.6250     6.7800    -0.7560 H     1 <1>   0.0800 
 50 H        1.4200    10.1840     1.6230 H     1 <1>   0.0000 
 51 H        2.5540    11.2490     0.7220 H     1 <1>   0.0000 
 52 H        4.8850     8.8670    -1.3730 H     1 <1>   0.0800 
 53 H        5.8420     8.6630     0.0700 H     1 <1>   0.0800 
 54 H        5.6480     6.6580    -2.1880 H     1 <1>   0.0800 
 55 H        6.6030     6.4540    -0.7350 H     1 <1>   0.0800 
 56 H        6.9950     7.7220    -1.8710 H     1 <1>   0.0800 
@<TRIPOS>BOND
  1   1   2  2   
  2   2   3  am  
  3   2   4  1   
  4   3   5  1   
  5   3   6  1   
  6   4   7  1   
  7   4  28  1   
  8   4  29  1   
  9   5   8  1   
 10   5   9  1   
 11   5  30  1   
 12   6  10  1   
 13   6  11  1   
 14   6  31  1   
 15   7   9  1   
 16   8  12  ar  
 17   8  13  ar  
 18   9  14  1   
 19   9  32  1   
 20  10  11  1   
 21  10  33  1   
 22  10  34  1   
 23  11  35  1   
 24  11  36  1   
 25  12  15  ar  
 26  12  37  1   
 27  13  16  ar  
 28  13  38  1   
 29  14  17  2   
 30  14  18  am  
 31  15  19  ar  
 32  16  19  ar  
 33  16  39  1   
 34  18  20  1   
 35  18  40  1   
 36  19  41  1   
 37  20  21  1   
 38  20  42  1   
 39  20  43  1   
 40  21  22  1   
 41  21  23  1   
 42  21  24  1   
 43  22  25  1   
 44  22  44  1   
 45  22  45  1   
 46  23  25  1   
 47  23  46  1   
 48  23  47  1   
 49  24  26  1   
 50  24  48  1   
 51  24  49  1   
 52  25  50  1   
 53  25  51  1   
 54  26  27  1   
 55  26  52  1   
 56  26  53  1   
 57  27  54  1   
 58  27  55  1   
 59  27  56  1   
@<TRIPOS>SUBSTRUCTURE
  1 ****   9 GROUP 4 **** **** 0

# MOE 2024.06 (io_trps.svl 2023.06)
