@<TRIPOS>MOLECULE
NONAME
50 52 1 0 0 
SMALL
USER_CHARGES


@<TRIPOS>ATOM
  1 S        0.5550     0.2490     0.6780 S.o2  1 <1>   1.3330 
  2 O        1.9190     0.0560     0.2420 O.2   1 <1>  -0.6500 
  3 O        0.2720     0.4720     2.0780 O.2   1 <1>  -0.6500 
  4 N       -0.3570    -1.0820     0.1500 N.am  1 <1>  -0.8490 
  5 C       -0.1600     1.6110    -0.2400 C.3   1 <1>  -0.0550 
  6 C        0.1340    -1.6640    -1.1040 C.3   1 <1>   0.1160 
  7 C       -0.4620    -2.1250     1.1750 C.3   1 <1>   0.1160 
  8 C        0.4210     2.9790     0.1570 C.3   1 <1>  -0.0800 
  9 C       -0.2700     4.1340    -0.5630 C.3   1 <1>   0.2000 
 10 C        1.9010     3.1640    -0.1880 C.3   1 <1>   0.1400 
 11 O       -1.4350     4.4780     0.1010 O.3   1 <1>  -0.6800 
 12 C        0.7400     5.2800    -0.5670 C.3   1 <1>   0.1400 
 13 N        2.0610     4.6210    -0.4090 N.am  1 <1>  -0.6600 
 14 C        3.2870     5.2280    -0.4190 C.2   1 <1>   0.5690 
 15 O        4.3050     4.5960    -0.2800 O.2   1 <1>  -0.5700 
 16 C        3.4080     6.7300    -0.5900 C.3   1 <1>  -0.0990 
 17 C        3.3690     7.4430     0.7660 C.3   1 <1>  -0.0170 
 18 C        3.4210     8.9500     0.5780 C.ar  1 <1>  -0.1430 
 19 C        4.6510     9.5890     0.4580 C.ar  1 <1>  -0.1500 
 20 C        2.2410     9.6920     0.5220 C.ar  1 <1>  -0.1500 
 21 C        4.6610    10.9590     0.2850 C.ar  1 <1>   0.0820 
 22 C        2.2710    11.0710     0.3470 C.ar  1 <1>  -0.1500 
 23 O        5.7160    11.7710     0.1500 O.3   1 <1>  -0.3630 
 24 C        3.5040    11.6800     0.2320 C.ar  1 <1>   0.0820 
 25 C        5.1970    13.0920     0.0030 C.3   1 <1>   0.4000 
 26 O        3.7770    12.9780     0.0600 O.3   1 <1>  -0.3620 
 27 H       -0.0150     1.4510    -1.2900 H     1 <1>   0.0800 
 28 H       -1.2170     1.6260    -0.0540 H     1 <1>   0.0800 
 29 H       -0.5310    -2.4430    -1.4350 H     1 <1>   0.0800 
 30 H        1.1200    -2.0800    -0.9660 H     1 <1>   0.0800 
 31 H        0.1820    -0.9100    -1.8700 H     1 <1>   0.0800 
 32 H       -1.0580    -2.9450     0.8150 H     1 <1>   0.0800 
 33 H       -0.9360    -1.7280     2.0580 H     1 <1>   0.0800 
 34 H        0.5170    -2.4870     1.4430 H     1 <1>   0.0800 
 35 H        0.3240     3.1130     1.2210 H     1 <1>   0.0800 
 36 H       -0.5220     3.8720    -1.5770 H     1 <1>   0.0800 
 37 H        2.1600     2.6430    -1.0940 H     1 <1>   0.0800 
 38 H        2.5420     2.8230     0.6100 H     1 <1>   0.0800 
 39 H       -1.2660     4.6040     1.0550 H     1 <1>   0.4000 
 40 H        0.5700     5.9440     0.2620 H     1 <1>   0.0800 
 41 H        0.6940     5.8190    -1.4970 H     1 <1>   0.0800 
 42 H        4.3450     6.9420    -1.0730 H     1 <1>   0.0800 
 43 H        2.6280     7.0990    -1.2270 H     1 <1>   0.0800 
 44 H        4.2060     7.1220     1.3630 H     1 <1>   0.0800 
 45 H        2.4730     7.1740     1.2960 H     1 <1>   0.0800 
 46 H        5.5780     9.0470     0.4950 H     1 <1>   0.1500 
 47 H        1.2890     9.2000     0.6140 H     1 <1>   0.1500 
 48 H        1.3710    11.6560     0.3030 H     1 <1>   0.1500 
 49 H        5.5430    13.7070     0.8160 H     1 <1>   0.0800 
 50 H        5.4900    13.4910    -0.9520 H     1 <1>   0.0800 
@<TRIPOS>BOND
  1   1   2  2   
  2   1   3  2   
  3   1   4  am  
  4   1   5  1   
  5   4   6  1   
  6   4   7  1   
  7   5   8  1   
  8   5  27  1   
  9   5  28  1   
 10   6  29  1   
 11   6  30  1   
 12   6  31  1   
 13   7  32  1   
 14   7  33  1   
 15   7  34  1   
 16   8   9  1   
 17   8  10  1   
 18   8  35  1   
 19   9  11  1   
 20   9  12  1   
 21   9  36  1   
 22  10  13  1   
 23  10  37  1   
 24  10  38  1   
 25  11  39  1   
 26  12  13  1   
 27  12  40  1   
 28  12  41  1   
 29  13  14  am  
 30  14  15  2   
 31  14  16  1   
 32  16  17  1   
 33  16  42  1   
 34  16  43  1   
 35  17  18  1   
 36  17  44  1   
 37  17  45  1   
 38  18  19  ar  
 39  18  20  ar  
 40  19  21  ar  
 41  19  46  1   
 42  20  22  ar  
 43  20  47  1   
 44  21  23  1   
 45  21  24  ar  
 46  22  24  ar  
 47  22  48  1   
 48  23  25  1   
 49  24  26  1   
 50  25  26  1   
 51  25  49  1   
 52  25  50  1   
@<TRIPOS>SUBSTRUCTURE
  1 ****  13 GROUP 4 **** **** 0

# MOE 2024.06 (io_trps.svl 2023.06)
