@<TRIPOS>MOLECULE
NONAME
45 47 1 0 0 
SMALL
USER_CHARGES


@<TRIPOS>ATOM
  1 CL      -4.3870     0.0850    -2.2870 Cl    1 <1>  -0.1770 
  2 C       -4.0530    -0.4180    -0.6480 C.ar  1 <1>   0.1770 
  3 C       -3.8880    -1.7810    -0.3740 C.ar  1 <1>   0.0000 
  4 C       -3.9560     0.5170     0.3540 C.ar  1 <1>  -0.1500 
  5 C       -3.6270    -2.1720     0.9350 C.ar  1 <1>  -0.1520 
  6 C       -3.9190    -2.9610    -1.1390 C.2   1 <1>  -0.1500 
  7 C       -3.6890     0.1080     1.6670 C.ar  1 <1>  -0.1500 
  8 N       -3.5070    -3.5350     0.9570 N.pl3 1 <1>   0.0330 
  9 C       -3.5250    -1.2270     1.9620 C.ar  1 <1>  -0.1500 
 10 C       -3.6940    -4.0270    -0.3150 C.2   1 <1>  -0.2370 
 11 C       -3.6350    -5.4240    -0.6410 C.2   1 <1>   0.7150 
 12 O       -3.3680    -5.8020    -1.7630 O.2   1 <1>  -0.5700 
 13 N       -3.9230    -6.3520     0.3100 N.am  1 <1>  -0.7300 
 14 C       -3.8800    -7.8200     0.1200 C.3   1 <1>   0.2200 
 15 C       -5.2690    -8.3740    -0.1670 C.3   1 <1>  -0.0800 
 16 C       -3.6070    -8.4660     1.4700 C.3   1 <1>   0.1200 
 17 C       -5.8830    -8.4900     1.2350 C.3   1 <1>   0.1200 
 18 C       -6.1010    -7.5700    -1.1910 C.3   1 <1>  -0.0550 
 19 O       -4.8240    -8.3870     2.1450 O.3   1 <1>  -0.5600 
 20 S       -7.6600    -8.3390    -1.6380 S.o2  1 <1>   1.3330 
 21 O       -7.4200    -9.7500    -1.8380 O.2   1 <1>  -0.6500 
 22 O       -8.2950    -7.5640    -2.6790 O.2   1 <1>  -0.6500 
 23 N       -8.6060    -8.1660    -0.2360 N.am  1 <1>  -0.8490 
 24 C       -9.6270    -9.2130    -0.1280 C.3   1 <1>   0.1160 
 25 C       -9.2390    -6.8470    -0.1240 C.3   1 <1>   0.1160 
 26 H       -4.0830     1.5610     0.1320 H     1 <1>   0.1500 
 27 H       -4.0910    -2.9880    -2.2020 H     1 <1>   0.1500 
 28 H       -3.6150     0.8510     2.4430 H     1 <1>   0.1500 
 29 H       -3.2480    -4.0870     1.7810 H     1 <1>   0.2700 
 30 H       -3.3190    -1.5470     2.9690 H     1 <1>   0.1500 
 31 H       -4.3720    -6.0690     1.1810 H     1 <1>   0.3700 
 32 H       -3.1520    -8.0930    -0.6280 H     1 <1>   0.0800 
 33 H       -5.1480    -9.3740    -0.5480 H     1 <1>   0.0800 
 34 H       -2.8420    -7.9600     2.0320 H     1 <1>   0.0800 
 35 H       -3.3550    -9.5070     1.3560 H     1 <1>   0.0800 
 36 H       -6.3780    -9.4360     1.3760 H     1 <1>   0.0800 
 37 H       -6.5680    -7.6870     1.4430 H     1 <1>   0.0800 
 38 H       -5.5130    -7.4650    -2.0830 H     1 <1>   0.0800 
 39 H       -6.2890    -6.5830    -0.8180 H     1 <1>   0.0800 
 40 H      -10.2030    -9.0830     0.7720 H     1 <1>   0.0800 
 41 H       -9.1590   -10.1830    -0.0900 H     1 <1>   0.0800 
 42 H      -10.2860    -9.1810    -0.9800 H     1 <1>   0.0800 
 43 H       -9.7490    -6.7610     0.8200 H     1 <1>   0.0800 
 44 H       -9.9510    -6.7010    -0.9210 H     1 <1>   0.0800 
 45 H       -8.4960    -6.0700    -0.1800 H     1 <1>   0.0800 
@<TRIPOS>BOND
  1   1   2  1   
  2   2   3  ar  
  3   2   4  ar  
  4   3   5  ar  
  5   3   6  1   
  6   4   7  ar  
  7   4  26  1   
  8   5   8  1   
  9   5   9  ar  
 10   6  10  2   
 11   6  27  1   
 12   7   9  ar  
 13   7  28  1   
 14   8  10  1   
 15   8  29  1   
 16   9  30  1   
 17  10  11  1   
 18  11  12  2   
 19  11  13  am  
 20  13  14  1   
 21  13  31  1   
 22  14  15  1   
 23  14  16  1   
 24  14  32  1   
 25  15  17  1   
 26  15  18  1   
 27  15  33  1   
 28  16  19  1   
 29  16  34  1   
 30  16  35  1   
 31  17  19  1   
 32  17  36  1   
 33  17  37  1   
 34  18  20  1   
 35  18  38  1   
 36  18  39  1   
 37  20  21  2   
 38  20  22  2   
 39  20  23  am  
 40  23  24  1   
 41  23  25  1   
 42  24  40  1   
 43  24  41  1   
 44  24  42  1   
 45  25  43  1   
 46  25  44  1   
 47  25  45  1   
@<TRIPOS>SUBSTRUCTURE
  1 ****  11 GROUP 4 **** **** 0

# MOE 2024.06 (io_trps.svl 2023.06)
