@<TRIPOS>MOLECULE
NONAME
47 48 1 0 0 
SMALL
USER_CHARGES


@<TRIPOS>ATOM
  1 S        0.6320     0.3520    -0.5960 S.o2  1 <1>   1.3330 
  2 O        1.4820     0.1050     0.5460 O.2   1 <1>  -0.6500 
  3 O        1.1860     0.2880    -1.9290 O.2   1 <1>  -0.6500 
  4 N       -0.6750    -0.7280    -0.5120 N.am  1 <1>  -0.8490 
  5 C       -0.1530     1.9500    -0.4110 C.3   1 <1>  -0.0550 
  6 C       -1.0970    -1.0270     0.8610 C.3   1 <1>   0.1160 
  7 C       -0.4080    -1.9760    -1.2330 C.3   1 <1>   0.1160 
  8 C        0.8290     3.1300    -0.5550 C.3   1 <1>  -0.0800 
  9 C        0.1620     4.5070    -0.5460 C.3   1 <1>   0.2000 
 10 C        1.8870     3.2110     0.5550 C.3   1 <1>   0.1400 
 11 O       -0.7650     4.5550     0.4850 O.3   1 <1>  -0.6800 
 12 C        1.3050     5.4540    -0.1980 C.3   1 <1>   0.1400 
 13 N        2.1660     4.6600     0.7160 N.am  1 <1>  -0.6600 
 14 C        3.1880     5.1360     1.4950 C.2   1 <1>   0.5690 
 15 O        3.8500     4.3890     2.1750 O.2   1 <1>  -0.5700 
 16 C        3.5140     6.6250     1.5490 C.3   1 <1>   0.0440 
 17 C        3.7960     7.2460     0.1770 C.ar  1 <1>  -0.1440 
 18 C        3.2140     8.4390    -0.2500 C.ar  1 <1>  -0.1440 
 19 C        4.6690     6.5760    -0.6710 C.ar  1 <1>  -0.1500 
 20 C        3.5010     8.9220    -1.5180 C.ar  1 <1>  -0.1500 
 21 C        2.2710     9.2500     0.6310 C.3   1 <1>  -0.0970 
 22 C        4.9500     7.0670    -1.9320 C.ar  1 <1>  -0.1500 
 23 C        4.3620     8.2410    -2.3580 C.ar  1 <1>  -0.1500 
 24 H       -0.9130     2.0470    -1.1620 H     1 <1>   0.0800 
 25 H       -0.6360     1.9990     0.5450 H     1 <1>   0.0800 
 26 H       -1.9770    -1.6460     0.8500 H     1 <1>   0.0800 
 27 H       -1.3300    -0.1170     1.3860 H     1 <1>   0.0800 
 28 H       -0.3130    -1.5410     1.3930 H     1 <1>   0.0800 
 29 H       -1.2610    -2.6300    -1.1760 H     1 <1>   0.0800 
 30 H        0.4520    -2.4730    -0.8150 H     1 <1>   0.0800 
 31 H       -0.2150    -1.7670    -2.2720 H     1 <1>   0.0800 
 32 H        1.3510     3.0260    -1.4910 H     1 <1>   0.0800 
 33 H       -0.3330     4.7550    -1.4700 H     1 <1>   0.0800 
 34 H        2.7850     2.6780     0.2890 H     1 <1>   0.0800 
 35 H        1.5110     2.8220     1.4860 H     1 <1>   0.0800 
 36 H       -0.2820     4.5200     1.3360 H     1 <1>   0.4000 
 37 H        0.9490     6.3590     0.2610 H     1 <1>   0.0800 
 38 H        1.8640     5.6950    -1.0870 H     1 <1>   0.0800 
 39 H        2.6970     7.1070     2.0460 H     1 <1>   0.0800 
 40 H        4.3840     6.7590     2.1640 H     1 <1>   0.0800 
 41 H        5.1370     5.6590    -0.3530 H     1 <1>   0.1500 
 42 H        3.0570     9.8390    -1.8640 H     1 <1>   0.1500 
 43 H        2.0100    10.1810     0.1620 H     1 <1>   0.0800 
 44 H        2.7450     9.4740     1.5690 H     1 <1>   0.0800 
 45 H        1.3650     8.7010     0.8130 H     1 <1>   0.0800 
 46 H        5.6270     6.5350    -2.5780 H     1 <1>   0.1500 
 47 H        4.5770     8.6270    -3.3390 H     1 <1>   0.1500 
@<TRIPOS>BOND
  1   1   2  2   
  2   1   3  2   
  3   1   4  am  
  4   1   5  1   
  5   4   6  1   
  6   4   7  1   
  7   5   8  1   
  8   5  24  1   
  9   5  25  1   
 10   6  26  1   
 11   6  27  1   
 12   6  28  1   
 13   7  29  1   
 14   7  30  1   
 15   7  31  1   
 16   8   9  1   
 17   8  10  1   
 18   8  32  1   
 19   9  11  1   
 20   9  12  1   
 21   9  33  1   
 22  10  13  1   
 23  10  34  1   
 24  10  35  1   
 25  11  36  1   
 26  12  13  1   
 27  12  37  1   
 28  12  38  1   
 29  13  14  am  
 30  14  15  2   
 31  14  16  1   
 32  16  17  1   
 33  16  39  1   
 34  16  40  1   
 35  17  18  ar  
 36  17  19  ar  
 37  18  20  ar  
 38  18  21  1   
 39  19  22  ar  
 40  19  41  1   
 41  20  23  ar  
 42  20  42  1   
 43  21  43  1   
 44  21  44  1   
 45  21  45  1   
 46  22  23  ar  
 47  22  46  1   
 48  23  47  1   
@<TRIPOS>SUBSTRUCTURE
  1 ****  13 GROUP 4 **** **** 0

# MOE 2024.06 (io_trps.svl 2023.06)
