@<TRIPOS>MOLECULE
NONAME
45 46 1 0 0 
SMALL
USER_CHARGES


@<TRIPOS>ATOM
  1 S       -0.0700     0.1600    -0.2040 S.o2  1 <1>   1.3330 
  2 O       -0.1660    -0.7100     0.9460 O.2   1 <1>  -0.6500 
  3 O       -0.7070     1.4570    -0.1730 O.2   1 <1>  -0.6500 
  4 N       -0.6940    -0.6930    -1.5330 N.am  1 <1>  -0.8490 
  5 C        1.6450     0.4030    -0.6740 C.3   1 <1>  -0.0550 
  6 C       -2.1310    -0.4630    -1.7120 C.3   1 <1>   0.1160 
  7 C       -0.4270    -2.1350    -1.4740 C.3   1 <1>   0.1160 
  8 C        2.4890     1.1590     0.3710 C.3   1 <1>  -0.0800 
  9 C        3.8570     1.5370    -0.2080 C.3   1 <1>   0.2200 
 10 C        2.8690     0.2540     1.5450 C.3   1 <1>   0.1200 
 11 N        4.1550     2.9900    -0.0880 N.am  1 <1>  -0.7300 
 12 C        4.8470     0.6560     0.5620 C.3   1 <1>   0.1200 
 13 O        4.0680    -0.3300     1.1600 O.3   1 <1>  -0.5600 
 14 C        4.2210     3.7620     1.0400 C.2   1 <1>   0.5440 
 15 O        3.9510     3.2440     2.1060 O.2   1 <1>  -0.5700 
 16 C        4.5830     5.1720     0.9840 C.ar  1 <1>   0.0860 
 17 C        5.3390     5.7590    -0.0550 C.ar  1 <1>   0.0820 
 18 C        4.1630     6.0080     2.0230 C.ar  1 <1>  -0.1500 
 19 O        5.7780     4.9700    -1.0710 O.3   1 <1>  -0.3630 
 20 C        5.6390     7.1250    -0.0360 C.ar  1 <1>  -0.1500 
 21 C        4.4780     7.3480     2.0160 C.ar  1 <1>   0.1900 
 22 C        6.6740     5.4220    -2.0670 C.3   1 <1>   0.0400 
 23 C        5.2090     7.9290     1.0020 C.ar  1 <1>  -0.1500 
 24 F        4.0690     8.1010     3.0030 F     1 <1>  -0.1900 
 25 H        2.1030    -0.5470    -0.8700 H     1 <1>   0.0800 
 26 H        1.6540     0.9640    -1.5880 H     1 <1>   0.0800 
 27 H       -2.4940    -1.0080    -2.5670 H     1 <1>   0.0800 
 28 H       -2.3190     0.5850    -1.8790 H     1 <1>   0.0800 
 29 H       -2.6720    -0.7750    -0.8340 H     1 <1>   0.0800 
 30 H       -0.7610    -2.6100    -2.3810 H     1 <1>   0.0800 
 31 H       -0.9390    -2.5790    -0.6360 H     1 <1>   0.0800 
 32 H        0.6290    -2.3140    -1.3660 H     1 <1>   0.0800 
 33 H        1.9480     2.0220     0.7200 H     1 <1>   0.0800 
 34 H        3.9090     1.2720    -1.2500 H     1 <1>   0.0800 
 35 H        2.1540    -0.5180     1.7620 H     1 <1>   0.0800 
 36 H        3.0520     0.8350     2.4350 H     1 <1>   0.0800 
 37 H        4.5310     3.4300    -0.9340 H     1 <1>   0.3700 
 38 H        5.3440     1.2040     1.3440 H     1 <1>   0.0800 
 39 H        5.5660     0.1860    -0.0840 H     1 <1>   0.0800 
 40 H        3.5880     5.6080     2.8400 H     1 <1>   0.1500 
 41 H        6.2060     7.5860    -0.8220 H     1 <1>   0.1500 
 42 H        6.9200     4.5900    -2.7020 H     1 <1>   0.0800 
 43 H        7.5660     5.7930    -1.5930 H     1 <1>   0.0800 
 44 H        6.1960     6.1920    -2.6470 H     1 <1>   0.0800 
 45 H        5.4330     8.9800     1.0320 H     1 <1>   0.1500 
@<TRIPOS>BOND
  1   1   2  2   
  2   1   3  2   
  3   1   4  am  
  4   1   5  1   
  5   4   6  1   
  6   4   7  1   
  7   5   8  1   
  8   5  25  1   
  9   5  26  1   
 10   6  27  1   
 11   6  28  1   
 12   6  29  1   
 13   7  30  1   
 14   7  31  1   
 15   7  32  1   
 16   8   9  1   
 17   8  10  1   
 18   8  33  1   
 19   9  11  1   
 20   9  12  1   
 21   9  34  1   
 22  10  13  1   
 23  10  35  1   
 24  10  36  1   
 25  11  14  am  
 26  11  37  1   
 27  12  13  1   
 28  12  38  1   
 29  12  39  1   
 30  14  15  2   
 31  14  16  1   
 32  16  17  ar  
 33  16  18  ar  
 34  17  19  1   
 35  17  20  ar  
 36  18  21  ar  
 37  18  40  1   
 38  19  22  1   
 39  20  23  ar  
 40  20  41  1   
 41  21  23  ar  
 42  21  24  1   
 43  22  42  1   
 44  22  43  1   
 45  22  44  1   
 46  23  45  1   
@<TRIPOS>SUBSTRUCTURE
  1 ****  11 GROUP 4 **** **** 0

# MOE 2024.06 (io_trps.svl 2023.06)
