@<TRIPOS>MOLECULE
NONAME
30 31 1 0 0 
SMALL
USER_CHARGES


@<TRIPOS>ATOM
  1 N        0.0530    -0.1610    -0.0710 N.ar  1 <1>  -0.6200 
  2 C       -1.1470    -0.4950     0.3650 C.ar  1 <1>   0.1660 
  3 C        0.5930    -0.9520    -0.9820 C.ar  1 <1>   0.1600 
  4 C       -1.8600    -1.6020    -0.0920 C.ar  1 <1>  -0.1440 
  5 C       -1.7060     0.4400     1.4260 C.3   1 <1>  -0.0960 
  6 C       -0.0200    -2.0800    -1.4920 C.ar  1 <1>  -0.1500 
  7 C       -1.2760    -2.4230    -1.0440 C.ar  1 <1>  -0.1500 
  8 C       -3.2570    -1.8940     0.4300 C.3   1 <1>   0.5670 
  9 N       -4.2070    -1.8480    -0.7010 N.4   1 <1>  -0.9590 
 10 C       -3.4270    -3.2870     1.0410 C.3   1 <1>  -0.1600 
 11 C       -5.3320    -2.7470    -0.3600 C.3   1 <1>   0.3430 
 12 C       -4.6180    -0.4600    -1.0660 C.3   1 <1>   0.2630 
 13 C       -4.6660    -3.8960     0.3790 C.3   1 <1>  -0.1600 
 14 H        1.5750    -0.6870    -1.3370 H     1 <1>   0.1500 
 15 H       -1.9650    -0.1090     2.3130 H     1 <1>   0.0800 
 16 H       -2.5650     0.9630     1.0520 H     1 <1>   0.0800 
 17 H       -0.9660     1.1730     1.7010 H     1 <1>   0.0800 
 18 H        0.4880    -2.6780    -2.2290 H     1 <1>   0.1500 
 19 H       -1.7590    -3.3040    -1.4320 H     1 <1>   0.1500 
 20 H       -3.5480    -1.1630     1.1650 H     1 <1>   0.0800 
 21 H       -3.6920    -2.2560    -1.4920 H     1 <1>   0.4500 
 22 H       -2.5600    -3.9050     0.8840 H     1 <1>   0.0800 
 23 H       -3.5700    -3.1860     2.1030 H     1 <1>   0.0800 
 24 H       -6.0200    -2.2420     0.3000 H     1 <1>   0.0800 
 25 H       -5.8580    -3.0860    -1.2390 H     1 <1>   0.0800 
 26 H       -5.1370     0.0080    -0.2460 H     1 <1>   0.0800 
 27 H       -5.2710    -0.4770    -1.9240 H     1 <1>   0.0800 
 28 H       -3.7500     0.1330    -1.3100 H     1 <1>   0.0800 
 29 H       -5.3350    -4.3390     1.0970 H     1 <1>   0.0800 
 30 H       -4.3750    -4.6540    -0.3290 H     1 <1>   0.0800 
@<TRIPOS>BOND
  1   1   2  ar  
  2   1   3  ar  
  3   2   4  ar  
  4   2   5  1   
  5   3   6  ar  
  6   3  14  1   
  7   4   7  ar  
  8   4   8  1   
  9   5  15  1   
 10   5  16  1   
 11   5  17  1   
 12   6   7  ar  
 13   6  18  1   
 14   7  19  1   
 15   8   9  1   
 16   8  10  1   
 17   8  20  1   
 18   9  11  1   
 19   9  12  1   
 20   9  21  1   
 21  10  13  1   
 22  10  22  1   
 23  10  23  1   
 24  11  13  1   
 25  11  24  1   
 26  11  25  1   
 27  12  26  1   
 28  12  27  1   
 29  12  28  1   
 30  13  29  1   
 31  13  30  1   
@<TRIPOS>SUBSTRUCTURE
  1 ****   4 GROUP 4 **** **** 0

# MOE 2024.06 (io_trps.svl 2023.06)
