@<TRIPOS>MOLECULE
NONAME
51 53 1 0 0 
SMALL
USER_CHARGES


@<TRIPOS>ATOM
  1 O       -1.1420    -1.2060     0.9010 O.co2 1 <1>  -0.9000 
  2 C       -0.2860    -2.1050     0.9770 C.2   1 <1>   1.0330 
  3 O       -0.1400    -2.7020     2.0580 O.co2 1 <1>  -0.9000 
  4 C        0.5050    -2.4430    -0.1570 C.2   1 <1>  -0.2330 
  5 C        0.2220    -3.4590    -1.0710 C.2   1 <1>   0.3720 
  6 C        1.6670    -1.9110    -0.6130 C.2   1 <1>   0.0870 
  7 N        1.1320    -3.5330    -1.9760 N.2   1 <1>  -0.4100 
  8 N       -0.8860    -4.3110    -1.0610 N.pl3 1 <1>  -0.8210 
  9 O        1.9950    -2.5940    -1.6860 O.3   1 <1>  -0.0190 
 10 C        2.5090    -0.8300    -0.1560 C.ar  1 <1>   0.0530 
 11 C       -2.1780    -3.6010    -1.2170 C.3   1 <1>   0.2090 
 12 C       -0.9110    -5.2250     0.1040 C.3   1 <1>   0.2090 
 13 C        2.0290     0.1880     0.6700 C.ar  1 <1>  -0.1500 
 14 C        3.8520    -0.7590    -0.5340 C.ar  1 <1>  -0.1500 
 15 C       -3.2820    -4.6270    -1.4790 C.3   1 <1>  -0.1600 
 16 C       -1.9790    -6.2970    -0.1210 C.3   1 <1>  -0.1600 
 17 C        2.8450     1.2180     1.1000 C.ar  1 <1>  -0.1500 
 18 C        4.6740     0.2690    -0.1100 C.ar  1 <1>  -0.1500 
 19 C       -3.3760    -5.6750    -0.3460 C.3   1 <1>  -0.0800 
 20 C        4.1710     1.2620     0.7110 C.ar  1 <1>  -0.1500 
 21 C       -4.4580    -6.7420    -0.6440 C.3   1 <1>   0.2000 
 22 O       -5.6600    -6.0950    -0.8520 O.3   1 <1>  -0.6800 
 23 C       -4.6400    -7.7810     0.4840 C.3   1 <1>  -0.1600 
 24 C       -5.7510    -8.8330     0.2550 C.3   1 <1>  -0.0800 
 25 C       -7.1260    -8.3560     0.7490 C.3   1 <1>  -0.2400 
 26 C       -5.3980   -10.1350     0.9850 C.3   1 <1>  -0.2400 
 27 H       -2.1100    -2.9100    -2.0400 H     1 <1>   0.0800 
 28 H       -2.4070    -3.0430    -0.3240 H     1 <1>   0.0800 
 29 H       -1.1380    -4.6750     1.0020 H     1 <1>   0.0800 
 30 H        0.0570    -5.6810     0.2220 H     1 <1>   0.0800 
 31 H        0.9990     0.1780     0.9810 H     1 <1>   0.1500 
 32 H        4.2560    -1.5270    -1.1690 H     1 <1>   0.1500 
 33 H       -3.0800    -5.1150    -2.4160 H     1 <1>   0.0800 
 34 H       -4.2130    -4.0990    -1.5770 H     1 <1>   0.0800 
 35 H       -1.9830    -6.9320     0.7440 H     1 <1>   0.0800 
 36 H       -1.6940    -6.8880    -0.9740 H     1 <1>   0.0800 
 37 H        2.4410     1.9830     1.7390 H     1 <1>   0.1500 
 38 H        5.7050     0.2950    -0.4170 H     1 <1>   0.1500 
 39 H       -3.6470    -5.1630     0.5620 H     1 <1>   0.0800 
 40 H        4.8060     2.0630     1.0460 H     1 <1>   0.1500 
 41 H       -4.2140    -7.2510    -1.5610 H     1 <1>   0.0800 
 42 H       -5.9150    -5.6210    -0.0390 H     1 <1>   0.4000 
 43 H       -4.7870    -7.2810     1.4250 H     1 <1>   0.0800 
 44 H       -3.7110    -8.3140     0.5610 H     1 <1>   0.0800 
 45 H       -5.8170    -9.0490    -0.7990 H     1 <1>   0.0800 
 46 H       -7.0860    -8.0930     1.7910 H     1 <1>   0.0800 
 47 H       -7.8560    -9.1360     0.6230 H     1 <1>   0.0800 
 48 H       -7.4650    -7.5040     0.1910 H     1 <1>   0.0800 
 49 H       -5.3050    -9.9640     2.0430 H     1 <1>   0.0800 
 50 H       -4.4700   -10.5350     0.6160 H     1 <1>   0.0800 
 51 H       -6.1640   -10.8740     0.8230 H     1 <1>   0.0800 
@<TRIPOS>BOND
  1   1   2  ar  
  2   2   3  ar  
  3   2   4  1   
  4   4   5  1   
  5   4   6  2   
  6   5   7  2   
  7   5   8  1   
  8   6   9  1   
  9   6  10  1   
 10   7   9  1   
 11   8  11  1   
 12   8  12  1   
 13  10  13  ar  
 14  10  14  ar  
 15  11  15  1   
 16  11  27  1   
 17  11  28  1   
 18  12  16  1   
 19  12  29  1   
 20  12  30  1   
 21  13  17  ar  
 22  13  31  1   
 23  14  18  ar  
 24  14  32  1   
 25  15  19  1   
 26  15  33  1   
 27  15  34  1   
 28  16  19  1   
 29  16  35  1   
 30  16  36  1   
 31  17  20  ar  
 32  17  37  1   
 33  18  20  ar  
 34  18  38  1   
 35  19  21  1   
 36  19  39  1   
 37  20  40  1   
 38  21  22  1   
 39  21  23  1   
 40  21  41  1   
 41  22  42  1   
 42  23  24  1   
 43  23  43  1   
 44  23  44  1   
 45  24  25  1   
 46  24  26  1   
 47  24  45  1   
 48  25  46  1   
 49  25  47  1   
 50  25  48  1   
 51  26  49  1   
 52  26  50  1   
 53  26  51  1   
@<TRIPOS>SUBSTRUCTURE
  1 ****   8 GROUP 4 **** **** 0

# MOE 2024.06 (io_trps.svl 2023.06)
