@<TRIPOS>MOLECULE
NONAME
50 54 1 0 0 
SMALL
USER_CHARGES


@<TRIPOS>ATOM
  1 O       -4.2620     2.8660     1.9160 O.2   1 <1>  -0.5700 
  2 C       -3.8430     2.3360     0.9000 C.2   1 <1>   0.5440 
  3 N       -4.7090     1.5020     0.2070 N.am  1 <1>  -0.6600 
  4 C       -2.4700     2.6240     0.4690 C.ar  1 <1>   0.3960 
  5 C       -4.4560     0.9700    -1.1580 C.3   1 <1>   0.1400 
  6 C       -5.9400     0.9430     0.8270 C.3   1 <1>   0.1400 
  7 N       -1.6710     1.6370     0.0200 N.ar  1 <1>  -0.6200 
  8 C       -2.0110     3.9390     0.5490 C.ar  1 <1>  -0.1500 
  9 C       -4.2440    -0.5410    -1.0580 C.3   1 <1>  -0.1600 
 10 C       -5.7710    -0.5720     0.9580 C.3   1 <1>  -0.1600 
 11 C       -0.4480     1.9610    -0.3470 C.ar  1 <1>   0.1670 
 12 C       -0.7330     4.2730     0.1620 C.ar  1 <1>  -0.1500 
 13 C       -5.4440    -1.2280    -0.3890 C.3   1 <1>   0.4600 
 14 C        0.0620     3.2480    -0.2980 C.ar  1 <1>  -0.1500 
 15 C        0.4140     0.8210    -0.8470 C.3   1 <1>  -0.0960 
 16 O       -6.5880    -1.0540    -1.1990 O.3   1 <1>  -0.5600 
 17 C       -5.1840    -2.7180    -0.1980 C.2   1 <1>  -0.3320 
 18 C       -6.7660    -1.9240    -2.2920 C.3   1 <1>   0.1200 
 19 N       -4.2480    -3.2770     0.6270 N.pl3 1 <1>   0.0330 
 20 C       -5.8590    -3.6960    -0.8330 C.2   1 <1>  -0.1810 
 21 C       -6.9510    -3.3770    -1.8230 C.3   1 <1>   0.0210 
 22 C       -4.3430    -4.6430     0.5120 C.ar  1 <1>  -0.1520 
 23 C       -5.3530    -4.9390    -0.4000 C.ar  1 <1>   0.0000 
 24 C       -3.6230    -5.6630     1.1390 C.ar  1 <1>  -0.1500 
 25 C       -5.6520    -6.2740    -0.6920 C.ar  1 <1>  -0.1500 
 26 C       -3.9260    -6.9710     0.8410 C.ar  1 <1>  -0.1500 
 27 C       -4.9410    -7.2770    -0.0740 C.ar  1 <1>  -0.1500 
 28 H       -3.6010     1.4400    -1.6100 H     1 <1>   0.0800 
 29 H       -5.3110     1.1780    -1.7800 H     1 <1>   0.0800 
 30 H       -6.7880     1.1690     0.2030 H     1 <1>   0.0800 
 31 H       -6.1150     1.3740     1.7980 H     1 <1>   0.0800 
 32 H       -2.6750     4.6980     0.9230 H     1 <1>   0.1500 
 33 H       -3.3600    -0.7190    -0.4740 H     1 <1>   0.0800 
 34 H       -4.0710    -0.9580    -2.0300 H     1 <1>   0.0800 
 35 H       -6.6690    -1.0100     1.3550 H     1 <1>   0.0800 
 36 H       -4.9790    -0.7610     1.6570 H     1 <1>   0.0800 
 37 H       -0.3710     5.2850     0.2200 H     1 <1>   0.1500 
 38 H        1.0700     3.4500    -0.6120 H     1 <1>   0.1500 
 39 H       -0.0560     0.3610    -1.6970 H     1 <1>   0.0800 
 40 H        0.5210     0.0860    -0.0700 H     1 <1>   0.0800 
 41 H        1.3900     1.1680    -1.1340 H     1 <1>   0.0800 
 42 H       -5.9090    -1.8460    -2.9350 H     1 <1>   0.0800 
 43 H       -7.6360    -1.5950    -2.8330 H     1 <1>   0.0800 
 44 H       -3.5910    -2.7770     1.2340 H     1 <1>   0.2700 
 45 H       -6.8940    -4.0400    -2.6660 H     1 <1>   0.0800 
 46 H       -7.9110    -3.4930    -1.3540 H     1 <1>   0.0800 
 47 H       -2.8460    -5.4190     1.8410 H     1 <1>   0.1500 
 48 H       -6.4330    -6.4930    -1.3950 H     1 <1>   0.1500 
 49 H       -3.3860    -7.7750     1.3100 H     1 <1>   0.1500 
 50 H       -5.1590    -8.3080    -0.2890 H     1 <1>   0.1500 
@<TRIPOS>BOND
  1   1   2  2   
  2   2   3  am  
  3   2   4  1   
  4   3   5  1   
  5   3   6  1   
  6   4   7  ar  
  7   4   8  ar  
  8   5   9  1   
  9   5  28  1   
 10   5  29  1   
 11   6  10  1   
 12   6  30  1   
 13   6  31  1   
 14   7  11  ar  
 15   8  12  ar  
 16   8  32  1   
 17   9  13  1   
 18   9  33  1   
 19   9  34  1   
 20  10  13  1   
 21  10  35  1   
 22  10  36  1   
 23  11  14  ar  
 24  11  15  1   
 25  12  14  ar  
 26  12  37  1   
 27  13  16  1   
 28  13  17  1   
 29  14  38  1   
 30  15  39  1   
 31  15  40  1   
 32  15  41  1   
 33  16  18  1   
 34  17  19  1   
 35  17  20  2   
 36  18  21  1   
 37  18  42  1   
 38  18  43  1   
 39  19  22  1   
 40  19  44  1   
 41  20  21  1   
 42  20  23  1   
 43  21  45  1   
 44  21  46  1   
 45  22  23  ar  
 46  22  24  ar  
 47  23  25  ar  
 48  24  26  ar  
 49  24  47  1   
 50  25  27  ar  
 51  25  48  1   
 52  26  27  ar  
 53  26  49  1   
 54  27  50  1   
@<TRIPOS>SUBSTRUCTURE
  1 ****   9 GROUP 4 **** **** 0

# MOE 2024.06 (io_trps.svl 2023.06)
