@<TRIPOS>MOLECULE
NONAME
38 39 1 0 0 
SMALL
USER_CHARGES


@<TRIPOS>ATOM
  1 S       -0.0800    -0.1890     0.2720 S.3   1 <1>  -0.0800 
  2 C       -1.1920    -1.0010    -0.7790 C.2   1 <1>   0.4420 
  3 C       -0.3150     1.2350    -0.6890 C.2   1 <1>   0.1980 
  4 N       -1.6230    -0.2340    -1.7130 N.2   1 <1>  -0.3380 
  5 N       -1.4490    -2.3250    -0.4870 N.am  1 <1>  -0.4940 
  6 N       -1.1210     1.0360    -1.6550 N.2   1 <1>  -0.3380 
  7 C        0.4540     2.5000    -0.3000 C.3   1 <1>   0.3800 
  8 C       -2.3050    -3.2150    -1.0910 C.2   1 <1>   0.5440 
  9 O        0.3880     2.6710     1.0890 O.3   1 <1>  -0.5600 
 10 C       -0.1160     3.7580    -0.9640 C.3   1 <1>  -0.2400 
 11 O       -3.0700    -2.8320    -1.9500 O.2   1 <1>  -0.5700 
 12 C       -2.3100    -4.5990    -0.6790 C.ar  1 <1>   0.0860 
 13 C        1.4540     3.3580     1.6700 C.3   1 <1>   0.0400 
 14 C       -3.4530    -5.3800    -0.8430 C.ar  1 <1>   0.1600 
 15 C       -1.2050    -5.2280    -0.1070 C.ar  1 <1>  -0.1500 
 16 N       -3.5910    -6.6440    -0.4840 N.ar  1 <1>  -0.6200 
 17 C       -1.3320    -6.5440     0.2680 C.ar  1 <1>  -0.1500 
 18 C       -2.5340    -7.2230     0.0770 C.ar  1 <1>   0.4100 
 19 N       -2.6640    -8.5410     0.4670 N.pl3 1 <1>  -0.8380 
 20 C       -2.2290    -8.9910     1.8160 C.3   1 <1>   0.1290 
 21 C       -3.6610    -9.4250    -0.1980 C.3   1 <1>   0.1290 
 22 H       -0.9590    -2.6750     0.3290 H     1 <1>   0.3700 
 23 H        1.4840     2.3630    -0.5830 H     1 <1>   0.0800 
 24 H       -1.1350     3.9050    -0.6510 H     1 <1>   0.0800 
 25 H       -0.1060     3.6390    -2.0330 H     1 <1>   0.0800 
 26 H        0.4660     4.6250    -0.7180 H     1 <1>   0.0800 
 27 H        1.2850     3.3980     2.7310 H     1 <1>   0.0800 
 28 H        1.5000     4.3580     1.2770 H     1 <1>   0.0800 
 29 H        2.3710     2.8290     1.4720 H     1 <1>   0.0800 
 30 H       -4.3110    -4.9180    -1.3020 H     1 <1>   0.1500 
 31 H       -0.2710    -4.7150     0.0290 H     1 <1>   0.1500 
 32 H       -0.5060    -7.0740     0.7000 H     1 <1>   0.1500 
 33 H       -1.8100    -8.1710     2.3740 H     1 <1>   0.0800 
 34 H       -1.4880    -9.7650     1.7170 H     1 <1>   0.0800 
 35 H       -3.0720    -9.3770     2.3620 H     1 <1>   0.0800 
 36 H       -3.7720    -9.1450    -1.2310 H     1 <1>   0.0800 
 37 H       -4.6140    -9.3300     0.2920 H     1 <1>   0.0800 
 38 H       -3.3340   -10.4490    -0.1530 H     1 <1>   0.0800 
@<TRIPOS>BOND
  1   1   2  1   
  2   1   3  1   
  3   2   4  2   
  4   2   5  1   
  5   3   6  2   
  6   3   7  1   
  7   4   6  1   
  8   5   8  am  
  9   5  22  1   
 10   7   9  1   
 11   7  10  1   
 12   7  23  1   
 13   8  11  2   
 14   8  12  1   
 15   9  13  1   
 16  10  24  1   
 17  10  25  1   
 18  10  26  1   
 19  12  14  ar  
 20  12  15  ar  
 21  13  27  1   
 22  13  28  1   
 23  13  29  1   
 24  14  16  ar  
 25  14  30  1   
 26  15  17  ar  
 27  15  31  1   
 28  16  18  ar  
 29  17  18  ar  
 30  17  32  1   
 31  18  19  1   
 32  19  20  1   
 33  19  21  1   
 34  20  33  1   
 35  20  34  1   
 36  20  35  1   
 37  21  36  1   
 38  21  37  1   
 39  21  38  1   
@<TRIPOS>SUBSTRUCTURE
  1 ****   5 GROUP 4 **** **** 0

# MOE 2024.06 (io_trps.svl 2023.06)
