@<TRIPOS>MOLECULE
NONAME
61 64 1 0 0 
SMALL
USER_CHARGES


@<TRIPOS>ATOM
  1 F        1.7410     1.5130    -0.9120 F     1 <1>  -0.1900 
  2 C        2.6820     0.7040    -0.5010 C.ar  1 <1>   0.1900 
  3 C        3.5550     1.1370     0.4850 C.ar  1 <1>  -0.1440 
  4 C        2.7740    -0.5460    -1.0820 C.ar  1 <1>  -0.1500 
  5 C        4.5550     0.2680     0.9000 C.ar  1 <1>  -0.1500 
  6 C        3.4150     2.5210     1.0890 C.3   1 <1>   0.4870 
  7 C        3.7800    -1.3980    -0.6600 C.ar  1 <1>  -0.1500 
  8 C        4.6640    -0.9910     0.3270 C.ar  1 <1>  -0.1500 
  9 N        3.6060     3.5450     0.0240 N.4   1 <1>  -0.9590 
 10 C        4.9820     3.4460    -0.5870 C.3   1 <1>   0.3430 
 11 C        3.2380     4.8990     0.5270 C.3   1 <1>   0.3430 
 12 C        5.2990     4.5010    -1.6700 C.3   1 <1>   0.2090 
 13 C        2.8830     5.8120    -0.6440 C.3   1 <1>  -0.1600 
 14 N        5.3710     5.8860    -1.0900 N.pl3 1 <1>  -0.8380 
 15 C        4.0710     6.6390    -1.1400 C.3   1 <1>   0.2090 
 16 C        6.5480     6.5340    -0.8140 C.ar  1 <1>   0.4100 
 17 N        6.5010     7.8440    -0.6680 N.ar  1 <1>  -0.6200 
 18 C        7.7760     5.8500    -0.6880 C.ar  1 <1>  -0.1500 
 19 C        7.6170     8.5180    -0.4270 C.ar  1 <1>   0.7710 
 20 C        8.9140     6.5490    -0.4520 C.ar  1 <1>   0.2180 
 21 N        8.8020     7.8920    -0.3340 N.ar  1 <1>  -0.1790 
 22 N        7.5650     9.8670    -0.2730 N.pl3 1 <1>  -0.8380 
 23 C       10.2910     5.9090    -0.3130 C.3   1 <1>  -0.0170 
 24 C        8.6590    10.7760     0.2250 C.3   1 <1>   0.2090 
 25 C        6.3130    10.6590    -0.5710 C.3   1 <1>   0.2090 
 26 C       10.8670     6.0840     1.0980 C.3   1 <1>  -0.2400 
 27 C        8.1530    11.6820     1.3640 C.3   1 <1>   0.1200 
 28 C        5.9370    11.5740     0.6070 C.3   1 <1>   0.1200 
 29 O        7.0180    12.3860     0.9610 O.3   1 <1>  -0.5600 
 30 H        2.0760    -0.8480    -1.8440 H     1 <1>   0.1500 
 31 H        5.2540     0.5480     1.6710 H     1 <1>   0.1500 
 32 H        4.1420     2.6580     1.8730 H     1 <1>   0.0800 
 33 H        2.4300     2.6150     1.5180 H     1 <1>   0.0800 
 34 H        3.8730    -2.3790    -1.0960 H     1 <1>   0.1500 
 35 H        5.4400    -1.6650     0.6520 H     1 <1>   0.1500 
 36 H        2.9200     3.2920    -0.7040 H     1 <1>   0.4500 
 37 H        5.0940     2.4700    -1.0320 H     1 <1>   0.0800 
 38 H        5.7240     3.5330     0.1890 H     1 <1>   0.0800 
 39 H        4.0450     5.3270     1.1020 H     1 <1>   0.0800 
 40 H        2.3730     4.8180     1.1660 H     1 <1>   0.0800 
 41 H        4.5540     4.4620    -2.4450 H     1 <1>   0.0800 
 42 H        6.2330     4.2530    -2.1410 H     1 <1>   0.0800 
 43 H        2.1320     6.5080    -0.3140 H     1 <1>   0.0800 
 44 H        2.4460     5.2560    -1.4540 H     1 <1>   0.0800 
 45 H        4.1290     7.5160    -0.5170 H     1 <1>   0.0800 
 46 H        3.8900     6.9750    -2.1480 H     1 <1>   0.0800 
 47 H        7.8050     4.7830    -0.7750 H     1 <1>   0.1500 
 48 H        9.6080     8.4850    -0.1890 H     1 <1>   0.4570 
 49 H       10.9660     6.3370    -1.0360 H     1 <1>   0.0800 
 50 H       10.2220     4.8560    -0.5280 H     1 <1>   0.0800 
 51 H        8.9960    11.4030    -0.5840 H     1 <1>   0.0800 
 52 H        9.5020    10.2190     0.5900 H     1 <1>   0.0800 
 53 H        5.4740    10.0230    -0.7900 H     1 <1>   0.0800 
 54 H        6.4820    11.2730    -1.4400 H     1 <1>   0.0800 
 55 H       11.0270     7.1200     1.3360 H     1 <1>   0.0800 
 56 H       11.8140     5.5760     1.1690 H     1 <1>   0.0800 
 57 H       10.2060     5.6560     1.8330 H     1 <1>   0.0800 
 58 H        8.9050    12.4040     1.6290 H     1 <1>   0.0800 
 59 H        7.9070    11.1040     2.2380 H     1 <1>   0.0800 
 60 H        5.6430    10.9930     1.4640 H     1 <1>   0.0800 
 61 H        5.1200    12.2180     0.3310 H     1 <1>   0.0800 
@<TRIPOS>BOND
  1   1   2  1   
  2   2   3  ar  
  3   2   4  ar  
  4   3   5  ar  
  5   3   6  1   
  6   4   7  ar  
  7   4  30  1   
  8   5   8  ar  
  9   5  31  1   
 10   6   9  1   
 11   6  32  1   
 12   6  33  1   
 13   7   8  ar  
 14   7  34  1   
 15   8  35  1   
 16   9  10  1   
 17   9  11  1   
 18   9  36  1   
 19  10  12  1   
 20  10  37  1   
 21  10  38  1   
 22  11  13  1   
 23  11  39  1   
 24  11  40  1   
 25  12  14  1   
 26  12  41  1   
 27  12  42  1   
 28  13  15  1   
 29  13  43  1   
 30  13  44  1   
 31  14  15  1   
 32  14  16  1   
 33  15  45  1   
 34  15  46  1   
 35  16  17  ar  
 36  16  18  ar  
 37  17  19  ar  
 38  18  20  ar  
 39  18  47  1   
 40  19  21  ar  
 41  19  22  1   
 42  20  21  ar  
 43  20  23  1   
 44  21  48  1   
 45  22  24  1   
 46  22  25  1   
 47  23  26  1   
 48  23  49  1   
 49  23  50  1   
 50  24  27  1   
 51  24  51  1   
 52  24  52  1   
 53  25  28  1   
 54  25  53  1   
 55  25  54  1   
 56  26  55  1   
 57  26  56  1   
 58  26  57  1   
 59  27  29  1   
 60  27  58  1   
 61  27  59  1   
 62  28  29  1   
 63  28  60  1   
 64  28  61  1   
@<TRIPOS>SUBSTRUCTURE
  1 ****  14 GROUP 4 **** **** 0

# MOE 2024.06 (io_trps.svl 2023.06)
