@<TRIPOS>MOLECULE
NONAME
42 43 1 0 0 
SMALL
USER_CHARGES


@<TRIPOS>ATOM
  1 O        0.8370     3.7240     3.2830 O.co2 1 <1>  -0.9000 
  2 C        1.4190     4.5680     2.5960 C.2   1 <1>   0.9790 
  3 O        1.3250     5.7820     2.8530 O.co2 1 <1>  -0.9000 
  4 C        2.2900     4.2010     1.5170 C.ar  1 <1>  -0.1790 
  5 C        2.0140     4.5620     0.2000 C.ar  1 <1>   0.1660 
  6 C        3.5000     3.5790     1.7870 C.ar  1 <1>  -0.1500 
  7 N        2.9220     4.5760    -0.7550 N.ar  1 <1>  -0.6200 
  8 C        0.6250     5.0040    -0.2350 C.3   1 <1>  -0.0960 
  9 C        4.4480     3.5350     0.7910 C.ar  1 <1>   0.0730 
 10 C        4.1380     4.1620    -0.4220 C.ar  1 <1>   0.4100 
 11 C        5.7410     2.9690     1.0130 C.1   1 <1>   0.4840 
 12 N        5.1220     4.5840    -1.2900 N.pl3 1 <1>  -0.8380 
 13 N        6.8020     2.5990     1.2110 N.1   1 <1>  -0.5570 
 14 C        6.0680     5.6900    -0.9110 C.3   1 <1>   0.2090 
 15 C        5.0500     4.2040    -2.7290 C.3   1 <1>   0.1290 
 16 C        5.5790     6.5640     0.2790 C.3   1 <1>   0.3430 
 17 N        4.1800     7.0750     0.1030 N.4   1 <1>  -0.9590 
 18 C        4.0630     8.1400    -0.9420 C.3   1 <1>   0.3430 
 19 C        3.5280     7.4710     1.4100 C.3   1 <1>   0.3430 
 20 C        2.6370     8.7090    -1.0180 C.3   1 <1>   0.1200 
 21 C        2.1600     8.1550     1.2090 C.3   1 <1>   0.1200 
 22 O        2.2430     9.1670     0.2400 O.3   1 <1>  -0.5600 
 23 H        3.6860     3.1830     2.7730 H     1 <1>   0.1500 
 24 H       -0.0620     5.0820     0.5880 H     1 <1>   0.0800 
 25 H        0.2300     4.2830    -0.9280 H     1 <1>   0.0800 
 26 H        0.6740     5.9560    -0.7270 H     1 <1>   0.0800 
 27 H        6.2300     6.3250    -1.7630 H     1 <1>   0.0800 
 28 H        7.0190     5.2530    -0.6540 H     1 <1>   0.0800 
 29 H        4.3300     3.4140    -2.8670 H     1 <1>   0.0800 
 30 H        6.0110     3.8560    -3.0660 H     1 <1>   0.0800 
 31 H        4.7470     5.0500    -3.3210 H     1 <1>   0.0800 
 32 H        6.2540     7.3910     0.4190 H     1 <1>   0.0800 
 33 H        5.6210     5.9590     1.1700 H     1 <1>   0.0800 
 34 H        3.6300     6.2590    -0.2530 H     1 <1>   0.4500 
 35 H        4.3330     7.7360    -1.9030 H     1 <1>   0.0800 
 36 H        4.7370     8.9490    -0.7130 H     1 <1>   0.0800 
 37 H        4.1650     8.1560     1.9410 H     1 <1>   0.0800 
 38 H        3.3870     6.6030     2.0340 H     1 <1>   0.0800 
 39 H        1.9380     7.9640    -1.3550 H     1 <1>   0.0800 
 40 H        2.6050     9.5450    -1.6940 H     1 <1>   0.0800 
 41 H        1.8330     8.5970     2.1340 H     1 <1>   0.0800 
 42 H        1.4150     7.4410     0.9080 H     1 <1>   0.0800 
@<TRIPOS>BOND
  1   1   2  ar  
  2   2   3  ar  
  3   2   4  1   
  4   4   5  ar  
  5   4   6  ar  
  6   5   7  ar  
  7   5   8  1   
  8   6   9  ar  
  9   6  23  1   
 10   7  10  ar  
 11   8  24  1   
 12   8  25  1   
 13   8  26  1   
 14   9  10  ar  
 15   9  11  1   
 16  10  12  1   
 17  11  13  3   
 18  12  14  1   
 19  12  15  1   
 20  14  16  1   
 21  14  27  1   
 22  14  28  1   
 23  15  29  1   
 24  15  30  1   
 25  15  31  1   
 26  16  17  1   
 27  16  32  1   
 28  16  33  1   
 29  17  18  1   
 30  17  19  1   
 31  17  34  1   
 32  18  20  1   
 33  18  35  1   
 34  18  36  1   
 35  19  21  1   
 36  19  37  1   
 37  19  38  1   
 38  20  22  1   
 39  20  39  1   
 40  20  40  1   
 41  21  22  1   
 42  21  41  1   
 43  21  42  1   
@<TRIPOS>SUBSTRUCTURE
  1 ****   7 GROUP 4 **** **** 0

# MOE 2024.06 (io_trps.svl 2023.06)
