@<TRIPOS>MOLECULE
NONAME
39 40 1 0 0 
SMALL
USER_CHARGES


@<TRIPOS>ATOM
  1 CL      -0.6280    -1.6300     1.8850 Cl    1 <1>  -0.1770 
  2 C       -2.0990    -1.8540     0.9680 C.ar  1 <1>   0.1770 
  3 C       -2.2930    -3.0020     0.2210 C.ar  1 <1>  -0.1440 
  4 C       -3.0570    -0.8620     1.0110 C.ar  1 <1>  -0.1500 
  5 C       -3.4720    -3.1250    -0.4950 C.ar  1 <1>  -0.1500 
  6 C       -1.2550    -4.1140     0.1900 C.3   1 <1>  -0.0960 
  7 C       -4.2390    -1.0010     0.2980 C.ar  1 <1>  -0.1430 
  8 C       -4.4590    -2.1410    -0.4840 C.ar  1 <1>  -0.0090 
  9 C       -5.2730     0.1130     0.4050 C.3   1 <1>  -0.0960 
 10 S       -5.9870    -2.4300    -1.4430 S.o2  1 <1>   1.4470 
 11 O       -5.8140    -3.5650    -2.3240 O.2   1 <1>  -0.6500 
 12 O       -6.4450    -1.1910    -2.0380 O.2   1 <1>  -0.6500 
 13 N       -7.1420    -2.8500    -0.2710 N.am  1 <1>  -0.8490 
 14 C       -6.7530    -3.9260     0.6610 C.3   1 <1>   0.1960 
 15 C       -8.5030    -2.9970    -0.8180 C.3   1 <1>   0.1960 
 16 C       -6.8240    -5.3210     0.0350 C.3   1 <1>  -0.1860 
 17 C       -9.0940    -4.4040    -0.6450 C.3   1 <1>  -0.1600 
 18 C       -6.7540    -6.2800     1.1990 C.2   1 <1>   0.9060 
 19 C       -8.0330    -5.4660    -0.9150 C.3   1 <1>   0.2000 
 20 O       -5.6490    -6.4840     1.7050 O.co2 1 <1>  -0.9000 
 21 O       -7.7940    -6.7760     1.6530 O.co2 1 <1>  -0.9000 
 22 O       -8.6330    -6.6980    -0.7850 O.3   1 <1>  -0.6800 
 23 H       -2.8700     0.0110     1.6090 H     1 <1>   0.1500 
 24 H       -3.6390    -4.0180    -1.0760 H     1 <1>   0.1500 
 25 H       -1.5840    -4.9320    -0.4270 H     1 <1>   0.0800 
 26 H       -1.0920    -4.4880     1.1850 H     1 <1>   0.0800 
 27 H       -0.3250    -3.7410    -0.2000 H     1 <1>   0.0800 
 28 H       -5.0170     0.8070     1.1850 H     1 <1>   0.0800 
 29 H       -6.2430    -0.2930     0.6310 H     1 <1>   0.0800 
 30 H       -5.3300     0.6550    -0.5220 H     1 <1>   0.0800 
 31 H       -5.7680    -3.7590     1.0610 H     1 <1>   0.0800 
 32 H       -7.4290    -3.8950     1.5010 H     1 <1>   0.0800 
 33 H       -9.1480    -2.2840    -0.3340 H     1 <1>   0.0800 
 34 H       -8.4990    -2.7580    -1.8700 H     1 <1>   0.0800 
 35 H       -5.9340    -5.4840    -0.5400 H     1 <1>   0.0800 
 36 H       -9.9160    -4.5280    -1.3260 H     1 <1>   0.0800 
 37 H       -9.4680    -4.5150     0.3580 H     1 <1>   0.0800 
 38 H       -7.7020    -5.3800    -1.9360 H     1 <1>   0.0800 
 39 H       -8.5340    -6.9540     0.1830 H     1 <1>   0.4000 
@<TRIPOS>BOND
  1   1   2  1   
  2   2   3  ar  
  3   2   4  ar  
  4   3   5  ar  
  5   3   6  1   
  6   4   7  ar  
  7   4  23  1   
  8   5   8  ar  
  9   5  24  1   
 10   6  25  1   
 11   6  26  1   
 12   6  27  1   
 13   7   8  ar  
 14   7   9  1   
 15   8  10  1   
 16   9  28  1   
 17   9  29  1   
 18   9  30  1   
 19  10  11  2   
 20  10  12  2   
 21  10  13  am  
 22  13  14  1   
 23  13  15  1   
 24  14  16  1   
 25  14  31  1   
 26  14  32  1   
 27  15  17  1   
 28  15  33  1   
 29  15  34  1   
 30  16  18  1   
 31  16  19  1   
 32  16  35  1   
 33  17  19  1   
 34  17  36  1   
 35  17  37  1   
 36  18  20  ar  
 37  18  21  ar  
 38  19  22  1   
 39  19  38  1   
 40  22  39  1   
@<TRIPOS>SUBSTRUCTURE
  1 ****  14 GROUP 4 **** **** 0

# MOE 2024.06 (io_trps.svl 2023.06)
