@<TRIPOS>MOLECULE
NONAME
49 50 1 0 0 
SMALL
USER_CHARGES


@<TRIPOS>ATOM
  1 F       -0.5610    -0.3190    -1.1730 F     1 <1>  -0.1900 
  2 C       -1.5620     0.4380    -0.7970 C.ar  1 <1>   0.1900 
  3 C       -1.4120     1.8140    -0.8130 C.ar  1 <1>   0.1900 
  4 C       -2.7530    -0.1620    -0.3870 C.ar  1 <1>   0.0000 
  5 F       -0.2840     2.3520    -1.2030 F     1 <1>  -0.1900 
  6 C       -2.4400     2.6500    -0.4210 C.ar  1 <1>  -0.1500 
  7 C       -2.9420    -1.5960    -0.3580 C.ar  1 <1>   0.0000 
  8 C       -3.7820     0.6970     0.0050 C.ar  1 <1>  -0.1500 
  9 C       -3.6330     2.0770    -0.0090 C.ar  1 <1>  -0.1500 
 10 C       -2.7450    -2.3900    -1.4860 C.ar  1 <1>   0.1600 
 11 C       -3.3410    -2.2430     0.8030 C.ar  1 <1>  -0.1500 
 12 N       -2.9110    -3.7010    -1.5510 N.ar  1 <1>  -0.6200 
 13 C       -3.5160    -3.6050     0.7560 C.ar  1 <1>  -0.1500 
 14 C       -3.2950    -4.2950    -0.4340 C.ar  1 <1>   0.4270 
 15 N       -3.4390    -5.6530    -0.5970 N.am  1 <1>  -0.5470 
 16 C       -3.8720    -6.6460     0.2270 C.2   1 <1>   0.5690 
 17 O       -4.2310    -6.4650     1.3630 O.2   1 <1>  -0.5700 
 18 C       -3.9160    -8.0670    -0.3260 C.3   1 <1>  -0.0190 
 19 C       -4.8430    -8.8990     0.5770 C.3   1 <1>   0.3430 
 20 C       -2.4960    -8.6670    -0.4250 C.3   1 <1>  -0.2400 
 21 N       -4.9920   -10.3120     0.0920 N.4   1 <1>  -0.9590 
 22 C       -6.3800   -10.6240    -0.3600 C.3   1 <1>   0.4230 
 23 C       -4.5100   -11.2330     1.1730 C.3   1 <1>   0.2630 
 24 C       -6.4650   -12.0770    -0.8290 C.3   1 <1>  -0.2400 
 25 C       -6.7650    -9.7060    -1.5220 C.3   1 <1>  -0.2400 
 26 H       -2.3070     3.7170    -0.4390 H     1 <1>   0.1500 
 27 H       -4.7200     0.2760     0.3250 H     1 <1>   0.1500 
 28 H       -4.4500     2.7080     0.3000 H     1 <1>   0.1500 
 29 H       -2.4300    -1.9010    -2.3920 H     1 <1>   0.1500 
 30 H       -3.5040    -1.6930     1.7130 H     1 <1>   0.1500 
 31 H       -3.8200    -4.1270     1.6420 H     1 <1>   0.1500 
 32 H       -3.1530    -5.9090    -1.5390 H     1 <1>   0.3700 
 33 H       -4.3480    -8.0140    -1.3080 H     1 <1>   0.0800 
 34 H       -5.8070    -8.4200     0.6320 H     1 <1>   0.0800 
 35 H       -4.4350    -8.8930     1.5750 H     1 <1>   0.0800 
 36 H       -2.0500    -8.7390     0.5530 H     1 <1>   0.0800 
 37 H       -1.8660    -8.0360    -1.0280 H     1 <1>   0.0800 
 38 H       -2.5070    -9.6430    -0.8740 H     1 <1>   0.0800 
 39 H       -4.3810   -10.4330    -0.7250 H     1 <1>   0.4500 
 40 H       -7.0720   -10.4740     0.4550 H     1 <1>   0.0800 
 41 H       -5.1680   -11.1870     2.0260 H     1 <1>   0.0800 
 42 H       -3.5180   -10.9520     1.4890 H     1 <1>   0.0800 
 43 H       -4.4740   -12.2500     0.8180 H     1 <1>   0.0800 
 44 H       -5.7270   -12.2880    -1.5820 H     1 <1>   0.0800 
 45 H       -7.4350   -12.2630    -1.2550 H     1 <1>   0.0800 
 46 H       -6.3530   -12.7630    -0.0090 H     1 <1>   0.0800 
 47 H       -6.0630    -9.7900    -2.3320 H     1 <1>   0.0800 
 48 H       -6.8420    -8.6810    -1.2110 H     1 <1>   0.0800 
 49 H       -7.7340    -9.9880    -1.8950 H     1 <1>   0.0800 
@<TRIPOS>BOND
  1   1   2  1   
  2   2   3  ar  
  3   2   4  ar  
  4   3   5  1   
  5   3   6  ar  
  6   4   7  1   
  7   4   8  ar  
  8   6   9  ar  
  9   6  26  1   
 10   7  10  ar  
 11   7  11  ar  
 12   8   9  ar  
 13   8  27  1   
 14   9  28  1   
 15  10  12  ar  
 16  10  29  1   
 17  11  13  ar  
 18  11  30  1   
 19  12  14  ar  
 20  13  14  ar  
 21  13  31  1   
 22  14  15  1   
 23  15  16  am  
 24  15  32  1   
 25  16  17  2   
 26  16  18  1   
 27  18  19  1   
 28  18  20  1   
 29  18  33  1   
 30  19  21  1   
 31  19  34  1   
 32  19  35  1   
 33  20  36  1   
 34  20  37  1   
 35  20  38  1   
 36  21  22  1   
 37  21  23  1   
 38  21  39  1   
 39  22  24  1   
 40  22  25  1   
 41  22  40  1   
 42  23  41  1   
 43  23  42  1   
 44  23  43  1   
 45  24  44  1   
 46  24  45  1   
 47  24  46  1   
 48  25  47  1   
 49  25  48  1   
 50  25  49  1   
@<TRIPOS>SUBSTRUCTURE
  1 ****  14 GROUP 4 **** **** 0

# MOE 2024.06 (io_trps.svl 2023.06)
