@<TRIPOS>MOLECULE
NONAME
45 48 1 0 0 
SMALL
USER_CHARGES


@<TRIPOS>ATOM
  1 O       -0.5560    -0.2520     0.5180 O.3   1 <1>  -0.2800 
  2 C       -0.7860     1.0120     0.7840 C.2   1 <1>   0.4250 
  3 C       -1.4910    -0.8150     1.2270 C.2   1 <1>   0.2980 
  4 N       -1.7730     1.1890     1.5960 N.2   1 <1>  -0.3380 
  5 C        0.0390     2.0390     0.1810 C.ar  1 <1>   0.0530 
  6 N       -2.2300    -0.0070     1.8830 N.2   1 <1>  -0.3380 
  7 C       -1.6320    -2.3340     1.2120 C.3   1 <1>   0.2900 
  8 C        1.0370     1.7300    -0.7460 C.ar  1 <1>  -0.1500 
  9 C       -0.1340     3.3870     0.5040 C.ar  1 <1>  -0.1500 
 10 N       -2.1130    -2.8700    -0.0920 N.3   1 <1>  -0.8100 
 11 C        1.8220     2.7130    -1.3200 C.ar  1 <1>  -0.1500 
 12 C        0.6470     4.3750    -0.0660 C.ar  1 <1>  -0.1500 
 13 C       -3.4350    -2.3400    -0.4560 C.3   1 <1>   0.1100 
 14 C       -2.3220    -4.3200    -0.0140 C.3   1 <1>   0.1100 
 15 C        1.6280     4.0400    -0.9810 C.ar  1 <1>  -0.1500 
 16 C       -4.4740    -3.2100     0.2570 C.3   1 <1>   0.2000 
 17 C       -3.7570    -4.5430     0.4910 C.3   1 <1>  -0.0800 
 18 O       -4.7980    -2.6630     1.4930 O.3   1 <1>  -0.6800 
 19 C       -4.4560    -5.7170    -0.2120 C.3   1 <1>  -0.0170 
 20 C       -3.6980    -7.0170     0.0060 C.ar  1 <1>  -0.1430 
 21 C       -3.7350    -7.6810     1.2160 C.ar  1 <1>  -0.1500 
 22 C       -2.9330    -7.5990    -0.9850 C.ar  1 <1>  -0.1500 
 23 C       -3.0200    -8.8560     1.3740 C.ar  1 <1>   0.1600 
 24 C       -2.2560    -8.7780    -0.7230 C.ar  1 <1>   0.1600 
 25 N       -2.2790    -9.4190     0.4340 N.ar  1 <1>  -0.6200 
 26 H       -2.3000    -2.6230     2.0040 H     1 <1>   0.0800 
 27 H       -0.6680    -2.7590     1.4270 H     1 <1>   0.0800 
 28 H        1.2030     0.7040    -1.0260 H     1 <1>   0.1500 
 29 H       -0.8940     3.6650     1.2150 H     1 <1>   0.1500 
 30 H        2.5840     2.4480    -2.0330 H     1 <1>   0.1500 
 31 H        0.4920     5.4060     0.2020 H     1 <1>   0.1500 
 32 H       -3.5490    -1.2930    -0.2350 H     1 <1>   0.0800 
 33 H       -3.5570    -2.4680    -1.5180 H     1 <1>   0.0800 
 34 H       -2.2160    -4.7240    -1.0060 H     1 <1>   0.0800 
 35 H       -1.5950    -4.7990     0.6220 H     1 <1>   0.0800 
 36 H        2.2380     4.8070    -1.4260 H     1 <1>   0.1500 
 37 H       -5.3790    -3.2990    -0.3190 H     1 <1>   0.0800 
 38 H       -3.7140    -4.7550     1.5460 H     1 <1>   0.0800 
 39 H       -4.9440    -1.6980     1.4170 H     1 <1>   0.4000 
 40 H       -4.5400    -5.5160    -1.2660 H     1 <1>   0.0800 
 41 H       -5.4530    -5.8230     0.1800 H     1 <1>   0.0800 
 42 H       -4.3110    -7.2940     2.0360 H     1 <1>   0.1500 
 43 H       -2.8540    -7.1480    -1.9570 H     1 <1>   0.1500 
 44 H       -3.0610    -9.3600     2.3250 H     1 <1>   0.1500 
 45 H       -1.6630    -9.2180    -1.5070 H     1 <1>   0.1500 
@<TRIPOS>BOND
  1   1   2  1   
  2   1   3  1   
  3   2   4  2   
  4   2   5  1   
  5   3   6  2   
  6   3   7  1   
  7   4   6  1   
  8   5   8  ar  
  9   5   9  ar  
 10   7  10  1   
 11   7  26  1   
 12   7  27  1   
 13   8  11  ar  
 14   8  28  1   
 15   9  12  ar  
 16   9  29  1   
 17  10  13  1   
 18  10  14  1   
 19  11  15  ar  
 20  11  30  1   
 21  12  15  ar  
 22  12  31  1   
 23  13  16  1   
 24  13  32  1   
 25  13  33  1   
 26  14  17  1   
 27  14  34  1   
 28  14  35  1   
 29  15  36  1   
 30  16  17  1   
 31  16  18  1   
 32  16  37  1   
 33  17  19  1   
 34  17  38  1   
 35  18  39  1   
 36  19  20  1   
 37  19  40  1   
 38  19  41  1   
 39  20  21  ar  
 40  20  22  ar  
 41  21  23  ar  
 42  21  42  1   
 43  22  24  ar  
 44  22  43  1   
 45  23  25  ar  
 46  23  44  1   
 47  24  25  ar  
 48  24  45  1   
@<TRIPOS>SUBSTRUCTURE
  1 ****  10 GROUP 4 **** **** 0

# MOE 2024.06 (io_trps.svl 2023.06)
