@<TRIPOS>MOLECULE
NONAME
49 52 1 0 0 
SMALL
USER_CHARGES


@<TRIPOS>ATOM
  1 O        0.2410    -0.1020    -0.9800 O.2   1 <1>  -0.5700 
  2 C        1.2250     0.6120    -1.0650 C.2   1 <1>   0.6160 
  3 N        1.0930     1.9770    -0.8650 N.am  1 <1>  -0.6600 
  4 C        2.4630    -0.0060    -1.4360 C.2   1 <1>   0.0290 
  5 C       -0.2040     2.5450    -0.3410 C.3   1 <1>   0.2200 
  6 C        2.2860     2.8750    -0.7520 C.3   1 <1>   0.1400 
  7 C        3.4500    -0.2250    -0.4250 C.2   1 <1>   0.6160 
  8 C        2.7280    -0.4190    -2.7200 C.2   1 <1>  -0.1500 
  9 C       -0.0980     3.9840     0.2590 C.3   1 <1>   0.1380 
 10 C       -1.3930     2.3860    -1.3060 C.3   1 <1>  -0.1600 
 11 C        2.3950     3.5080     0.6480 C.3   1 <1>  -0.1600 
 12 O        3.3420     0.1250     0.7410 O.2   1 <1>  -0.5700 
 13 N        4.6220    -0.8400    -0.7790 N.am  1 <1>  -0.5390 
 14 C        3.9540    -1.0420    -3.0370 C.2   1 <1>  -0.1500 
 15 C        0.1960     5.1600    -0.7290 C.2   1 <1>  -0.2760 
 16 C       -1.4590     4.2550     0.9700 C.3   1 <1>   0.1200 
 17 C        1.0450     3.8890     1.2950 C.3   1 <1>  -0.1600 
 18 C       -2.5060     3.3890    -0.9780 C.3   1 <1>   0.1200 
 19 C        4.8830    -1.2460    -2.0630 C.2   1 <1>  -0.0410 
 20 C        0.2420     5.0980    -2.0690 C.2   1 <1>  -0.2880 
 21 C        0.4870     6.5220    -0.0870 C.3   1 <1>  -0.0220 
 22 O       -2.5500     3.5700     0.4040 O.3   1 <1>  -0.5600 
 23 C        0.5560     6.2760    -2.9830 C.3   1 <1>   0.2580 
 24 C        0.3580     7.6630    -1.1040 C.3   1 <1>   0.1200 
 25 O        1.0800     7.3430    -2.2510 O.3   1 <1>  -0.5600 
 26 H       -0.4620     1.9200     0.5000 H     1 <1>   0.0800 
 27 H        3.1990     2.3520    -0.9670 H     1 <1>   0.0800 
 28 H        2.2070     3.6490    -1.4910 H     1 <1>   0.0800 
 29 H        1.9980    -0.2790    -3.5000 H     1 <1>   0.1500 
 30 H       -1.8000     1.3980    -1.1890 H     1 <1>   0.0800 
 31 H       -1.0970     2.4830    -2.3310 H     1 <1>   0.0800 
 32 H        2.9130     2.8240     1.2970 H     1 <1>   0.0800 
 33 H        3.0090     4.3860     0.5630 H     1 <1>   0.0800 
 34 H        5.2780    -0.9790    -0.0080 H     1 <1>   0.3700 
 35 H        4.1320    -1.3530    -4.0520 H     1 <1>   0.1500 
 36 H       -1.7080     5.2990     0.9600 H     1 <1>   0.0800 
 37 H       -1.4080     3.9380     1.9960 H     1 <1>   0.0800 
 38 H        1.1480     4.7970     1.8590 H     1 <1>   0.0800 
 39 H        0.7970     3.1170     2.0050 H     1 <1>   0.0800 
 40 H       -3.4620     3.0120    -1.2980 H     1 <1>   0.0800 
 41 H       -2.3340     4.3450    -1.4430 H     1 <1>   0.0800 
 42 H        5.8300    -1.7220    -2.2620 H     1 <1>   0.1500 
 43 H        0.0760     4.2080    -2.6400 H     1 <1>   0.1500 
 44 H        1.4900     6.5300     0.3000 H     1 <1>   0.0800 
 45 H       -0.1780     6.7330     0.7280 H     1 <1>   0.0800 
 46 H       -0.3300     6.6120    -3.4920 H     1 <1>   0.0800 
 47 H        1.2970     5.9970    -3.7120 H     1 <1>   0.0800 
 48 H        0.7600     8.5760    -0.7020 H     1 <1>   0.0800 
 49 H       -0.6710     7.8210    -1.3790 H     1 <1>   0.0800 
@<TRIPOS>BOND
  1   1   2  2   
  2   2   3  am  
  3   2   4  1   
  4   3   5  1   
  5   3   6  1   
  6   4   7  1   
  7   4   8  2   
  8   5   9  1   
  9   5  10  1   
 10   5  26  1   
 11   6  11  1   
 12   6  27  1   
 13   6  28  1   
 14   7  12  2   
 15   7  13  am  
 16   8  14  1   
 17   8  29  1   
 18   9  15  1   
 19   9  16  1   
 20   9  17  1   
 21  10  18  1   
 22  10  30  1   
 23  10  31  1   
 24  11  17  1   
 25  11  32  1   
 26  11  33  1   
 27  13  19  1   
 28  13  34  1   
 29  14  19  2   
 30  14  35  1   
 31  15  20  2   
 32  15  21  1   
 33  16  22  1   
 34  16  36  1   
 35  16  37  1   
 36  17  38  1   
 37  17  39  1   
 38  18  22  1   
 39  18  40  1   
 40  18  41  1   
 41  19  42  1   
 42  20  23  1   
 43  20  43  1   
 44  21  24  1   
 45  21  44  1   
 46  21  45  1   
 47  23  25  1   
 48  23  46  1   
 49  23  47  1   
 50  24  25  1   
 51  24  48  1   
 52  24  49  1   
@<TRIPOS>SUBSTRUCTURE
  1 ****   3 GROUP 4 **** **** 0

# MOE 2024.06 (io_trps.svl 2023.06)
