@<TRIPOS>MOLECULE
NONAME
45 47 1 0 0 
SMALL
USER_CHARGES


@<TRIPOS>ATOM
  1 CL       0.3870     0.1610    -0.2650 Cl    1 <1>  -0.1770 
  2 C        0.2020    -1.5390     0.0450 C.ar  1 <1>   0.1770 
  3 C        1.2950    -2.3580     0.0310 C.ar  1 <1>  -0.1500 
  4 C       -1.0630    -2.0410     0.3260 C.ar  1 <1>  -0.1500 
  5 C        1.1440    -3.7270     0.2860 C.ar  1 <1>   0.3610 
  6 C       -1.2190    -3.3860     0.5490 C.ar  1 <1>  -0.1500 
  7 N        2.2600    -4.5220     0.4160 N.ar  1 <1>  -0.1790 
  8 C       -0.1400    -4.2960     0.4660 C.ar  1 <1>   0.0000 
  9 C        2.1670    -5.8260     0.7190 C.ar  1 <1>   0.2110 
 10 C       -0.2540    -5.7260     0.5960 C.ar  1 <1>   0.1000 
 11 C        0.9410    -6.4230     0.8190 C.ar  1 <1>  -0.1500 
 12 N       -1.4140    -6.4350     0.4650 N.pl3 1 <1>  -0.8380 
 13 C       -2.6870    -5.9810    -0.1840 C.3   1 <1>   0.2090 
 14 C       -1.5340    -7.9070     0.7160 C.3   1 <1>   0.2090 
 15 C       -3.3900    -7.2550    -0.6450 C.3   1 <1>   0.2000 
 16 C       -2.9700    -8.3040     0.3710 C.3   1 <1>  -0.0800 
 17 O       -4.7690    -7.1230    -0.6560 O.3   1 <1>  -0.6800 
 18 C       -3.1170    -9.7410    -0.1630 C.3   1 <1>  -0.0550 
 19 S       -2.5140   -10.9760     0.9860 S.o2  1 <1>   1.3330 
 20 O       -3.2860   -10.8510     2.2010 O.2   1 <1>  -0.6500 
 21 O       -1.0720   -10.8760     1.0450 O.2   1 <1>  -0.6500 
 22 N       -2.9160   -12.4400     0.2290 N.am  1 <1>  -0.8490 
 23 C       -1.9270   -12.8810    -0.7610 C.3   1 <1>   0.1160 
 24 C       -3.1700   -13.5150     1.1940 C.3   1 <1>   0.1160 
 25 H        2.2620    -1.9300    -0.1630 H     1 <1>   0.1500 
 26 H       -1.8970    -1.3610     0.3720 H     1 <1>   0.1500 
 27 H       -2.1960    -3.7360     0.8120 H     1 <1>   0.1500 
 28 H        3.1770    -4.0780     0.3150 H     1 <1>   0.4570 
 29 H        3.0700    -6.3960     0.8710 H     1 <1>   0.1500 
 30 H        0.9190    -7.4720     1.0510 H     1 <1>   0.1500 
 31 H       -3.3030    -5.4910     0.5480 H     1 <1>   0.0800 
 32 H       -2.4890    -5.3310    -1.0180 H     1 <1>   0.0800 
 33 H       -0.8480    -8.4300     0.0700 H     1 <1>   0.0800 
 34 H       -1.3080    -8.1400     1.7440 H     1 <1>   0.0800 
 35 H       -3.0640    -7.5100    -1.6390 H     1 <1>   0.0800 
 36 H       -3.5540    -8.1950     1.2690 H     1 <1>   0.0800 
 37 H       -5.1170    -6.9860     0.2480 H     1 <1>   0.4000 
 38 H       -2.5880    -9.8340    -1.0910 H     1 <1>   0.0800 
 39 H       -4.1560    -9.9270    -0.3600 H     1 <1>   0.0800 
 40 H       -2.2790   -13.7630    -1.2680 H     1 <1>   0.0800 
 41 H       -0.9870   -13.1040    -0.2810 H     1 <1>   0.0800 
 42 H       -1.7660   -12.1100    -1.4940 H     1 <1>   0.0800 
 43 H       -3.4430   -14.4210     0.6810 H     1 <1>   0.0800 
 44 H       -3.9840   -13.2410     1.8450 H     1 <1>   0.0800 
 45 H       -2.2930   -13.6960     1.7930 H     1 <1>   0.0800 
@<TRIPOS>BOND
  1   1   2  1   
  2   2   3  ar  
  3   2   4  ar  
  4   3   5  ar  
  5   3  25  1   
  6   4   6  ar  
  7   4  26  1   
  8   5   7  ar  
  9   5   8  ar  
 10   6   8  ar  
 11   6  27  1   
 12   7   9  ar  
 13   7  28  1   
 14   8  10  ar  
 15   9  11  ar  
 16   9  29  1   
 17  10  11  ar  
 18  10  12  1   
 19  11  30  1   
 20  12  13  1   
 21  12  14  1   
 22  13  15  1   
 23  13  31  1   
 24  13  32  1   
 25  14  16  1   
 26  14  33  1   
 27  14  34  1   
 28  15  16  1   
 29  15  17  1   
 30  15  35  1   
 31  16  18  1   
 32  16  36  1   
 33  17  37  1   
 34  18  19  1   
 35  18  38  1   
 36  18  39  1   
 37  19  20  2   
 38  19  21  2   
 39  19  22  am  
 40  22  23  1   
 41  22  24  1   
 42  23  40  1   
 43  23  41  1   
 44  23  42  1   
 45  24  43  1   
 46  24  44  1   
 47  24  45  1   
@<TRIPOS>SUBSTRUCTURE
  1 ****  12 GROUP 4 **** **** 0

# MOE 2024.06 (io_trps.svl 2023.06)
