@<TRIPOS>MOLECULE
NONAME
49 51 1 0 0 
SMALL
USER_CHARGES


@<TRIPOS>ATOM
  1 O        3.3950     1.5310     2.0380 O.co2 1 <1>  -0.9000 
  2 C        2.6040     0.7390     1.5030 C.2   1 <1>   0.9060 
  3 O        2.3420    -0.3440     2.0240 O.co2 1 <1>  -0.9000 
  4 C        2.1950     0.9520     0.0380 C.3   1 <1>  -0.1060 
  5 C        3.0110    -0.1230    -0.7110 C.3   1 <1>   0.2000 
  6 C        2.6180     2.3580    -0.5040 C.3   1 <1>  -0.1600 
  7 C        0.6680     0.7320    -0.1180 C.3   1 <1>  -0.0170 
  8 O        2.8050    -0.0140    -2.0880 O.3   1 <1>  -0.6800 
  9 C        4.5250     0.0580    -0.4210 C.3   1 <1>   0.3430 
 10 C        4.0880     2.4520    -0.9550 C.3   1 <1>   0.3430 
 11 C       -0.1700     1.8450     0.5010 C.ar  1 <1>  -0.1440 
 12 N        4.9090     1.4950    -0.1670 N.4   1 <1>  -0.9590 
 13 C       -0.3560     1.8970     1.8740 C.ar  1 <1>  -0.1500 
 14 C       -0.7600     2.8130    -0.2980 C.ar  1 <1>  -0.1500 
 15 C        6.3730     1.7100    -0.1620 C.3   1 <1>   0.4860 
 16 C       -1.1150     2.9060     2.4420 C.ar  1 <1>  -0.1500 
 17 C       -1.5200     3.8230     0.2670 C.ar  1 <1>  -0.1500 
 18 C        6.7280     3.1860    -0.1110 C.ar  1 <1>  -0.1440 
 19 C       -1.6980     3.8700     1.6390 C.ar  1 <1>  -0.1500 
 20 C        6.5350     3.9740     1.0240 C.ar  1 <1>   0.1670 
 21 C        7.2620     3.7670    -1.2470 C.ar  1 <1>  -0.1500 
 22 N        6.8310     5.2620     1.0770 N.ar  1 <1>  -0.6200 
 23 C        5.9510     3.4260     2.3170 C.3   1 <1>  -0.0970 
 24 C        7.5740     5.1060    -1.1890 C.ar  1 <1>  -0.1500 
 25 C        7.3410     5.7990    -0.0160 C.ar  1 <1>   0.1600 
 26 H        2.7090    -1.1150    -0.4130 H     1 <1>   0.0800 
 27 H        2.4320     3.1030     0.2520 H     1 <1>   0.0800 
 28 H        2.0110     2.6230    -1.3500 H     1 <1>   0.0800 
 29 H        0.4120     0.6560    -1.1580 H     1 <1>   0.0800 
 30 H        0.3890    -0.2030     0.3400 H     1 <1>   0.0800 
 31 H        1.8740    -0.2290    -2.3000 H     1 <1>   0.4000 
 32 H        5.0830    -0.3460    -1.2480 H     1 <1>   0.0800 
 33 H        4.7630    -0.5140     0.4620 H     1 <1>   0.0800 
 34 H        4.4340     3.4630    -0.8150 H     1 <1>   0.0800 
 35 H        4.1590     2.2020    -2.0010 H     1 <1>   0.0800 
 36 H        4.5710     1.6730     0.8150 H     1 <1>   0.4500 
 37 H        0.0940     1.1520     2.5110 H     1 <1>   0.1500 
 38 H       -0.6320     2.7880    -1.3650 H     1 <1>   0.1500 
 39 H        6.8080     1.2070     0.6860 H     1 <1>   0.0800 
 40 H        6.7970     1.2840    -1.0550 H     1 <1>   0.0800 
 41 H       -1.2450     2.9370     3.5090 H     1 <1>   0.1500 
 42 H       -1.9740     4.5710    -0.3590 H     1 <1>   0.1500 
 43 H       -2.2860     4.6540     2.0810 H     1 <1>   0.1500 
 44 H        7.4360     3.2080    -2.1510 H     1 <1>   0.1500 
 45 H        6.0220     2.3590     2.3920 H     1 <1>   0.0800 
 46 H        4.9150     3.7080     2.3900 H     1 <1>   0.0800 
 47 H        6.4710     3.8510     3.1570 H     1 <1>   0.0800 
 48 H        7.9940     5.6140    -2.0390 H     1 <1>   0.1500 
 49 H        7.5850     6.8470     0.0260 H     1 <1>   0.1500 
@<TRIPOS>BOND
  1   1   2  ar  
  2   2   3  ar  
  3   2   4  1   
  4   4   5  1   
  5   4   6  1   
  6   4   7  1   
  7   5   8  1   
  8   5   9  1   
  9   5  26  1   
 10   6  10  1   
 11   6  27  1   
 12   6  28  1   
 13   7  11  1   
 14   7  29  1   
 15   7  30  1   
 16   8  31  1   
 17   9  12  1   
 18   9  32  1   
 19   9  33  1   
 20  10  12  1   
 21  10  34  1   
 22  10  35  1   
 23  11  13  ar  
 24  11  14  ar  
 25  12  15  1   
 26  12  36  1   
 27  13  16  ar  
 28  13  37  1   
 29  14  17  ar  
 30  14  38  1   
 31  15  18  1   
 32  15  39  1   
 33  15  40  1   
 34  16  19  ar  
 35  16  41  1   
 36  17  19  ar  
 37  17  42  1   
 38  18  20  ar  
 39  18  21  ar  
 40  19  43  1   
 41  20  22  ar  
 42  20  23  1   
 43  21  24  ar  
 44  21  44  1   
 45  22  25  ar  
 46  23  45  1   
 47  23  46  1   
 48  23  47  1   
 49  24  25  ar  
 50  24  48  1   
 51  25  49  1   
@<TRIPOS>SUBSTRUCTURE
  1 ****   6 GROUP 4 **** **** 0

# MOE 2024.06 (io_trps.svl 2023.06)
