@<TRIPOS>MOLECULE
NONAME
44 46 1 0 0 
SMALL
USER_CHARGES


@<TRIPOS>ATOM
  1 O       -0.0660    -0.5460     0.1330 O.2   1 <1>  -0.5700 
  2 C        0.7330    -1.4260     0.3110 C.2   1 <1>   0.5690 
  3 N        0.4330    -2.5210     1.0390 N.am  1 <1>  -0.7300 
  4 C        2.1260    -1.3390    -0.2720 C.3   1 <1>  -0.0990 
  5 C        1.3860    -3.6160     1.3010 C.3   1 <1>   0.1400 
  6 C        2.5500    -2.6990    -0.8640 C.3   1 <1>  -0.0800 
  7 C        2.1890    -3.9220     0.0170 C.3   1 <1>  -0.0800 
  8 C        4.0570    -2.7910    -1.1440 C.3   1 <1>  -0.1600 
  9 C        3.5140    -4.6510     0.2870 C.3   1 <1>  -0.1600 
 10 C        4.3970    -4.2540    -0.8960 C.3   1 <1>   0.4230 
 11 N        5.8600    -4.5260    -0.7270 N.4   1 <1>  -0.9590 
 12 C        6.5350    -3.9750     0.4950 C.3   1 <1>   0.4860 
 13 C        6.1160    -5.9970    -0.8370 C.3   1 <1>   0.2630 
 14 C        7.1320    -2.6180     0.1980 C.ar  1 <1>  -0.1430 
 15 C        8.1070    -2.4480    -0.7580 C.ar  1 <1>   0.1600 
 16 C        6.7330    -1.4940     0.8850 C.ar  1 <1>   0.1600 
 17 N        8.6090    -1.2740    -1.0420 N.ar  1 <1>  -0.6200 
 18 N        7.2190    -0.3070     0.6250 N.ar  1 <1>  -0.6200 
 19 C        8.1390    -0.2540    -0.3370 C.ar  1 <1>   0.7030 
 20 O        8.6660     0.9380    -0.6510 O.3   1 <1>  -0.3630 
 21 C        8.3020     2.1270     0.0220 C.3   1 <1>   0.0400 
 22 H       -0.4980    -2.5590     1.4640 H     1 <1>   0.3700 
 23 H        2.1460    -0.5780    -1.0320 H     1 <1>   0.0800 
 24 H        2.7870    -1.0390     0.5200 H     1 <1>   0.0800 
 25 H        2.0420    -3.3050     2.0960 H     1 <1>   0.0800 
 26 H        0.8510    -4.4940     1.6230 H     1 <1>   0.0800 
 27 H        2.0210    -2.8150    -1.7970 H     1 <1>   0.0800 
 28 H        1.5730    -4.5720    -0.5840 H     1 <1>   0.0800 
 29 H        4.5740    -2.1510    -0.4590 H     1 <1>   0.0800 
 30 H        4.2810    -2.4920    -2.1530 H     1 <1>   0.0800 
 31 H        3.3620    -5.7150     0.3370 H     1 <1>   0.0800 
 32 H        3.9220    -4.2970     1.2140 H     1 <1>   0.0800 
 33 H        4.0440    -4.8030    -1.7560 H     1 <1>   0.0800 
 34 H        6.3130    -4.0710    -1.5330 H     1 <1>   0.4500 
 35 H        5.8460    -3.9050     1.3180 H     1 <1>   0.0800 
 36 H        7.3360    -4.6320     0.7950 H     1 <1>   0.0800 
 37 H        5.6600    -6.5220    -0.0120 H     1 <1>   0.0800 
 38 H        7.1760    -6.1980    -0.8300 H     1 <1>   0.0800 
 39 H        5.7040    -6.3820    -1.7570 H     1 <1>   0.0800 
 40 H        8.4960    -3.2850    -1.3140 H     1 <1>   0.1500 
 41 H        5.9910    -1.5560     1.6660 H     1 <1>   0.1500 
 42 H        8.8600     2.9410    -0.4060 H     1 <1>   0.0800 
 43 H        8.5420     2.0250     1.0660 H     1 <1>   0.0800 
 44 H        7.2470     2.2940    -0.1080 H     1 <1>   0.0800 
@<TRIPOS>BOND
  1   1   2  2   
  2   2   3  am  
  3   2   4  1   
  4   3   5  1   
  5   3  22  1   
  6   4   6  1   
  7   4  23  1   
  8   4  24  1   
  9   5   7  1   
 10   5  25  1   
 11   5  26  1   
 12   6   7  1   
 13   6   8  1   
 14   6  27  1   
 15   7   9  1   
 16   7  28  1   
 17   8  10  1   
 18   8  29  1   
 19   8  30  1   
 20   9  10  1   
 21   9  31  1   
 22   9  32  1   
 23  10  11  1   
 24  10  33  1   
 25  11  12  1   
 26  11  13  1   
 27  11  34  1   
 28  12  14  1   
 29  12  35  1   
 30  12  36  1   
 31  13  37  1   
 32  13  38  1   
 33  13  39  1   
 34  14  15  ar  
 35  14  16  ar  
 36  15  17  ar  
 37  15  40  1   
 38  16  18  ar  
 39  16  41  1   
 40  17  19  ar  
 41  18  19  ar  
 42  19  20  1   
 43  20  21  1   
 44  21  42  1   
 45  21  43  1   
 46  21  44  1   
@<TRIPOS>SUBSTRUCTURE
  1 ****   8 GROUP 4 **** **** 0

# MOE 2024.06 (io_trps.svl 2023.06)
