@<TRIPOS>MOLECULE
NONAME
54 56 1 0 0 
SMALL
USER_CHARGES


@<TRIPOS>ATOM
  1 F       -1.3830    -0.5230    -1.7960 F     1 <1>  -0.1900 
  2 C       -2.0010     0.3300    -1.0200 C.ar  1 <1>   0.1900 
  3 C       -2.7420    -0.1290     0.0590 C.ar  1 <1>  -0.1440 
  4 C       -1.8770     1.6750    -1.3160 C.ar  1 <1>  -0.1500 
  5 C       -3.3660     0.8140     0.8620 C.ar  1 <1>  -0.1500 
  6 C       -2.8700    -1.6150     0.3640 C.3   1 <1>   0.2540 
  7 C       -2.5110     2.6030    -0.5070 C.ar  1 <1>  -0.1500 
  8 C       -3.2590     2.1710     0.5880 C.ar  1 <1>   0.0830 
  9 N       -3.8520    -2.2700    -0.5250 N.3   1 <1>  -0.8100 
 10 O       -3.9110     3.0100     1.4320 O.3   1 <1>  -0.3630 
 11 C       -3.8940    -3.7440    -0.3090 C.3   1 <1>   0.3330 
 12 C       -5.1960    -1.6770    -0.4030 C.3   1 <1>   0.1100 
 13 C       -3.8570     4.4100     1.2610 C.3   1 <1>   0.0400 
 14 C       -2.5260    -4.3250    -0.6820 C.ar  1 <1>  -0.1430 
 15 C       -5.0290    -4.4300    -1.1340 C.3   1 <1>   0.2000 
 16 C       -6.1850    -2.3900    -1.3310 C.3   1 <1>   0.1200 
 17 C       -1.8360    -5.1230     0.2200 C.ar  1 <1>  -0.1500 
 18 C       -1.9560    -4.0610    -1.9210 C.ar  1 <1>  -0.1500 
 19 O       -6.2480    -3.7430    -1.0010 O.3   1 <1>  -0.5600 
 20 C       -5.3430    -5.8830    -0.7260 C.3   1 <1>   0.1200 
 21 C       -0.6070    -5.6660    -0.1110 C.ar  1 <1>   0.0830 
 22 C       -0.7210    -4.5890    -2.2560 C.ar  1 <1>  -0.1500 
 23 O       -4.2320    -6.7200    -0.7460 O.3   1 <1>  -0.6800 
 24 O       -0.0110    -6.4710     0.8010 O.3   1 <1>  -0.3630 
 25 C       -0.0340    -5.3830    -1.3550 C.ar  1 <1>   0.0830 
 26 C        0.0140    -7.8430     0.4780 C.3   1 <1>   0.0400 
 27 O        1.1810    -5.8540    -1.7310 O.3   1 <1>  -0.3630 
 28 C        2.2890    -5.3820    -0.9970 C.3   1 <1>   0.0400 
 29 H       -1.2930     1.9840    -2.1640 H     1 <1>   0.1500 
 30 H       -3.9480     0.5080     1.7130 H     1 <1>   0.1500 
 31 H       -3.1610    -1.7540     1.3910 H     1 <1>   0.0800 
 32 H       -1.9000    -2.0650     0.2370 H     1 <1>   0.0800 
 33 H       -2.4120     3.6450    -0.7420 H     1 <1>   0.1500 
 34 H       -4.0870    -3.9370     0.7320 H     1 <1>   0.0800 
 35 H       -5.5460    -1.7420     0.6130 H     1 <1>   0.0800 
 36 H       -5.1620    -0.6390    -0.6850 H     1 <1>   0.0800 
 37 H       -4.4360     4.8640     2.0440 H     1 <1>   0.0800 
 38 H       -4.2770     4.6610     0.3030 H     1 <1>   0.0800 
 39 H       -2.8330     4.7310     1.3310 H     1 <1>   0.0800 
 40 H       -4.7680    -4.4120    -2.1770 H     1 <1>   0.0800 
 41 H       -5.8830    -2.2910    -2.3590 H     1 <1>   0.0800 
 42 H       -7.1710    -1.9760    -1.2130 H     1 <1>   0.0800 
 43 H       -2.2540    -5.3480     1.1840 H     1 <1>   0.1500 
 44 H       -2.4720    -3.4260    -2.6220 H     1 <1>   0.1500 
 45 H       -6.0700    -6.2940    -1.4050 H     1 <1>   0.0800 
 46 H       -5.7450    -5.9080     0.2720 H     1 <1>   0.0800 
 47 H       -0.2820    -4.3780    -3.2140 H     1 <1>   0.1500 
 48 H       -3.6180    -6.4800    -1.4710 H     1 <1>   0.4000 
 49 H        0.4520    -8.3750     1.3010 H     1 <1>   0.0800 
 50 H        0.6030    -7.9860    -0.4100 H     1 <1>   0.0800 
 51 H       -0.9960    -8.1780     0.3150 H     1 <1>   0.0800 
 52 H        3.1850    -5.7250    -1.4820 H     1 <1>   0.0800 
 53 H        2.2450    -5.7690     0.0050 H     1 <1>   0.0800 
 54 H        2.2650    -4.3070    -0.9840 H     1 <1>   0.0800 
@<TRIPOS>BOND
  1   1   2  1   
  2   2   3  ar  
  3   2   4  ar  
  4   3   5  ar  
  5   3   6  1   
  6   4   7  ar  
  7   4  29  1   
  8   5   8  ar  
  9   5  30  1   
 10   6   9  1   
 11   6  31  1   
 12   6  32  1   
 13   7   8  ar  
 14   7  33  1   
 15   8  10  1   
 16   9  11  1   
 17   9  12  1   
 18  10  13  1   
 19  11  14  1   
 20  11  15  1   
 21  11  34  1   
 22  12  16  1   
 23  12  35  1   
 24  12  36  1   
 25  13  37  1   
 26  13  38  1   
 27  13  39  1   
 28  14  17  ar  
 29  14  18  ar  
 30  15  19  1   
 31  15  20  1   
 32  15  40  1   
 33  16  19  1   
 34  16  41  1   
 35  16  42  1   
 36  17  21  ar  
 37  17  43  1   
 38  18  22  ar  
 39  18  44  1   
 40  20  23  1   
 41  20  45  1   
 42  20  46  1   
 43  21  24  1   
 44  21  25  ar  
 45  22  25  ar  
 46  22  47  1   
 47  23  48  1   
 48  24  26  1   
 49  25  27  1   
 50  26  49  1   
 51  26  50  1   
 52  26  51  1   
 53  27  28  1   
 54  28  52  1   
 55  28  53  1   
 56  28  54  1   
@<TRIPOS>SUBSTRUCTURE
  1 ****   9 GROUP 4 **** **** 0

# MOE 2024.06 (io_trps.svl 2023.06)
