@<TRIPOS>MOLECULE
NONAME
43 45 1 0 0 
SMALL
USER_CHARGES


@<TRIPOS>ATOM
  1 N        0.6970     0.0210    -0.9010 N.ar  1 <1>  -0.6200 
  2 C       -0.4080    -0.4680    -1.4430 C.ar  1 <1>   0.7710 
  3 C        1.4700    -0.8010    -0.1920 C.ar  1 <1>   0.4100 
  4 N       -0.8190    -1.7450    -1.3000 N.ar  1 <1>  -0.1260 
  5 N       -1.1330     0.3830    -2.1680 N.pl3 1 <1>  -0.9000 
  6 N        2.6300    -0.2550     0.2940 N.pl3 1 <1>  -0.8380 
  7 C        1.0810    -2.1600     0.0330 C.ar  1 <1>   0.2270 
  8 C       -0.0750    -2.6070    -0.5430 C.ar  1 <1>   0.1560 
  9 C        2.6630     1.1520     0.7960 C.3   1 <1>   0.2090 
 10 C        3.8360    -1.0900     0.6070 C.3   1 <1>   0.2090 
 11 N        1.6250    -3.1820     0.7670 N.2   1 <1>  -0.5650 
 12 N       -0.2410    -3.8960    -0.1870 N.pl3 1 <1>   0.0330 
 13 C        3.0440     2.1210    -0.3390 C.3   1 <1>   0.3430 
 14 C        5.1050    -0.4680     0.0270 C.3   1 <1>  -0.2400 
 15 C        0.8240    -4.1760     0.6080 C.2   1 <1>   0.0360 
 16 N        3.2860     3.5260     0.1350 N.4   1 <1>  -0.9590 
 17 C        2.0910     4.1970     0.7060 C.3   1 <1>   0.3430 
 18 C        3.7620     4.4110    -0.9560 C.3   1 <1>   0.3430 
 19 C        2.4190     5.6820     0.6320 C.3   1 <1>  -0.1600 
 20 C        3.5030     5.8200    -0.4410 C.3   1 <1>  -0.1600 
 21 H       -1.6830    -2.0180    -1.7600 H     1 <1>   0.4570 
 22 H       -2.0080     0.2120    -2.6710 H     1 <1>   0.4000 
 23 H       -0.7930     1.3430    -2.2760 H     1 <1>   0.4000 
 24 H        3.3730     1.2250     1.6010 H     1 <1>   0.0800 
 25 H        1.6920     1.4090     1.1800 H     1 <1>   0.0800 
 26 H        3.7370    -2.0680     0.1710 H     1 <1>   0.0800 
 27 H        3.9290    -1.2110     1.6740 H     1 <1>   0.0800 
 28 H       -0.9890    -4.5550    -0.4250 H     1 <1>   0.2700 
 29 H        2.2560     2.1130    -1.0730 H     1 <1>   0.0800 
 30 H        3.9390     1.7490    -0.8090 H     1 <1>   0.0800 
 31 H        4.9910    -0.3070    -1.0300 H     1 <1>   0.0800 
 32 H        5.9240    -1.1500     0.1720 H     1 <1>   0.0800 
 33 H        5.3560     0.4500     0.5220 H     1 <1>   0.0800 
 34 H        0.9630    -5.1490     1.0570 H     1 <1>   0.1500 
 35 H        4.0190     3.5250     0.8580 H     1 <1>   0.4500 
 36 H        1.8970     3.8820     1.7190 H     1 <1>   0.0800 
 37 H        1.2280     3.9900     0.0930 H     1 <1>   0.0800 
 38 H        3.1770     4.2420    -1.8470 H     1 <1>   0.0800 
 39 H        4.8060     4.2510    -1.1780 H     1 <1>   0.0800 
 40 H        2.7880     6.0230     1.5840 H     1 <1>   0.0800 
 41 H        1.5380     6.2490     0.3860 H     1 <1>   0.0800 
 42 H        3.1900     6.4620    -1.2460 H     1 <1>   0.0800 
 43 H        4.4050     6.2240    -0.0150 H     1 <1>   0.0800 
@<TRIPOS>BOND
  1   1   2  ar  
  2   1   3  ar  
  3   2   4  ar  
  4   2   5  1   
  5   3   6  1   
  6   3   7  ar  
  7   4   8  ar  
  8   4  21  1   
  9   5  22  1   
 10   5  23  1   
 11   6   9  1   
 12   6  10  1   
 13   7   8  ar  
 14   7  11  1   
 15   8  12  1   
 16   9  13  1   
 17   9  24  1   
 18   9  25  1   
 19  10  14  1   
 20  10  26  1   
 21  10  27  1   
 22  11  15  2   
 23  12  15  1   
 24  12  28  1   
 25  13  16  1   
 26  13  29  1   
 27  13  30  1   
 28  14  31  1   
 29  14  32  1   
 30  14  33  1   
 31  15  34  1   
 32  16  17  1   
 33  16  18  1   
 34  16  35  1   
 35  17  19  1   
 36  17  36  1   
 37  17  37  1   
 38  18  20  1   
 39  18  38  1   
 40  18  39  1   
 41  19  20  1   
 42  19  40  1   
 43  19  41  1   
 44  20  42  1   
 45  20  43  1   
@<TRIPOS>SUBSTRUCTURE
  1 ****   6 GROUP 4 **** **** 0

# MOE 2024.06 (io_trps.svl 2023.06)
