@<TRIPOS>MOLECULE
NONAME
51 53 1 0 0 
SMALL
USER_CHARGES


@<TRIPOS>ATOM
  1 O        2.0250    -1.2730     0.7040 O.co2 1 <1>  -0.9000 
  2 C        2.0340    -0.0450     0.8830 C.2   1 <1>   0.9060 
  3 O        1.8150     0.4300     2.0030 O.co2 1 <1>  -0.9000 
  4 C        2.3420     0.8730    -0.3170 C.3   1 <1>  -0.1060 
  5 C        3.5800     0.3230    -1.0730 C.3   1 <1>   0.2000 
  6 C        2.6990     2.3180     0.1430 C.3   1 <1>  -0.1600 
  7 C        1.1250     0.8880    -1.2820 C.3   1 <1>  -0.0160 
  8 O        3.3510    -0.9800    -1.4850 O.3   1 <1>  -0.6800 
  9 C        4.8520     0.3670    -0.2140 C.3   1 <1>   0.1400 
 10 C        3.9800     2.3670     0.9890 C.3   1 <1>   0.1400 
 11 C       -0.0240     1.8090    -0.8720 C.ar  1 <1>  -0.1440 
 12 N        5.1160     1.7760     0.2190 N.am  1 <1>  -0.6600 
 13 C       -0.3140     2.9420    -1.6200 C.ar  1 <1>  -0.1500 
 14 C       -0.7920     1.5240     0.2460 C.ar  1 <1>  -0.1500 
 15 C        6.2790     2.4220    -0.1050 C.2   1 <1>   0.5690 
 16 C       -1.3560     3.7770    -1.2540 C.ar  1 <1>  -0.1500 
 17 C       -1.8330     2.3590     0.6140 C.ar  1 <1>  -0.1500 
 18 O        7.1340     1.9030    -0.7860 O.2   1 <1>  -0.5700 
 19 C        6.5180     3.8420     0.3730 C.3   1 <1>  -0.0990 
 20 C       -2.1160     3.4870    -0.1360 C.ar  1 <1>  -0.1500 
 21 C        7.9350     4.3390     0.0600 C.3   1 <1>   0.0960 
 22 N        8.0730     5.7550     0.4450 N.pl3 1 <1>   0.3140 
 23 N        8.2030     6.1140     1.7360 N.2   1 <1>  -0.7070 
 24 C        8.0570     6.8400    -0.3660 C.2   1 <1>  -0.3320 
 25 C        8.2750     7.4090     1.7180 C.2   1 <1>   0.1390 
 26 C        8.1890     7.9220     0.4300 C.2   1 <1>  -0.1500 
 27 C        7.9170     6.8010    -1.8780 C.3   1 <1>  -0.0600 
 28 H        3.7600     0.9000    -1.9620 H     1 <1>   0.0800 
 29 H        1.8950     2.7140     0.7390 H     1 <1>   0.0800 
 30 H        2.8180     2.9590    -0.7110 H     1 <1>   0.0800 
 31 H        1.4600     1.1820    -2.2600 H     1 <1>   0.0800 
 32 H        0.7410    -0.1130    -1.3810 H     1 <1>   0.0800 
 33 H        2.8550    -1.4170    -0.7250 H     1 <1>   0.4000 
 34 H        5.6770    -0.0140    -0.7890 H     1 <1>   0.0800 
 35 H        4.7270    -0.2510     0.6580 H     1 <1>   0.0800 
 36 H        3.8440     1.8050     1.8980 H     1 <1>   0.0800 
 37 H        4.1740     3.3850     1.2660 H     1 <1>   0.0800 
 38 H        0.2710     3.1770    -2.4900 H     1 <1>   0.1500 
 39 H       -0.5760     0.6520     0.8420 H     1 <1>   0.1500 
 40 H       -1.5740     4.6530    -1.8400 H     1 <1>   0.1500 
 41 H       -2.4140     2.1250     1.4890 H     1 <1>   0.1500 
 42 H        5.8020     4.4830    -0.1060 H     1 <1>   0.0800 
 43 H        6.3720     3.8780     1.4370 H     1 <1>   0.0800 
 44 H       -2.9250     4.1340     0.1530 H     1 <1>   0.1500 
 45 H        8.1470     4.2370    -0.9880 H     1 <1>   0.0800 
 46 H        8.6560     3.7630     0.6110 H     1 <1>   0.0800 
 47 H        8.3880     8.0090     2.6050 H     1 <1>   0.1500 
 48 H        8.2220     8.9620     0.1620 H     1 <1>   0.1500 
 49 H        7.9170     7.8000    -2.2760 H     1 <1>   0.0800 
 50 H        6.9940     6.3230    -2.1550 H     1 <1>   0.0800 
 51 H        8.7380     6.2600    -2.3150 H     1 <1>   0.0800 
@<TRIPOS>BOND
  1   1   2  ar  
  2   2   3  ar  
  3   2   4  1   
  4   4   5  1   
  5   4   6  1   
  6   4   7  1   
  7   5   8  1   
  8   5   9  1   
  9   5  28  1   
 10   6  10  1   
 11   6  29  1   
 12   6  30  1   
 13   7  11  1   
 14   7  31  1   
 15   7  32  1   
 16   8  33  1   
 17   9  12  1   
 18   9  34  1   
 19   9  35  1   
 20  10  12  1   
 21  10  36  1   
 22  10  37  1   
 23  11  13  ar  
 24  11  14  ar  
 25  12  15  am  
 26  13  16  ar  
 27  13  38  1   
 28  14  17  ar  
 29  14  39  1   
 30  15  18  2   
 31  15  19  1   
 32  16  20  ar  
 33  16  40  1   
 34  17  20  ar  
 35  17  41  1   
 36  19  21  1   
 37  19  42  1   
 38  19  43  1   
 39  20  44  1   
 40  21  22  1   
 41  21  45  1   
 42  21  46  1   
 43  22  23  1   
 44  22  24  1   
 45  23  25  2   
 46  24  26  2   
 47  24  27  1   
 48  25  26  1   
 49  25  47  1   
 50  26  48  1   
 51  27  49  1   
 52  27  50  1   
 53  27  51  1   
@<TRIPOS>SUBSTRUCTURE
  1 ****  10 GROUP 4 **** **** 0

# MOE 2024.06 (io_trps.svl 2023.06)
