@<TRIPOS>MOLECULE
NONAME
54 57 1 0 0 
SMALL
USER_CHARGES


@<TRIPOS>ATOM
  1 O        0.2280     0.2320    -0.7670 O.2   1 <1>  -0.5700 
  2 C       -0.5450     1.1260    -1.0260 C.2   1 <1>   0.5690 
  3 N       -1.7560     1.2260    -0.3700 N.am  1 <1>  -0.6600 
  4 C       -0.1370     2.0960    -2.1500 C.3   1 <1>   0.1810 
  5 C       -2.7900     2.2880    -0.6170 C.3   1 <1>   0.1400 
  6 C       -2.2400     0.0870     0.4720 C.3   1 <1>   0.1400 
  7 O        0.8150     3.0700    -1.7880 O.3   1 <1>  -0.5600 
  8 C       -3.4400     2.7980     0.6860 C.3   1 <1>   0.1430 
  9 C       -2.8800     0.5810     1.7740 C.3   1 <1>  -0.1600 
 10 C        0.5010     3.8490    -0.6840 C.3   1 <1>   0.1200 
 11 C       -4.5240     3.7920     0.3130 C.ar  1 <1>   0.1660 
 12 C       -3.9870     1.6110     1.5020 C.3   1 <1>  -0.1600 
 13 C       -2.4700     3.6700     1.5300 C.3   1 <1>  -0.1600 
 14 C        1.5740     4.9260    -0.5460 C.3   1 <1>  -0.1600 
 15 N       -5.6750     3.4880    -0.2350 N.ar  1 <1>  -0.6200 
 16 C       -4.1540     5.0710     0.5950 C.ar  1 <1>  -0.1440 
 17 C       -2.7740     5.1410     1.1960 C.3   1 <1>  -0.0170 
 18 C        1.2930     5.8440     0.6490 C.3   1 <1>  -0.2400 
 19 C       -6.4940     4.5180    -0.4910 C.ar  1 <1>   0.6200 
 20 C       -5.0430     6.0710     0.2990 C.ar  1 <1>   0.1600 
 21 N       -6.2100     5.8050    -0.2410 N.ar  1 <1>  -0.6200 
 22 C       -7.7890     4.2160    -1.0890 C.ar  1 <1>   0.0000 
 23 C       -8.8920     5.0580    -0.9150 C.ar  1 <1>  -0.1500 
 24 C       -7.9910     3.0710    -1.8660 C.ar  1 <1>  -0.1500 
 25 C      -10.1220     4.7760    -1.4810 C.ar  1 <1>  -0.1500 
 26 C       -9.2180     2.7820    -2.4350 C.ar  1 <1>  -0.1500 
 27 C      -10.2890     3.6350    -2.2430 C.ar  1 <1>  -0.1500 
 28 H       -0.9860     2.5960    -2.5700 H     1 <1>   0.0800 
 29 H        0.3110     1.5140    -2.9350 H     1 <1>   0.0800 
 30 H       -3.5590     1.8700    -1.2440 H     1 <1>   0.0800 
 31 H       -2.3670     3.1270    -1.1340 H     1 <1>   0.0800 
 32 H       -1.4280    -0.5790     0.7150 H     1 <1>   0.0800 
 33 H       -2.9640    -0.4740    -0.0930 H     1 <1>   0.0800 
 34 H       -2.1150     1.0050     2.4000 H     1 <1>   0.0800 
 35 H       -3.2960    -0.2610     2.2990 H     1 <1>   0.0800 
 36 H        0.4940     3.2190     0.1900 H     1 <1>   0.0800 
 37 H       -0.4640     4.2970    -0.8380 H     1 <1>   0.0800 
 38 H       -4.7780     1.1360     0.9460 H     1 <1>   0.0800 
 39 H       -4.4100     1.9580     2.4290 H     1 <1>   0.0800 
 40 H       -1.4400     3.4170     1.3650 H     1 <1>   0.0800 
 41 H       -2.6790     3.5240     2.5750 H     1 <1>   0.0800 
 42 H        1.6050     5.5120    -1.4480 H     1 <1>   0.0800 
 43 H        2.5300     4.4510    -0.4120 H     1 <1>   0.0800 
 44 H       -2.0810     5.5230     0.4680 H     1 <1>   0.0800 
 45 H       -2.7540     5.7580     2.0780 H     1 <1>   0.0800 
 46 H        0.3570     6.3570     0.5200 H     1 <1>   0.0800 
 47 H        2.0750     6.5790     0.7350 H     1 <1>   0.0800 
 48 H        1.2590     5.2740     1.5610 H     1 <1>   0.0800 
 49 H       -4.7970     7.0990     0.5050 H     1 <1>   0.1500 
 50 H       -8.7840     5.9510    -0.3240 H     1 <1>   0.1500 
 51 H       -7.1720     2.3930    -2.0290 H     1 <1>   0.1500 
 52 H      -10.9510     5.4460    -1.3270 H     1 <1>   0.1500 
 53 H       -9.3410     1.8920    -3.0270 H     1 <1>   0.1500 
 54 H      -11.2450     3.4140    -2.6850 H     1 <1>   0.1500 
@<TRIPOS>BOND
  1   1   2  2   
  2   2   3  am  
  3   2   4  1   
  4   3   5  1   
  5   3   6  1   
  6   4   7  1   
  7   4  28  1   
  8   4  29  1   
  9   5   8  1   
 10   5  30  1   
 11   5  31  1   
 12   6   9  1   
 13   6  32  1   
 14   6  33  1   
 15   7  10  1   
 16   8  11  1   
 17   8  12  1   
 18   8  13  1   
 19   9  12  1   
 20   9  34  1   
 21   9  35  1   
 22  10  14  1   
 23  10  36  1   
 24  10  37  1   
 25  11  15  ar  
 26  11  16  ar  
 27  12  38  1   
 28  12  39  1   
 29  13  17  1   
 30  13  40  1   
 31  13  41  1   
 32  14  18  1   
 33  14  42  1   
 34  14  43  1   
 35  15  19  ar  
 36  16  17  1   
 37  16  20  ar  
 38  17  44  1   
 39  17  45  1   
 40  18  46  1   
 41  18  47  1   
 42  18  48  1   
 43  19  21  ar  
 44  19  22  1   
 45  20  21  ar  
 46  20  49  1   
 47  22  23  ar  
 48  22  24  ar  
 49  23  25  ar  
 50  23  50  1   
 51  24  26  ar  
 52  24  51  1   
 53  25  27  ar  
 54  25  52  1   
 55  26  27  ar  
 56  26  53  1   
 57  27  54  1   
@<TRIPOS>SUBSTRUCTURE
  1 ****  11 GROUP 4 **** **** 0

# MOE 2024.06 (io_trps.svl 2023.06)
