@<TRIPOS>MOLECULE
NONAME
47 49 1 0 0 
SMALL
USER_CHARGES


@<TRIPOS>ATOM
  1 O        1.6470     4.0660     4.1630 O.co2 1 <1>  -0.9000 
  2 C        2.3710     3.4760     3.3360 C.2   1 <1>   1.0320 
  3 O        2.4410     2.2330     3.3960 O.co2 1 <1>  -0.9000 
  4 C        3.1030     4.2490     2.3420 C.2   1 <1>  -0.0920 
  5 O        3.8930     3.6920     1.4230 O.3   1 <1>  -0.2800 
  6 C        3.1320     5.5980     2.1600 C.2   1 <1>  -0.1500 
  7 C        4.4200     4.6370     0.6750 C.2   1 <1>  -0.0400 
  8 C        3.9830     5.8490     1.0830 C.2   1 <1>  -0.1500 
  9 C        5.3670     4.2190    -0.4340 C.3   1 <1>   0.3200 
 10 N        6.0620     5.3970    -0.9840 N.am  1 <1>  -0.7300 
 11 C        6.6290     5.5000    -2.2070 C.2   1 <1>   0.5690 
 12 O        6.6160     4.5910    -3.0020 O.2   1 <1>  -0.5700 
 13 C        7.3100     6.8240    -2.5730 C.3   1 <1>   0.1710 
 14 N        7.6670     7.6740    -1.3960 N.3   1 <1>  -0.8100 
 15 C        7.9230     9.0630    -1.8150 C.3   1 <1>   0.1100 
 16 C        8.8330     7.1230    -0.6830 C.3   1 <1>   0.1100 
 17 C        8.1440     9.9600    -0.5850 C.3   1 <1>  -0.0190 
 18 C        9.0940     7.9360     0.5880 C.3   1 <1>  -0.1600 
 19 C        8.3880    11.4170    -0.9930 C.2   1 <1>   0.4230 
 20 C        9.3080     9.4220     0.2670 C.3   1 <1>  -0.1600 
 21 O        8.9560    11.6130    -2.0440 O.2   1 <1>  -0.5700 
 22 C        7.9470    12.4960    -0.1200 C.ar  1 <1>   0.3960 
 23 N        7.3940    12.2120     1.0720 N.ar  1 <1>  -0.6200 
 24 C        8.1100    13.8210    -0.5360 C.ar  1 <1>  -0.1500 
 25 C        7.0130    13.2270     1.8230 C.ar  1 <1>   0.1600 
 26 C        7.7080    14.8740     0.2560 C.ar  1 <1>  -0.1500 
 27 C        7.1430    14.5580     1.4700 C.ar  1 <1>  -0.1500 
 28 H        2.5960     6.3260     2.7430 H     1 <1>   0.1500 
 29 H        4.2150     6.8220     0.6890 H     1 <1>   0.1500 
 30 H        4.8180     3.7170    -1.2120 H     1 <1>   0.0800 
 31 H        6.0960     3.5360    -0.0340 H     1 <1>   0.0800 
 32 H        6.1820     6.1930    -0.3510 H     1 <1>   0.3700 
 33 H        6.6210     7.3610    -3.2010 H     1 <1>   0.0800 
 34 H        8.1890     6.6140    -3.1560 H     1 <1>   0.0800 
 35 H        7.0780     9.4360    -2.3680 H     1 <1>   0.0800 
 36 H        8.7880     9.0980    -2.4570 H     1 <1>   0.0800 
 37 H        9.7010     7.1530    -1.3210 H     1 <1>   0.0800 
 38 H        8.6490     6.0970    -0.4110 H     1 <1>   0.0800 
 39 H        7.2400     9.9090    -0.0060 H     1 <1>   0.0800 
 40 H        9.9630     7.5460     1.0880 H     1 <1>   0.0800 
 41 H        8.2540     7.8230     1.2510 H     1 <1>   0.0800 
 42 H        9.3840     9.9840     1.1820 H     1 <1>   0.0800 
 43 H       10.2300     9.5390    -0.2770 H     1 <1>   0.0800 
 44 H        8.5580    14.0200    -1.4930 H     1 <1>   0.1500 
 45 H        6.5700    12.9900     2.7770 H     1 <1>   0.1500 
 46 H        7.8300    15.8960    -0.0600 H     1 <1>   0.1500 
 47 H        6.8070    15.3310     2.1380 H     1 <1>   0.1500 
@<TRIPOS>BOND
  1   1   2  ar  
  2   2   3  ar  
  3   2   4  1   
  4   4   5  1   
  5   4   6  2   
  6   5   7  1   
  7   6   8  1   
  8   6  28  1   
  9   7   8  2   
 10   7   9  1   
 11   8  29  1   
 12   9  10  1   
 13   9  30  1   
 14   9  31  1   
 15  10  11  am  
 16  10  32  1   
 17  11  12  2   
 18  11  13  1   
 19  13  14  1   
 20  13  33  1   
 21  13  34  1   
 22  14  15  1   
 23  14  16  1   
 24  15  17  1   
 25  15  35  1   
 26  15  36  1   
 27  16  18  1   
 28  16  37  1   
 29  16  38  1   
 30  17  19  1   
 31  17  20  1   
 32  17  39  1   
 33  18  20  1   
 34  18  40  1   
 35  18  41  1   
 36  19  21  2   
 37  19  22  1   
 38  20  42  1   
 39  20  43  1   
 40  22  23  ar  
 41  22  24  ar  
 42  23  25  ar  
 43  24  26  ar  
 44  24  44  1   
 45  25  27  ar  
 46  25  45  1   
 47  26  27  ar  
 48  26  46  1   
 49  27  47  1   
@<TRIPOS>SUBSTRUCTURE
  1 ****  14 GROUP 4 **** **** 0

# MOE 2024.06 (io_trps.svl 2023.06)
