@<TRIPOS>MOLECULE
NONAME
46 49 1 0 0 
SMALL
USER_CHARGES


@<TRIPOS>ATOM
  1 O       -1.6310     0.3040    -1.5180 O.2   1 <1>  -0.5700 
  2 C       -1.7710     0.7470    -0.3970 C.2   1 <1>   0.5440 
  3 N       -2.1170    -0.1140     0.6020 N.am  1 <1>  -0.7300 
  4 C       -1.6020     2.1540    -0.1180 C.ar  1 <1>   0.0860 
  5 C       -2.3530    -1.5660     0.4340 C.3   1 <1>   0.2200 
  6 C       -0.5270     2.9130    -0.6030 C.ar  1 <1>   0.0000 
  7 C       -2.5020     2.8590     0.6640 C.ar  1 <1>  -0.1500 
  8 C       -3.8490    -1.8180     0.3510 C.3   1 <1>  -0.0800 
  9 C       -1.9920    -2.2900     1.7240 C.3   1 <1>   0.1200 
 10 C       -0.4640     4.2440    -0.2670 C.ar  1 <1>   0.3970 
 11 C        0.6340     2.7490    -1.3850 C.2   1 <1>   0.1080 
 12 C       -2.3270     4.2170     0.9340 C.ar  1 <1>   0.1660 
 13 C       -4.2560    -1.9180     1.8280 C.3   1 <1>   0.1200 
 14 C       -4.1610    -3.1080    -0.4310 C.3   1 <1>  -0.0170 
 15 O       -3.0840    -2.1050     2.5700 O.3   1 <1>  -0.5600 
 16 O        0.6240     4.7520    -0.8160 O.3   1 <1>  -0.0190 
 17 N       -1.3220     4.9310     0.4870 N.ar  1 <1>  -0.5670 
 18 N        1.2880     3.8440    -1.4900 N.2   1 <1>  -0.4100 
 19 C        1.0960     1.4610    -2.0350 C.3   1 <1>  -0.0590 
 20 C       -3.3360     4.9530     1.7910 C.3   1 <1>  -0.0970 
 21 C       -5.6600    -3.3390    -0.5450 C.ar  1 <1>  -0.1440 
 22 C       -6.4420    -2.6010    -1.4110 C.ar  1 <1>  -0.1500 
 23 C       -6.3160    -4.2950     0.2040 C.ar  1 <1>  -0.1500 
 24 C       -7.8040    -2.8440    -1.4800 C.ar  1 <1>   0.1600 
 25 C       -7.6840    -4.4570     0.0590 C.ar  1 <1>   0.1600 
 26 N       -8.4440    -3.7530    -0.7630 N.ar  1 <1>  -0.6200 
 27 H       -2.2430     0.2150     1.5620 H     1 <1>   0.3700 
 28 H       -1.8060    -1.9420    -0.4160 H     1 <1>   0.0800 
 29 H       -3.3610     2.3520     1.0660 H     1 <1>   0.1500 
 30 H       -4.3530    -0.9980    -0.1310 H     1 <1>   0.0800 
 31 H       -1.1020    -1.9000     2.1870 H     1 <1>   0.0800 
 32 H       -1.8820    -3.3460     1.5530 H     1 <1>   0.0800 
 33 H       -4.9230    -2.7380     2.0250 H     1 <1>   0.0800 
 34 H       -4.7110    -1.0020     2.1640 H     1 <1>   0.0800 
 35 H       -3.6990    -3.9560     0.0450 H     1 <1>   0.0800 
 36 H       -3.7500    -3.0300    -1.4230 H     1 <1>   0.0800 
 37 H        1.0870     0.6590    -1.3210 H     1 <1>   0.0800 
 38 H        2.0960     1.5760    -2.4130 H     1 <1>   0.0800 
 39 H        0.4460     1.2130    -2.8540 H     1 <1>   0.0800 
 40 H       -4.1250     4.3020     2.1190 H     1 <1>   0.0800 
 41 H       -3.7660     5.7610     1.2260 H     1 <1>   0.0800 
 42 H       -2.8430     5.3630     2.6540 H     1 <1>   0.0800 
 43 H       -6.0050    -1.8410    -2.0340 H     1 <1>   0.1500 
 44 H       -5.7800    -4.9160     0.8980 H     1 <1>   0.1500 
 45 H       -8.3970    -2.2580    -2.1610 H     1 <1>   0.1500 
 46 H       -8.1800    -5.2070     0.6520 H     1 <1>   0.1500 
@<TRIPOS>BOND
  1   1   2  2   
  2   2   3  am  
  3   2   4  1   
  4   3   5  1   
  5   3  27  1   
  6   4   6  ar  
  7   4   7  ar  
  8   5   8  1   
  9   5   9  1   
 10   5  28  1   
 11   6  10  ar  
 12   6  11  1   
 13   7  12  ar  
 14   7  29  1   
 15   8  13  1   
 16   8  14  1   
 17   8  30  1   
 18   9  15  1   
 19   9  31  1   
 20   9  32  1   
 21  10  16  1   
 22  10  17  ar  
 23  11  18  2   
 24  11  19  1   
 25  12  17  ar  
 26  12  20  1   
 27  13  15  1   
 28  13  33  1   
 29  13  34  1   
 30  14  21  1   
 31  14  35  1   
 32  14  36  1   
 33  16  18  1   
 34  19  37  1   
 35  19  38  1   
 36  19  39  1   
 37  20  40  1   
 38  20  41  1   
 39  20  42  1   
 40  21  22  ar  
 41  21  23  ar  
 42  22  24  ar  
 43  22  43  1   
 44  23  25  ar  
 45  23  44  1   
 46  24  26  ar  
 47  24  45  1   
 48  25  26  ar  
 49  25  46  1   
@<TRIPOS>SUBSTRUCTURE
  1 ****   3 GROUP 4 **** **** 0

# MOE 2024.06 (io_trps.svl 2023.06)
