@<TRIPOS>MOLECULE
NONAME
50 53 1 0 0 
SMALL
USER_CHARGES


@<TRIPOS>ATOM
  1 O       -2.6830    -0.1280     0.9480 O.2   1 <1>  -0.5700 
  2 C       -1.9460     0.4600     0.1760 C.2   1 <1>   0.7160 
  3 N       -1.2690    -0.2720    -0.7570 N.am  1 <1>  -0.7300 
  4 C       -1.7410     1.8690     0.2420 C.2   1 <1>  -0.0860 
  5 C       -1.3590    -1.7440    -0.9010 C.3   1 <1>   0.1400 
  6 C       -2.7230     2.8620     0.1900 C.2   1 <1>   0.3720 
  7 C       -0.5820     2.5750     0.3070 C.2   1 <1>   0.0870 
  8 C       -2.6350    -2.1250    -1.6540 C.3   1 <1>   0.0200 
  9 N       -2.1950     4.0360     0.2150 N.2   1 <1>  -0.4100 
 10 N       -4.0970     2.6280     0.0950 N.pl3 1 <1>  -0.8210 
 11 O       -0.9050     3.8430     0.2870 O.3   1 <1>  -0.0190 
 12 C        0.7980     2.1680     0.3800 C.ar  1 <1>   0.0530 
 13 C       -3.0430    -3.5390    -1.2920 C.2   1 <1>   0.0060 
 14 C       -4.7450     2.3650     1.4140 C.3   1 <1>   0.2090 
 15 C       -4.8720     3.6670    -0.6510 C.3   1 <1>   0.2090 
 16 C        1.7990     2.9190    -0.2350 C.ar  1 <1>  -0.1500 
 17 C        1.1850     1.0130     1.0610 C.ar  1 <1>  -0.1500 
 18 N       -2.7980    -4.5690    -2.0170 N.2   1 <1>  -0.5650 
 19 N       -3.6930    -3.8760    -0.1670 N.pl3 1 <1>   0.3140 
 20 C       -6.2350     2.0250     1.2330 C.3   1 <1>   0.1200 
 21 C       -6.3580     3.2770    -0.7480 C.3   1 <1>   0.1200 
 22 C        3.1240     2.5300    -0.1870 C.ar  1 <1>  -0.1500 
 23 C        2.5090     0.6180     1.1120 C.ar  1 <1>  -0.1500 
 24 C       -3.3330    -5.5480    -1.2780 C.2   1 <1>   0.3660 
 25 N       -3.8760    -5.1860    -0.1630 N.2   1 <1>  -0.7070 
 26 C       -4.1510    -3.0210     0.9400 C.3   1 <1>   0.0160 
 27 O       -6.8980     3.0350     0.5230 O.3   1 <1>  -0.5600 
 28 C        3.4820     1.3750     0.4860 C.ar  1 <1>  -0.1500 
 29 H       -0.6440     0.2160    -1.4020 H     1 <1>   0.3700 
 30 H       -1.3710    -2.1840     0.0830 H     1 <1>   0.0800 
 31 H       -0.4950    -2.1220    -1.4210 H     1 <1>   0.0800 
 32 H       -2.4600    -2.0630    -2.7130 H     1 <1>   0.0800 
 33 H       -3.4390    -1.4570    -1.4050 H     1 <1>   0.0800 
 34 H       -4.6530     3.2350     2.0420 H     1 <1>   0.0800 
 35 H       -4.2530     1.5470     1.9080 H     1 <1>   0.0800 
 36 H       -4.4630     3.7730    -1.6410 H     1 <1>   0.0800 
 37 H       -4.7890     4.6170    -0.1510 H     1 <1>   0.0800 
 38 H        1.5330     3.8210    -0.7600 H     1 <1>   0.1500 
 39 H        0.4450     0.4170     1.5650 H     1 <1>   0.1500 
 40 H       -6.7130     1.9290     2.1910 H     1 <1>   0.0800 
 41 H       -6.3420     1.0990     0.6960 H     1 <1>   0.0800 
 42 H       -6.4730     2.3890    -1.3450 H     1 <1>   0.0800 
 43 H       -6.9220     4.0740    -1.1980 H     1 <1>   0.0800 
 44 H        3.8800     3.1250    -0.6710 H     1 <1>   0.1500 
 45 H        2.7850    -0.2780     1.6410 H     1 <1>   0.1500 
 46 H       -3.2990    -6.5720    -1.6130 H     1 <1>   0.1500 
 47 H       -4.6360    -2.1480     0.5460 H     1 <1>   0.0800 
 48 H       -3.3060    -2.7280     1.5340 H     1 <1>   0.0800 
 49 H       -4.8430    -3.5720     1.5490 H     1 <1>   0.0800 
 50 H        4.5140     1.0700     0.5250 H     1 <1>   0.1500 
@<TRIPOS>BOND
  1   1   2  2   
  2   2   3  am  
  3   2   4  1   
  4   3   5  1   
  5   3  29  1   
  6   4   6  1   
  7   4   7  2   
  8   5   8  1   
  9   5  30  1   
 10   5  31  1   
 11   6   9  2   
 12   6  10  1   
 13   7  11  1   
 14   7  12  1   
 15   8  13  1   
 16   8  32  1   
 17   8  33  1   
 18   9  11  1   
 19  10  14  1   
 20  10  15  1   
 21  12  16  ar  
 22  12  17  ar  
 23  13  18  2   
 24  13  19  1   
 25  14  20  1   
 26  14  34  1   
 27  14  35  1   
 28  15  21  1   
 29  15  36  1   
 30  15  37  1   
 31  16  22  ar  
 32  16  38  1   
 33  17  23  ar  
 34  17  39  1   
 35  18  24  1   
 36  19  25  1   
 37  19  26  1   
 38  20  27  1   
 39  20  40  1   
 40  20  41  1   
 41  21  27  1   
 42  21  42  1   
 43  21  43  1   
 44  22  28  ar  
 45  22  44  1   
 46  23  28  ar  
 47  23  45  1   
 48  24  25  2   
 49  24  46  1   
 50  26  47  1   
 51  26  48  1   
 52  26  49  1   
 53  28  50  1   
@<TRIPOS>SUBSTRUCTURE
  1 ****   2 GROUP 4 **** **** 0

# MOE 2024.06 (io_trps.svl 2023.06)
