@<TRIPOS>MOLECULE
NONAME
42 43 1 0 0 
SMALL
USER_CHARGES


@<TRIPOS>ATOM
  1 S        1.0260    -1.1120     2.0310 S.o2  1 <1>   1.4470 
  2 O        2.2250    -1.8040     1.6150 O.2   1 <1>  -0.6500 
  3 O        0.8410    -0.7470     3.4140 O.2   1 <1>  -0.6500 
  4 N       -0.2670    -2.1260     1.6950 N.am  1 <1>  -0.9140 
  5 C        0.6980     0.3100     0.9520 C.ar  1 <1>  -0.0090 
  6 C       -0.0480    -3.0580     0.5960 C.3   1 <1>   0.2760 
  7 C        1.5790     0.6580    -0.0700 C.ar  1 <1>  -0.1500 
  8 C       -0.4570     1.0720     1.1190 C.ar  1 <1>  -0.1500 
  9 C       -1.3870    -3.5970     0.1110 C.3   1 <1>  -0.0800 
 10 C        0.5850    -4.3450     1.1210 C.3   1 <1>   0.1200 
 11 C        1.3200     1.7330    -0.9070 C.ar  1 <1>  -0.1500 
 12 C       -0.7350     2.1490     0.2930 C.ar  1 <1>  -0.1500 
 13 C       -1.6580    -4.7730     1.0600 C.3   1 <1>   0.1200 
 14 C       -2.5260    -2.5580     0.0530 C.3   1 <1>  -0.0550 
 15 O       -0.4630    -5.0180     1.7430 O.3   1 <1>  -0.5600 
 16 C        0.1630     2.4590    -0.7080 C.ar  1 <1>   0.1900 
 17 S       -4.0090    -3.1910    -0.7250 S.o2  1 <1>   1.3330 
 18 F       -0.0900     3.4700    -1.4930 F     1 <1>  -0.1900 
 19 O       -4.5950    -4.2030     0.1250 O.2   1 <1>  -0.6500 
 20 O       -3.6720    -3.5120    -2.0930 O.2   1 <1>  -0.6500 
 21 N       -5.0420    -1.8450    -0.7280 N.am  1 <1>  -0.8490 
 22 C       -6.0030    -1.8860    -1.8350 C.3   1 <1>   0.1160 
 23 C       -5.7540    -1.6550     0.5410 C.3   1 <1>   0.1160 
 24 H       -0.3550    -2.7100     2.5310 H     1 <1>   0.4200 
 25 H        0.5180    -2.6050    -0.2020 H     1 <1>   0.0800 
 26 H        2.4800     0.0840    -0.2140 H     1 <1>   0.1500 
 27 H       -1.1450     0.8160     1.9090 H     1 <1>   0.1500 
 28 H       -1.2440    -4.0020    -0.8760 H     1 <1>   0.0800 
 29 H        1.3810    -4.1810     1.8270 H     1 <1>   0.0800 
 30 H        0.9400    -4.9580     0.3100 H     1 <1>   0.0800 
 31 H        1.9980     2.0050    -1.6960 H     1 <1>   0.1500 
 32 H       -1.6250     2.7390     0.4210 H     1 <1>   0.1500 
 33 H       -1.9420    -5.6630     0.5230 H     1 <1>   0.0800 
 34 H       -2.4110    -4.5400     1.7940 H     1 <1>   0.0800 
 35 H       -2.1870    -1.7070    -0.5040 H     1 <1>   0.0800 
 36 H       -2.7620    -2.2260     1.0450 H     1 <1>   0.0800 
 37 H       -6.6310    -1.0120    -1.8190 H     1 <1>   0.0800 
 38 H       -6.6190    -2.7680    -1.7650 H     1 <1>   0.0800 
 39 H       -5.4800    -1.9060    -2.7770 H     1 <1>   0.0800 
 40 H       -6.3240    -0.7420     0.5110 H     1 <1>   0.0800 
 41 H       -5.0530    -1.5900     1.3550 H     1 <1>   0.0800 
 42 H       -6.4230    -2.4800     0.7250 H     1 <1>   0.0800 
@<TRIPOS>BOND
  1   1   2  2   
  2   1   3  2   
  3   1   4  am  
  4   1   5  1   
  5   4   6  1   
  6   4  24  1   
  7   5   7  ar  
  8   5   8  ar  
  9   6   9  1   
 10   6  10  1   
 11   6  25  1   
 12   7  11  ar  
 13   7  26  1   
 14   8  12  ar  
 15   8  27  1   
 16   9  13  1   
 17   9  14  1   
 18   9  28  1   
 19  10  15  1   
 20  10  29  1   
 21  10  30  1   
 22  11  16  ar  
 23  11  31  1   
 24  12  16  ar  
 25  12  32  1   
 26  13  15  1   
 27  13  33  1   
 28  13  34  1   
 29  14  17  1   
 30  14  35  1   
 31  14  36  1   
 32  16  18  1   
 33  17  19  2   
 34  17  20  2   
 35  17  21  am  
 36  21  22  1   
 37  21  23  1   
 38  22  37  1   
 39  22  38  1   
 40  22  39  1   
 41  23  40  1   
 42  23  41  1   
 43  23  42  1   
@<TRIPOS>SUBSTRUCTURE
  1 ****  14 GROUP 4 **** **** 0

# MOE 2024.06 (io_trps.svl 2023.06)
