@<TRIPOS>MOLECULE
NONAME
51 54 1 0 0 
SMALL
USER_CHARGES


@<TRIPOS>ATOM
  1 O       -2.7630    -0.3360    -2.6740 O.2   1 <1>  -0.5700 
  2 C       -2.7300    -0.8410    -1.5760 C.2   1 <1>   0.5690 
  3 N       -2.4070    -0.1270    -0.4600 N.am  1 <1>  -0.6600 
  4 C       -3.0580    -2.3120    -1.4710 C.3   1 <1>  -0.0190 
  5 C       -2.4430    -0.7380     0.9000 C.3   1 <1>   0.2200 
  6 C       -2.0560     1.3200    -0.5210 C.3   1 <1>   0.0600 
  7 C       -1.8490    -3.1090    -0.9490 C.3   1 <1>   0.1200 
  8 C       -4.4140    -2.5310    -0.7730 C.3   1 <1>   0.1400 
  9 C       -1.3860    -1.8610     1.0490 C.3   1 <1>   0.1200 
 10 C       -3.8880    -1.1170     1.3000 C.3   1 <1>   0.1400 
 11 O       -1.7100    -3.0820     0.4380 O.3   1 <1>  -0.5600 
 12 N       -4.4030    -2.4030     0.7210 N.am  1 <1>  -0.6600 
 13 C       -4.7900    -3.4350     1.5560 C.2   1 <1>   0.5440 
 14 O       -4.9590    -3.2140     2.7400 O.2   1 <1>  -0.5700 
 15 C       -5.0150    -4.7750     1.0550 C.ar  1 <1>   0.0860 
 16 C       -6.3030    -5.2500     0.8250 C.ar  1 <1>  -0.1500 
 17 C       -3.9480    -5.6250     0.7750 C.ar  1 <1>  -0.1500 
 18 C       -6.5450    -6.5190     0.3140 C.ar  1 <1>   0.0000 
 19 C       -4.1610    -6.8930     0.2690 C.ar  1 <1>  -0.1500 
 20 C       -7.8930    -6.9830     0.0750 C.ar  1 <1>   0.0000 
 21 C       -5.4510    -7.3330     0.0380 C.ar  1 <1>  -0.1500 
 22 C       -8.7500    -6.2940    -0.7780 C.ar  1 <1>  -0.1500 
 23 C       -8.3750    -8.1330     0.6910 C.ar  1 <1>  -0.1500 
 24 C      -10.0390    -6.7390    -1.0090 C.ar  1 <1>  -0.1500 
 25 C       -9.6630    -8.5820     0.4620 C.ar  1 <1>  -0.1500 
 26 C      -10.5040    -7.8870    -0.3900 C.ar  1 <1>  -0.1440 
 27 C      -11.9180    -8.3790    -0.6440 C.3   1 <1>  -0.0970 
 28 H       -3.2000    -2.6390    -2.4850 H     1 <1>   0.0800 
 29 H       -2.1450     0.0330     1.5890 H     1 <1>   0.0800 
 30 H       -1.0800     1.4770    -0.0980 H     1 <1>   0.0800 
 31 H       -2.7810     1.8950     0.0300 H     1 <1>   0.0800 
 32 H       -2.0470     1.6700    -1.5390 H     1 <1>   0.0800 
 33 H       -0.9350    -2.7490    -1.3910 H     1 <1>   0.0800 
 34 H       -1.9680    -4.1430    -1.2210 H     1 <1>   0.0800 
 35 H       -4.7740    -3.5040    -1.0530 H     1 <1>   0.0800 
 36 H       -5.1210    -1.8190    -1.1640 H     1 <1>   0.0800 
 37 H       -1.2680    -2.0770     2.0960 H     1 <1>   0.0800 
 38 H       -0.4360    -1.5310     0.6680 H     1 <1>   0.0800 
 39 H       -4.5520    -0.3190     1.0190 H     1 <1>   0.0800 
 40 H       -3.9100    -1.1750     2.3730 H     1 <1>   0.0800 
 41 H       -7.1360    -4.6100     1.0570 H     1 <1>   0.1500 
 42 H       -2.9460    -5.2790     0.9630 H     1 <1>   0.1500 
 43 H       -3.3250    -7.5360     0.0570 H     1 <1>   0.1500 
 44 H       -5.6170    -8.3190    -0.3610 H     1 <1>   0.1500 
 45 H       -8.3990    -5.4040    -1.2680 H     1 <1>   0.1500 
 46 H       -7.7320    -8.6780     1.3590 H     1 <1>   0.1500 
 47 H      -10.6790    -6.1890    -1.6760 H     1 <1>   0.1500 
 48 H      -10.0080    -9.4760     0.9510 H     1 <1>   0.1500 
 49 H      -12.5720    -7.5510    -0.8540 H     1 <1>   0.0800 
 50 H      -12.2960    -8.8990     0.2180 H     1 <1>   0.0800 
 51 H      -11.9230    -9.0490    -1.4850 H     1 <1>   0.0800 
@<TRIPOS>BOND
  1   1   2  2   
  2   2   3  am  
  3   2   4  1   
  4   3   5  1   
  5   3   6  1   
  6   4   7  1   
  7   4   8  1   
  8   4  28  1   
  9   5   9  1   
 10   5  10  1   
 11   5  29  1   
 12   6  30  1   
 13   6  31  1   
 14   6  32  1   
 15   7  11  1   
 16   7  33  1   
 17   7  34  1   
 18   8  12  1   
 19   8  35  1   
 20   8  36  1   
 21   9  11  1   
 22   9  37  1   
 23   9  38  1   
 24  10  12  1   
 25  10  39  1   
 26  10  40  1   
 27  12  13  am  
 28  13  14  2   
 29  13  15  1   
 30  15  16  ar  
 31  15  17  ar  
 32  16  18  ar  
 33  16  41  1   
 34  17  19  ar  
 35  17  42  1   
 36  18  20  1   
 37  18  21  ar  
 38  19  21  ar  
 39  19  43  1   
 40  20  22  ar  
 41  20  23  ar  
 42  21  44  1   
 43  22  24  ar  
 44  22  45  1   
 45  23  25  ar  
 46  23  46  1   
 47  24  26  ar  
 48  24  47  1   
 49  25  26  ar  
 50  25  48  1   
 51  26  27  1   
 52  27  49  1   
 53  27  50  1   
 54  27  51  1   
@<TRIPOS>SUBSTRUCTURE
  1 ****  15 GROUP 4 **** **** 0

# MOE 2024.06 (io_trps.svl 2023.06)
