@<TRIPOS>MOLECULE
NONAME
44 46 1 0 0 
SMALL
USER_CHARGES


@<TRIPOS>ATOM
  1 F        0.5470     0.0750     0.5000 F     1 <1>  -0.1900 
  2 C        1.5990     0.8430     0.4660 C.ar  1 <1>   0.1900 
  3 C        2.8420     0.2880     0.6930 C.ar  1 <1>  -0.1500 
  4 C        1.4400     2.1880     0.2040 C.ar  1 <1>  -0.1500 
  5 C        3.9520     1.1130     0.6550 C.ar  1 <1>  -0.1500 
  6 C        2.5610     2.9990     0.1690 C.ar  1 <1>  -0.1500 
  7 C        3.8490     2.4860     0.3940 C.ar  1 <1>   0.0860 
  8 C        5.0460     3.3080     0.3650 C.2   1 <1>   0.4230 
  9 O        6.1480     2.8560     0.5520 O.2   1 <1>  -0.5700 
 10 C        4.9340     4.8050     0.0880 C.3   1 <1>  -0.0990 
 11 C        6.2870     5.5480     0.1000 C.3   1 <1>  -0.0990 
 12 C        6.1730     7.0360    -0.1810 C.2   1 <1>   0.5690 
 13 O        5.0820     7.5250    -0.3520 O.2   1 <1>  -0.5700 
 14 N        7.3410     7.7460    -0.2250 N.am  1 <1>  -0.4940 
 15 C        7.5420     9.1300    -0.4710 C.2   1 <1>  -0.0880 
 16 N        8.7470     9.7690    -0.4730 N.pl3 1 <1>   0.3140 
 17 C        6.6150    10.0760    -0.7510 C.2   1 <1>  -0.1500 
 18 N        8.6010    11.0900    -0.7520 N.2   1 <1>  -0.7070 
 19 C       10.0840     9.1540    -0.2220 C.3   1 <1>   0.1760 
 20 C        7.3260    11.2560    -0.9130 C.2   1 <1>   0.1390 
 21 C       10.8950     9.8670     0.8600 C.3   1 <1>  -0.1600 
 22 C       10.9980     9.1880    -1.4480 C.3   1 <1>  -0.1600 
 23 C       12.3400     9.4380     0.6000 C.3   1 <1>  -0.1600 
 24 C       12.4240     9.0920    -0.8930 C.3   1 <1>  -0.1600 
 25 H        2.9340    -0.7650     0.8950 H     1 <1>   0.1500 
 26 H        0.4560     2.5870     0.0320 H     1 <1>   0.1500 
 27 H        4.9260     0.6870     0.8310 H     1 <1>   0.1500 
 28 H        2.4170     4.0440    -0.0360 H     1 <1>   0.1500 
 29 H        4.2940     5.2440     0.8320 H     1 <1>   0.0800 
 30 H        4.4760     4.9420    -0.8760 H     1 <1>   0.0800 
 31 H        6.9320     5.1100    -0.6400 H     1 <1>   0.0800 
 32 H        6.7470     5.4190     1.0640 H     1 <1>   0.0800 
 33 H        8.1780     7.1900    -0.0610 H     1 <1>   0.3700 
 34 H        5.5500     9.9630    -0.8370 H     1 <1>   0.1500 
 35 H        9.9500     8.1320     0.0770 H     1 <1>   0.0800 
 36 H        6.8780    12.2070    -1.1470 H     1 <1>   0.1500 
 37 H       10.5680     9.6010     1.8500 H     1 <1>   0.0800 
 38 H       10.8190    10.9340     0.7300 H     1 <1>   0.0800 
 39 H       10.8850    10.1320    -1.9550 H     1 <1>   0.0800 
 40 H       10.7800     8.3870    -2.1320 H     1 <1>   0.0800 
 41 H       12.5710     8.5640     1.1850 H     1 <1>   0.0800 
 42 H       13.0300    10.2230     0.8630 H     1 <1>   0.0800 
 43 H       13.0730     9.7780    -1.4110 H     1 <1>   0.0800 
 44 H       12.8090     8.0940    -1.0150 H     1 <1>   0.0800 
@<TRIPOS>BOND
  1   1   2  1   
  2   2   3  ar  
  3   2   4  ar  
  4   3   5  ar  
  5   3  25  1   
  6   4   6  ar  
  7   4  26  1   
  8   5   7  ar  
  9   5  27  1   
 10   6   7  ar  
 11   6  28  1   
 12   7   8  1   
 13   8   9  2   
 14   8  10  1   
 15  10  11  1   
 16  10  29  1   
 17  10  30  1   
 18  11  12  1   
 19  11  31  1   
 20  11  32  1   
 21  12  13  2   
 22  12  14  am  
 23  14  15  1   
 24  14  33  1   
 25  15  16  1   
 26  15  17  2   
 27  16  18  1   
 28  16  19  1   
 29  17  20  1   
 30  17  34  1   
 31  18  20  2   
 32  19  21  1   
 33  19  22  1   
 34  19  35  1   
 35  20  36  1   
 36  21  23  1   
 37  21  37  1   
 38  21  38  1   
 39  22  24  1   
 40  22  39  1   
 41  22  40  1   
 42  23  24  1   
 43  23  41  1   
 44  23  42  1   
 45  24  43  1   
 46  24  44  1   
@<TRIPOS>SUBSTRUCTURE
  1 ****  11 GROUP 4 **** **** 0

# MOE 2024.06 (io_trps.svl 2023.06)
