@<TRIPOS>MOLECULE
NONAME
52 54 1 0 0 
SMALL
USER_CHARGES


@<TRIPOS>ATOM
  1 O        0.2640     0.5470    -1.5550 O.3   1 <1>  -0.5600 
  2 C        1.4480    -0.2100    -1.6450 C.3   1 <1>   0.2000 
  3 C        0.4280     1.9330    -1.5970 C.3   1 <1>   0.1200 
  4 C        2.4650     0.2060    -0.5450 C.3   1 <1>   0.5660 
  5 C        1.0880    -1.6980    -1.5060 C.3   1 <1>   0.1200 
  6 C        1.3000     2.3930    -0.4170 C.3   1 <1>   0.3430 
  7 N        2.6250     1.6900    -0.4070 N.4   1 <1>  -0.9590 
  8 C        3.8440    -0.3800    -0.8150 C.ar  1 <1>  -0.1440 
  9 O        0.8010    -2.0010    -0.1770 O.3   1 <1>  -0.6800 
 10 C        3.4330     2.0300     0.7940 C.3   1 <1>   0.4870 
 11 C        4.3820    -1.2750     0.0990 C.ar  1 <1>  -0.1500 
 12 C        4.5820    -0.0380    -1.9440 C.ar  1 <1>  -0.1500 
 13 C        3.8560     3.4820     0.6790 C.ar  1 <1>  -0.1440 
 14 C        5.6400    -1.8160    -0.0940 C.ar  1 <1>   0.0820 
 15 C        5.8460    -0.5680    -2.1370 C.ar  1 <1>  -0.1500 
 16 C        4.9070     3.8360    -0.1540 C.ar  1 <1>  -0.1500 
 17 C        3.2020     4.4700     1.4000 C.ar  1 <1>  -0.1500 
 18 O        6.0780    -2.6980     0.8350 O.3   1 <1>  -0.3620 
 19 C        6.3920    -1.4400    -1.2120 C.ar  1 <1>   0.0820 
 20 C        5.2870     5.1610    -0.2730 C.ar  1 <1>  -0.1500 
 21 C        3.5870     5.7940     1.2760 C.ar  1 <1>  -0.1500 
 22 C        6.2930    -4.0250     0.4010 C.3   1 <1>   0.0400 
 23 O        7.6470    -1.8910    -1.4500 O.3   1 <1>  -0.3630 
 24 C        4.6320     6.1610     0.4360 C.ar  1 <1>   0.0730 
 25 C        8.6470    -1.5280    -0.5220 C.3   1 <1>   0.0400 
 26 C        5.0240     7.5360     0.3060 C.1   1 <1>   0.4840 
 27 N        5.3280     8.6290     0.1950 N.1   1 <1>  -0.5570 
 28 H        1.8600    -0.0450    -2.6240 H     1 <1>   0.0800 
 29 H        0.8640     2.2070    -2.5420 H     1 <1>   0.0800 
 30 H       -0.5500     2.3770    -1.5290 H     1 <1>   0.0800 
 31 H        2.1020    -0.1900     0.3890 H     1 <1>   0.0800 
 32 H        1.9120    -2.3190    -1.8140 H     1 <1>   0.0800 
 33 H        0.2260    -1.9290    -2.1100 H     1 <1>   0.0800 
 34 H        0.7680     2.1850     0.4970 H     1 <1>   0.0800 
 35 H        1.4500     3.4590    -0.4800 H     1 <1>   0.0800 
 36 H        3.1680     2.0030    -1.2150 H     1 <1>   0.4500 
 37 H        0.3450    -2.8680    -0.1110 H     1 <1>   0.4000 
 38 H        2.8590     1.8740     1.6930 H     1 <1>   0.0800 
 39 H        4.3160     1.4110     0.8420 H     1 <1>   0.0800 
 40 H        3.8300    -1.5780     0.9740 H     1 <1>   0.1500 
 41 H        4.1950     0.6360    -2.6890 H     1 <1>   0.1500 
 42 H        6.4250    -0.3090    -3.0070 H     1 <1>   0.1500 
 43 H        5.4470     3.0880    -0.7130 H     1 <1>   0.1500 
 44 H        2.3920     4.2250     2.0680 H     1 <1>   0.1500 
 45 H        6.1060     5.4250    -0.9230 H     1 <1>   0.1500 
 46 H        3.0720     6.5540     1.8410 H     1 <1>   0.1500 
 47 H        6.5330    -4.6250     1.2590 H     1 <1>   0.0800 
 48 H        7.1100    -4.0460    -0.2980 H     1 <1>   0.0800 
 49 H        5.3950    -4.3900    -0.0640 H     1 <1>   0.0800 
 50 H        9.5940    -1.8730    -0.8970 H     1 <1>   0.0800 
 51 H        8.4420    -1.9900     0.4270 H     1 <1>   0.0800 
 52 H        8.6590    -0.4570    -0.4230 H     1 <1>   0.0800 
@<TRIPOS>BOND
  1   1   2  1   
  2   1   3  1   
  3   2   4  1   
  4   2   5  1   
  5   2  28  1   
  6   3   6  1   
  7   3  29  1   
  8   3  30  1   
  9   4   7  1   
 10   4   8  1   
 11   4  31  1   
 12   5   9  1   
 13   5  32  1   
 14   5  33  1   
 15   6   7  1   
 16   6  34  1   
 17   6  35  1   
 18   7  10  1   
 19   7  36  1   
 20   8  11  ar  
 21   8  12  ar  
 22   9  37  1   
 23  10  13  1   
 24  10  38  1   
 25  10  39  1   
 26  11  14  ar  
 27  11  40  1   
 28  12  15  ar  
 29  12  41  1   
 30  13  16  ar  
 31  13  17  ar  
 32  14  18  1   
 33  14  19  ar  
 34  15  19  ar  
 35  15  42  1   
 36  16  20  ar  
 37  16  43  1   
 38  17  21  ar  
 39  17  44  1   
 40  18  22  1   
 41  19  23  1   
 42  20  24  ar  
 43  20  45  1   
 44  21  24  ar  
 45  21  46  1   
 46  22  47  1   
 47  22  48  1   
 48  22  49  1   
 49  23  25  1   
 50  24  26  1   
 51  25  50  1   
 52  25  51  1   
 53  25  52  1   
 54  26  27  3   
@<TRIPOS>SUBSTRUCTURE
  1 ****   7 GROUP 4 **** **** 0

# MOE 2024.06 (io_trps.svl 2023.06)
