@<TRIPOS>MOLECULE
NONAME
51 54 1 0 0 
SMALL
USER_CHARGES


@<TRIPOS>ATOM
  1 O       -0.0250    -0.1600     1.1150 O.2   1 <1>  -0.5700 
  2 C       -0.2700    -1.1670     0.4900 C.2   1 <1>   0.5690 
  3 N        0.7180    -1.8970    -0.1370 N.am  1 <1>  -0.6600 
  4 C       -1.7430    -1.5930     0.4120 C.3   1 <1>   0.2010 
  5 C        2.1580    -1.5510     0.0860 C.3   1 <1>   0.2200 
  6 C        0.3970    -3.1470    -0.9050 C.3   1 <1>   0.1400 
  7 N       -1.9590    -2.9600    -0.1800 N.am  1 <1>  -0.6600 
  8 C        2.9680    -1.5220    -1.2150 C.3   1 <1>  -0.1600 
  9 C        2.8410    -2.5850     0.9930 C.3   1 <1>  -0.1600 
 10 C       -1.0720    -3.2070    -1.3470 C.3   1 <1>   0.1400 
 11 C       -2.6770    -3.9230     0.4910 C.2   1 <1>   0.5690 
 12 C        3.7820    -2.8150    -1.2410 C.3   1 <1>  -0.1600 
 13 C        4.0580    -3.1170     0.2280 C.3   1 <1>  -0.1600 
 14 O       -3.2710    -3.6460     1.5090 O.2   1 <1>  -0.5700 
 15 C       -2.7430    -5.3710    -0.0340 C.3   1 <1>   0.2610 
 16 O       -1.4520    -5.9680    -0.0020 O.3   1 <1>  -0.5600 
 17 C       -3.7870    -6.2270     0.7380 C.3   1 <1>   0.3640 
 18 C       -1.3780    -7.2650    -0.5530 C.3   1 <1>   0.1810 
 19 N       -3.5680    -7.6810     0.5450 N.am  1 <1>  -0.7300 
 20 C       -5.2040    -5.8910     0.2880 C.ar  1 <1>  -0.1440 
 21 C       -2.4550    -8.2050    -0.0110 C.2   1 <1>   0.5690 
 22 C       -5.7050    -6.3640    -0.9190 C.ar  1 <1>   0.1600 
 23 C       -6.0190    -5.0950     1.0700 C.ar  1 <1>  -0.1500 
 24 O       -2.3180    -9.3970    -0.1060 O.2   1 <1>  -0.5700 
 25 N       -6.9100    -6.1050    -1.3970 N.ar  1 <1>  -0.6200 
 26 C       -7.2820    -4.8210     0.5910 C.ar  1 <1>  -0.1500 
 27 C       -7.6720    -5.3420    -0.6300 C.ar  1 <1>   0.1600 
 28 H       -2.2670    -0.8700    -0.1850 H     1 <1>   0.0800 
 29 H       -2.1470    -1.5450     1.4070 H     1 <1>   0.0800 
 30 H        2.2310    -0.5790     0.5470 H     1 <1>   0.0800 
 31 H        1.0060    -3.2060    -1.7860 H     1 <1>   0.0800 
 32 H        0.6110    -4.0060    -0.2920 H     1 <1>   0.0800 
 33 H        2.3560    -1.3870    -2.0890 H     1 <1>   0.0800 
 34 H        3.6540    -0.6950    -1.1570 H     1 <1>   0.0800 
 35 H        3.1550    -2.1210     1.9110 H     1 <1>   0.0800 
 36 H        2.1740    -3.3920     1.2350 H     1 <1>   0.0800 
 37 H       -1.2700    -4.1600    -1.8010 H     1 <1>   0.0800 
 38 H       -1.2480    -2.4500    -2.0930 H     1 <1>   0.0800 
 39 H        3.2020    -3.6140    -1.6680 H     1 <1>   0.0800 
 40 H        4.6930    -2.7060    -1.8060 H     1 <1>   0.0800 
 41 H        4.9360    -2.5760     0.5400 H     1 <1>   0.0800 
 42 H        4.2160    -4.1670     0.4010 H     1 <1>   0.0800 
 43 H       -3.0460    -5.3230    -1.0640 H     1 <1>   0.0800 
 44 H       -3.6930    -6.0250     1.7920 H     1 <1>   0.0800 
 45 H       -1.4740    -7.1890    -1.6210 H     1 <1>   0.0800 
 46 H       -0.4080    -7.6650    -0.3190 H     1 <1>   0.0800 
 47 H       -4.2700    -8.3190     0.9270 H     1 <1>   0.3700 
 48 H       -5.0810    -6.9930    -1.5320 H     1 <1>   0.1500 
 49 H       -5.6870    -4.6930     2.0140 H     1 <1>   0.1500 
 50 H       -7.9590    -4.2070     1.1570 H     1 <1>   0.1500 
 51 H       -8.6600    -5.1190    -0.9950 H     1 <1>   0.1500 
@<TRIPOS>BOND
  1   1   2  2   
  2   2   3  am  
  3   2   4  1   
  4   3   5  1   
  5   3   6  1   
  6   4   7  1   
  7   4  28  1   
  8   4  29  1   
  9   5   8  1   
 10   5   9  1   
 11   5  30  1   
 12   6  10  1   
 13   6  31  1   
 14   6  32  1   
 15   7  10  1   
 16   7  11  am  
 17   8  12  1   
 18   8  33  1   
 19   8  34  1   
 20   9  13  1   
 21   9  35  1   
 22   9  36  1   
 23  10  37  1   
 24  10  38  1   
 25  11  14  2   
 26  11  15  1   
 27  12  13  1   
 28  12  39  1   
 29  12  40  1   
 30  13  41  1   
 31  13  42  1   
 32  15  16  1   
 33  15  17  1   
 34  15  43  1   
 35  16  18  1   
 36  17  19  1   
 37  17  20  1   
 38  17  44  1   
 39  18  21  1   
 40  18  45  1   
 41  18  46  1   
 42  19  21  am  
 43  19  47  1   
 44  20  22  ar  
 45  20  23  ar  
 46  21  24  2   
 47  22  25  ar  
 48  22  48  1   
 49  23  26  ar  
 50  23  49  1   
 51  25  27  ar  
 52  26  27  ar  
 53  26  50  1   
 54  27  51  1   
@<TRIPOS>SUBSTRUCTURE
  1 ****  11 GROUP 4 **** **** 0

# MOE 2024.06 (io_trps.svl 2023.06)
