@<TRIPOS>MOLECULE
NONAME
51 53 1 0 0 
SMALL
USER_CHARGES


@<TRIPOS>ATOM
  1 O       -0.5590     0.1270    -0.6060 O.2   1 <1>  -0.5700 
  2 C       -1.2570     1.0770    -0.2980 C.2   1 <1>   0.6160 
  3 N       -2.5910     0.8560     0.0000 N.am  1 <1>  -0.6600 
  4 C       -0.6770     2.3870    -0.3340 C.2   1 <1>   0.0290 
  5 C       -3.1370    -0.5350     0.0940 C.3   1 <1>   0.1400 
  6 C       -3.5820     1.9620     0.1600 C.3   1 <1>   0.1400 
  7 C       -0.4140     3.0540     0.9020 C.2   1 <1>   0.6160 
  8 C       -0.3510     3.0180    -1.5110 C.2   1 <1>  -0.1500 
  9 C       -3.8630    -0.8040     1.4200 C.3   1 <1>   0.1400 
 10 C       -3.9670     2.1250     1.6340 C.3   1 <1>  -0.1600 
 11 O       -0.6560     2.5940     2.0080 O.2   1 <1>  -0.5700 
 12 N        0.1380     4.3080     0.8620 N.am  1 <1>  -0.5390 
 13 C        0.2170     4.3090    -1.5000 C.2   1 <1>  -0.1500 
 14 N       -5.1810    -0.0970     1.4730 N.am  1 <1>  -0.6600 
 15 C       -5.1650     1.2710     2.0720 C.3   1 <1>   0.1400 
 16 C        0.4540     4.9370    -0.3150 C.2   1 <1>  -0.0410 
 17 C       -6.3680    -0.6540     1.0610 C.2   1 <1>   0.5690 
 18 O       -7.4160    -0.0620     1.1670 O.2   1 <1>  -0.5700 
 19 C       -6.3920    -2.0530     0.4580 C.3   1 <1>  -0.0990 
 20 C       -7.7410    -2.4250    -0.1690 C.3   1 <1>   0.0210 
 21 C       -7.7850    -3.7870    -0.8590 C.2   1 <1>  -0.1810 
 22 C       -6.9230    -4.8150    -1.0100 C.2   1 <1>  -0.0400 
 23 C       -8.9170    -4.2310    -1.5470 C.2   1 <1>   0.1080 
 24 O       -7.5220    -5.7360    -1.7160 O.3   1 <1>  -0.0190 
 25 C       -5.5030    -5.1250    -0.5700 C.3   1 <1>  -0.0600 
 26 N       -8.7290    -5.3960    -2.0480 N.2   1 <1>  -0.4100 
 27 C      -10.2160    -3.4670    -1.7030 C.3   1 <1>  -0.0590 
 28 H       -2.3370    -1.2490     0.0120 H     1 <1>   0.0800 
 29 H       -3.8040    -0.7070    -0.7320 H     1 <1>   0.0800 
 30 H       -4.4560     1.7570    -0.4350 H     1 <1>   0.0800 
 31 H       -3.1620     2.8850    -0.1970 H     1 <1>   0.0800 
 32 H       -0.5200     2.5320    -2.4570 H     1 <1>   0.1500 
 33 H       -3.2400    -0.4950     2.2410 H     1 <1>   0.0800 
 34 H       -4.0150    -1.8620     1.5250 H     1 <1>   0.0800 
 35 H       -4.2290     3.1540     1.8060 H     1 <1>   0.0800 
 36 H       -3.1220     1.9160     2.2640 H     1 <1>   0.0800 
 37 H        0.3150     4.7240     1.7780 H     1 <1>   0.3700 
 38 H        0.4590     4.7780    -2.4390 H     1 <1>   0.1500 
 39 H       -6.0640     1.7930     1.7900 H     1 <1>   0.0800 
 40 H       -5.1690     1.1840     3.1450 H     1 <1>   0.0800 
 41 H        0.8900     5.9220    -0.2630 H     1 <1>   0.1500 
 42 H       -6.1700    -2.7540     1.2400 H     1 <1>   0.0800 
 43 H       -5.6410    -2.1110    -0.3050 H     1 <1>   0.0800 
 44 H       -7.9970    -1.6710    -0.8950 H     1 <1>   0.0800 
 45 H       -8.4980    -2.4060     0.5970 H     1 <1>   0.0800 
 46 H       -5.0810    -4.3480     0.0300 H     1 <1>   0.0800 
 47 H       -4.8850    -5.2650    -1.4380 H     1 <1>   0.0800 
 48 H       -5.5010    -6.0360     0.0010 H     1 <1>   0.0800 
 49 H      -10.6280    -3.2430    -0.7370 H     1 <1>   0.0800 
 50 H      -10.9260    -4.0600    -2.2530 H     1 <1>   0.0800 
 51 H      -10.0410    -2.5530    -2.2380 H     1 <1>   0.0800 
@<TRIPOS>BOND
  1   1   2  2   
  2   2   3  am  
  3   2   4  1   
  4   3   5  1   
  5   3   6  1   
  6   4   7  1   
  7   4   8  2   
  8   5   9  1   
  9   5  28  1   
 10   5  29  1   
 11   6  10  1   
 12   6  30  1   
 13   6  31  1   
 14   7  11  2   
 15   7  12  am  
 16   8  13  1   
 17   8  32  1   
 18   9  14  1   
 19   9  33  1   
 20   9  34  1   
 21  10  15  1   
 22  10  35  1   
 23  10  36  1   
 24  12  16  1   
 25  12  37  1   
 26  13  16  2   
 27  13  38  1   
 28  14  15  1   
 29  14  17  am  
 30  15  39  1   
 31  15  40  1   
 32  16  41  1   
 33  17  18  2   
 34  17  19  1   
 35  19  20  1   
 36  19  42  1   
 37  19  43  1   
 38  20  21  1   
 39  20  44  1   
 40  20  45  1   
 41  21  22  2   
 42  21  23  1   
 43  22  24  1   
 44  22  25  1   
 45  23  26  2   
 46  23  27  1   
 47  24  26  1   
 48  25  46  1   
 49  25  47  1   
 50  25  48  1   
 51  27  49  1   
 52  27  50  1   
 53  27  51  1   
@<TRIPOS>SUBSTRUCTURE
  1 ****   5 GROUP 4 **** **** 0

# MOE 2024.06 (io_trps.svl 2023.06)
