@<TRIPOS>MOLECULE
NONAME
53 56 1 0 0 
SMALL
USER_CHARGES


@<TRIPOS>ATOM
  1 O       -0.4670     0.2720     0.1520 O.2   1 <1>  -0.5700 
  2 C       -1.5460     0.8040     0.0410 C.2   1 <1>   0.5690 
  3 N       -2.6810     0.0780    -0.1780 N.am  1 <1>  -0.6600 
  4 C       -1.6430     2.3190     0.1500 C.3   1 <1>  -0.0990 
  5 C       -4.0630     0.6060    -0.2900 C.3   1 <1>   0.1400 
  6 C       -2.6760    -1.4010    -0.2890 C.3   1 <1>   0.1400 
  7 C       -0.2840     3.0020     0.3490 C.3   1 <1>   0.0210 
  8 C       -4.9480    -0.6260    -0.4940 C.3   1 <1>   0.2000 
  9 C       -4.1220    -1.8200    -0.0180 C.3   1 <1>  -0.0800 
 10 C       -0.3290     4.5250     0.4540 C.2   1 <1>  -0.1810 
 11 O       -6.1180    -0.5350     0.2440 O.3   1 <1>  -0.6800 
 12 C       -4.5290    -3.1340    -0.7060 C.3   1 <1>  -0.0170 
 13 C       -1.2990     5.4630     0.4200 C.2   1 <1>  -0.0400 
 14 C        0.8300     5.2880     0.6310 C.2   1 <1>   0.1080 
 15 C       -3.6790    -4.2970    -0.2250 C.ar  1 <1>   0.1670 
 16 O       -0.7300     6.6300     0.5640 O.3   1 <1>  -0.0190 
 17 C       -2.8090     5.4680     0.2630 C.3   1 <1>  -0.0600 
 18 N        0.5570     6.5390     0.6930 N.2   1 <1>  -0.4100 
 19 C        2.2400     4.7450     0.7400 C.3   1 <1>  -0.0590 
 20 N       -2.5720    -4.5300    -0.8600 N.ar  1 <1>  -0.6200 
 21 C       -4.1190    -5.0510     0.8750 C.ar  1 <1>  -0.1500 
 22 C       -1.7990    -5.5590    -0.4270 C.ar  1 <1>   0.3100 
 23 C       -3.3640    -6.0890     1.3290 C.ar  1 <1>  -0.1500 
 24 C       -2.1560    -6.3710     0.6710 C.ar  1 <1>   0.0000 
 25 C       -0.5920    -5.8280    -1.0920 C.ar  1 <1>  -0.1500 
 26 C       -1.2950    -7.4180     1.0570 C.ar  1 <1>  -0.1500 
 27 C        0.2320    -6.8500    -0.7010 C.ar  1 <1>  -0.1500 
 28 C       -0.1250    -7.6540     0.3860 C.ar  1 <1>  -0.1500 
 29 H       -2.0870     2.6900    -0.7540 H     1 <1>   0.0800 
 30 H       -2.2750     2.5530     0.9850 H     1 <1>   0.0800 
 31 H       -4.3250     1.1200     0.6180 H     1 <1>   0.0800 
 32 H       -4.1430     1.2690    -1.1330 H     1 <1>   0.0800 
 33 H       -2.3740    -1.6780    -1.2850 H     1 <1>   0.0800 
 34 H       -1.9960    -1.8440     0.4200 H     1 <1>   0.0800 
 35 H        0.3550     2.7380    -0.4760 H     1 <1>   0.0800 
 36 H        0.1670     2.6130     1.2450 H     1 <1>   0.0800 
 37 H       -5.2090    -0.7170    -1.5350 H     1 <1>   0.0800 
 38 H       -4.2240    -1.9290     1.0470 H     1 <1>   0.0800 
 39 H       -5.9190    -0.5330     1.2000 H     1 <1>   0.4000 
 40 H       -4.4190    -3.0390    -1.7720 H     1 <1>   0.0800 
 41 H       -5.5660    -3.3390    -0.5060 H     1 <1>   0.0800 
 42 H       -3.2120     4.4840     0.1520 H     1 <1>   0.0800 
 43 H       -3.0730     6.0460    -0.6040 H     1 <1>   0.0800 
 44 H       -3.2540     5.9260     1.1270 H     1 <1>   0.0800 
 45 H        2.3140     4.0840     1.5830 H     1 <1>   0.0800 
 46 H        2.9350     5.5550     0.8730 H     1 <1>   0.0800 
 47 H        2.4970     4.2120    -0.1560 H     1 <1>   0.0800 
 48 H       -5.0490    -4.7970     1.3490 H     1 <1>   0.1500 
 49 H       -3.6670    -6.6890     2.1690 H     1 <1>   0.1500 
 50 H       -0.3350    -5.1980    -1.9240 H     1 <1>   0.1500 
 51 H       -1.5750    -8.0320     1.8950 H     1 <1>   0.1500 
 52 H        1.1540    -7.0440    -1.2200 H     1 <1>   0.1500 
 53 H        0.5310    -8.4530     0.6840 H     1 <1>   0.1500 
@<TRIPOS>BOND
  1   1   2  2   
  2   2   3  am  
  3   2   4  1   
  4   3   5  1   
  5   3   6  1   
  6   4   7  1   
  7   4  29  1   
  8   4  30  1   
  9   5   8  1   
 10   5  31  1   
 11   5  32  1   
 12   6   9  1   
 13   6  33  1   
 14   6  34  1   
 15   7  10  1   
 16   7  35  1   
 17   7  36  1   
 18   8   9  1   
 19   8  11  1   
 20   8  37  1   
 21   9  12  1   
 22   9  38  1   
 23  10  13  2   
 24  10  14  1   
 25  11  39  1   
 26  12  15  1   
 27  12  40  1   
 28  12  41  1   
 29  13  16  1   
 30  13  17  1   
 31  14  18  2   
 32  14  19  1   
 33  15  20  ar  
 34  15  21  ar  
 35  16  18  1   
 36  17  42  1   
 37  17  43  1   
 38  17  44  1   
 39  19  45  1   
 40  19  46  1   
 41  19  47  1   
 42  20  22  ar  
 43  21  23  ar  
 44  21  48  1   
 45  22  24  ar  
 46  22  25  ar  
 47  23  24  ar  
 48  23  49  1   
 49  24  26  ar  
 50  25  27  ar  
 51  25  50  1   
 52  26  28  ar  
 53  26  51  1   
 54  27  28  ar  
 55  27  52  1   
 56  28  53  1   
@<TRIPOS>SUBSTRUCTURE
  1 ****   6 GROUP 4 **** **** 0

# MOE 2024.06 (io_trps.svl 2023.06)
