@<TRIPOS>MOLECULE
NONAME
48 51 1 0 0 
SMALL
USER_CHARGES


@<TRIPOS>ATOM
  1 O       -1.4990    -2.5690    -0.0670 O.co2 1 <1>  -0.9000 
  2 C       -0.4630    -3.2500    -0.0610 C.2   1 <1>   1.0330 
  3 O       -0.4940    -4.3100    -0.7120 O.co2 1 <1>  -0.9000 
  4 C        0.5800    -2.9860     0.8630 C.2   1 <1>  -0.2330 
  5 C        0.7070    -3.6430     2.0840 C.2   1 <1>   0.3720 
  6 C        1.6280    -2.1260     0.8440 C.2   1 <1>   0.0870 
  7 N        1.7390    -3.2320     2.7270 N.2   1 <1>  -0.4100 
  8 N       -0.1590    -4.6170     2.5990 N.pl3 1 <1>  -0.8210 
  9 O        2.2860    -2.3180     1.9640 O.3   1 <1>  -0.0190 
 10 C        2.0770    -1.1420    -0.1120 C.ar  1 <1>   0.0530 
 11 C       -0.1040    -5.9420     1.8940 C.3   1 <1>   0.2090 
 12 C       -1.5160    -4.1030     2.9830 C.3   1 <1>   0.2090 
 13 C        3.4090    -0.7280    -0.1440 C.ar  1 <1>  -0.1500 
 14 C        1.2060    -0.5610    -1.0360 C.ar  1 <1>  -0.1500 
 15 C       -1.4790    -6.4940     1.4520 C.3   1 <1>   0.3430 
 16 C       -2.6550    -4.3550     1.9590 C.3   1 <1>   0.3430 
 17 C        3.8550     0.2130    -1.0530 C.ar  1 <1>  -0.1500 
 18 C        1.6450     0.3790    -1.9500 C.ar  1 <1>  -0.1500 
 19 N       -2.3690    -5.4130     0.9330 N.4   1 <1>  -0.9590 
 20 C        2.9720     0.7700    -1.9610 C.ar  1 <1>  -0.1500 
 21 C       -3.5760    -5.8040     0.1640 C.3   1 <1>   0.3430 
 22 C       -3.2370    -6.6350    -1.0800 C.3   1 <1>   0.0000 
 23 C       -4.4870    -6.9930    -1.9260 C.3   1 <1>   0.0000 
 24 C       -3.0520    -8.1610    -0.8560 C.3   1 <1>   0.0000 
 25 C       -3.8270    -8.3710    -2.1820 C.3   1 <1>   0.0000 
 26 H        0.3680    -6.6560     2.5440 H     1 <1>   0.0800 
 27 H        0.5220    -5.8550     1.0220 H     1 <1>   0.0800 
 28 H       -1.4560    -3.0430     3.1670 H     1 <1>   0.0800 
 29 H       -1.7900    -4.5600     3.9160 H     1 <1>   0.0800 
 30 H        4.1060    -1.1560     0.5550 H     1 <1>   0.1500 
 31 H        0.1670    -0.8430    -1.0400 H     1 <1>   0.1500 
 32 H       -1.9500    -6.9800     2.2890 H     1 <1>   0.0800 
 33 H       -1.3080    -7.2300     0.6870 H     1 <1>   0.0800 
 34 H       -2.8620    -3.4270     1.4500 H     1 <1>   0.0800 
 35 H       -3.5440    -4.6140     2.5070 H     1 <1>   0.0800 
 36 H        4.8880     0.5130    -1.0560 H     1 <1>   0.1500 
 37 H        0.9500     0.8070    -2.6510 H     1 <1>   0.1500 
 38 H       -1.7620    -4.9150     0.2240 H     1 <1>   0.4500 
 39 H        3.3140     1.5020    -2.6720 H     1 <1>   0.1500 
 40 H       -4.0730    -4.9050    -0.1670 H     1 <1>   0.0800 
 41 H       -4.2560    -6.3520     0.7940 H     1 <1>   0.0800 
 42 H       -2.4660    -6.2000    -1.6930 H     1 <1>   0.0000 
 43 H       -4.6000    -6.3930    -2.8120 H     1 <1>   0.0000 
 44 H       -5.3880    -7.0720    -1.3410 H     1 <1>   0.0000 
 45 H       -3.5900    -8.5320     0.0000 H     1 <1>   0.0000 
 46 H       -2.0300    -8.4900    -0.9000 H     1 <1>   0.0000 
 47 H       -3.1820    -8.3700    -3.0440 H     1 <1>   0.0000 
 48 H       -4.5160    -9.1970    -2.1580 H     1 <1>   0.0000 
@<TRIPOS>BOND
  1   1   2  ar  
  2   2   3  ar  
  3   2   4  1   
  4   4   5  1   
  5   4   6  2   
  6   5   7  2   
  7   5   8  1   
  8   6   9  1   
  9   6  10  1   
 10   7   9  1   
 11   8  11  1   
 12   8  12  1   
 13  10  13  ar  
 14  10  14  ar  
 15  11  15  1   
 16  11  26  1   
 17  11  27  1   
 18  12  16  1   
 19  12  28  1   
 20  12  29  1   
 21  13  17  ar  
 22  13  30  1   
 23  14  18  ar  
 24  14  31  1   
 25  15  19  1   
 26  15  32  1   
 27  15  33  1   
 28  16  19  1   
 29  16  34  1   
 30  16  35  1   
 31  17  20  ar  
 32  17  36  1   
 33  18  20  ar  
 34  18  37  1   
 35  19  21  1   
 36  19  38  1   
 37  20  39  1   
 38  21  22  1   
 39  21  40  1   
 40  21  41  1   
 41  22  23  1   
 42  22  24  1   
 43  22  42  1   
 44  23  25  1   
 45  23  43  1   
 46  23  44  1   
 47  24  25  1   
 48  24  45  1   
 49  24  46  1   
 50  25  47  1   
 51  25  48  1   
@<TRIPOS>SUBSTRUCTURE
  1 ****   2 GROUP 4 **** **** 0

# MOE 2024.06 (io_trps.svl 2023.06)
