@<TRIPOS>MOLECULE
NONAME
39 40 1 0 0 
SMALL
USER_CHARGES


@<TRIPOS>ATOM
  1 F        0.8010     0.6220     0.0280 F     1 <1>  -0.3400 
  2 C        1.6220    -0.3650    -0.3160 C.3   1 <1>   1.0200 
  3 F        2.8280     0.0040     0.0980 F     1 <1>  -0.3400 
  4 F        1.6700    -0.3690    -1.6430 F     1 <1>  -0.3400 
  5 C        1.2120    -1.7380     0.2920 C.3   1 <1>   0.1100 
  6 N       -0.0270    -2.4220    -0.2080 N.3   1 <1>  -0.8100 
  7 C       -0.1190    -3.7980     0.3360 C.3   1 <1>   0.1100 
  8 C       -1.2660    -1.6670     0.1120 C.3   1 <1>   0.1100 
  9 C       -1.3720    -4.5450    -0.1600 C.3   1 <1>   0.2090 
 10 C       -2.5410    -2.3880    -0.3680 C.3   1 <1>   0.2090 
 11 N       -2.6070    -3.7800     0.1700 N.pl3 1 <1>  -0.8380 
 12 C       -3.8180    -4.4560     0.1140 C.ar  1 <1>   0.4100 
 13 N       -4.7120    -4.1020    -0.8200 N.ar  1 <1>  -0.3100 
 14 C       -4.0750    -5.4740     1.0120 C.ar  1 <1>  -0.1500 
 15 N       -5.8630    -4.7250    -0.9100 N.ar  1 <1>  -0.3100 
 16 C       -5.2790    -6.1270     0.9200 C.ar  1 <1>  -0.1500 
 17 C       -6.1500    -5.7140    -0.0680 C.ar  1 <1>   0.1670 
 18 C       -7.5130    -6.3870    -0.2430 C.3   1 <1>   0.0630 
 19 C       -8.3900    -6.2100     1.0040 C.3   1 <1>  -0.2400 
 20 C       -7.3650    -7.8740    -0.5920 C.3   1 <1>  -0.2400 
 21 H        1.1350    -1.6080     1.3560 H     1 <1>   0.0800 
 22 H        2.0430    -2.3950     0.1100 H     1 <1>   0.0800 
 23 H       -0.1440    -3.7650     1.4110 H     1 <1>   0.0800 
 24 H        0.7510    -4.3560     0.0370 H     1 <1>   0.0800 
 25 H       -1.2380    -0.7040    -0.3650 H     1 <1>   0.0800 
 26 H       -1.3400    -1.5150     1.1750 H     1 <1>   0.0800 
 27 H       -1.4100    -5.5190     0.2930 H     1 <1>   0.0800 
 28 H       -1.3080    -4.6740    -1.2270 H     1 <1>   0.0800 
 29 H       -2.5480    -2.4190    -1.4440 H     1 <1>   0.0800 
 30 H       -3.4070    -1.8370    -0.0440 H     1 <1>   0.0800 
 31 H       -3.3490    -5.7290     1.7590 H     1 <1>   0.1500 
 32 H       -5.5290    -6.9250     1.5930 H     1 <1>   0.1500 
 33 H       -8.0170    -5.9070    -1.0660 H     1 <1>   0.0800 
 34 H       -7.9610    -6.7100     1.8530 H     1 <1>   0.0800 
 35 H       -9.3720    -6.6120     0.8280 H     1 <1>   0.0800 
 36 H       -8.4880    -5.1630     1.2340 H     1 <1>   0.0800 
 37 H       -6.9090    -8.4170     0.2150 H     1 <1>   0.0800 
 38 H       -6.7510    -7.9810    -1.4700 H     1 <1>   0.0800 
 39 H       -8.3290    -8.3050    -0.7970 H     1 <1>   0.0800 
@<TRIPOS>BOND
  1   1   2  1   
  2   2   3  1   
  3   2   4  1   
  4   2   5  1   
  5   5   6  1   
  6   5  21  1   
  7   5  22  1   
  8   6   7  1   
  9   6   8  1   
 10   7   9  1   
 11   7  23  1   
 12   7  24  1   
 13   8  10  1   
 14   8  25  1   
 15   8  26  1   
 16   9  11  1   
 17   9  27  1   
 18   9  28  1   
 19  10  11  1   
 20  10  29  1   
 21  10  30  1   
 22  11  12  1   
 23  12  13  ar  
 24  12  14  ar  
 25  13  15  ar  
 26  14  16  ar  
 27  14  31  1   
 28  15  17  ar  
 29  16  17  ar  
 30  16  32  1   
 31  17  18  1   
 32  18  19  1   
 33  18  20  1   
 34  18  33  1   
 35  19  34  1   
 36  19  35  1   
 37  19  36  1   
 38  20  37  1   
 39  20  38  1   
 40  20  39  1   
@<TRIPOS>SUBSTRUCTURE
  1 ****  11 GROUP 4 **** **** 0

# MOE 2024.06 (io_trps.svl 2023.06)
