@<TRIPOS>MOLECULE
NONAME
45 46 1 0 0 
SMALL
USER_CHARGES


@<TRIPOS>ATOM
  1 CL      -2.1980    -1.3170     2.9280 Cl    1 <1>  -0.1770 
  2 C       -2.6860     0.0350     1.9340 C.ar  1 <1>   0.1770 
  3 C       -2.0190     1.2420     2.0050 C.ar  1 <1>   0.1770 
  4 C       -3.7520    -0.1210     1.0700 C.ar  1 <1>  -0.1500 
  5 CL      -0.6710     1.4640     3.0950 Cl    1 <1>  -0.1770 
  6 C       -2.4140     2.2940     1.2040 C.ar  1 <1>  -0.1500 
  7 C       -4.1860     0.9280     0.2600 C.ar  1 <1>  -0.0090 
  8 C       -3.4850     2.1410     0.3320 C.ar  1 <1>  -0.1440 
  9 S       -5.5960     0.6770    -0.8740 S.o2  1 <1>   1.4470 
 10 C       -3.8630     3.3300    -0.5440 C.3   1 <1>  -0.0960 
 11 O       -5.0630     0.2810    -2.1590 O.2   1 <1>  -0.6500 
 12 O       -6.4990     1.8070    -0.8130 O.2   1 <1>  -0.6500 
 13 N       -6.4160    -0.6580    -0.2290 N.am  1 <1>  -0.8490 
 14 C       -7.1570    -1.4150    -1.2690 C.3   1 <1>   0.1960 
 15 C       -7.2130    -0.3630     0.9850 C.3   1 <1>   0.1960 
 16 C       -8.2200    -2.3210    -0.6360 C.3   1 <1>   0.2000 
 17 C       -8.6990    -0.1960     0.6550 C.3   1 <1>  -0.1600 
 18 O       -8.7710    -3.1810    -1.5720 O.3   1 <1>  -0.6800 
 19 C       -9.3280    -1.5080     0.0860 C.3   1 <1>  -0.1060 
 20 C       -9.8010    -2.4720     1.1820 C.2   1 <1>   0.9060 
 21 C      -10.5120    -1.1120    -0.8520 C.3   1 <1>  -0.1600 
 22 O       -9.5850    -2.2130     2.3730 O.co2 1 <1>  -0.9000 
 23 O      -10.3250    -3.5390     0.8280 O.co2 1 <1>  -0.9000 
 24 C      -11.6240    -0.3050    -0.1570 C.3   1 <1>  -0.1600 
 25 C      -12.7750    -0.0120    -1.1230 C.3   1 <1>  -0.2400 
 26 H       -4.2430    -1.0790     1.0330 H     1 <1>   0.1500 
 27 H       -1.8770     3.2250     1.2690 H     1 <1>   0.1500 
 28 H       -3.1150     4.1010    -0.4970 H     1 <1>   0.0800 
 29 H       -4.7980     3.7500    -0.2160 H     1 <1>   0.0800 
 30 H       -3.9600     3.0290    -1.5730 H     1 <1>   0.0800 
 31 H       -7.6470    -0.7310    -1.9400 H     1 <1>   0.0800 
 32 H       -6.4620    -2.0130    -1.8320 H     1 <1>   0.0800 
 33 H       -7.1120    -1.1800     1.6810 H     1 <1>   0.0800 
 34 H       -6.8460     0.5240     1.4750 H     1 <1>   0.0800 
 35 H       -7.7130    -2.9500     0.0780 H     1 <1>   0.0800 
 36 H       -9.2260     0.1060     1.5430 H     1 <1>   0.0800 
 37 H       -8.7930     0.6090    -0.0520 H     1 <1>   0.0800 
 38 H       -9.4790    -3.6740    -1.0820 H     1 <1>   0.4000 
 39 H      -10.1330    -0.5500    -1.6880 H     1 <1>   0.0800 
 40 H      -10.9640    -2.0060    -1.2470 H     1 <1>   0.0800 
 41 H      -12.0010    -0.8670     0.6820 H     1 <1>   0.0800 
 42 H      -11.2370     0.6270     0.2160 H     1 <1>   0.0800 
 43 H      -13.2010    -0.9330    -1.4810 H     1 <1>   0.0800 
 44 H      -12.4230     0.5600    -1.9630 H     1 <1>   0.0800 
 45 H      -13.5420     0.5470    -0.6190 H     1 <1>   0.0800 
@<TRIPOS>BOND
  1   1   2  1   
  2   2   3  ar  
  3   2   4  ar  
  4   3   5  1   
  5   3   6  ar  
  6   4   7  ar  
  7   4  26  1   
  8   6   8  ar  
  9   6  27  1   
 10   7   8  ar  
 11   7   9  1   
 12   8  10  1   
 13   9  11  2   
 14   9  12  2   
 15   9  13  am  
 16  10  28  1   
 17  10  29  1   
 18  10  30  1   
 19  13  14  1   
 20  13  15  1   
 21  14  16  1   
 22  14  31  1   
 23  14  32  1   
 24  15  17  1   
 25  15  33  1   
 26  15  34  1   
 27  16  18  1   
 28  16  19  1   
 29  16  35  1   
 30  17  19  1   
 31  17  36  1   
 32  17  37  1   
 33  18  38  1   
 34  19  20  1   
 35  19  21  1   
 36  20  22  ar  
 37  20  23  ar  
 38  21  24  1   
 39  21  39  1   
 40  21  40  1   
 41  24  25  1   
 42  24  41  1   
 43  24  42  1   
 44  25  43  1   
 45  25  44  1   
 46  25  45  1   
@<TRIPOS>SUBSTRUCTURE
  1 ****  13 GROUP 4 **** **** 0

# MOE 2024.06 (io_trps.svl 2023.06)
