@<TRIPOS>MOLECULE
NONAME
37 39 1 0 0 
SMALL
USER_CHARGES


@<TRIPOS>ATOM
  1 O       10.8500     2.4640    -1.3390 O.3   1 <1>  -0.5600 
  2 C        9.5980     2.3960    -1.9530 C.3   1 <1>   0.1200 
  3 C       11.0030     3.5680    -0.4970 C.3   1 <1>   0.1200 
  4 C        8.4890     2.3250    -0.8870 C.3   1 <1>   0.1100 
  5 C        9.9380     3.5400     0.6150 C.3   1 <1>   0.1100 
  6 N        8.5710     3.4730     0.0510 N.3   1 <1>  -0.8100 
  7 C        7.5490     3.3780     1.1290 C.3   1 <1>   0.2540 
  8 C        6.1400     3.7720     0.6490 C.cat 1 <1>   0.6560 
  9 N        5.9540     4.5090    -0.4320 N.pl3 1 <1>  -0.7000 
 10 N        4.9710     3.4530     1.2050 N.pl3 1 <1>  -0.7640 
 11 C        4.6040     4.6930    -0.6180 C.ar  1 <1>   0.3090 
 12 C        3.9750     4.0250     0.4180 C.ar  1 <1>   0.3090 
 13 C        4.6900     2.6500     2.4250 C.3   1 <1>   0.2740 
 14 C        3.8770     5.3720    -1.5890 C.ar  1 <1>  -0.1090 
 15 C        2.5830     4.0210     0.5040 C.ar  1 <1>  -0.1090 
 16 C        2.4980     5.3720    -1.5070 C.ar  1 <1>   0.1000 
 17 C        1.8600     4.6920    -0.4580 C.ar  1 <1>  -0.1500 
 18 N        1.7350     6.0260    -2.4570 N.pl3 1 <1>  -0.9000 
 19 H        9.5830     1.5140    -2.5690 H     1 <1>   0.0800 
 20 H        9.4730     3.2610    -2.5810 H     1 <1>   0.0800 
 21 H       10.9190     4.4660    -1.0840 H     1 <1>   0.0800 
 22 H       11.9900     3.5220    -0.0720 H     1 <1>   0.0800 
 23 H        8.5960     1.3970    -0.3510 H     1 <1>   0.0800 
 24 H        7.5340     2.3180    -1.3820 H     1 <1>   0.0800 
 25 H       10.0410     4.4290     1.2130 H     1 <1>   0.0800 
 26 H       10.1250     2.6870     1.2450 H     1 <1>   0.0800 
 27 H        7.8130     4.0530     1.9240 H     1 <1>   0.0800 
 28 H        7.5330     2.3800     1.5290 H     1 <1>   0.0800 
 29 H        6.7310     4.8460    -1.0090 H     1 <1>   0.4500 
 30 H        5.6030     2.3380     2.9000 H     1 <1>   0.0800 
 31 H        4.1190     1.7750     2.1620 H     1 <1>   0.0800 
 32 H        4.1220     3.2390     3.1260 H     1 <1>   0.0800 
 33 H        4.3830     5.8790    -2.3880 H     1 <1>   0.1500 
 34 H        2.0910     3.5010     1.3060 H     1 <1>   0.1500 
 35 H        0.7840     4.6990    -0.4190 H     1 <1>   0.1500 
 36 H        0.7590     6.2340    -2.2160 H     1 <1>   0.4000 
 37 H        2.1670     6.8010    -2.9720 H     1 <1>   0.4000 
@<TRIPOS>BOND
  1   1   2  1   
  2   1   3  1   
  3   2   4  1   
  4   2  19  1   
  5   2  20  1   
  6   3   5  1   
  7   3  21  1   
  8   3  22  1   
  9   4   6  1   
 10   4  23  1   
 11   4  24  1   
 12   5   6  1   
 13   5  25  1   
 14   5  26  1   
 15   6   7  1   
 16   7   8  1   
 17   7  27  1   
 18   7  28  1   
 19   8   9  ar  
 20   8  10  ar  
 21   9  11  1   
 22   9  29  1   
 23  10  12  1   
 24  10  13  1   
 25  11  12  ar  
 26  11  14  ar  
 27  12  15  ar  
 28  13  30  1   
 29  13  31  1   
 30  13  32  1   
 31  14  16  ar  
 32  14  33  1   
 33  15  17  ar  
 34  15  34  1   
 35  16  17  ar  
 36  16  18  1   
 37  17  35  1   
 38  18  36  1   
 39  18  37  1   
@<TRIPOS>SUBSTRUCTURE
  1 ****   9 GROUP 4 **** **** 0

# MOE 2024.06 (io_trps.svl 2023.06)
