@<TRIPOS>MOLECULE
NONAME
39 40 1 0 0 
SMALL
USER_CHARGES


@<TRIPOS>ATOM
  1 S       -0.4610     0.4800     2.0090 S.o2  1 <1>   1.4470 
  2 O       -1.0750     1.7270     2.4200 O.2   1 <1>  -0.6500 
  3 O       -0.2090    -0.5260     3.0190 O.2   1 <1>  -0.6500 
  4 N       -1.4880    -0.2160     0.8550 N.am  1 <1>  -0.8490 
  5 C        1.0590     0.8450     1.0850 C.ar  1 <1>  -0.0090 
  6 C       -0.9520    -1.4840     0.3050 C.3   1 <1>   0.1960 
  7 C       -2.8560    -0.3630     1.3440 C.3   1 <1>   0.1960 
  8 C        1.2370     2.0690     0.4520 C.ar  1 <1>  -0.1500 
  9 C        2.0720    -0.0960     0.9620 C.ar  1 <1>  -0.1500 
 10 C       -2.0250    -2.3930    -0.3150 C.3   1 <1>  -0.1860 
 11 C       -3.7970    -0.6430     0.1650 C.3   1 <1>  -0.1600 
 12 C        2.3830     2.3620    -0.2720 C.ar  1 <1>  -0.1440 
 13 C        3.2190     0.1790     0.2410 C.ar  1 <1>  -0.1500 
 14 C       -1.3900    -3.3250    -1.3270 C.2   1 <1>   0.9060 
 15 C       -3.1540    -1.5430    -0.8980 C.3   1 <1>   0.2000 
 16 C        3.3850     1.4070    -0.3790 C.ar  1 <1>  -0.1440 
 17 C        2.5090     3.7260    -0.9360 C.3   1 <1>  -0.0970 
 18 O       -0.1910    -3.5980    -1.2150 O.co2 1 <1>  -0.9000 
 19 O       -2.0940    -3.8110    -2.2220 O.co2 1 <1>  -0.9000 
 20 O       -4.1220    -2.3780    -1.4100 O.3   1 <1>  -0.6800 
 21 C        4.6610     1.6720    -1.1660 C.3   1 <1>  -0.0970 
 22 H       -0.2240    -1.2330    -0.4500 H     1 <1>   0.0800 
 23 H       -0.4430    -2.0520     1.0670 H     1 <1>   0.0800 
 24 H       -2.8970    -1.1700     2.0570 H     1 <1>   0.0800 
 25 H       -3.1800     0.5380     1.8390 H     1 <1>   0.0800 
 26 H        0.4530     2.8030     0.5340 H     1 <1>   0.1500 
 27 H        1.9620    -1.0590     1.4320 H     1 <1>   0.1500 
 28 H       -2.4260    -3.0160     0.4610 H     1 <1>   0.0800 
 29 H       -4.0660     0.2890    -0.2950 H     1 <1>   0.0800 
 30 H       -4.6920    -1.0970     0.5500 H     1 <1>   0.0800 
 31 H        3.9800    -0.5780     0.1630 H     1 <1>   0.1500 
 32 H       -2.7670    -0.9490    -1.7100 H     1 <1>   0.0800 
 33 H        1.6460     4.3360    -0.7330 H     1 <1>   0.0800 
 34 H        2.5970     3.6090    -2.0000 H     1 <1>   0.0800 
 35 H        3.3770     4.2380    -0.5640 H     1 <1>   0.0800 
 36 H       -3.6160    -3.0820    -1.9150 H     1 <1>   0.4000 
 37 H        5.3130     0.8180    -1.1420 H     1 <1>   0.0800 
 38 H        5.1860     2.5110    -0.7460 H     1 <1>   0.0800 
 39 H        4.4220     1.8830    -2.1920 H     1 <1>   0.0800 
@<TRIPOS>BOND
  1   1   2  2   
  2   1   3  2   
  3   1   4  am  
  4   1   5  1   
  5   4   6  1   
  6   4   7  1   
  7   5   8  ar  
  8   5   9  ar  
  9   6  10  1   
 10   6  22  1   
 11   6  23  1   
 12   7  11  1   
 13   7  24  1   
 14   7  25  1   
 15   8  12  ar  
 16   8  26  1   
 17   9  13  ar  
 18   9  27  1   
 19  10  14  1   
 20  10  15  1   
 21  10  28  1   
 22  11  15  1   
 23  11  29  1   
 24  11  30  1   
 25  12  16  ar  
 26  12  17  1   
 27  13  16  ar  
 28  13  31  1   
 29  14  18  ar  
 30  14  19  ar  
 31  15  20  1   
 32  15  32  1   
 33  16  21  1   
 34  17  33  1   
 35  17  34  1   
 36  17  35  1   
 37  20  36  1   
 38  21  37  1   
 39  21  38  1   
 40  21  39  1   
@<TRIPOS>SUBSTRUCTURE
  1 ****   6 GROUP 4 **** **** 0

# MOE 2024.06 (io_trps.svl 2023.06)
