@<TRIPOS>MOLECULE
NONAME
50 53 1 0 0 
SMALL
USER_CHARGES


@<TRIPOS>ATOM
  1 O       -0.6140    -0.0460     1.0210 O.2   1 <1>  -0.5700 
  2 C       -1.2080    -1.0810     0.9680 C.2   1 <1>   0.4480 
  3 C       -0.6030    -2.4010     0.4160 C.3   1 <1>  -0.0190 
  4 C       -2.6320    -1.1160     1.5080 C.3   1 <1>  -0.0990 
  5 C        0.7430    -2.2820    -0.3950 C.3   1 <1>   0.0000 
  6 C       -1.6360    -3.2610    -0.3790 C.3   1 <1>  -0.0800 
  7 C       -3.5560    -1.8210     0.5100 C.3   1 <1>   0.0610 
  8 C        1.0930    -3.6410    -1.1060 C.3   1 <1>  -0.0800 
  9 C        1.9050    -1.8300     0.5430 C.3   1 <1>  -0.1600 
 10 C        0.6250    -1.2150    -1.5140 C.3   1 <1>  -0.2400 
 11 C       -3.0080    -3.2390     0.3130 C.3   1 <1>  -0.0800 
 12 C       -1.1490    -4.7140    -0.5650 C.3   1 <1>  -0.1600 
 13 C       -4.9610    -2.1280     1.0010 C.2   1 <1>   0.4480 
 14 C       -3.6670    -0.9840    -0.7910 C.3   1 <1>  -0.2400 
 15 C        2.6160    -3.8880    -1.1950 C.3   1 <1>  -0.1600 
 16 C        0.3750    -4.8580    -0.4940 C.3   1 <1>  -0.1600 
 17 C        2.6530    -2.9930     1.2100 C.3   1 <1>  -0.1600 
 18 C       -4.1740    -4.0270    -0.2970 C.3   1 <1>  -0.1600 
 19 O       -5.6070    -1.4520     1.7440 O.2   1 <1>  -0.5700 
 20 C       -5.4080    -3.4640     0.4360 C.3   1 <1>  -0.0990 
 21 C        3.3300    -3.8930     0.1660 C.3   1 <1>   0.2000 
 22 O        3.3400    -5.1810     0.6530 O.3   1 <1>  -0.6800 
 23 H       -0.3750    -2.9610     1.3040 H     1 <1>   0.0800 
 24 H       -2.6370    -1.6270     2.4530 H     1 <1>   0.0800 
 25 H       -2.9790    -0.1120     1.6800 H     1 <1>   0.0800 
 26 H       -1.7480    -2.8380    -1.3610 H     1 <1>   0.0800 
 27 H        0.7400    -3.5920    -2.1230 H     1 <1>   0.0800 
 28 H        2.6290    -1.2670    -0.0220 H     1 <1>   0.0800 
 29 H        1.5500    -1.1670     1.3100 H     1 <1>   0.0800 
 30 H        1.5030    -1.2240    -2.1350 H     1 <1>   0.0800 
 31 H        0.5380    -0.2230    -1.1120 H     1 <1>   0.0800 
 32 H       -0.2240    -1.3960    -2.1450 H     1 <1>   0.0800 
 33 H       -2.8600    -3.6650     1.2940 H     1 <1>   0.0800 
 34 H       -1.5730    -5.3570     0.1870 H     1 <1>   0.0800 
 35 H       -1.4950    -5.0700    -1.5210 H     1 <1>   0.0800 
 36 H       -2.7060    -0.7590    -1.2170 H     1 <1>   0.0800 
 37 H       -4.1520    -0.0480    -0.5730 H     1 <1>   0.0800 
 38 H       -4.2550    -1.4900    -1.5350 H     1 <1>   0.0800 
 39 H        3.0390    -3.0880    -1.7750 H     1 <1>   0.0800 
 40 H        2.8300    -4.7970    -1.7300 H     1 <1>   0.0800 
 41 H        0.6660    -5.7580    -1.0090 H     1 <1>   0.0800 
 42 H        0.6550    -4.9710     0.5370 H     1 <1>   0.0800 
 43 H        1.9610    -3.5530     1.8120 H     1 <1>   0.0800 
 44 H        3.4100    -2.5990     1.8650 H     1 <1>   0.0800 
 45 H       -4.2460    -3.8320    -1.3530 H     1 <1>   0.0800 
 46 H       -4.0730    -5.0870    -0.1420 H     1 <1>   0.0800 
 47 H       -5.6970    -4.1050     1.2490 H     1 <1>   0.0800 
 48 H       -6.2400    -3.3340    -0.2320 H     1 <1>   0.0800 
 49 H        4.3570    -3.5960     0.0320 H     1 <1>   0.0800 
 50 H        2.4280    -5.5220     0.6720 H     1 <1>   0.4000 
@<TRIPOS>BOND
  1   1   2  2   
  2   2   3  1   
  3   2   4  1   
  4   3   5  1   
  5   3   6  1   
  6   3  23  1   
  7   4   7  1   
  8   4  24  1   
  9   4  25  1   
 10   5   8  1   
 11   5   9  1   
 12   5  10  1   
 13   6  11  1   
 14   6  12  1   
 15   6  26  1   
 16   7  11  1   
 17   7  13  1   
 18   7  14  1   
 19   8  15  1   
 20   8  16  1   
 21   8  27  1   
 22   9  17  1   
 23   9  28  1   
 24   9  29  1   
 25  10  30  1   
 26  10  31  1   
 27  10  32  1   
 28  11  18  1   
 29  11  33  1   
 30  12  16  1   
 31  12  34  1   
 32  12  35  1   
 33  13  19  2   
 34  13  20  1   
 35  14  36  1   
 36  14  37  1   
 37  14  38  1   
 38  15  21  1   
 39  15  39  1   
 40  15  40  1   
 41  16  41  1   
 42  16  42  1   
 43  17  21  1   
 44  17  43  1   
 45  17  44  1   
 46  18  20  1   
 47  18  45  1   
 48  18  46  1   
 49  20  47  1   
 50  20  48  1   
 51  21  22  1   
 52  21  49  1   
 53  22  50  1   
@<TRIPOS>SUBSTRUCTURE
  1 ****   3 GROUP 4 **** **** 0

# MOE 2024.06 (io_trps.svl 2023.06)
