@<TRIPOS>MOLECULE
NONAME
52 53 1 0 0 
SMALL
USER_CHARGES


@<TRIPOS>ATOM
  1 O        1.5080     1.0830     2.6220 O.co2 1 <1>  -0.9000 
  2 C        2.1170     0.4020     1.7840 C.2   1 <1>   0.9060 
  3 O        2.6030    -0.6910     2.1030 O.co2 1 <1>  -0.9000 
  4 C        2.2970     0.9430     0.3420 C.3   1 <1>  -0.1060 
  5 C        3.5060     0.1840    -0.2900 C.3   1 <1>   0.2000 
  6 C        2.6140     2.4790     0.4230 C.3   1 <1>  -0.1600 
  7 C        1.0110     0.6780    -0.5060 C.3   1 <1>  -0.1600 
  8 O        3.4970     0.2590    -1.6830 O.3   1 <1>  -0.6800 
  9 C        4.8220     0.8220     0.1880 C.3   1 <1>   0.1100 
 10 C        3.7240     2.9650    -0.5130 C.3   1 <1>   0.1100 
 11 C       -0.3220     1.1050     0.1350 C.3   1 <1>  -0.1600 
 12 N        4.9940     2.2370    -0.2730 N.3   1 <1>  -0.8100 
 13 C       -1.4890     0.9040    -0.8360 C.3   1 <1>  -0.2400 
 14 C        5.9580     2.3740    -1.4060 C.3   1 <1>   0.1710 
 15 C        6.5400     3.7830    -1.5600 C.2   1 <1>   0.5690 
 16 O        6.9610     4.1450    -2.6330 O.2   1 <1>  -0.5700 
 17 N        6.5680     4.5790    -0.4610 N.am  1 <1>  -0.7300 
 18 C        7.0600     5.9720    -0.3900 C.3   1 <1>   0.1400 
 19 C        8.3480     6.0260     0.4290 C.3   1 <1>  -0.0170 
 20 C        8.8330     7.4610     0.5540 C.ar  1 <1>  -0.1440 
 21 C        9.5860     8.0320    -0.4610 C.ar  1 <1>  -0.1500 
 22 C        8.5260     8.2140     1.6770 C.ar  1 <1>  -0.1500 
 23 C       10.0270     9.3390    -0.3560 C.ar  1 <1>  -0.1500 
 24 C        8.9660     9.5220     1.7840 C.ar  1 <1>  -0.1500 
 25 C        9.7170    10.0860     0.7680 C.ar  1 <1>  -0.1500 
 26 H        3.4790    -0.8630    -0.0420 H     1 <1>   0.0800 
 27 H        2.9320     2.7280     1.4210 H     1 <1>   0.0800 
 28 H        1.7280     3.0560     0.2430 H     1 <1>   0.0800 
 29 H        1.1090     1.1740    -1.4550 H     1 <1>   0.0800 
 30 H        0.9550    -0.3800    -0.7000 H     1 <1>   0.0800 
 31 H        3.6960     1.1880    -1.8950 H     1 <1>   0.4000 
 32 H        5.6490     0.2090    -0.1240 H     1 <1>   0.0800 
 33 H        4.8180     0.8130     1.2650 H     1 <1>   0.0800 
 34 H        3.8840     4.0180    -0.3530 H     1 <1>   0.0800 
 35 H        3.4020     2.8390    -1.5320 H     1 <1>   0.0800 
 36 H       -0.4990     0.5170     1.0200 H     1 <1>   0.0800 
 37 H       -0.2850     2.1360     0.4370 H     1 <1>   0.0800 
 38 H       -1.5590    -0.1310    -1.1220 H     1 <1>   0.0800 
 39 H       -1.3510     1.5030    -1.7180 H     1 <1>   0.0800 
 40 H       -2.4100     1.1930    -0.3620 H     1 <1>   0.0800 
 41 H        6.7890     1.7130    -1.2430 H     1 <1>   0.0800 
 42 H        5.4880     2.0870    -2.3290 H     1 <1>   0.0800 
 43 H        6.1280     4.1780     0.3770 H     1 <1>   0.3700 
 44 H        7.2480     6.3430    -1.3840 H     1 <1>   0.0800 
 45 H        6.3070     6.5920     0.0650 H     1 <1>   0.0800 
 46 H        8.1720     5.6160     1.4070 H     1 <1>   0.0800 
 47 H        9.1030     5.4340    -0.0570 H     1 <1>   0.0800 
 48 H        9.8310     7.4600    -1.3400 H     1 <1>   0.1500 
 49 H        7.9420     7.7870     2.4740 H     1 <1>   0.1500 
 50 H       10.6110     9.7750    -1.1470 H     1 <1>   0.1500 
 51 H        8.7250    10.1010     2.6580 H     1 <1>   0.1500 
 52 H       10.0600    11.1020     0.8510 H     1 <1>   0.1500 
@<TRIPOS>BOND
  1   1   2  ar  
  2   2   3  ar  
  3   2   4  1   
  4   4   5  1   
  5   4   6  1   
  6   4   7  1   
  7   5   8  1   
  8   5   9  1   
  9   5  26  1   
 10   6  10  1   
 11   6  27  1   
 12   6  28  1   
 13   7  11  1   
 14   7  29  1   
 15   7  30  1   
 16   8  31  1   
 17   9  12  1   
 18   9  32  1   
 19   9  33  1   
 20  10  12  1   
 21  10  34  1   
 22  10  35  1   
 23  11  13  1   
 24  11  36  1   
 25  11  37  1   
 26  12  14  1   
 27  13  38  1   
 28  13  39  1   
 29  13  40  1   
 30  14  15  1   
 31  14  41  1   
 32  14  42  1   
 33  15  16  2   
 34  15  17  am  
 35  17  18  1   
 36  17  43  1   
 37  18  19  1   
 38  18  44  1   
 39  18  45  1   
 40  19  20  1   
 41  19  46  1   
 42  19  47  1   
 43  20  21  ar  
 44  20  22  ar  
 45  21  23  ar  
 46  21  48  1   
 47  22  24  ar  
 48  22  49  1   
 49  23  25  ar  
 50  23  50  1   
 51  24  25  ar  
 52  24  51  1   
 53  25  52  1   
@<TRIPOS>SUBSTRUCTURE
  1 ****  12 GROUP 4 **** **** 0

# MOE 2024.06 (io_trps.svl 2023.06)
