@<TRIPOS>MOLECULE
NONAME
40 42 1 0 0 
SMALL
USER_CHARGES


@<TRIPOS>ATOM
  1 S        0.3170     0.4150     0.1840 S.3   1 <1>  -0.0800 
  2 C        1.1530    -0.8430    -0.6990 C.2   1 <1>   0.1980 
  3 C       -0.3630    -0.7990     1.2280 C.2   1 <1>  -0.1100 
  4 N        0.9380    -2.0210    -0.2640 N.2   1 <1>  -0.5650 
  5 C        2.0220    -0.4120    -1.8580 C.3   1 <1>  -0.0600 
  6 C        0.0830    -2.0030     0.8360 C.2   1 <1>   0.0460 
  7 C       -0.2630    -3.3460     1.4610 C.3   1 <1>   0.5240 
  8 N       -0.5690    -4.2970     0.3580 N.4   1 <1>  -0.9590 
  9 C       -1.9020    -3.9950    -0.2420 C.3   1 <1>   0.3430 
 10 C       -0.5920    -5.7110     0.8320 C.3   1 <1>   0.3430 
 11 C       -2.8500    -5.0460     0.3410 C.3   1 <1>   0.2000 
 12 C       -1.9660    -6.2870     0.4500 C.3   1 <1>  -0.0800 
 13 O       -3.2010    -4.6510     1.6290 O.3   1 <1>  -0.6800 
 14 C       -1.9320    -7.0750    -0.8760 C.3   1 <1>   0.0200 
 15 C       -1.0520    -8.3050    -0.7690 C.2   1 <1>  -0.0400 
 16 O        0.2470    -8.1770    -0.7360 O.3   1 <1>  -0.0190 
 17 C       -1.3380    -9.6140    -0.6970 C.2   1 <1>  -0.1500 
 18 N        0.8450    -9.3230    -0.6280 N.2   1 <1>  -0.4100 
 19 C       -0.0830   -10.2110    -0.6080 C.2   1 <1>   0.1080 
 20 C        0.1650   -11.7000    -0.5030 C.3   1 <1>  -0.0590 
 21 H       -1.0170    -0.4670     2.0150 H     1 <1>   0.1500 
 22 H        2.4790    -1.2720    -2.3140 H     1 <1>   0.0800 
 23 H        2.7940     0.2480    -1.5080 H     1 <1>   0.0800 
 24 H        1.4270     0.0990    -2.5920 H     1 <1>   0.0800 
 25 H       -1.1020    -3.2530     2.1310 H     1 <1>   0.0800 
 26 H        0.5930    -3.6950     2.0140 H     1 <1>   0.0800 
 27 H        0.1760    -4.1120    -0.3380 H     1 <1>   0.4500 
 28 H       -2.2370    -2.9950    -0.0200 H     1 <1>   0.0800 
 29 H       -1.8480    -4.1180    -1.3110 H     1 <1>   0.0800 
 30 H        0.2180    -6.2750     0.4020 H     1 <1>   0.0800 
 31 H       -0.4920    -5.7370     1.9050 H     1 <1>   0.0800 
 32 H       -3.7450    -5.1780    -0.2430 H     1 <1>   0.0800 
 33 H       -2.3180    -6.9500     1.2220 H     1 <1>   0.0800 
 34 H       -3.9410    -5.1930     1.9780 H     1 <1>   0.4000 
 35 H       -1.5720    -6.4650    -1.6860 H     1 <1>   0.0800 
 36 H       -2.9290    -7.3960    -1.1240 H     1 <1>   0.0800 
 37 H       -2.2840   -10.1220    -0.7020 H     1 <1>   0.1500 
 38 H       -0.2240   -12.1970    -1.3720 H     1 <1>   0.0800 
 39 H       -0.3160   -12.0910     0.3750 H     1 <1>   0.0800 
 40 H        1.2210   -11.8930    -0.4360 H     1 <1>   0.0800 
@<TRIPOS>BOND
  1   1   2  1   
  2   1   3  1   
  3   2   4  2   
  4   2   5  1   
  5   3   6  2   
  6   3  21  1   
  7   4   6  1   
  8   5  22  1   
  9   5  23  1   
 10   5  24  1   
 11   6   7  1   
 12   7   8  1   
 13   7  25  1   
 14   7  26  1   
 15   8   9  1   
 16   8  10  1   
 17   8  27  1   
 18   9  11  1   
 19   9  28  1   
 20   9  29  1   
 21  10  12  1   
 22  10  30  1   
 23  10  31  1   
 24  11  12  1   
 25  11  13  1   
 26  11  32  1   
 27  12  14  1   
 28  12  33  1   
 29  13  34  1   
 30  14  15  1   
 31  14  35  1   
 32  14  36  1   
 33  15  16  1   
 34  15  17  2   
 35  16  18  1   
 36  17  19  1   
 37  17  37  1   
 38  18  19  2   
 39  19  20  1   
 40  20  38  1   
 41  20  39  1   
 42  20  40  1   
@<TRIPOS>SUBSTRUCTURE
  1 ****   8 GROUP 4 **** **** 0

# MOE 2024.06 (io_trps.svl 2023.06)
