@<TRIPOS>MOLECULE
NONAME
27 26 1 0 0 
SMALL
USER_CHARGES


@<TRIPOS>ATOM
  1 S        0.2850     1.1700    -0.5030 S.3   1 <1>  -0.3710 
  2 C        0.3010    -0.6040    -0.0530 C.2   1 <1>   0.5910 
  3 C       -1.3000     1.5150    -1.3970 C.3   1 <1>  -0.0100 
  4 N        1.4280    -1.0980     0.3140 N.2   1 <1>  -0.5130 
  5 C       -0.9600    -1.3440    -0.1600 C.2   1 <1>   0.6300 
  6 O        2.4880    -0.2990     0.3490 O.3   1 <1>  -0.0870 
  7 O       -2.0150    -0.8180     0.1670 O.2   1 <1>  -0.5700 
  8 N       -1.0310    -2.6610    -0.6190 N.am  1 <1>  -0.6600 
  9 C        3.7570    -0.7550     0.4290 C.2   1 <1>   0.7800 
 10 C        0.1430    -3.4030    -1.1640 C.3   1 <1>   0.0600 
 11 C       -2.2820    -3.4710    -0.5380 C.3   1 <1>   0.0600 
 12 O        4.0060    -1.9470     0.4170 O.2   1 <1>  -0.5700 
 13 N        4.7330     0.1900     0.5150 N.am  1 <1>  -0.7300 
 14 C        6.1900    -0.0740     0.6160 C.3   1 <1>   0.0600 
 15 H       -1.1960     2.4640    -1.8910 H     1 <1>   0.0800 
 16 H       -2.0930     1.5510    -0.6710 H     1 <1>   0.0800 
 17 H       -1.4650     0.7280    -2.1120 H     1 <1>   0.0800 
 18 H        0.7950    -2.7390    -1.7040 H     1 <1>   0.0800 
 19 H       -0.1840    -4.1760    -1.8380 H     1 <1>   0.0800 
 20 H        0.6950    -3.8520    -0.3560 H     1 <1>   0.0800 
 21 H       -3.0460    -2.9570     0.0190 H     1 <1>   0.0800 
 22 H       -2.0780    -4.4070    -0.0470 H     1 <1>   0.0800 
 23 H       -2.6510    -3.6650    -1.5300 H     1 <1>   0.0800 
 24 H        4.4350     1.1660     0.5200 H     1 <1>   0.3700 
 25 H        6.3790    -1.1340     0.6050 H     1 <1>   0.0800 
 26 H        6.5710     0.3380     1.5340 H     1 <1>   0.0800 
 27 H        6.7000     0.3780    -0.2170 H     1 <1>   0.0800 
@<TRIPOS>BOND
  1   1   2  1   
  2   1   3  1   
  3   2   4  2   
  4   2   5  1   
  5   3  15  1   
  6   3  16  1   
  7   3  17  1   
  8   4   6  1   
  9   5   7  2   
 10   5   8  am  
 11   6   9  1   
 12   8  10  1   
 13   8  11  1   
 14   9  12  2   
 15   9  13  am  
 16  10  18  1   
 17  10  19  1   
 18  10  20  1   
 19  11  21  1   
 20  11  22  1   
 21  11  23  1   
 22  13  14  1   
 23  13  24  1   
 24  14  25  1   
 25  14  26  1   
 26  14  27  1   
@<TRIPOS>SUBSTRUCTURE
  1 ****   4 GROUP 4 **** **** 0

# MOE 2024.06 (io_trps.svl 2023.06)
