@<TRIPOS>MOLECULE
NONAME
47 48 1 0 0 
SMALL
USER_CHARGES


@<TRIPOS>ATOM
  1 CL      -0.2060     1.2550     1.0650 Cl    1 <1>  -0.1770 
  2 C       -1.9410     1.3410     0.9240 C.ar  1 <1>   0.1770 
  3 C       -2.6140     2.4320     1.4380 C.ar  1 <1>  -0.1500 
  4 C       -2.6260     0.3170     0.2980 C.ar  1 <1>  -0.1500 
  5 C       -3.9910     2.4930     1.3230 C.ar  1 <1>  -0.1500 
  6 C       -4.0030     0.3910     0.1870 C.ar  1 <1>  -0.1500 
  7 C       -4.7200     1.4770     0.6970 C.ar  1 <1>   0.0530 
  8 C       -6.1570     1.5710     0.5850 C.2   1 <1>   0.0870 
  9 O       -6.7380     2.7450     0.6150 O.3   1 <1>  -0.0190 
 10 C       -7.1480     0.6510     0.4310 C.2   1 <1>  -0.0860 
 11 N       -8.0380     2.6780     0.5000 N.2   1 <1>  -0.4100 
 12 C       -8.3090     1.4270     0.3990 C.2   1 <1>   0.3720 
 13 C       -7.1080    -0.7750     0.3430 C.2   1 <1>   0.7160 
 14 N       -9.6020     0.9180     0.2870 N.pl3 1 <1>  -0.8520 
 15 O       -6.4560    -1.4080     1.1510 O.2   1 <1>  -0.5700 
 16 N       -7.7820    -1.4650    -0.6510 N.am  1 <1>  -0.6600 
 17 C      -10.6450     1.7650    -0.3550 C.3   1 <1>   0.2090 
 18 C       -7.9000    -2.9600    -0.5990 C.3   1 <1>   0.1400 
 19 C       -8.1140    -0.8620    -1.9760 C.3   1 <1>   0.0600 
 20 C      -11.3460     2.6320     0.6890 C.3   1 <1>   0.1200 
 21 C       -8.7180    -3.4700     0.6060 C.3   1 <1>   0.2000 
 22 O      -12.4290     3.2690     0.0820 O.3   1 <1>  -0.5600 
 23 O       -8.9670    -4.8160     0.4220 O.3   1 <1>  -0.6800 
 24 C      -10.0780    -2.7940     0.7830 C.3   1 <1>  -0.2400 
 25 C      -13.1090     4.1400     0.9270 C.3   1 <1>   0.0400 
 26 H       -2.0630     3.2180     1.9220 H     1 <1>   0.1500 
 27 H       -2.0840    -0.5250    -0.0940 H     1 <1>   0.1500 
 28 H       -4.5110     3.3440     1.7280 H     1 <1>   0.1500 
 29 H       -4.5220    -0.4120    -0.3040 H     1 <1>   0.1500 
 30 H       -9.6070    -0.0470    -0.0610 H     1 <1>   0.4000 
 31 H      -11.3740     1.1280    -0.8260 H     1 <1>   0.0800 
 32 H      -10.1990     2.3980    -1.1040 H     1 <1>   0.0800 
 33 H       -6.9110    -3.3830    -0.5460 H     1 <1>   0.0800 
 34 H       -8.3650    -3.3080    -1.5040 H     1 <1>   0.0800 
 35 H       -7.8240     0.1740    -2.0200 H     1 <1>   0.0800 
 36 H       -9.1730    -0.9340    -2.1550 H     1 <1>   0.0800 
 37 H       -7.5920    -1.3890    -2.7560 H     1 <1>   0.0800 
 38 H      -10.6670     3.3780     1.0670 H     1 <1>   0.0800 
 39 H      -11.7150     2.0200     1.4930 H     1 <1>   0.0800 
 40 H       -8.1320    -3.3750     1.5050 H     1 <1>   0.0800 
 41 H       -9.7240    -4.9400    -0.1800 H     1 <1>   0.4000 
 42 H      -10.6430    -2.8180    -0.1310 H     1 <1>   0.0800 
 43 H       -9.9380    -1.7700     1.0750 H     1 <1>   0.0800 
 44 H      -10.6320    -3.2810     1.5670 H     1 <1>   0.0800 
 45 H      -13.9220     4.5760     0.3750 H     1 <1>   0.0800 
 46 H      -12.4360     4.9140     1.2550 H     1 <1>   0.0800 
 47 H      -13.4940     3.5900     1.7690 H     1 <1>   0.0800 
@<TRIPOS>BOND
  1   1   2  1   
  2   2   3  ar  
  3   2   4  ar  
  4   3   5  ar  
  5   3  26  1   
  6   4   6  ar  
  7   4  27  1   
  8   5   7  ar  
  9   5  28  1   
 10   6   7  ar  
 11   6  29  1   
 12   7   8  1   
 13   8   9  1   
 14   8  10  2   
 15   9  11  1   
 16  10  12  1   
 17  10  13  1   
 18  11  12  2   
 19  12  14  1   
 20  13  15  2   
 21  13  16  am  
 22  14  17  1   
 23  14  30  1   
 24  16  18  1   
 25  16  19  1   
 26  17  20  1   
 27  17  31  1   
 28  17  32  1   
 29  18  21  1   
 30  18  33  1   
 31  18  34  1   
 32  19  35  1   
 33  19  36  1   
 34  19  37  1   
 35  20  22  1   
 36  20  38  1   
 37  20  39  1   
 38  21  23  1   
 39  21  24  1   
 40  21  40  1   
 41  22  25  1   
 42  23  41  1   
 43  24  42  1   
 44  24  43  1   
 45  24  44  1   
 46  25  45  1   
 47  25  46  1   
 48  25  47  1   
@<TRIPOS>SUBSTRUCTURE
  1 ****  10 GROUP 4 **** **** 0

# MOE 2024.06 (io_trps.svl 2023.06)
