@<TRIPOS>MOLECULE
NONAME
43 46 1 0 0 
SMALL
USER_CHARGES


@<TRIPOS>ATOM
  1 O       -2.3920    -0.0630    -2.6460 O.2   1 <1>  -0.5700 
  2 C       -2.4300    -0.6230    -1.5780 C.2   1 <1>   0.5690 
  3 N       -2.6360     0.0810    -0.4460 N.am  1 <1>  -0.7300 
  4 C       -2.2030    -2.1200    -1.5020 C.3   1 <1>  -0.0190 
  5 C       -2.7640    -0.5360     0.8990 C.3   1 <1>   0.2200 
  6 C       -0.9640    -2.4450    -0.6520 C.3   1 <1>   0.1200 
  7 C       -3.4570    -2.9030    -1.0640 C.3   1 <1>   0.1100 
  8 C       -1.4400    -1.2100     1.3160 C.3   1 <1>   0.1200 
  9 C       -3.9680    -1.5100     1.0020 C.3   1 <1>   0.1100 
 10 O       -1.2440    -2.4590     0.7160 O.3   1 <1>  -0.5600 
 11 N       -4.4340    -2.1240    -0.2700 N.3   1 <1>  -0.8100 
 12 C       -5.7340    -2.7960    -0.1420 C.3   1 <1>   0.2900 
 13 C       -5.7090    -4.0540     0.7210 C.2   1 <1>  -0.3320 
 14 N       -6.8530    -4.7620     0.9190 N.pl3 1 <1>   0.5930 
 15 C       -4.7270    -4.6970     1.3940 C.2   1 <1>  -0.1500 
 16 N       -6.6100    -5.8430     1.6990 N.2   1 <1>  -0.7070 
 17 C       -8.1400    -4.4650     0.3950 C.ar  1 <1>  -0.0230 
 18 C       -5.3470    -5.7930     1.9760 C.2   1 <1>   0.1390 
 19 C       -8.9230    -3.4630     0.9600 C.ar  1 <1>  -0.1500 
 20 C       -8.6330    -5.1650    -0.7020 C.ar  1 <1>  -0.1500 
 21 C      -10.1640    -3.1580     0.4310 C.ar  1 <1>  -0.1500 
 22 C       -9.8740    -4.8610    -1.2310 C.ar  1 <1>  -0.1500 
 23 C      -10.6400    -3.8550    -0.6660 C.ar  1 <1>  -0.1500 
 24 H       -2.9220     1.0530    -0.5620 H     1 <1>   0.3700 
 25 H       -1.9650    -2.4420    -2.4990 H     1 <1>   0.0800 
 26 H       -2.9320     0.2600     1.6010 H     1 <1>   0.0800 
 27 H       -0.1660    -1.7470    -0.8440 H     1 <1>   0.0800 
 28 H       -0.6150    -3.4320    -0.9020 H     1 <1>   0.0800 
 29 H       -3.1580    -3.7870    -0.5310 H     1 <1>   0.0800 
 30 H       -3.9550    -3.2290    -1.9610 H     1 <1>   0.0800 
 31 H       -1.4580    -1.3840     2.3770 H     1 <1>   0.0800 
 32 H       -0.5990    -0.5740     1.0950 H     1 <1>   0.0800 
 33 H       -4.7880    -0.9490     1.4140 H     1 <1>   0.0800 
 34 H       -3.7330    -2.2760     1.7180 H     1 <1>   0.0800 
 35 H       -6.4400    -2.0960     0.2710 H     1 <1>   0.0800 
 36 H       -6.0870    -3.0520    -1.1270 H     1 <1>   0.0800 
 37 H       -3.6820    -4.4600     1.4870 H     1 <1>   0.1500 
 38 H       -4.8430    -6.5230     2.5880 H     1 <1>   0.1500 
 39 H       -8.5600    -2.9240     1.8180 H     1 <1>   0.1500 
 40 H       -8.0410    -5.9520    -1.1370 H     1 <1>   0.1500 
 41 H      -10.7640    -2.3810     0.8740 H     1 <1>   0.1500 
 42 H      -10.2470    -5.4080    -2.0790 H     1 <1>   0.1500 
 43 H      -11.6060    -3.6190    -1.0770 H     1 <1>   0.1500 
@<TRIPOS>BOND
  1   1   2  2   
  2   2   3  am  
  3   2   4  1   
  4   3   5  1   
  5   3  24  1   
  6   4   6  1   
  7   4   7  1   
  8   4  25  1   
  9   5   8  1   
 10   5   9  1   
 11   5  26  1   
 12   6  10  1   
 13   6  27  1   
 14   6  28  1   
 15   7  11  1   
 16   7  29  1   
 17   7  30  1   
 18   8  10  1   
 19   8  31  1   
 20   8  32  1   
 21   9  11  1   
 22   9  33  1   
 23   9  34  1   
 24  11  12  1   
 25  12  13  1   
 26  12  35  1   
 27  12  36  1   
 28  13  14  1   
 29  13  15  2   
 30  14  16  1   
 31  14  17  1   
 32  15  18  1   
 33  15  37  1   
 34  16  18  2   
 35  17  19  ar  
 36  17  20  ar  
 37  18  38  1   
 38  19  21  ar  
 39  19  39  1   
 40  20  22  ar  
 41  20  40  1   
 42  21  23  ar  
 43  21  41  1   
 44  22  23  ar  
 45  22  42  1   
 46  23  43  1   
@<TRIPOS>SUBSTRUCTURE
  1 ****  12 GROUP 4 **** **** 0

# MOE 2024.06 (io_trps.svl 2023.06)
