@<TRIPOS>MOLECULE
NONAME
50 52 1 0 0 
SMALL
USER_CHARGES


@<TRIPOS>ATOM
  1 O       -0.5840     0.2910    -1.2170 O.2   1 <1>  -0.5700 
  2 C       -1.5920     0.8170    -0.8030 C.2   1 <1>   0.5690 
  3 N       -2.7020     0.0890    -0.4730 N.am  1 <1>  -0.6600 
  4 C       -1.5620     2.3480    -0.6480 C.3   1 <1>   0.4040 
  5 C       -4.0120     0.6050     0.0060 C.3   1 <1>   0.1400 
  6 C       -2.7580    -1.3880    -0.6380 C.3   1 <1>   0.1400 
  7 N       -0.1590     2.9050    -0.5550 N.4   1 <1>  -0.9590 
  8 C       -4.9340    -0.6160     0.0380 C.3   1 <1>   0.2000 
  9 C       -4.0140    -1.8320     0.1160 C.3   1 <1>  -0.0800 
 10 C        0.4760     2.5360     0.7440 C.3   1 <1>   0.3430 
 11 C       -0.1170     4.3510    -0.8980 C.3   1 <1>   0.3430 
 12 O       -5.7770    -0.5810     1.1350 O.3   1 <1>  -0.6800 
 13 C       -4.6710    -3.1070    -0.4440 C.3   1 <1>  -0.0170 
 14 C        1.9850     2.3950     0.5580 C.3   1 <1>  -0.1600 
 15 C        1.3130     4.8660    -1.0750 C.3   1 <1>  -0.1600 
 16 C       -3.7660    -4.3220    -0.3100 C.ar  1 <1>   0.1670 
 17 C        2.7880     3.7000     0.6920 C.3   1 <1>  -0.1600 
 18 C        2.0810     4.9880     0.2490 C.3   1 <1>  -0.1600 
 19 N       -2.7760    -4.4200    -1.1820 N.ar  1 <1>  -0.6200 
 20 C       -4.0020    -5.2610     0.6930 C.ar  1 <1>   0.1600 
 21 C       -2.0460    -5.5060    -0.9870 C.ar  1 <1>   0.1600 
 22 N       -3.2710    -6.3450     0.8930 N.ar  1 <1>  -0.6200 
 23 C       -2.2840    -6.4360     0.0170 C.ar  1 <1>   0.1600 
 24 H       -2.1230     2.6230     0.2270 H     1 <1>   0.0800 
 25 H       -2.0550     2.7640    -1.5090 H     1 <1>   0.0800 
 26 H       -3.8990     1.0160     0.9940 H     1 <1>   0.0800 
 27 H       -4.4030     1.3460    -0.6690 H     1 <1>   0.0800 
 28 H       -2.8380    -1.6230    -1.6870 H     1 <1>   0.0800 
 29 H       -1.8730    -1.8590    -0.2420 H     1 <1>   0.0800 
 30 H        0.3720     2.3790    -1.2700 H     1 <1>   0.4500 
 31 H       -5.5390    -0.6380    -0.8530 H     1 <1>   0.0800 
 32 H       -3.7260    -2.0010     1.1400 H     1 <1>   0.0800 
 33 H        0.2510     3.2630     1.5070 H     1 <1>   0.0800 
 34 H        0.0950     1.5790     1.0630 H     1 <1>   0.0800 
 35 H       -0.6480     4.5090    -1.8230 H     1 <1>   0.0800 
 36 H       -0.6110     4.9260    -0.1310 H     1 <1>   0.0800 
 37 H       -5.2820    -0.7140     1.9670 H     1 <1>   0.4000 
 38 H       -4.9140    -2.9700    -1.4840 H     1 <1>   0.0800 
 39 H       -5.5930    -3.2870     0.0790 H     1 <1>   0.0800 
 40 H        2.3490     1.7150     1.3090 H     1 <1>   0.0800 
 41 H        2.1900     1.9310    -0.3920 H     1 <1>   0.0800 
 42 H        1.8550     4.2670    -1.7860 H     1 <1>   0.0800 
 43 H        1.2380     5.8540    -1.4950 H     1 <1>   0.0800 
 44 H        3.0800     3.8250     1.7220 H     1 <1>   0.0800 
 45 H        3.7000     3.5910     0.1280 H     1 <1>   0.0800 
 46 H        2.8360     5.7490     0.1390 H     1 <1>   0.0800 
 47 H        1.4170     5.3280     1.0260 H     1 <1>   0.0800 
 48 H       -4.8310    -5.1110     1.3620 H     1 <1>   0.1500 
 49 H       -1.2170    -5.6670    -1.6540 H     1 <1>   0.1500 
 50 H       -1.6330    -7.2880     0.0970 H     1 <1>   0.1500 
@<TRIPOS>BOND
  1   1   2  2   
  2   2   3  am  
  3   2   4  1   
  4   3   5  1   
  5   3   6  1   
  6   4   7  1   
  7   4  24  1   
  8   4  25  1   
  9   5   8  1   
 10   5  26  1   
 11   5  27  1   
 12   6   9  1   
 13   6  28  1   
 14   6  29  1   
 15   7  10  1   
 16   7  11  1   
 17   7  30  1   
 18   8   9  1   
 19   8  12  1   
 20   8  31  1   
 21   9  13  1   
 22   9  32  1   
 23  10  14  1   
 24  10  33  1   
 25  10  34  1   
 26  11  15  1   
 27  11  35  1   
 28  11  36  1   
 29  12  37  1   
 30  13  16  1   
 31  13  38  1   
 32  13  39  1   
 33  14  17  1   
 34  14  40  1   
 35  14  41  1   
 36  15  18  1   
 37  15  42  1   
 38  15  43  1   
 39  16  19  ar  
 40  16  20  ar  
 41  17  18  1   
 42  17  44  1   
 43  17  45  1   
 44  18  46  1   
 45  18  47  1   
 46  19  21  ar  
 47  20  22  ar  
 48  20  48  1   
 49  21  23  ar  
 50  21  49  1   
 51  22  23  ar  
 52  23  50  1   
@<TRIPOS>SUBSTRUCTURE
  1 ****   3 GROUP 4 **** **** 0

# MOE 2024.06 (io_trps.svl 2023.06)
