@<TRIPOS>MOLECULE
NONAME
52 55 1 0 0 
SMALL
USER_CHARGES


@<TRIPOS>ATOM
  1 O        0.4870    -0.0300    -2.6390 O.2   1 <1>  -0.5700 
  2 C        0.2280    -0.8840    -1.8220 C.2   1 <1>   0.5690 
  3 N        0.8860    -1.0420    -0.6410 N.am  1 <1>  -0.4930 
  4 C       -0.9220    -1.8530    -2.0980 C.3   1 <1>   0.1710 
  5 C        1.9480    -0.2940    -0.0780 C.2   1 <1>   0.0630 
  6 N       -1.6270    -2.3300    -0.8670 N.3   1 <1>  -0.8100 
  7 C        2.4560    -0.3970     1.2180 C.2   1 <1>   0.1080 
  8 C        2.6940     0.6700    -0.6540 C.2   1 <1>  -0.3020 
  9 C       -2.3010    -1.2560    -0.0870 C.3   1 <1>   0.1100 
 10 C       -2.5350    -3.4680    -1.1420 C.3   1 <1>   0.1100 
 11 N        3.4330     0.4290     1.4320 N.2   1 <1>  -0.7070 
 12 C        1.9530    -1.3480     2.2810 C.3   1 <1>  -0.0590 
 13 N        3.5800     1.0900     0.2710 N.pl3 1 <1>   0.3140 
 14 C       -3.5330    -0.6260    -0.7890 C.3   1 <1>   0.1430 
 15 C       -4.0240    -3.0810    -1.2310 C.3   1 <1>  -0.1600 
 16 C        4.6020     2.1260     0.0900 C.3   1 <1>   0.0160 
 17 C       -4.4570    -0.0960     0.3000 C.ar  1 <1>   0.1670 
 18 C       -4.2440    -1.6420    -1.7170 C.3   1 <1>  -0.1600 
 19 C       -3.1700     0.6780    -1.5510 C.3   1 <1>  -0.1600 
 20 N       -5.2340    -0.8250     1.0730 N.ar  1 <1>  -0.6200 
 21 C       -4.3830     1.2610     0.4060 C.ar  1 <1>  -0.1430 
 22 C       -3.4160     1.8500    -0.5880 C.3   1 <1>  -0.0170 
 23 C       -5.9400    -0.1320     1.9560 C.ar  1 <1>   0.4770 
 24 C       -5.1560     1.8770     1.3580 C.ar  1 <1>   0.1600 
 25 N       -5.9480     1.1800     2.1470 N.ar  1 <1>  -0.6200 
 26 C       -6.8510    -0.9310     2.8550 C.3   1 <1>  -0.0970 
 27 H        0.4690    -1.7660    -0.0500 H     1 <1>   0.3700 
 28 H       -0.4970    -2.6980    -2.6080 H     1 <1>   0.0800 
 29 H       -1.6140    -1.3860    -2.7720 H     1 <1>   0.0800 
 30 H        2.6370     1.0640    -1.6510 H     1 <1>   0.1500 
 31 H       -1.6010    -0.4840     0.1800 H     1 <1>   0.0800 
 32 H       -2.6330    -1.6980     0.8380 H     1 <1>   0.0800 
 33 H       -2.4210    -4.1920    -0.3520 H     1 <1>   0.0800 
 34 H       -2.2400    -3.9540    -2.0560 H     1 <1>   0.0800 
 35 H        0.8900    -1.2430     2.3950 H     1 <1>   0.0800 
 36 H        2.4270    -1.1270     3.2200 H     1 <1>   0.0800 
 37 H        2.1870    -2.3590     2.0030 H     1 <1>   0.0800 
 38 H       -4.4660    -3.1900    -0.2550 H     1 <1>   0.0800 
 39 H       -4.5310    -3.7710    -1.8810 H     1 <1>   0.0800 
 40 H        4.1670     2.9680    -0.4120 H     1 <1>   0.0800 
 41 H        5.4070     1.7240    -0.4940 H     1 <1>   0.0800 
 42 H        4.9690     2.4270     1.0530 H     1 <1>   0.0800 
 43 H       -3.8560    -1.5620    -2.7160 H     1 <1>   0.0800 
 44 H       -5.2970    -1.4240    -1.7590 H     1 <1>   0.0800 
 45 H       -3.8350     0.7960    -2.3890 H     1 <1>   0.0800 
 46 H       -2.1610     0.6860    -1.9190 H     1 <1>   0.0800 
 47 H       -3.8320     2.7010    -1.0980 H     1 <1>   0.0800 
 48 H       -2.5050     2.1300    -0.0880 H     1 <1>   0.0800 
 49 H       -5.1290     2.9460     1.4770 H     1 <1>   0.1500 
 50 H       -6.6050    -1.9760     2.8090 H     1 <1>   0.0800 
 51 H       -7.8680    -0.7940     2.5400 H     1 <1>   0.0800 
 52 H       -6.7470    -0.5920     3.8690 H     1 <1>   0.0800 
@<TRIPOS>BOND
  1   1   2  2   
  2   2   3  am  
  3   2   4  1   
  4   3   5  1   
  5   3  27  1   
  6   4   6  1   
  7   4  28  1   
  8   4  29  1   
  9   5   7  1   
 10   5   8  2   
 11   6   9  1   
 12   6  10  1   
 13   7  11  2   
 14   7  12  1   
 15   8  13  1   
 16   8  30  1   
 17   9  14  1   
 18   9  31  1   
 19   9  32  1   
 20  10  15  1   
 21  10  33  1   
 22  10  34  1   
 23  11  13  1   
 24  12  35  1   
 25  12  36  1   
 26  12  37  1   
 27  13  16  1   
 28  14  17  1   
 29  14  18  1   
 30  14  19  1   
 31  15  18  1   
 32  15  38  1   
 33  15  39  1   
 34  16  40  1   
 35  16  41  1   
 36  16  42  1   
 37  17  20  ar  
 38  17  21  ar  
 39  18  43  1   
 40  18  44  1   
 41  19  22  1   
 42  19  45  1   
 43  19  46  1   
 44  20  23  ar  
 45  21  22  1   
 46  21  24  ar  
 47  22  47  1   
 48  22  48  1   
 49  23  25  ar  
 50  23  26  1   
 51  24  25  ar  
 52  24  49  1   
 53  26  50  1   
 54  26  51  1   
 55  26  52  1   
@<TRIPOS>SUBSTRUCTURE
  1 ****   9 GROUP 4 **** **** 0

# MOE 2024.06 (io_trps.svl 2023.06)
