@<TRIPOS>MOLECULE
NONAME
51 54 1 0 0 
SMALL
USER_CHARGES


@<TRIPOS>ATOM
  1 O        0.9080    -0.2630     2.8120 O.2   1 <1>  -0.5700 
  2 C        1.4650    -0.8960     1.9480 C.2   1 <1>   0.5690 
  3 N        2.6400    -0.4850     1.4000 N.am  1 <1>  -0.5100 
  4 C        0.8350    -2.1950     1.4950 C.3   1 <1>  -0.0990 
  5 C        3.2740     0.8670     1.4510 C.3   1 <1>   0.2250 
  6 C        3.2960    -0.7660     0.0830 C.3   1 <1>   0.2250 
  7 C        1.5320    -3.3930     2.1460 C.3   1 <1>   0.0200 
  8 C        3.4490     0.7660    -0.0790 C.3   1 <1>   0.0850 
  9 C        0.8800    -4.6860     1.7010 C.2   1 <1>   0.0060 
 10 N        4.7890     1.2080    -0.5190 N.pl3 1 <1>   0.4850 
 11 N        1.2740    -5.3690     0.6850 N.2   1 <1>  -0.5650 
 12 N       -0.1870    -5.2250     2.3420 N.pl3 1 <1>   0.0330 
 13 N        5.6910     0.3670    -1.0690 N.2   1 <1>  -0.7070 
 14 C        5.2710     2.4750    -0.4820 C.2   1 <1>  -0.3320 
 15 C        0.4220    -6.4370     0.6340 C.ar  1 <1>   0.2270 
 16 C       -0.4950    -6.3580     1.6650 C.ar  1 <1>  -0.1520 
 17 C        6.7140     1.1070    -1.3520 C.2   1 <1>   0.1080 
 18 C        6.5130     2.4370    -1.0080 C.2   1 <1>  -0.1500 
 19 C        4.5230     3.6890     0.0500 C.3   1 <1>  -0.0600 
 20 C        0.3800    -7.5090    -0.2680 C.ar  1 <1>  -0.1430 
 21 C       -1.4780    -7.3300     1.8390 C.ar  1 <1>  -0.1500 
 22 C        7.9660     0.5470    -1.9870 C.3   1 <1>  -0.0590 
 23 C       -0.5880    -8.4860    -0.0960 C.ar  1 <1>  -0.1430 
 24 C        1.4140    -7.5420    -1.3890 C.3   1 <1>  -0.0970 
 25 C       -1.5120    -8.3840     0.9560 C.ar  1 <1>  -0.1500 
 26 C       -0.6900    -9.6930    -1.0180 C.3   1 <1>  -0.0970 
 27 H        0.8900    -2.2800     0.4260 H     1 <1>   0.0800 
 28 H       -0.2040    -2.1890     1.7690 H     1 <1>   0.0800 
 29 H        4.1940     0.8390     2.0090 H     1 <1>   0.0000 
 30 H        2.5800     1.6270     1.7620 H     1 <1>   0.0000 
 31 H        2.6170    -1.2090    -0.6220 H     1 <1>   0.0000 
 32 H        4.2090    -1.3140     0.2330 H     1 <1>   0.0000 
 33 H        1.4910    -3.3100     3.2180 H     1 <1>   0.0800 
 34 H        2.5680    -3.4100     1.8530 H     1 <1>   0.0800 
 35 H        2.6530     1.2260    -0.6370 H     1 <1>   0.0000 
 36 H       -0.6680    -4.8610     3.1670 H     1 <1>   0.2700 
 37 H        7.2140     3.2400    -1.1480 H     1 <1>   0.1500 
 38 H        3.5860     3.8070    -0.4640 H     1 <1>   0.0800 
 39 H        5.1090     4.5780    -0.1020 H     1 <1>   0.0800 
 40 H        4.3360     3.5840     1.1040 H     1 <1>   0.0800 
 41 H       -2.1860    -7.2530     2.6440 H     1 <1>   0.1500 
 42 H        7.7200     0.1100    -2.9370 H     1 <1>   0.0800 
 43 H        8.3810    -0.2130    -1.3500 H     1 <1>   0.0800 
 44 H        8.6940     1.3230    -2.1320 H     1 <1>   0.0800 
 45 H        1.6260    -6.5420    -1.7230 H     1 <1>   0.0800 
 46 H        1.0670    -8.1020    -2.2360 H     1 <1>   0.0800 
 47 H        2.3250    -7.9780    -1.0240 H     1 <1>   0.0800 
 48 H       -2.2620    -9.1460     1.0750 H     1 <1>   0.1500 
 49 H        0.2780   -10.1410    -1.1510 H     1 <1>   0.0800 
 50 H       -1.0710    -9.3870    -1.9760 H     1 <1>   0.0800 
 51 H       -1.3480   -10.4380    -0.6100 H     1 <1>   0.0800 
@<TRIPOS>BOND
  1   1   2  2   
  2   2   3  am  
  3   2   4  1   
  4   3   5  1   
  5   3   6  1   
  6   4   7  1   
  7   4  27  1   
  8   4  28  1   
  9   5   8  1   
 10   5  29  1   
 11   5  30  1   
 12   6   8  1   
 13   6  31  1   
 14   6  32  1   
 15   7   9  1   
 16   7  33  1   
 17   7  34  1   
 18   8  10  1   
 19   8  35  1   
 20   9  11  2   
 21   9  12  1   
 22  10  13  1   
 23  10  14  1   
 24  11  15  1   
 25  12  16  1   
 26  12  36  1   
 27  13  17  2   
 28  14  18  2   
 29  14  19  1   
 30  15  16  ar  
 31  15  20  ar  
 32  16  21  ar  
 33  17  18  1   
 34  17  22  1   
 35  18  37  1   
 36  19  38  1   
 37  19  39  1   
 38  19  40  1   
 39  20  23  ar  
 40  20  24  1   
 41  21  25  ar  
 42  21  41  1   
 43  22  42  1   
 44  22  43  1   
 45  22  44  1   
 46  23  25  ar  
 47  23  26  1   
 48  24  45  1   
 49  24  46  1   
 50  24  47  1   
 51  25  48  1   
 52  26  49  1   
 53  26  50  1   
 54  26  51  1   
@<TRIPOS>SUBSTRUCTURE
  1 ****   4 GROUP 4 **** **** 0

# MOE 2024.06 (io_trps.svl 2023.06)
