@<TRIPOS>MOLECULE
NONAME
44 45 1 0 0 
SMALL
USER_CHARGES


@<TRIPOS>ATOM
  1 S        0.4090     0.1670    -0.2260 S.o2  1 <1>   1.3330 
  2 O        0.1550    -0.0840     1.1750 O.2   1 <1>  -0.6500 
  3 O        0.4740    -0.9460    -1.1460 O.2   1 <1>  -0.6500 
  4 N       -0.7750     1.2470    -0.7830 N.am  1 <1>  -0.8490 
  5 C        1.9320     1.0990    -0.3840 C.3   1 <1>  -0.0550 
  6 C       -1.9580     0.5520    -1.2990 C.3   1 <1>   0.1160 
  7 C       -1.1760     2.2430     0.2150 C.3   1 <1>   0.1160 
  8 C        3.1900     0.2380    -0.1540 C.3   1 <1>  -0.0800 
  9 C        4.5130     0.9710    -0.3060 C.3   1 <1>   0.2200 
 10 C        3.3050    -0.3860     1.2430 C.3   1 <1>   0.1200 
 11 N        4.4690     2.2860     0.3760 N.am  1 <1>  -0.7300 
 12 C        5.4250     0.0500     0.4910 C.3   1 <1>   0.1200 
 13 O        4.6600    -0.3390     1.5920 O.3   1 <1>  -0.5600 
 14 C        4.3970     3.5040    -0.2380 C.2   1 <1>   0.5440 
 15 O        4.2240     3.5200    -1.4440 O.2   1 <1>  -0.5700 
 16 C        4.5020     4.7200     0.5420 C.ar  1 <1>   0.0860 
 17 C        5.1980     5.8510     0.0710 C.ar  1 <1>   0.1000 
 18 C        3.9070     4.7940     1.8050 C.ar  1 <1>  -0.1500 
 19 N        5.8120     5.8640    -1.1700 N.pl3 1 <1>  -0.9000 
 20 C        5.2850     6.9930     0.8600 C.ar  1 <1>  -0.1500 
 21 C        4.0040     5.9380     2.5720 C.ar  1 <1>   0.0820 
 22 C        4.6930     7.0420     2.1040 C.ar  1 <1>  -0.1500 
 23 O        3.4300     5.9980     3.7870 O.3   1 <1>  -0.5330 
 24 H        1.9840     1.5150    -1.3720 H     1 <1>   0.0800 
 25 H        1.9150     1.9140     0.3110 H     1 <1>   0.0800 
 26 H       -2.6810     1.2620    -1.6630 H     1 <1>   0.0800 
 27 H       -2.4080    -0.0480    -0.5250 H     1 <1>   0.0800 
 28 H       -1.6800    -0.0910    -2.1170 H     1 <1>   0.0800 
 29 H       -1.8650     2.9460    -0.2210 H     1 <1>   0.0800 
 30 H       -0.3150     2.7870     0.5630 H     1 <1>   0.0800 
 31 H       -1.6490     1.7640     1.0570 H     1 <1>   0.0800 
 32 H        3.1750    -0.5700    -0.8660 H     1 <1>   0.0800 
 33 H        4.8240     1.0760    -1.3330 H     1 <1>   0.0800 
 34 H        2.9760    -1.4120     1.2530 H     1 <1>   0.0800 
 35 H        2.7590     0.1760     1.9820 H     1 <1>   0.0800 
 36 H        4.6900     2.2290     1.3730 H     1 <1>   0.3700 
 37 H        6.3260     0.5350     0.8230 H     1 <1>   0.0800 
 38 H        5.6680    -0.8330    -0.0740 H     1 <1>   0.0800 
 39 H        3.3610     3.9500     2.1810 H     1 <1>   0.1500 
 40 H        5.4850     5.1230    -1.8150 H     1 <1>   0.4000 
 41 H        5.9150     6.7640    -1.6460 H     1 <1>   0.4000 
 42 H        5.8260     7.8450     0.4930 H     1 <1>   0.1500 
 43 H        4.7610     7.9240     2.7160 H     1 <1>   0.1500 
 44 H        2.9800     5.1740     4.0430 H     1 <1>   0.4500 
@<TRIPOS>BOND
  1   1   2  2   
  2   1   3  2   
  3   1   4  am  
  4   1   5  1   
  5   4   6  1   
  6   4   7  1   
  7   5   8  1   
  8   5  24  1   
  9   5  25  1   
 10   6  26  1   
 11   6  27  1   
 12   6  28  1   
 13   7  29  1   
 14   7  30  1   
 15   7  31  1   
 16   8   9  1   
 17   8  10  1   
 18   8  32  1   
 19   9  11  1   
 20   9  12  1   
 21   9  33  1   
 22  10  13  1   
 23  10  34  1   
 24  10  35  1   
 25  11  14  am  
 26  11  36  1   
 27  12  13  1   
 28  12  37  1   
 29  12  38  1   
 30  14  15  2   
 31  14  16  1   
 32  16  17  ar  
 33  16  18  ar  
 34  17  19  1   
 35  17  20  ar  
 36  18  21  ar  
 37  18  39  1   
 38  19  40  1   
 39  19  41  1   
 40  20  22  ar  
 41  20  42  1   
 42  21  22  ar  
 43  21  23  1   
 44  22  43  1   
 45  23  44  1   
@<TRIPOS>SUBSTRUCTURE
  1 ****  11 GROUP 4 **** **** 0

# MOE 2024.06 (io_trps.svl 2023.06)
