@<TRIPOS>MOLECULE
NONAME
44 45 1 0 0 
SMALL
USER_CHARGES


@<TRIPOS>ATOM
  1 S        1.1340     1.0610     0.7150 S.o2  1 <1>   1.3330 
  2 O        0.4760    -0.0450     0.0550 O.2   1 <1>  -0.6500 
  3 O        0.3490     2.0240     1.4530 O.2   1 <1>  -0.6500 
  4 N        2.2780     0.4170     1.7940 N.am  1 <1>  -0.8490 
  5 C        2.1360     1.9200    -0.4990 C.3   1 <1>  -0.0550 
  6 C        1.7640    -0.7590     2.5020 C.3   1 <1>   0.1160 
  7 C        2.7740     1.4000     2.7640 C.3   1 <1>   0.1160 
  8 C        2.9130     0.9910    -1.4580 C.3   1 <1>  -0.0800 
  9 C        3.6870     1.7010    -2.5590 C.3   1 <1>   0.2200 
 10 C        3.9910     0.1240    -0.7980 C.3   1 <1>   0.1200 
 11 N        4.4210     2.8640    -2.0120 N.am  1 <1>  -0.7300 
 12 C        4.6930     0.6190    -2.9260 C.3   1 <1>   0.1200 
 13 O        5.0450     0.0240    -1.7140 O.3   1 <1>  -0.5600 
 14 C        3.9800     4.1450    -2.0030 C.2   1 <1>   0.5690 
 15 O        2.9430     4.4610    -2.5320 O.2   1 <1>  -0.5700 
 16 C        4.7900     5.1920    -1.2630 C.3   1 <1>   0.0440 
 17 C        5.0030     4.7960     0.1990 C.ar  1 <1>  -0.1440 
 18 C        6.0620     3.9830     0.5920 C.ar  1 <1>   0.1900 
 19 C        4.1240     5.2330     1.1810 C.ar  1 <1>  -0.1500 
 20 F        6.8940     3.5390    -0.3130 F     1 <1>  -0.1900 
 21 C        6.2780     3.6050     1.9070 C.ar  1 <1>  -0.1500 
 22 C        4.3400     4.8530     2.4950 C.ar  1 <1>   0.1900 
 23 C        5.4000     4.0510     2.8810 C.ar  1 <1>  -0.1500 
 24 F        3.5040     5.2630     3.4110 F     1 <1>  -0.1900 
 25 H        1.4880     2.5370    -1.0930 H     1 <1>   0.0800 
 26 H        2.8150     2.5730     0.0100 H     1 <1>   0.0800 
 27 H        2.5120    -1.1520     3.1680 H     1 <1>   0.0800 
 28 H        1.5040    -1.5310     1.7960 H     1 <1>   0.0800 
 29 H        0.8840    -0.5000     3.0690 H     1 <1>   0.0800 
 30 H        3.5560     0.9670     3.3630 H     1 <1>   0.0800 
 31 H        1.9770     1.7280     3.4120 H     1 <1>   0.0800 
 32 H        3.1740     2.2570     2.2520 H     1 <1>   0.0800 
 33 H        2.2080     0.3260    -1.9270 H     1 <1>   0.0800 
 34 H        3.0670     1.9950    -3.3900 H     1 <1>   0.0800 
 35 H        3.6280    -0.8640    -0.5670 H     1 <1>   0.0800 
 36 H        4.3830     0.5840     0.0930 H     1 <1>   0.0800 
 37 H        5.2870     2.6140    -1.5210 H     1 <1>   0.3700 
 38 H        5.5710     1.0100    -3.4090 H     1 <1>   0.0800 
 39 H        4.2370    -0.1340    -3.5450 H     1 <1>   0.0800 
 40 H        5.7330     5.3180    -1.7620 H     1 <1>   0.0800 
 41 H        4.2710     6.1320    -1.3140 H     1 <1>   0.0800 
 42 H        3.2790     5.8560     0.9410 H     1 <1>   0.1500 
 43 H        7.1150     2.9770     2.1570 H     1 <1>   0.1500 
 44 H        5.5310     3.7870     3.9160 H     1 <1>   0.1500 
@<TRIPOS>BOND
  1   1   2  2   
  2   1   3  2   
  3   1   4  am  
  4   1   5  1   
  5   4   6  1   
  6   4   7  1   
  7   5   8  1   
  8   5  25  1   
  9   5  26  1   
 10   6  27  1   
 11   6  28  1   
 12   6  29  1   
 13   7  30  1   
 14   7  31  1   
 15   7  32  1   
 16   8   9  1   
 17   8  10  1   
 18   8  33  1   
 19   9  11  1   
 20   9  12  1   
 21   9  34  1   
 22  10  13  1   
 23  10  35  1   
 24  10  36  1   
 25  11  14  am  
 26  11  37  1   
 27  12  13  1   
 28  12  38  1   
 29  12  39  1   
 30  14  15  2   
 31  14  16  1   
 32  16  17  1   
 33  16  40  1   
 34  16  41  1   
 35  17  18  ar  
 36  17  19  ar  
 37  18  20  1   
 38  18  21  ar  
 39  19  22  ar  
 40  19  42  1   
 41  21  23  ar  
 42  21  43  1   
 43  22  23  ar  
 44  22  24  1   
 45  23  44  1   
@<TRIPOS>SUBSTRUCTURE
  1 ****   5 GROUP 4 **** **** 0

# MOE 2024.06 (io_trps.svl 2023.06)
