@<TRIPOS>MOLECULE
NONAME
41 43 1 0 0 
SMALL
USER_CHARGES


@<TRIPOS>ATOM
  1 S       -1.8860     0.6730     0.6300 S.3   1 <1>  -0.0800 
  2 C       -3.2350    -0.4480     0.6330 C.2   1 <1>  -0.1100 
  3 C       -2.9260     1.9870     1.1480 C.2   1 <1>  -0.1100 
  4 C       -4.3750     0.1700     0.9980 C.2   1 <1>  -0.1810 
  5 C       -4.1930     1.5600     1.2960 C.2   1 <1>  -0.1500 
  6 C       -5.7590    -0.4640     1.1100 C.3   1 <1>   0.0820 
  7 C       -5.8490    -1.8680     0.5240 C.2   1 <1>   0.5690 
  8 O       -5.9260    -2.7970     1.2950 O.2   1 <1>  -0.5700 
  9 N       -5.8620    -2.0860    -0.8350 N.am  1 <1>  -0.6600 
 10 C       -6.1180    -3.4580    -1.3530 C.3   1 <1>   0.1400 
 11 C       -5.6550    -1.0530    -1.8880 C.3   1 <1>   0.1400 
 12 C       -7.6290    -3.7280    -1.4260 C.3   1 <1>   0.1400 
 13 C       -6.9570    -0.6990    -2.6210 C.3   1 <1>  -0.1600 
 14 N       -8.4200    -2.6210    -2.0740 N.am  1 <1>  -0.6600 
 15 C       -7.7430    -1.8930    -3.1870 C.3   1 <1>   0.1400 
 16 C       -9.6330    -2.1580    -1.6210 C.2   1 <1>   0.5690 
 17 O      -10.2670    -1.3350    -2.2390 O.2   1 <1>  -0.5700 
 18 C      -10.2280    -2.5860    -0.3000 C.3   1 <1>   0.1570 
 19 N       -9.7110    -1.6940     0.7430 N.pl3 1 <1>   0.3140 
 20 N       -9.3080    -2.1130     1.9210 N.2   1 <1>  -0.4180 
 21 C       -9.5630    -0.3810     0.7200 C.2   1 <1>   0.0370 
 22 N       -8.9250    -1.0690     2.5670 N.2   1 <1>   0.0000 
 23 N       -9.0760     0.0250     1.8280 N.2   1 <1>  -0.3380 
 24 H       -3.0290    -1.4680     0.3580 H     1 <1>   0.1500 
 25 H       -2.4710     2.9500     1.2910 H     1 <1>   0.1500 
 26 H       -5.0210     2.1730     1.6100 H     1 <1>   0.1500 
 27 H       -6.4790     0.1560     0.6120 H     1 <1>   0.0800 
 28 H       -6.0370    -0.5080     2.1470 H     1 <1>   0.0800 
 29 H       -5.6620    -4.1840    -0.7020 H     1 <1>   0.0800 
 30 H       -5.6700    -3.5790    -2.3220 H     1 <1>   0.0800 
 31 H       -4.9360    -1.4270    -2.5980 H     1 <1>   0.0800 
 32 H       -5.2370    -0.1590    -1.4630 H     1 <1>   0.0800 
 33 H       -7.9610    -3.8900    -0.4170 H     1 <1>   0.0800 
 34 H       -7.7920    -4.6400    -1.9720 H     1 <1>   0.0800 
 35 H       -6.6990    -0.0550    -3.4420 H     1 <1>   0.0800 
 36 H       -7.5920    -0.1260    -1.9690 H     1 <1>   0.0800 
 37 H       -7.0990    -2.5550    -3.7380 H     1 <1>   0.0800 
 38 H       -8.4870    -1.5270    -3.8760 H     1 <1>   0.0800 
 39 H       -9.9900    -3.6030    -0.0630 H     1 <1>   0.0800 
 40 H      -11.2950    -2.4820    -0.3370 H     1 <1>   0.0800 
 41 H       -9.8210     0.2370    -0.1210 H     1 <1>   0.1500 
@<TRIPOS>BOND
  1   1   2  1   
  2   1   3  1   
  3   2   4  2   
  4   2  24  1   
  5   3   5  2   
  6   3  25  1   
  7   4   5  1   
  8   4   6  1   
  9   5  26  1   
 10   6   7  1   
 11   6  27  1   
 12   6  28  1   
 13   7   8  2   
 14   7   9  am  
 15   9  10  1   
 16   9  11  1   
 17  10  12  1   
 18  10  29  1   
 19  10  30  1   
 20  11  13  1   
 21  11  31  1   
 22  11  32  1   
 23  12  14  1   
 24  12  33  1   
 25  12  34  1   
 26  13  15  1   
 27  13  35  1   
 28  13  36  1   
 29  14  15  1   
 30  14  16  am  
 31  15  37  1   
 32  15  38  1   
 33  16  17  2   
 34  16  18  1   
 35  18  19  1   
 36  18  39  1   
 37  18  40  1   
 38  19  20  1   
 39  19  21  1   
 40  20  22  2   
 41  21  23  2   
 42  21  41  1   
 43  22  23  1   
@<TRIPOS>SUBSTRUCTURE
  1 ****   7 GROUP 4 **** **** 0

# MOE 2024.06 (io_trps.svl 2023.06)
