@<TRIPOS>MOLECULE
NONAME
52 54 1 0 0 
SMALL
USER_CHARGES


@<TRIPOS>ATOM
  1 O        2.8620     2.5020     1.1700 O.co2 1 <1>  -0.9000 
  2 C        2.9800     1.2970     0.9240 C.2   1 <1>   0.9060 
  3 O        3.0910     0.4790     1.8480 O.co2 1 <1>  -0.9000 
  4 C        3.0750     0.8070    -0.5340 C.3   1 <1>  -0.1060 
  5 C        3.9170    -0.4870    -0.5650 C.3   1 <1>   0.4230 
  6 C        3.7750     1.8580    -1.4510 C.3   1 <1>  -0.1600 
  7 C        1.6550     0.5280    -1.0830 C.3   1 <1>  -0.1600 
  8 N        3.2210    -1.5810     0.1940 N.4   1 <1>  -0.9590 
  9 C        5.3730    -0.2340    -0.0600 C.3   1 <1>   0.1100 
 10 C        5.3080     1.7380    -1.5420 C.3   1 <1>   0.1100 
 11 C        0.9920    -0.6470    -0.3510 C.3   1 <1>  -0.1600 
 12 C        1.8750    -1.8960    -0.3530 C.3   1 <1>   0.3430 
 13 C        4.0250    -2.8110     0.4350 C.3   1 <1>   0.2630 
 14 N        5.9240     1.1180    -0.3540 N.3   1 <1>  -0.8100 
 15 C        6.0550     1.9720     0.8800 C.3   1 <1>   0.2540 
 16 C        5.9840     3.5010     0.7010 C.cat 1 <1>   0.6560 
 17 N        4.8970     4.2070     0.9290 N.pl3 1 <1>  -0.7000 
 18 N        6.9650     4.3120     0.2960 N.pl3 1 <1>  -0.7640 
 19 C        5.1570     5.5160     0.6820 C.2   1 <1>   0.1820 
 20 C        6.4510     5.5910     0.2880 C.2   1 <1>   0.1820 
 21 C        8.3390     3.9120    -0.1090 C.3   1 <1>   0.2740 
 22 C        4.0720     6.5570     0.8640 C.3   1 <1>  -0.0720 
 23 C        7.2800     6.7970    -0.1140 C.3   1 <1>  -0.0720 
 24 H        3.9930    -0.7930    -1.5940 H     1 <1>   0.0800 
 25 H        3.5150     2.8560    -1.1450 H     1 <1>   0.0800 
 26 H        3.4060     1.7700    -2.4570 H     1 <1>   0.0800 
 27 H        1.0460     1.4100    -0.9690 H     1 <1>   0.0800 
 28 H        1.7020     0.2950    -2.1330 H     1 <1>   0.0800 
 29 H        3.0530    -1.0960     1.1170 H     1 <1>   0.4500 
 30 H        6.0160    -0.9580    -0.5270 H     1 <1>   0.0800 
 31 H        5.4100    -0.4040     1.0030 H     1 <1>   0.0800 
 32 H        5.7450     2.7020    -1.7430 H     1 <1>   0.0800 
 33 H        5.5460     1.1180    -2.3910 H     1 <1>   0.0800 
 34 H        0.0530    -0.8780    -0.8230 H     1 <1>   0.0800 
 35 H        0.7730    -0.3720     0.6680 H     1 <1>   0.0800 
 36 H        1.9710    -2.2670    -1.3600 H     1 <1>   0.0800 
 37 H        1.4060    -2.6580     0.2490 H     1 <1>   0.0800 
 38 H        4.2770    -3.2830    -0.5000 H     1 <1>   0.0800 
 39 H        3.4630    -3.5060     1.0380 H     1 <1>   0.0800 
 40 H        4.9320    -2.5670     0.9620 H     1 <1>   0.0800 
 41 H        5.3100     1.7060     1.6050 H     1 <1>   0.0800 
 42 H        6.9970     1.7410     1.3410 H     1 <1>   0.0800 
 43 H        3.9850     3.7570     1.1980 H     1 <1>   0.4500 
 44 H        8.5780     4.3420    -1.0660 H     1 <1>   0.0800 
 45 H        8.4150     2.8410    -0.1900 H     1 <1>   0.0800 
 46 H        9.0500     4.2590     0.6210 H     1 <1>   0.0800 
 47 H        4.4340     7.5390     0.6250 H     1 <1>   0.0800 
 48 H        3.7330     6.5490     1.8840 H     1 <1>   0.0800 
 49 H        3.2400     6.3270     0.2240 H     1 <1>   0.0800 
 50 H        6.7020     7.6980    -0.0340 H     1 <1>   0.0800 
 51 H        7.6110     6.6920    -1.1310 H     1 <1>   0.0800 
 52 H        8.1360     6.8830     0.5300 H     1 <1>   0.0800 
@<TRIPOS>BOND
  1   1   2  ar  
  2   2   3  ar  
  3   2   4  1   
  4   4   5  1   
  5   4   6  1   
  6   4   7  1   
  7   5   8  1   
  8   5   9  1   
  9   5  24  1   
 10   6  10  1   
 11   6  25  1   
 12   6  26  1   
 13   7  11  1   
 14   7  27  1   
 15   7  28  1   
 16   8  12  1   
 17   8  13  1   
 18   8  29  1   
 19   9  14  1   
 20   9  30  1   
 21   9  31  1   
 22  10  14  1   
 23  10  32  1   
 24  10  33  1   
 25  11  12  1   
 26  11  34  1   
 27  11  35  1   
 28  12  36  1   
 29  12  37  1   
 30  13  38  1   
 31  13  39  1   
 32  13  40  1   
 33  14  15  1   
 34  15  16  1   
 35  15  41  1   
 36  15  42  1   
 37  16  17  ar  
 38  16  18  ar  
 39  17  19  1   
 40  17  43  1   
 41  18  20  1   
 42  18  21  1   
 43  19  20  2   
 44  19  22  1   
 45  20  23  1   
 46  21  44  1   
 47  21  45  1   
 48  21  46  1   
 49  22  47  1   
 50  22  48  1   
 51  22  49  1   
 52  23  50  1   
 53  23  51  1   
 54  23  52  1   
@<TRIPOS>SUBSTRUCTURE
  1 ****   6 GROUP 4 **** **** 0

# MOE 2024.06 (io_trps.svl 2023.06)
