@<TRIPOS>MOLECULE
NONAME
52 55 1 0 0 
SMALL
USER_CHARGES


@<TRIPOS>ATOM
  1 O       -1.0260     0.9680     1.5580 O.2   1 <1>  -0.5700 
  2 C       -2.0250     1.4240     1.0360 C.2   1 <1>   0.5440 
  3 N       -3.2230     0.7520     1.1780 N.am  1 <1>  -0.6600 
  4 C       -1.9260     2.6530     0.2730 C.ar  1 <1>   0.0860 
  5 C       -3.3850    -0.3720     2.1430 C.3   1 <1>   0.1400 
  6 C       -4.3910     0.9380     0.2760 C.3   1 <1>   0.1400 
  7 C       -1.0300     2.7700    -0.7860 C.ar  1 <1>  -0.1500 
  8 C       -2.7200     3.7600     0.5730 C.ar  1 <1>  -0.1500 
  9 C       -3.6060    -1.6730     1.3700 C.3   1 <1>  -0.1600 
 10 C       -4.6160    -0.3510    -0.5190 C.3   1 <1>  -0.1600 
 11 C       -0.9340     3.9310    -1.5330 C.ar  1 <1>   0.0830 
 12 C       -2.6330     4.9290    -0.1620 C.ar  1 <1>  -0.1500 
 13 C       -4.7930    -1.5720     0.4010 C.3   1 <1>   0.4240 
 14 O       -0.0330     3.9320    -2.5470 O.3   1 <1>  -0.3630 
 15 C       -1.7430     5.0180    -1.2180 C.ar  1 <1>  -0.1500 
 16 O       -5.9200    -1.3430     1.2160 O.3   1 <1>  -0.5600 
 17 C       -4.9320    -2.8740    -0.4180 C.ar  1 <1>  -0.1430 
 18 C        0.2040     5.0880    -3.3180 C.3   1 <1>   0.0400 
 19 C       -7.1710    -1.6550     0.6890 C.3   1 <1>   0.1200 
 20 C       -6.0990    -3.6300    -0.3780 C.ar  1 <1>  -0.1430 
 21 C       -3.8860    -3.3140    -1.2230 C.ar  1 <1>  -0.1500 
 22 C       -7.2570    -3.1640     0.4820 C.3   1 <1>  -0.0170 
 23 C       -6.2130    -4.7980    -1.1140 C.ar  1 <1>  -0.1500 
 24 C       -3.9990    -4.4780    -1.9600 C.ar  1 <1>  -0.1500 
 25 C       -5.1590    -5.2300    -1.9120 C.ar  1 <1>   0.0830 
 26 O       -5.1880    -6.3590    -2.6630 O.3   1 <1>  -0.3620 
 27 C       -6.3150    -7.2070    -2.6680 C.3   1 <1>   0.0400 
 28 H       -4.2320    -0.1720     2.7770 H     1 <1>   0.0800 
 29 H       -2.5160    -0.4640     2.7720 H     1 <1>   0.0800 
 30 H       -4.2280     1.7510    -0.4080 H     1 <1>   0.0800 
 31 H       -5.2620     1.1630     0.8690 H     1 <1>   0.0800 
 32 H       -0.3950     1.9370    -1.0280 H     1 <1>   0.1500 
 33 H       -3.4090     3.6960     1.3980 H     1 <1>   0.1500 
 34 H       -3.7790    -2.4810     2.0570 H     1 <1>   0.0800 
 35 H       -2.7030    -1.8940     0.8340 H     1 <1>   0.0800 
 36 H       -3.7630    -0.5020    -1.1540 H     1 <1>   0.0800 
 37 H       -5.4700    -0.2450    -1.1600 H     1 <1>   0.0800 
 38 H       -3.2570     5.7700     0.0880 H     1 <1>   0.1500 
 39 H       -1.6930     5.9340    -1.7760 H     1 <1>   0.1500 
 40 H        0.9740     4.8600    -4.0330 H     1 <1>   0.0800 
 41 H        0.5320     5.8800    -2.6690 H     1 <1>   0.0800 
 42 H       -0.7020     5.3590    -3.8310 H     1 <1>   0.0800 
 43 H       -7.3080    -1.1290    -0.2390 H     1 <1>   0.0800 
 44 H       -7.9170    -1.3290     1.3930 H     1 <1>   0.0800 
 45 H       -2.9700    -2.7540    -1.2840 H     1 <1>   0.1500 
 46 H       -8.1930    -3.4040     0.0100 H     1 <1>   0.0800 
 47 H       -7.2210    -3.6580     1.4370 H     1 <1>   0.0800 
 48 H       -7.1240    -5.3610    -1.0580 H     1 <1>   0.1500 
 49 H       -3.1860    -4.8130    -2.5790 H     1 <1>   0.1500 
 50 H       -6.1060    -8.0350    -3.3220 H     1 <1>   0.0800 
 51 H       -7.1640    -6.6570    -3.0330 H     1 <1>   0.0800 
 52 H       -6.4860    -7.5650    -1.6690 H     1 <1>   0.0800 
@<TRIPOS>BOND
  1   1   2  2   
  2   2   3  am  
  3   2   4  1   
  4   3   5  1   
  5   3   6  1   
  6   4   7  ar  
  7   4   8  ar  
  8   5   9  1   
  9   5  28  1   
 10   5  29  1   
 11   6  10  1   
 12   6  30  1   
 13   6  31  1   
 14   7  11  ar  
 15   7  32  1   
 16   8  12  ar  
 17   8  33  1   
 18   9  13  1   
 19   9  34  1   
 20   9  35  1   
 21  10  13  1   
 22  10  36  1   
 23  10  37  1   
 24  11  14  1   
 25  11  15  ar  
 26  12  15  ar  
 27  12  38  1   
 28  13  16  1   
 29  13  17  1   
 30  14  18  1   
 31  15  39  1   
 32  16  19  1   
 33  17  20  ar  
 34  17  21  ar  
 35  18  40  1   
 36  18  41  1   
 37  18  42  1   
 38  19  22  1   
 39  19  43  1   
 40  19  44  1   
 41  20  22  1   
 42  20  23  ar  
 43  21  24  ar  
 44  21  45  1   
 45  22  46  1   
 46  22  47  1   
 47  23  25  ar  
 48  23  48  1   
 49  24  25  ar  
 50  24  49  1   
 51  25  26  1   
 52  26  27  1   
 53  27  50  1   
 54  27  51  1   
 55  27  52  1   
@<TRIPOS>SUBSTRUCTURE
  1 ****  10 GROUP 4 **** **** 0

# MOE 2024.06 (io_trps.svl 2023.06)
