@<TRIPOS>MOLECULE
NONAME
53 55 1 0 0 
SMALL
USER_CHARGES


@<TRIPOS>ATOM
  1 CL       1.2500    -0.7150     0.5060 Cl    1 <1>  -0.1770 
  2 C        0.6710    -2.3320     0.1980 C.ar  1 <1>   0.1770 
  3 C       -0.6590    -2.6310     0.4320 C.ar  1 <1>  -0.1500 
  4 C        1.5490    -3.2890    -0.2750 C.ar  1 <1>  -0.1500 
  5 C       -1.1220    -3.9140     0.1890 C.ar  1 <1>  -0.1500 
  6 C        1.0850    -4.5700    -0.5170 C.ar  1 <1>  -0.1500 
  7 C       -0.2460    -4.8910    -0.2860 C.ar  1 <1>   0.0820 
  8 O       -0.6120    -6.1700    -0.5460 O.3   1 <1>  -0.3630 
  9 C       -1.9110    -6.6360    -0.2750 C.3   1 <1>   0.1200 
 10 C       -1.9380    -8.1260    -0.6270 C.3   1 <1>   0.3430 
 11 N       -3.2920    -8.7640    -0.4670 N.4   1 <1>  -0.9590 
 12 C       -3.2030   -10.1610    -1.0420 C.3   1 <1>   0.3430 
 13 C       -3.7550    -8.7060     0.9540 C.3   1 <1>   0.3430 
 14 C       -3.7040   -11.3070    -0.1330 C.3   1 <1>   0.0000 
 15 C       -5.0380    -9.5070     1.1790 C.3   1 <1>  -0.1600 
 16 C       -5.0700   -10.8390     0.4170 C.3   1 <1>   0.2000 
 17 C       -3.9730   -12.5250    -1.0470 C.3   1 <1>   0.1200 
 18 C       -2.6900   -11.7230     0.9930 C.3   1 <1>  -0.0170 
 19 O       -5.6410   -11.8110     1.2180 O.3   1 <1>  -0.6800 
 20 O       -2.8650   -12.7640    -1.8470 O.3   1 <1>  -0.6800 
 21 C       -1.3320   -11.0200     0.9970 C.ar  1 <1>  -0.1440 
 22 C       -0.4260   -11.2240    -0.0350 C.ar  1 <1>  -0.1500 
 23 C       -0.9720   -10.1850     2.0470 C.ar  1 <1>  -0.1500 
 24 C        0.7870   -10.5600    -0.0500 C.ar  1 <1>  -0.1500 
 25 C        0.2410    -9.5200     2.0340 C.ar  1 <1>  -0.1500 
 26 C        1.1180    -9.7000     0.9810 C.ar  1 <1>  -0.1500 
 27 H       -1.3170    -1.8640     0.7980 H     1 <1>   0.1500 
 28 H        2.5780    -3.0300    -0.4500 H     1 <1>   0.1500 
 29 H       -2.1580    -4.1250     0.3740 H     1 <1>   0.1500 
 30 H        1.7540    -5.3270    -0.8850 H     1 <1>   0.1500 
 31 H       -2.1050    -6.4780     0.7710 H     1 <1>   0.0800 
 32 H       -2.5980    -6.0810    -0.8890 H     1 <1>   0.0800 
 33 H       -1.2240    -8.6380    -0.0030 H     1 <1>   0.0800 
 34 H       -1.6160    -8.2320    -1.6500 H     1 <1>   0.0800 
 35 H       -3.9630    -8.2420    -1.0460 H     1 <1>   0.4500 
 36 H       -3.7890   -10.1870    -1.9460 H     1 <1>   0.0800 
 37 H       -2.1920   -10.3760    -1.3410 H     1 <1>   0.0800 
 38 H       -2.9890    -9.1100     1.5880 H     1 <1>   0.0800 
 39 H       -3.9170    -7.6830     1.2530 H     1 <1>   0.0800 
 40 H       -5.8780    -8.9120     0.8660 H     1 <1>   0.0800 
 41 H       -5.1420    -9.6720     2.2370 H     1 <1>   0.0800 
 42 H       -5.7410   -10.7160    -0.4180 H     1 <1>   0.0800 
 43 H       -4.8110   -12.3470    -1.7010 H     1 <1>   0.0800 
 44 H       -4.1770   -13.4100    -0.4660 H     1 <1>   0.0800 
 45 H       -3.1380   -11.5830     1.9600 H     1 <1>   0.0800 
 46 H       -2.4910   -12.7800     0.9290 H     1 <1>   0.0800 
 47 H       -5.1750   -11.9190     2.0700 H     1 <1>   0.4000 
 48 H       -2.9670   -13.6070    -2.3400 H     1 <1>   0.4000 
 49 H       -0.6560   -11.9070    -0.8360 H     1 <1>   0.1500 
 50 H       -1.6250   -10.0500     2.8920 H     1 <1>   0.1500 
 51 H        1.4810   -10.7210    -0.8580 H     1 <1>   0.1500 
 52 H        0.5140    -8.8700     2.8490 H     1 <1>   0.1500 
 53 H        2.0640    -9.1840     0.9710 H     1 <1>   0.1500 
@<TRIPOS>BOND
  1   1   2  1   
  2   2   3  ar  
  3   2   4  ar  
  4   3   5  ar  
  5   3  27  1   
  6   4   6  ar  
  7   4  28  1   
  8   5   7  ar  
  9   5  29  1   
 10   6   7  ar  
 11   6  30  1   
 12   7   8  1   
 13   8   9  1   
 14   9  10  1   
 15   9  31  1   
 16   9  32  1   
 17  10  11  1   
 18  10  33  1   
 19  10  34  1   
 20  11  12  1   
 21  11  13  1   
 22  11  35  1   
 23  12  14  1   
 24  12  36  1   
 25  12  37  1   
 26  13  15  1   
 27  13  38  1   
 28  13  39  1   
 29  14  16  1   
 30  14  17  1   
 31  14  18  1   
 32  15  16  1   
 33  15  40  1   
 34  15  41  1   
 35  16  19  1   
 36  16  42  1   
 37  17  20  1   
 38  17  43  1   
 39  17  44  1   
 40  18  21  1   
 41  18  45  1   
 42  18  46  1   
 43  19  47  1   
 44  20  48  1   
 45  21  22  ar  
 46  21  23  ar  
 47  22  24  ar  
 48  22  49  1   
 49  23  25  ar  
 50  23  50  1   
 51  24  26  ar  
 52  24  51  1   
 53  25  26  ar  
 54  25  52  1   
 55  26  53  1   
@<TRIPOS>SUBSTRUCTURE
  1 ****  10 GROUP 4 **** **** 0

# MOE 2024.06 (io_trps.svl 2023.06)
