@<TRIPOS>MOLECULE
NONAME
40 42 1 0 0 
SMALL
USER_CHARGES


@<TRIPOS>ATOM
  1 O        3.3140    -2.8330     1.2370 O.2   1 <1>  -0.5700 
  2 C        2.7690    -2.1600     0.3960 C.2   1 <1>   0.5690 
  3 N        3.0070    -0.8050     0.3540 N.am  1 <1>  -0.6600 
  4 C        1.8890    -2.8850    -0.6060 C.3   1 <1>   0.1570 
  5 C        3.5960    -0.1320     1.5740 C.3   1 <1>   0.2200 
  6 C        2.7530     0.0290    -0.8640 C.3   1 <1>   0.1400 
  7 N        0.5610    -2.2660    -0.6720 N.pl3 1 <1>   0.3140 
  8 C        2.9550     1.2300     1.8900 C.3   1 <1>   0.1200 
  9 C        5.1300    -0.0050     1.4380 C.3   1 <1>   0.3430 
 10 C        3.6720     1.2590    -1.0030 C.3   1 <1>  -0.0800 
 11 N        0.1770    -1.5370    -1.7390 N.2   1 <1>  -0.7070 
 12 C       -0.4170    -2.3300     0.2530 C.2   1 <1>  -0.3020 
 13 O        3.5970     2.2540     1.1910 O.3   1 <1>  -0.5600 
 14 N        5.5900    -0.1370     0.0110 N.4   1 <1>  -0.9590 
 15 C        3.1950     2.4260    -0.1250 C.3   1 <1>   0.1200 
 16 C        5.1930     1.0170    -0.8630 C.3   1 <1>   0.3430 
 17 C       -1.0380    -1.1650    -1.4670 C.2   1 <1>   0.1390 
 18 C       -1.4640    -1.6290    -0.2290 C.2   1 <1>  -0.1500 
 19 C        7.0560    -0.4010    -0.0570 C.3   1 <1>   0.2630 
 20 H        1.7710    -3.9090    -0.3080 H     1 <1>   0.0800 
 21 H        2.3370    -2.8590    -1.5800 H     1 <1>   0.0800 
 22 H        3.3940    -0.7490     2.4330 H     1 <1>   0.0800 
 23 H        2.8690    -0.5850    -1.7420 H     1 <1>   0.0800 
 24 H        1.7280     0.3610    -0.8460 H     1 <1>   0.0800 
 25 H        3.0900     1.4460     2.9360 H     1 <1>   0.0800 
 26 H        1.8980     1.2360     1.6810 H     1 <1>   0.0800 
 27 H        5.5720    -0.7930     2.0250 H     1 <1>   0.0800 
 28 H        5.4560     0.9340     1.8550 H     1 <1>   0.0800 
 29 H        3.5230     1.6120    -2.0080 H     1 <1>   0.0800 
 30 H       -0.3190    -2.8620     1.1830 H     1 <1>   0.1500 
 31 H        5.0710    -0.9610    -0.3310 H     1 <1>   0.4500 
 32 H        2.1240     2.5410    -0.1550 H     1 <1>   0.0800 
 33 H        3.6370     3.3470    -0.4670 H     1 <1>   0.0800 
 34 H        5.6520     1.9200    -0.4930 H     1 <1>   0.0800 
 35 H        5.5870     0.8400    -1.8500 H     1 <1>   0.0800 
 36 H       -1.6400    -0.5670    -2.1320 H     1 <1>   0.1500 
 37 H       -2.4270    -1.4540     0.2180 H     1 <1>   0.1500 
 38 H        7.6060     0.4420     0.3290 H     1 <1>   0.0800 
 39 H        7.3590    -0.5740    -1.0770 H     1 <1>   0.0800 
 40 H        7.3050    -1.2720     0.5270 H     1 <1>   0.0800 
@<TRIPOS>BOND
  1   1   2  2   
  2   2   3  am  
  3   2   4  1   
  4   3   5  1   
  5   3   6  1   
  6   4   7  1   
  7   4  20  1   
  8   4  21  1   
  9   5   8  1   
 10   5   9  1   
 11   5  22  1   
 12   6  10  1   
 13   6  23  1   
 14   6  24  1   
 15   7  11  1   
 16   7  12  1   
 17   8  13  1   
 18   8  25  1   
 19   8  26  1   
 20   9  14  1   
 21   9  27  1   
 22   9  28  1   
 23  10  15  1   
 24  10  16  1   
 25  10  29  1   
 26  11  17  2   
 27  12  18  2   
 28  12  30  1   
 29  13  15  1   
 30  14  16  1   
 31  14  19  1   
 32  14  31  1   
 33  15  32  1   
 34  15  33  1   
 35  16  34  1   
 36  16  35  1   
 37  17  18  1   
 38  17  36  1   
 39  18  37  1   
 40  19  38  1   
 41  19  39  1   
 42  19  40  1   
@<TRIPOS>SUBSTRUCTURE
  1 ****   3 GROUP 4 **** **** 0

# MOE 2024.06 (io_trps.svl 2023.06)
