@<TRIPOS>MOLECULE
NONAME
47 50 1 0 0 
SMALL
USER_CHARGES


@<TRIPOS>ATOM
  1 F       -0.3860    -1.2550     1.0100 F     1 <1>  -0.3400 
  2 C       -1.6220    -1.0780     0.5710 C.3   1 <1>   0.2600 
  3 C       -2.5410    -0.9960     1.7900 C.3   1 <1>  -0.1600 
  4 C       -1.9620    -2.2590    -0.3380 C.3   1 <1>  -0.1600 
  5 C       -4.0050    -0.9620     1.3460 C.3   1 <1>   0.1400 
  6 C       -3.4340    -2.2040    -0.7510 C.3   1 <1>   0.1400 
  7 N       -4.2870    -2.1380     0.4710 N.am  1 <1>  -0.6600 
  8 C       -5.1710    -3.1190     0.8660 C.2   1 <1>   0.5690 
  9 O       -5.7180    -3.0590     1.9470 O.2   1 <1>  -0.5700 
 10 C       -5.5060    -4.3080    -0.0540 C.3   1 <1>   0.2610 
 11 O       -4.4210    -5.2120    -0.1240 O.3   1 <1>  -0.5600 
 12 C       -6.8100    -5.0260     0.3800 C.3   1 <1>   0.3640 
 13 C       -4.5930    -6.2450    -1.0620 C.3   1 <1>   0.1810 
 14 N       -6.9330    -6.4120    -0.1780 N.am  1 <1>  -0.5090 
 15 C       -8.0100    -4.1810    -0.0480 C.ar  1 <1>  -0.1440 
 16 C       -5.9270    -6.9780    -0.9170 C.2   1 <1>   0.5690 
 17 C       -8.2000    -7.1240     0.1250 C.3   1 <1>   0.0490 
 18 C       -8.6650    -3.3890     0.8860 C.ar  1 <1>   0.1600 
 19 C       -8.4640    -4.1700    -1.3560 C.ar  1 <1>  -0.1500 
 20 O       -6.0490    -8.0310    -1.4980 O.2   1 <1>  -0.5700 
 21 C       -8.5880    -7.3300     1.5570 C.3   1 <1>  -0.2000 
 22 C       -8.1500    -8.4930     0.7270 C.3   1 <1>  -0.2000 
 23 N       -9.7050    -2.6130     0.6260 N.ar  1 <1>  -0.6200 
 24 C       -9.5460    -3.3670    -1.6410 C.ar  1 <1>  -0.1500 
 25 C      -10.1210    -2.6200    -0.6280 C.ar  1 <1>   0.1600 
 26 H       -1.6210    -0.1520     0.0220 H     1 <1>   0.0800 
 27 H       -2.3930    -1.8560     2.4190 H     1 <1>   0.0800 
 28 H       -2.3180    -0.1100     2.3550 H     1 <1>   0.0800 
 29 H       -1.3420    -2.2310    -1.2160 H     1 <1>   0.0800 
 30 H       -1.7850    -3.1840     0.1830 H     1 <1>   0.0800 
 31 H       -4.2040    -0.0580     0.7960 H     1 <1>   0.0800 
 32 H       -4.6420    -0.9630     2.2140 H     1 <1>   0.0800 
 33 H       -3.6620    -3.0680    -1.3480 H     1 <1>   0.0800 
 34 H       -3.6140    -1.3290    -1.3520 H     1 <1>   0.0800 
 35 H       -5.6580    -3.9140    -1.0420 H     1 <1>   0.0800 
 36 H       -6.8090    -5.1210     1.4510 H     1 <1>   0.0800 
 37 H       -4.5190    -5.8270    -2.0490 H     1 <1>   0.0800 
 38 H       -3.7900    -6.9460    -0.9230 H     1 <1>   0.0800 
 39 H       -8.9750    -6.9170    -0.5940 H     1 <1>   0.1000 
 40 H       -8.3130    -3.3860     1.9050 H     1 <1>   0.1500 
 41 H       -8.0030    -4.7670    -2.1250 H     1 <1>   0.1500 
 42 H       -7.9340    -7.0080     2.3480 H     1 <1>   0.1000 
 43 H       -9.6270    -7.2590     1.8240 H     1 <1>   0.1000 
 44 H       -8.8860    -9.2140     0.4190 H     1 <1>   0.1000 
 45 H       -7.1870    -8.9380     0.9080 H     1 <1>   0.1000 
 46 H       -9.9460    -3.3190    -2.6380 H     1 <1>   0.1500 
 47 H      -10.9680    -1.9960    -0.8610 H     1 <1>   0.1500 
@<TRIPOS>BOND
  1   1   2  1   
  2   2   3  1   
  3   2   4  1   
  4   2  26  1   
  5   3   5  1   
  6   3  27  1   
  7   3  28  1   
  8   4   6  1   
  9   4  29  1   
 10   4  30  1   
 11   5   7  1   
 12   5  31  1   
 13   5  32  1   
 14   6   7  1   
 15   6  33  1   
 16   6  34  1   
 17   7   8  am  
 18   8   9  2   
 19   8  10  1   
 20  10  11  1   
 21  10  12  1   
 22  10  35  1   
 23  11  13  1   
 24  12  14  1   
 25  12  15  1   
 26  12  36  1   
 27  13  16  1   
 28  13  37  1   
 29  13  38  1   
 30  14  16  am  
 31  14  17  1   
 32  15  18  ar  
 33  15  19  ar  
 34  16  20  2   
 35  17  21  1   
 36  17  22  1   
 37  17  39  1   
 38  18  23  ar  
 39  18  40  1   
 40  19  24  ar  
 41  19  41  1   
 42  21  22  1   
 43  21  42  1   
 44  21  43  1   
 45  22  44  1   
 46  22  45  1   
 47  23  25  ar  
 48  24  25  ar  
 49  24  46  1   
 50  25  47  1   
@<TRIPOS>SUBSTRUCTURE
  1 ****  10 GROUP 4 **** **** 0

# MOE 2024.06 (io_trps.svl 2023.06)
