@<TRIPOS>MOLECULE
NONAME
50 51 1 0 0 
SMALL
USER_CHARGES


@<TRIPOS>ATOM
  1 S        0.8040     0.0460     0.0210 S.o2  1 <1>   1.3330 
  2 O        1.0990    -0.4700     1.3390 O.2   1 <1>  -0.6500 
  3 O        0.7210    -0.8660    -1.0980 O.2   1 <1>  -0.6500 
  4 N       -0.6530     0.9110     0.1160 N.am  1 <1>  -0.8490 
  5 C        2.0030     1.3100    -0.3910 C.3   1 <1>  -0.0550 
  6 C       -0.8560     1.5760     1.4070 C.3   1 <1>   0.1160 
  7 C       -1.8160     0.0790    -0.2070 C.3   1 <1>   0.1160 
  8 C        3.4100     0.7410    -0.6640 C.3   1 <1>  -0.0800 
  9 C        4.4430     1.7620    -1.1150 C.3   1 <1>   0.2200 
 10 C        4.0850     0.0800     0.5450 C.3   1 <1>   0.1200 
 11 N        4.3460     3.0050    -0.3140 N.am  1 <1>  -0.7300 
 12 C        5.7260     1.0390    -0.7330 C.3   1 <1>   0.1200 
 13 O        5.4390     0.4290     0.4870 O.3   1 <1>  -0.5600 
 14 C        3.7890     4.1620    -0.7420 C.2   1 <1>   0.5690 
 15 O        3.2180     4.2390    -1.8000 O.2   1 <1>  -0.5700 
 16 C        3.8800     5.3850     0.1470 C.3   1 <1>  -0.0990 
 17 C        5.2880     6.0010     0.1250 C.3   1 <1>  -0.1600 
 18 C        5.3700     7.2700     0.9820 C.3   1 <1>  -0.0170 
 19 C        6.7800     7.8370     0.9460 C.ar  1 <1>  -0.1440 
 20 C        7.1540     8.6990    -0.0770 C.ar  1 <1>  -0.1500 
 21 C        7.6960     7.4900     1.9310 C.ar  1 <1>  -0.1500 
 22 C        8.4380     9.2160    -0.1210 C.ar  1 <1>  -0.1500 
 23 C        8.9830     8.0010     1.8990 C.ar  1 <1>  -0.1500 
 24 C        9.3290     8.8560     0.8700 C.ar  1 <1>   0.1900 
 25 F       10.5420     9.3390     0.8340 F     1 <1>  -0.1900 
 26 H        1.6700     1.8300    -1.2690 H     1 <1>   0.0800 
 27 H        2.0500     2.0220     0.4090 H     1 <1>   0.0800 
 28 H       -1.7480     2.1770     1.3770 H     1 <1>   0.0800 
 29 H       -0.0210     2.2180     1.6290 H     1 <1>   0.0800 
 30 H       -0.9510     0.8460     2.1960 H     1 <1>   0.0800 
 31 H       -2.7190     0.6620    -0.1550 H     1 <1>   0.0800 
 32 H       -1.8860    -0.7490     0.4800 H     1 <1>   0.0800 
 33 H       -1.7240    -0.3090    -1.2080 H     1 <1>   0.0800 
 34 H        3.3250    -0.0060    -1.4360 H     1 <1>   0.0800 
 35 H        4.3870     1.9790    -2.1690 H     1 <1>   0.0800 
 36 H        3.9970    -0.9930     0.5160 H     1 <1>   0.0800 
 37 H        3.6930     0.4490     1.4780 H     1 <1>   0.0800 
 38 H        4.8080     2.9460     0.5960 H     1 <1>   0.3700 
 39 H        6.5650     1.7020    -0.6230 H     1 <1>   0.0800 
 40 H        5.9580     0.2660    -1.4450 H     1 <1>   0.0800 
 41 H        3.1640     6.1090    -0.2010 H     1 <1>   0.0800 
 42 H        3.6110     5.1080     1.1500 H     1 <1>   0.0800 
 43 H        6.0040     5.2830     0.4870 H     1 <1>   0.0800 
 44 H        5.5510     6.2430    -0.8910 H     1 <1>   0.0800 
 45 H        5.0960     7.0460     1.9980 H     1 <1>   0.0800 
 46 H        4.6780     8.0070     0.6120 H     1 <1>   0.0800 
 47 H        6.4480     8.9680    -0.8440 H     1 <1>   0.1500 
 48 H        7.4130     6.8220     2.7250 H     1 <1>   0.1500 
 49 H        8.7440     9.8840    -0.9060 H     1 <1>   0.1500 
 50 H        9.7050     7.7440     2.6520 H     1 <1>   0.1500 
@<TRIPOS>BOND
  1   1   2  2   
  2   1   3  2   
  3   1   4  am  
  4   1   5  1   
  5   4   6  1   
  6   4   7  1   
  7   5   8  1   
  8   5  26  1   
  9   5  27  1   
 10   6  28  1   
 11   6  29  1   
 12   6  30  1   
 13   7  31  1   
 14   7  32  1   
 15   7  33  1   
 16   8   9  1   
 17   8  10  1   
 18   8  34  1   
 19   9  11  1   
 20   9  12  1   
 21   9  35  1   
 22  10  13  1   
 23  10  36  1   
 24  10  37  1   
 25  11  14  am  
 26  11  38  1   
 27  12  13  1   
 28  12  39  1   
 29  12  40  1   
 30  14  15  2   
 31  14  16  1   
 32  16  17  1   
 33  16  41  1   
 34  16  42  1   
 35  17  18  1   
 36  17  43  1   
 37  17  44  1   
 38  18  19  1   
 39  18  45  1   
 40  18  46  1   
 41  19  20  ar  
 42  19  21  ar  
 43  20  22  ar  
 44  20  47  1   
 45  21  23  ar  
 46  21  48  1   
 47  22  24  ar  
 48  22  49  1   
 49  23  24  ar  
 50  23  50  1   
 51  24  25  1   
@<TRIPOS>SUBSTRUCTURE
  1 ****  11 GROUP 4 **** **** 0

# MOE 2024.06 (io_trps.svl 2023.06)
