@<TRIPOS>MOLECULE
NONAME
44 46 1 0 0 
SMALL
USER_CHARGES


@<TRIPOS>ATOM
  1 F       -0.8290    -1.3260    -1.7210 F     1 <1>  -0.1900 
  2 C       -1.9480    -1.6060    -1.1050 C.ar  1 <1>   0.1900 
  3 C       -3.1360    -1.5120    -1.7750 C.ar  1 <1>  -0.1500 
  4 C       -1.8810    -1.9970     0.2270 C.ar  1 <1>  -0.1500 
  5 C       -4.3360    -1.8120    -1.1130 C.ar  1 <1>  -0.1710 
  6 C       -3.0590    -2.2880     0.8820 C.ar  1 <1>  -0.1500 
  7 O       -5.3930    -1.7280    -1.7790 O.3   1 <1>  -0.8290 
  8 C       -4.3150    -2.1990     0.2620 C.ar  1 <1>   0.0860 
  9 C       -5.4820    -2.5200     1.0490 C.2   1 <1>   0.5440 
 10 O       -5.4860    -3.5640     1.7010 O.2   1 <1>  -0.5700 
 11 N       -6.5820    -1.6850     1.2250 N.am  1 <1>  -0.6600 
 12 C       -6.6430    -0.3160     0.6350 C.3   1 <1>   0.1400 
 13 C       -7.8780    -2.2920     1.6340 C.3   1 <1>   0.1400 
 14 C       -7.8490    -0.2390    -0.2970 C.3   1 <1>  -0.1600 
 15 C       -8.9830    -1.2390     1.7540 C.3   1 <1>  -0.1600 
 16 C       -9.1880    -0.4310     0.4520 C.3   1 <1>   0.2800 
 17 O       -9.6580     0.8260     0.8850 O.3   1 <1>  -0.5600 
 18 C      -10.2440    -1.1080    -0.4620 C.3   1 <1>  -0.1600 
 19 C      -10.2940     1.6440    -0.0580 C.3   1 <1>   0.1200 
 20 C      -11.6460    -0.5120    -0.3030 C.3   1 <1>   0.2800 
 21 C      -11.5920     0.9950    -0.5660 C.3   1 <1>  -0.1600 
 22 O      -12.0340    -0.6740     1.0000 O.3   1 <1>  -0.6800 
 23 C      -12.6880    -1.2190    -1.1660 C.3   1 <1>  -0.2400 
 24 H       -3.1870    -1.2170    -2.8050 H     1 <1>   0.1500 
 25 H       -0.9280    -2.0680     0.7150 H     1 <1>   0.1500 
 26 H       -3.0310    -2.6000     1.9110 H     1 <1>   0.1500 
 27 H       -5.7480    -0.0900     0.0840 H     1 <1>   0.0800 
 28 H       -6.7370     0.4090     1.4230 H     1 <1>   0.0800 
 29 H       -7.7470    -2.7920     2.5780 H     1 <1>   0.0800 
 30 H       -8.1520    -3.0300     0.8990 H     1 <1>   0.0800 
 31 H       -7.7170    -1.0240    -1.0200 H     1 <1>   0.0800 
 32 H       -7.8180     0.6850    -0.8370 H     1 <1>   0.0800 
 33 H       -8.7060    -0.5750     2.5540 H     1 <1>   0.0800 
 34 H       -9.8920    -1.7320     2.0440 H     1 <1>   0.0800 
 35 H      -10.2640    -2.1690    -0.2930 H     1 <1>   0.0800 
 36 H       -9.9520    -0.9790    -1.4890 H     1 <1>   0.0800 
 37 H       -9.6170     1.8240    -0.8740 H     1 <1>   0.0800 
 38 H      -10.5080     2.5850     0.4170 H     1 <1>   0.0800 
 39 H      -11.6470     1.1740    -1.6240 H     1 <1>   0.0800 
 40 H      -12.4460     1.4770    -0.1250 H     1 <1>   0.0800 
 41 H      -11.3720    -0.1890     1.5390 H     1 <1>   0.4000 
 42 H      -12.4300    -1.1310    -2.2050 H     1 <1>   0.0800 
 43 H      -13.6570    -0.7780    -1.0130 H     1 <1>   0.0800 
 44 H      -12.7320    -2.2620    -0.9130 H     1 <1>   0.0800 
@<TRIPOS>BOND
  1   1   2  1   
  2   2   3  ar  
  3   2   4  ar  
  4   3   5  ar  
  5   3  24  1   
  6   4   6  ar  
  7   4  25  1   
  8   5   7  1   
  9   5   8  ar  
 10   6   8  ar  
 11   6  26  1   
 12   8   9  1   
 13   9  10  2   
 14   9  11  am  
 15  11  12  1   
 16  11  13  1   
 17  12  14  1   
 18  12  27  1   
 19  12  28  1   
 20  13  15  1   
 21  13  29  1   
 22  13  30  1   
 23  14  16  1   
 24  14  31  1   
 25  14  32  1   
 26  15  16  1   
 27  15  33  1   
 28  15  34  1   
 29  16  17  1   
 30  16  18  1   
 31  17  19  1   
 32  18  20  1   
 33  18  35  1   
 34  18  36  1   
 35  19  21  1   
 36  19  37  1   
 37  19  38  1   
 38  20  21  1   
 39  20  22  1   
 40  20  23  1   
 41  21  39  1   
 42  21  40  1   
 43  22  41  1   
 44  23  42  1   
 45  23  43  1   
 46  23  44  1   
@<TRIPOS>SUBSTRUCTURE
  1 ****  12 GROUP 4 **** **** 0

# MOE 2024.06 (io_trps.svl 2023.06)
