@<TRIPOS>MOLECULE
NONAME
52 54 1 0 0 
SMALL
USER_CHARGES


@<TRIPOS>ATOM
  1 O       -2.1850     0.2120     2.4400 O.2   1 <1>  -0.5700 
  2 C       -2.1850     0.6310     1.2980 C.2   1 <1>   0.5440 
  3 N       -2.3100    -0.2590     0.2540 N.am  1 <1>  -0.6600 
  4 C       -2.1190     2.0550     1.0810 C.ar  1 <1>   0.0860 
  5 C       -2.3110    -1.7450     0.4890 C.3   1 <1>   0.3640 
  6 C       -2.5600     0.1900    -1.1520 C.3   1 <1>   0.1400 
  7 C       -1.0250     2.6630     0.4530 C.ar  1 <1>   0.3920 
  8 C       -3.1550     2.8770     1.5010 C.ar  1 <1>  -0.1500 
  9 C       -0.9440    -2.3820     0.1790 C.ar  1 <1>  -0.1440 
 10 C       -3.4560    -2.4470    -0.3130 C.3   1 <1>   0.2000 
 11 C       -2.8820    -0.9810    -2.0910 C.3   1 <1>   0.1200 
 12 O        0.0020     1.8760     0.0690 O.3   1 <1>  -0.3630 
 13 N       -0.9230     3.9690     0.2010 N.ar  1 <1>  -0.6200 
 14 C       -3.0540     4.2280     1.2570 C.ar  1 <1>  -0.1500 
 15 C       -0.7550    -3.7170     0.5170 C.ar  1 <1>  -0.1500 
 16 C        0.1170    -1.6960    -0.4050 C.ar  1 <1>  -0.1500 
 17 O       -3.8480    -1.7920    -1.5010 O.3   1 <1>  -0.5600 
 18 C       -4.7200    -2.5940     0.5420 C.3   1 <1>   0.1200 
 19 C        1.1920     2.4070    -0.4810 C.3   1 <1>   0.0400 
 20 C       -1.9330     4.7150     0.6100 C.ar  1 <1>   0.1600 
 21 C        0.4390    -4.3660     0.2570 C.ar  1 <1>   0.0830 
 22 C        1.3240    -2.3280    -0.6520 C.ar  1 <1>  -0.1500 
 23 O       -4.5370    -3.5830     1.5060 O.3   1 <1>  -0.6800 
 24 O        0.5130    -5.6820     0.5730 O.3   1 <1>  -0.3630 
 25 C        1.5010    -3.6570    -0.3140 C.ar  1 <1>   0.0830 
 26 C        0.7060    -6.5790    -0.4990 C.3   1 <1>   0.0400 
 27 O        2.7180    -4.2060    -0.5460 O.3   1 <1>  -0.3630 
 28 C        3.4640    -4.5620     0.5980 C.3   1 <1>   0.0400 
 29 H       -2.4890    -1.9370     1.5330 H     1 <1>   0.0800 
 30 H       -3.3900     0.8750    -1.1600 H     1 <1>   0.0800 
 31 H       -1.6970     0.7110    -1.5270 H     1 <1>   0.0800 
 32 H       -4.0080     2.4570     2.0070 H     1 <1>   0.1500 
 33 H       -3.1380    -3.4300    -0.6080 H     1 <1>   0.0800 
 34 H       -2.0070    -1.5720    -2.2990 H     1 <1>   0.0800 
 35 H       -3.2780    -0.6140    -3.0210 H     1 <1>   0.0800 
 36 H       -3.8350     4.9010     1.5660 H     1 <1>   0.1500 
 37 H       -1.5430    -4.2760     0.9910 H     1 <1>   0.1500 
 38 H        0.0280    -0.6580    -0.6640 H     1 <1>   0.1500 
 39 H       -5.5610    -2.8750    -0.0680 H     1 <1>   0.0800 
 40 H       -4.9350    -1.6690     1.0500 H     1 <1>   0.0800 
 41 H        1.8660     1.5940    -0.6770 H     1 <1>   0.0800 
 42 H        1.6290     3.0870     0.2290 H     1 <1>   0.0800 
 43 H        0.9540     2.9220    -1.3950 H     1 <1>   0.0800 
 44 H       -1.8640     5.7740     0.4220 H     1 <1>   0.1500 
 45 H        2.1380    -1.7880    -1.0990 H     1 <1>   0.1500 
 46 H       -4.6160    -4.4730     1.1100 H     1 <1>   0.4000 
 47 H        0.5990    -7.5800    -0.1230 H     1 <1>   0.0800 
 48 H        1.6920    -6.4440    -0.9050 H     1 <1>   0.0800 
 49 H       -0.0380    -6.3850    -1.2520 H     1 <1>   0.0800 
 50 H        4.4340    -4.8950     0.2770 H     1 <1>   0.0800 
 51 H        2.9580    -5.3540     1.1210 H     1 <1>   0.0800 
 52 H        3.5600    -3.6980     1.2320 H     1 <1>   0.0800 
@<TRIPOS>BOND
  1   1   2  2   
  2   2   3  am  
  3   2   4  1   
  4   3   5  1   
  5   3   6  1   
  6   4   7  ar  
  7   4   8  ar  
  8   5   9  1   
  9   5  10  1   
 10   5  29  1   
 11   6  11  1   
 12   6  30  1   
 13   6  31  1   
 14   7  12  1   
 15   7  13  ar  
 16   8  14  ar  
 17   8  32  1   
 18   9  15  ar  
 19   9  16  ar  
 20  10  17  1   
 21  10  18  1   
 22  10  33  1   
 23  11  17  1   
 24  11  34  1   
 25  11  35  1   
 26  12  19  1   
 27  13  20  ar  
 28  14  20  ar  
 29  14  36  1   
 30  15  21  ar  
 31  15  37  1   
 32  16  22  ar  
 33  16  38  1   
 34  18  23  1   
 35  18  39  1   
 36  18  40  1   
 37  19  41  1   
 38  19  42  1   
 39  19  43  1   
 40  20  44  1   
 41  21  24  1   
 42  21  25  ar  
 43  22  25  ar  
 44  22  45  1   
 45  23  46  1   
 46  24  26  1   
 47  25  27  1   
 48  26  47  1   
 49  26  48  1   
 50  26  49  1   
 51  27  28  1   
 52  28  50  1   
 53  28  51  1   
 54  28  52  1   
@<TRIPOS>SUBSTRUCTURE
  1 ****   3 GROUP 4 **** **** 0

# MOE 2024.06 (io_trps.svl 2023.06)
