@<TRIPOS>MOLECULE
NONAME
50 52 1 0 0 
SMALL
USER_CHARGES


@<TRIPOS>ATOM
  1 O       -0.4810     0.3610     0.4710 O.2   1 <1>  -0.5700 
  2 C       -1.5730     0.8700     0.3540 C.2   1 <1>   0.5690 
  3 N       -2.6880     0.1350     0.0590 N.am  1 <1>  -0.6600 
  4 C       -1.6410     2.3960     0.5320 C.3   1 <1>   0.4040 
  5 C       -4.0890     0.6220    -0.0440 C.3   1 <1>   0.1400 
  6 C       -2.6380    -1.3380    -0.1320 C.3   1 <1>   0.1400 
  7 N       -0.3250     3.0780     0.2290 N.4   1 <1>  -0.9590 
  8 C       -4.9220    -0.6200    -0.3710 C.3   1 <1>   0.2000 
  9 C       -4.0790    -1.8180     0.0590 C.3   1 <1>  -0.0800 
 10 C       -0.2120     4.4100     0.8940 C.3   1 <1>   0.4230 
 11 C       -0.0250     3.0370    -1.2390 C.3   1 <1>   0.2630 
 12 O       -6.1260    -0.6120     0.3120 O.3   1 <1>  -0.6800 
 13 C       -4.4270    -3.0980    -0.7230 C.3   1 <1>  -0.0170 
 14 C       -1.0800     5.4810     0.2290 C.3   1 <1>  -0.1600 
 15 C        1.2100     4.9590     0.7900 C.3   1 <1>  -0.1600 
 16 C       -3.5940    -4.2870    -0.2710 C.ar  1 <1>   0.1670 
 17 C       -0.2000     6.2060    -0.7970 C.3   1 <1>  -0.1600 
 18 C        1.2530     5.9030    -0.4190 C.3   1 <1>  -0.1600 
 19 N       -2.3530    -4.3450    -0.7270 N.ar  1 <1>  -0.6200 
 20 C       -4.1460    -5.2440     0.5800 C.ar  1 <1>   0.1600 
 21 C       -1.7060    -5.4080    -0.2780 C.ar  1 <1>   0.1600 
 22 N       -3.5000    -6.3070     1.0310 N.ar  1 <1>  -0.6200 
 23 C       -2.2610    -6.3570     0.5720 C.ar  1 <1>   0.1600 
 24 H       -1.9160     2.5870     1.5550 H     1 <1>   0.0800 
 25 H       -2.4120     2.7910    -0.1040 H     1 <1>   0.0800 
 26 H       -4.3970     1.0440     0.8970 H     1 <1>   0.0800 
 27 H       -4.1840     1.3480    -0.8320 H     1 <1>   0.0800 
 28 H       -2.2930    -1.5530    -1.1300 H     1 <1>   0.0800 
 29 H       -1.9720    -1.8040     0.5760 H     1 <1>   0.0800 
 30 H        0.3750     2.4540     0.6690 H     1 <1>   0.4500 
 31 H       -5.1330    -0.6470    -1.4270 H     1 <1>   0.0800 
 32 H       -4.2150    -1.9970     1.1120 H     1 <1>   0.0800 
 33 H       -0.4820     4.3080     1.9330 H     1 <1>   0.0800 
 34 H       -0.7410     3.6250    -1.7870 H     1 <1>   0.0800 
 35 H       -0.0600     2.0200    -1.5980 H     1 <1>   0.0800 
 36 H        0.9620     3.4260    -1.4290 H     1 <1>   0.0800 
 37 H       -5.9890    -0.7370     1.2710 H     1 <1>   0.4000 
 38 H       -4.2650    -2.9430    -1.7760 H     1 <1>   0.0800 
 39 H       -5.4710    -3.3190    -0.5890 H     1 <1>   0.0800 
 40 H       -1.9830     5.0950    -0.2070 H     1 <1>   0.0800 
 41 H       -1.3550     6.1940     0.9870 H     1 <1>   0.0800 
 42 H        1.4010     5.5430     1.6740 H     1 <1>   0.0800 
 43 H        1.9570     4.1860     0.7360 H     1 <1>   0.0800 
 44 H       -0.4040     5.8480    -1.7910 H     1 <1>   0.0800 
 45 H       -0.3900     7.2670    -0.7790 H     1 <1>   0.0800 
 46 H        1.7790     6.8100    -0.1670 H     1 <1>   0.0800 
 47 H        1.7640     5.4410    -1.2460 H     1 <1>   0.0800 
 48 H       -5.1640    -5.1270     0.9030 H     1 <1>   0.1500 
 49 H       -0.6880    -5.5360    -0.5990 H     1 <1>   0.1500 
 50 H       -1.6550    -7.1880     0.8840 H     1 <1>   0.1500 
@<TRIPOS>BOND
  1   1   2  2   
  2   2   3  am  
  3   2   4  1   
  4   3   5  1   
  5   3   6  1   
  6   4   7  1   
  7   4  24  1   
  8   4  25  1   
  9   5   8  1   
 10   5  26  1   
 11   5  27  1   
 12   6   9  1   
 13   6  28  1   
 14   6  29  1   
 15   7  10  1   
 16   7  11  1   
 17   7  30  1   
 18   8   9  1   
 19   8  12  1   
 20   8  31  1   
 21   9  13  1   
 22   9  32  1   
 23  10  14  1   
 24  10  15  1   
 25  10  33  1   
 26  11  34  1   
 27  11  35  1   
 28  11  36  1   
 29  12  37  1   
 30  13  16  1   
 31  13  38  1   
 32  13  39  1   
 33  14  17  1   
 34  14  40  1   
 35  14  41  1   
 36  15  18  1   
 37  15  42  1   
 38  15  43  1   
 39  16  19  ar  
 40  16  20  ar  
 41  17  18  1   
 42  17  44  1   
 43  17  45  1   
 44  18  46  1   
 45  18  47  1   
 46  19  21  ar  
 47  20  22  ar  
 48  20  48  1   
 49  21  23  ar  
 50  21  49  1   
 51  22  23  ar  
 52  23  50  1   
@<TRIPOS>SUBSTRUCTURE
  1 ****   3 GROUP 4 **** **** 0

# MOE 2024.06 (io_trps.svl 2023.06)
