@<TRIPOS>MOLECULE
NONAME
41 42 1 0 0 
SMALL
USER_CHARGES


@<TRIPOS>ATOM
  1 O       -0.2530     1.0610     1.1210 O.2   1 <1>  -0.5700 
  2 C       -0.2520     2.2370     0.8620 C.2   1 <1>   0.5690 
  3 N       -1.2370     3.0450     1.3070 N.am  1 <1>  -0.7300 
  4 C        0.8480     2.8340    -0.0130 C.3   1 <1>   0.1810 
  5 C       -1.3680     4.4760     0.9320 C.3   1 <1>   0.3640 
  6 O        0.9900     4.2220     0.1890 O.3   1 <1>  -0.5600 
  7 C       -2.7250     4.6570     0.2520 C.ar  1 <1>  -0.1440 
  8 C       -0.2080     4.9810     0.0230 C.3   1 <1>   0.2610 
  9 C       -3.5390     5.7230     0.6060 C.ar  1 <1>  -0.1500 
 10 C       -3.1670     3.7730    -0.7260 C.ar  1 <1>  -0.1500 
 11 C        0.0690     6.4650     0.3040 C.2   1 <1>   0.5690 
 12 C       -4.7710     5.9020     0.0010 C.ar  1 <1>  -0.1500 
 13 C       -4.3990     3.9500    -1.3320 C.ar  1 <1>  -0.1500 
 14 O       -0.8400     7.2600     0.2890 O.2   1 <1>  -0.5700 
 15 N        1.3440     6.8570     0.5740 N.am  1 <1>  -0.7300 
 16 C       -5.2020     5.0150    -0.9680 C.ar  1 <1>  -0.1500 
 17 C        1.7920     8.2320     0.8740 C.3   1 <1>   0.1400 
 18 C        2.7950     8.6750    -0.1920 C.3   1 <1>  -0.1600 
 19 C        3.2730    10.1130     0.0630 C.3   1 <1>  -0.1600 
 20 C        4.2730    10.5590    -1.0030 C.3   1 <1>   0.1200 
 21 O        4.6740    11.8470    -0.7090 O.3   1 <1>  -0.6800 
 22 H       -2.0090     2.6330     1.8330 H     1 <1>   0.3700 
 23 H        0.6230     2.6580    -1.0490 H     1 <1>   0.0800 
 24 H        1.7860     2.3680     0.2270 H     1 <1>   0.0800 
 25 H       -1.3580     5.0510     1.8420 H     1 <1>   0.0800 
 26 H       -0.5020     4.8930    -1.0070 H     1 <1>   0.0800 
 27 H       -3.2170     6.4300     1.3520 H     1 <1>   0.1500 
 28 H       -2.5590     2.9350    -1.0230 H     1 <1>   0.1500 
 29 H       -5.3910     6.7350     0.2830 H     1 <1>   0.1500 
 30 H       -4.7330     3.2580    -2.0860 H     1 <1>   0.1500 
 31 H        2.0600     6.1220     0.5830 H     1 <1>   0.3700 
 32 H       -6.1600     5.1550    -1.4390 H     1 <1>   0.1500 
 33 H        0.9450     8.8990     0.8810 H     1 <1>   0.0800 
 34 H        2.2480     8.2520     1.8490 H     1 <1>   0.0800 
 35 H        3.6410     8.0110    -0.1830 H     1 <1>   0.0800 
 36 H        2.3230     8.6230    -1.1580 H     1 <1>   0.0800 
 37 H        3.7450    10.1650     1.0290 H     1 <1>   0.0800 
 38 H        2.4230    10.7730     0.0540 H     1 <1>   0.0800 
 39 H        3.8320    10.5560    -1.9850 H     1 <1>   0.0800 
 40 H        5.1490     9.9310    -1.0010 H     1 <1>   0.0800 
 41 H        3.9080    12.4520    -0.7070 H     1 <1>   0.4000 
@<TRIPOS>BOND
  1   1   2  2   
  2   2   3  am  
  3   2   4  1   
  4   3   5  1   
  5   3  22  1   
  6   4   6  1   
  7   4  23  1   
  8   4  24  1   
  9   5   7  1   
 10   5   8  1   
 11   5  25  1   
 12   6   8  1   
 13   7   9  ar  
 14   7  10  ar  
 15   8  11  1   
 16   8  26  1   
 17   9  12  ar  
 18   9  27  1   
 19  10  13  ar  
 20  10  28  1   
 21  11  14  2   
 22  11  15  am  
 23  12  16  ar  
 24  12  29  1   
 25  13  16  ar  
 26  13  30  1   
 27  15  17  1   
 28  15  31  1   
 29  16  32  1   
 30  17  18  1   
 31  17  33  1   
 32  17  34  1   
 33  18  19  1   
 34  18  35  1   
 35  18  36  1   
 36  19  20  1   
 37  19  37  1   
 38  19  38  1   
 39  20  21  1   
 40  20  39  1   
 41  20  40  1   
 42  21  41  1   
@<TRIPOS>SUBSTRUCTURE
  1 ****  11 GROUP 4 **** **** 0

# MOE 2024.06 (io_trps.svl 2023.06)
