@<TRIPOS>MOLECULE
NONAME
56 58 1 0 0 
SMALL
USER_CHARGES


@<TRIPOS>ATOM
  1 O        0.0840     1.2870     0.2440 O.2   1 <1>  -0.5700 
  2 C       -0.0190     2.4870     0.2310 C.2   1 <1>   0.5690 
  3 N       -1.1570     3.0900     0.6320 N.am  1 <1>  -0.7300 
  4 C        1.1300     3.3540    -0.2800 C.3   1 <1>   0.1810 
  5 C       -1.4000     4.5520     0.5310 C.3   1 <1>   0.3640 
  6 O        1.0610     4.6720     0.2150 O.3   1 <1>  -0.5600 
  7 C       -2.6360     4.7570    -0.3450 C.ar  1 <1>  -0.1440 
  8 C       -0.1780     5.3410    -0.0230 C.3   1 <1>   0.2610 
  9 C       -3.6310     5.6380     0.0570 C.ar  1 <1>  -0.1500 
 10 C       -2.7890     4.0780    -1.5490 C.ar  1 <1>  -0.1500 
 11 C       -0.1370     6.7490     0.5880 C.2   1 <1>   0.5690 
 12 C       -4.7560     5.8360    -0.7250 C.ar  1 <1>  -0.1500 
 13 C       -3.9140     4.2750    -2.3310 C.ar  1 <1>  -0.1500 
 14 O       -1.1400     7.4230     0.6190 O.2   1 <1>  -0.5700 
 15 N        1.0380     7.2120     1.0950 N.am  1 <1>  -0.7300 
 16 C       -4.8990     5.1540    -1.9190 C.ar  1 <1>  -0.1500 
 17 C        1.2670     8.5390     1.6990 C.3   1 <1>   0.1400 
 18 C        2.4440     9.2120     0.9950 C.3   1 <1>  -0.1600 
 19 C        2.7040    10.6110     1.5630 C.3   1 <1>  -0.0170 
 20 C        3.8870    11.2570     0.8610 C.ar  1 <1>  -0.1430 
 21 C        5.1660    11.1310     1.3760 C.ar  1 <1>  -0.1500 
 22 C        3.6990    11.9790    -0.3070 C.ar  1 <1>  -0.1500 
 23 C        6.2420    11.7190     0.7330 C.ar  1 <1>  -0.1500 
 24 C        4.7750    12.5670    -0.9490 C.ar  1 <1>  -0.1500 
 25 C        6.0580    12.4430    -0.4360 C.ar  1 <1>  -0.1430 
 26 C        7.2340    13.0970    -1.1590 C.3   1 <1>   0.0630 
 27 C        8.2430    12.0420    -1.6240 C.3   1 <1>  -0.2400 
 28 C        7.9110    14.1430    -0.2680 C.3   1 <1>  -0.2400 
 29 H       -1.9490     2.5080     0.9080 H     1 <1>   0.3700 
 30 H        1.1100     3.3880    -1.3540 H     1 <1>   0.0800 
 31 H        2.0650     2.9310     0.0390 H     1 <1>   0.0800 
 32 H       -1.6150     4.9140     1.5230 H     1 <1>   0.0800 
 33 H       -0.2820     5.4510    -1.0870 H     1 <1>   0.0800 
 34 H       -3.5330     6.1860     0.9790 H     1 <1>   0.1500 
 35 H       -2.0370     3.3880    -1.8870 H     1 <1>   0.1500 
 36 H       -5.5170     6.5240    -0.4030 H     1 <1>   0.1500 
 37 H       -4.0240     3.7430    -3.2600 H     1 <1>   0.1500 
 38 H        1.8390     6.5730     1.0590 H     1 <1>   0.3700 
 39 H       -5.7740     5.3080    -2.5260 H     1 <1>   0.1500 
 40 H        0.3820     9.1440     1.5970 H     1 <1>   0.0800 
 41 H        1.4790     8.4180     2.7480 H     1 <1>   0.0800 
 42 H        3.3290     8.6130     1.1170 H     1 <1>   0.0800 
 43 H        2.2280     9.2950    -0.0560 H     1 <1>   0.0800 
 44 H        2.9050    10.5480     2.6180 H     1 <1>   0.0800 
 45 H        1.8310    11.2270     1.4320 H     1 <1>   0.0800 
 46 H        5.3330    10.5730     2.2800 H     1 <1>   0.1500 
 47 H        2.7130    12.0860    -0.7230 H     1 <1>   0.1500 
 48 H        7.2260    11.6090     1.1510 H     1 <1>   0.1500 
 49 H        4.6050    13.1220    -1.8530 H     1 <1>   0.1500 
 50 H        6.8630    13.6030    -2.0340 H     1 <1>   0.0800 
 51 H        8.6850    11.5380    -0.7840 H     1 <1>   0.0800 
 52 H        9.0250    12.5030    -2.2000 H     1 <1>   0.0800 
 53 H        7.7480    11.3120    -2.2400 H     1 <1>   0.0800 
 54 H        8.3460    13.6830     0.6010 H     1 <1>   0.0800 
 55 H        7.1870    14.8690     0.0550 H     1 <1>   0.0800 
 56 H        8.6870    14.6500    -0.8130 H     1 <1>   0.0800 
@<TRIPOS>BOND
  1   1   2  2   
  2   2   3  am  
  3   2   4  1   
  4   3   5  1   
  5   3  29  1   
  6   4   6  1   
  7   4  30  1   
  8   4  31  1   
  9   5   7  1   
 10   5   8  1   
 11   5  32  1   
 12   6   8  1   
 13   7   9  ar  
 14   7  10  ar  
 15   8  11  1   
 16   8  33  1   
 17   9  12  ar  
 18   9  34  1   
 19  10  13  ar  
 20  10  35  1   
 21  11  14  2   
 22  11  15  am  
 23  12  16  ar  
 24  12  36  1   
 25  13  16  ar  
 26  13  37  1   
 27  15  17  1   
 28  15  38  1   
 29  16  39  1   
 30  17  18  1   
 31  17  40  1   
 32  17  41  1   
 33  18  19  1   
 34  18  42  1   
 35  18  43  1   
 36  19  20  1   
 37  19  44  1   
 38  19  45  1   
 39  20  21  ar  
 40  20  22  ar  
 41  21  23  ar  
 42  21  46  1   
 43  22  24  ar  
 44  22  47  1   
 45  23  25  ar  
 46  23  48  1   
 47  24  25  ar  
 48  24  49  1   
 49  25  26  1   
 50  26  27  1   
 51  26  28  1   
 52  26  50  1   
 53  27  51  1   
 54  27  52  1   
 55  27  53  1   
 56  28  54  1   
 57  28  55  1   
 58  28  56  1   
@<TRIPOS>SUBSTRUCTURE
  1 ****  15 GROUP 4 **** **** 0

# MOE 2024.06 (io_trps.svl 2023.06)
