@<TRIPOS>MOLECULE
NONAME
45 47 1 0 0 
SMALL
USER_CHARGES


@<TRIPOS>ATOM
  1 O        3.4630     2.3710     2.8490 O.2   1 <1>  -0.5700 
  2 C        3.3420     2.1580     1.6660 C.2   1 <1>   0.7800 
  3 O        3.6470     3.0940     0.7820 O.3   1 <1>  -0.4300 
  4 N        2.9370     1.0190     1.0670 N.am  1 <1>  -0.6600 
  5 C        3.5110     2.6250    -0.5480 C.3   1 <1>   0.2800 
  6 C        2.9440     1.1900    -0.3860 C.3   1 <1>   0.1400 
  7 C        2.4670    -0.2210     1.7310 C.3   1 <1>   0.0600 
  8 C        4.9300     2.6040    -1.1520 C.3   1 <1>  -0.1600 
  9 C        2.5500     3.5790    -1.2990 C.3   1 <1>  -0.1600 
 10 C        5.5790     3.9600    -1.4540 C.3   1 <1>   0.3430 
 11 C        2.6440     5.0790    -0.9260 C.3   1 <1>  -0.1600 
 12 N        5.0920     5.0120    -0.5230 N.4   1 <1>  -0.9590 
 13 C        3.9870     5.7800    -1.1590 C.3   1 <1>   0.3430 
 14 C        6.2080     5.8600     0.0030 C.3   1 <1>   0.3430 
 15 C        5.8060     6.6030     1.2830 C.3   1 <1>   0.0960 
 16 N        6.9910     7.3040     1.7980 N.pl3 1 <1>   0.0480 
 17 C        7.4760     8.5100     1.4800 C.2   1 <1>   0.0060 
 18 C        7.8970     6.8380     2.6590 C.2   1 <1>   0.0370 
 19 N        8.5860     8.7400     2.0870 N.2   1 <1>  -0.3380 
 20 C        6.8250     9.4990     0.5320 C.3   1 <1>  -0.0600 
 21 N        8.8550     7.6740     2.8400 N.2   1 <1>  -0.3380 
 22 H        1.9450     1.1000    -0.7760 H     1 <1>   0.0800 
 23 H        3.5730     0.4500    -0.8500 H     1 <1>   0.0800 
 24 H        2.5280    -0.1100     2.8010 H     1 <1>   0.0800 
 25 H        3.0800    -1.0530     1.4330 H     1 <1>   0.0800 
 26 H        1.4440    -0.4170     1.4610 H     1 <1>   0.0800 
 27 H        4.9070     2.0520    -2.0750 H     1 <1>   0.0800 
 28 H        5.5770     2.0530    -0.4910 H     1 <1>   0.0800 
 29 H        1.5400     3.2700    -1.0890 H     1 <1>   0.0800 
 30 H        2.6840     3.4560    -2.3600 H     1 <1>   0.0800 
 31 H        5.3540     4.2470    -2.4690 H     1 <1>   0.0800 
 32 H        6.6500     3.8560    -1.3750 H     1 <1>   0.0800 
 33 H        2.3660     5.2060     0.1070 H     1 <1>   0.0800 
 34 H        1.9000     5.6100    -1.4960 H     1 <1>   0.0800 
 35 H        4.6700     4.4980     0.2770 H     1 <1>   0.4500 
 36 H        3.9310     6.7700    -0.7360 H     1 <1>   0.0800 
 37 H        4.1690     5.8820    -2.2170 H     1 <1>   0.0800 
 38 H        6.5170     6.5680    -0.7490 H     1 <1>   0.0800 
 39 H        7.0500     5.2270     0.2360 H     1 <1>   0.0800 
 40 H        5.4680     5.9080     2.0310 H     1 <1>   0.0800 
 41 H        5.0330     7.3230     1.0890 H     1 <1>   0.0800 
 42 H        7.8310     5.8780     3.1400 H     1 <1>   0.1500 
 43 H        6.7590     9.0880    -0.4580 H     1 <1>   0.0800 
 44 H        7.4190    10.3960     0.4860 H     1 <1>   0.0800 
 45 H        5.8450     9.7640     0.8840 H     1 <1>   0.0800 
@<TRIPOS>BOND
  1   1   2  2   
  2   2   3  1   
  3   2   4  am  
  4   3   5  1   
  5   4   6  1   
  6   4   7  1   
  7   5   6  1   
  8   5   8  1   
  9   5   9  1   
 10   6  22  1   
 11   6  23  1   
 12   7  24  1   
 13   7  25  1   
 14   7  26  1   
 15   8  10  1   
 16   8  27  1   
 17   8  28  1   
 18   9  11  1   
 19   9  29  1   
 20   9  30  1   
 21  10  12  1   
 22  10  31  1   
 23  10  32  1   
 24  11  13  1   
 25  11  33  1   
 26  11  34  1   
 27  12  13  1   
 28  12  14  1   
 29  12  35  1   
 30  13  36  1   
 31  13  37  1   
 32  14  15  1   
 33  14  38  1   
 34  14  39  1   
 35  15  16  1   
 36  15  40  1   
 37  15  41  1   
 38  16  17  1   
 39  16  18  1   
 40  17  19  2   
 41  17  20  1   
 42  18  21  2   
 43  18  42  1   
 44  19  21  1   
 45  20  43  1   
 46  20  44  1   
 47  20  45  1   
@<TRIPOS>SUBSTRUCTURE
  1 ****  12 GROUP 4 **** **** 0

# MOE 2024.06 (io_trps.svl 2023.06)
