@<TRIPOS>MOLECULE
NONAME
45 46 1 0 0 
SMALL
USER_CHARGES


@<TRIPOS>ATOM
  1 O       -2.0820     1.8730    -2.6370 O.2   1 <1>  -0.5700 
  2 C       -2.3910     1.9730    -1.4630 C.2   1 <1>   0.5440 
  3 N       -3.4110     1.1940    -0.9650 N.am  1 <1>  -0.6600 
  4 C       -1.6840     2.9100    -0.6140 C.ar  1 <1>   0.0860 
  5 C       -3.9200     0.0010    -1.7270 C.3   1 <1>   0.1400 
  6 C       -3.9640     1.3930     0.4150 C.3   1 <1>   0.1400 
  7 C       -0.7140     2.5000     0.3130 C.ar  1 <1>  -0.1440 
  8 C       -1.9780     4.2710    -0.7030 C.ar  1 <1>  -0.1500 
  9 C       -4.2900    -1.1140    -0.7430 C.3   1 <1>   0.2000 
 10 C       -5.3810     0.8220     0.5040 C.3   1 <1>  -0.1600 
 11 C       -0.0910     3.4290     1.1300 C.ar  1 <1>  -0.1500 
 12 C       -0.3270     1.0300     0.4310 C.3   1 <1>  -0.0960 
 13 C       -1.3530     5.1980     0.1090 C.ar  1 <1>  -0.1500 
 14 O       -4.6020    -2.2940    -1.3970 O.3   1 <1>  -0.6800 
 15 C       -5.4160    -0.7190     0.2510 C.3   1 <1>  -0.1060 
 16 C       -0.4130     4.7730     1.0290 C.ar  1 <1>   0.0820 
 17 C       -5.0420    -1.5120     1.5160 C.2   1 <1>   0.9060 
 18 C       -6.8670    -1.1200    -0.1770 C.3   1 <1>  -0.1600 
 19 O        0.1820     5.6720     1.8200 O.3   1 <1>  -0.5330 
 20 O       -4.6890    -0.9230     2.5450 O.co2 1 <1>  -0.9000 
 21 O       -5.0410    -2.7500     1.4450 O.co2 1 <1>  -0.9000 
 22 C       -7.3570    -0.6270    -1.5540 C.3   1 <1>  -0.1600 
 23 C       -8.7900    -1.0960    -1.8180 C.3   1 <1>  -0.2400 
 24 H       -4.7800     0.2920    -2.3010 H     1 <1>   0.0800 
 25 H       -3.1570    -0.3570    -2.3950 H     1 <1>   0.0800 
 26 H       -3.3370     0.8950     1.1360 H     1 <1>   0.0800 
 27 H       -3.9870     2.4420     0.6540 H     1 <1>   0.0800 
 28 H       -2.7090     4.5950    -1.4230 H     1 <1>   0.1500 
 29 H       -3.3910    -1.3250    -0.1860 H     1 <1>   0.0800 
 30 H       -5.7910     1.0390     1.4750 H     1 <1>   0.0800 
 31 H       -5.9790     1.3550    -0.2070 H     1 <1>   0.0800 
 32 H        0.6440     3.1100     1.8450 H     1 <1>   0.1500 
 33 H        0.5790     0.9120     0.9960 H     1 <1>   0.0800 
 34 H       -0.1700     0.6050    -0.5450 H     1 <1>   0.0800 
 35 H       -1.1070     0.4760     0.9230 H     1 <1>   0.0800 
 36 H       -1.5860     6.2450     0.0360 H     1 <1>   0.1500 
 37 H       -4.8400    -2.9320    -0.6780 H     1 <1>   0.4000 
 38 H       -6.9410    -2.1940    -0.1700 H     1 <1>   0.0800 
 39 H       -7.5440    -0.7680     0.5820 H     1 <1>   0.0800 
 40 H        0.8280     5.2840     2.4360 H     1 <1>   0.4500 
 41 H       -7.3310     0.4440    -1.6130 H     1 <1>   0.0800 
 42 H       -6.7200    -1.0200    -2.3260 H     1 <1>   0.0800 
 43 H       -9.4570    -0.7050    -1.0700 H     1 <1>   0.0800 
 44 H       -8.8390    -2.1710    -1.7990 H     1 <1>   0.0800 
 45 H       -9.1170    -0.7550    -2.7840 H     1 <1>   0.0800 
@<TRIPOS>BOND
  1   1   2  2   
  2   2   3  am  
  3   2   4  1   
  4   3   5  1   
  5   3   6  1   
  6   4   7  ar  
  7   4   8  ar  
  8   5   9  1   
  9   5  24  1   
 10   5  25  1   
 11   6  10  1   
 12   6  26  1   
 13   6  27  1   
 14   7  11  ar  
 15   7  12  1   
 16   8  13  ar  
 17   8  28  1   
 18   9  14  1   
 19   9  15  1   
 20   9  29  1   
 21  10  15  1   
 22  10  30  1   
 23  10  31  1   
 24  11  16  ar  
 25  11  32  1   
 26  12  33  1   
 27  12  34  1   
 28  12  35  1   
 29  13  16  ar  
 30  13  36  1   
 31  14  37  1   
 32  15  17  1   
 33  15  18  1   
 34  16  19  1   
 35  17  20  ar  
 36  17  21  ar  
 37  18  22  1   
 38  18  38  1   
 39  18  39  1   
 40  19  40  1   
 41  22  23  1   
 42  22  41  1   
 43  22  42  1   
 44  23  43  1   
 45  23  44  1   
 46  23  45  1   
@<TRIPOS>SUBSTRUCTURE
  1 ****   6 GROUP 4 **** **** 0

# MOE 2024.06 (io_trps.svl 2023.06)
