@<TRIPOS>MOLECULE
NONAME
57 60 1 0 0 
SMALL
USER_CHARGES


@<TRIPOS>ATOM
  1 O        0.8800     0.2040    -1.8790 O.3   1 <1>  -0.5600 
  2 C        2.0920    -0.4690    -1.6310 C.3   1 <1>   0.2000 
  3 C        0.9870     1.5850    -2.0610 C.3   1 <1>   0.1200 
  4 C        2.8380     0.1410    -0.4130 C.3   1 <1>   0.5660 
  5 C        1.7820    -1.9540    -1.3810 C.3   1 <1>   0.1200 
  6 C        1.5840     2.2400    -0.8050 C.3   1 <1>   0.3430 
  7 N        2.9090     1.6360    -0.4440 N.4   1 <1>  -0.9590 
  8 C        4.2610    -0.3920    -0.3150 C.ar  1 <1>  -0.1430 
  9 O        1.2250    -2.1260    -0.1160 O.3   1 <1>  -0.6800 
 10 C        3.4150     2.1800     0.8460 C.3   1 <1>   0.4870 
 11 C        5.2020    -0.1470    -1.3080 C.ar  1 <1>  -0.1500 
 12 C        4.6290    -1.1300     0.8020 C.ar  1 <1>  -0.1500 
 13 C        3.6770     3.6630     0.6710 C.ar  1 <1>  -0.1430 
 14 C        6.4970    -0.6160    -1.1730 C.ar  1 <1>  -0.1500 
 15 C        5.9230    -1.6010     0.9320 C.ar  1 <1>  -0.1500 
 16 C        2.7480     4.5600     1.1400 C.ar  1 <1>   0.0830 
 17 C        4.8500     4.1010     0.0100 C.ar  1 <1>   0.0000 
 18 C        6.8580    -1.3420    -0.0530 C.ar  1 <1>  -0.1500 
 19 O        1.6450     4.0710     1.7620 O.3   1 <1>  -0.3620 
 20 C        2.9450     5.9390     0.9460 C.ar  1 <1>  -0.1500 
 21 C        5.0190     5.4860    -0.2150 C.ar  1 <1>   0.0000 
 22 C        5.8690     3.2350    -0.4470 C.ar  1 <1>  -0.1500 
 23 C        0.8210     4.8990     2.5580 C.3   1 <1>   0.0400 
 24 C        4.0520     6.3810     0.2800 C.ar  1 <1>  -0.1500 
 25 C        6.1480     5.9340    -0.9290 C.ar  1 <1>  -0.1500 
 26 C        6.9550     3.6880    -1.1450 C.ar  1 <1>   0.0830 
 27 C        7.0930     5.0640    -1.3930 C.ar  1 <1>  -0.1500 
 28 O        7.8540     2.7640    -1.5620 O.3   1 <1>  -0.3630 
 29 C        9.1050     3.1430    -2.0940 C.3   1 <1>   0.0400 
 30 H        2.6920    -0.3860    -2.5190 H     1 <1>   0.0800 
 31 H        1.5910     1.7800    -2.9300 H     1 <1>   0.0800 
 32 H       -0.0040     1.9670    -2.2390 H     1 <1>   0.0800 
 33 H        2.2990    -0.1590     0.4710 H     1 <1>   0.0800 
 34 H        2.6840    -2.5420    -1.4260 H     1 <1>   0.0800 
 35 H        1.0880    -2.3170    -2.1200 H     1 <1>   0.0800 
 36 H        0.8910     2.1130     0.0110 H     1 <1>   0.0800 
 37 H        1.6980     3.2990    -0.9740 H     1 <1>   0.0800 
 38 H        3.5990     1.8980    -1.1550 H     1 <1>   0.4500 
 39 H        0.8040    -3.0090    -0.0410 H     1 <1>   0.4000 
 40 H        2.6870     2.0220     1.6250 H     1 <1>   0.0800 
 41 H        4.3280     1.6860     1.1360 H     1 <1>   0.0800 
 42 H        4.9570     0.4110    -2.1960 H     1 <1>   0.1500 
 43 H        3.9150    -1.3500     1.5790 H     1 <1>   0.1500 
 44 H        7.2290    -0.4140    -1.9380 H     1 <1>   0.1500 
 45 H        6.2060    -2.1730     1.8010 H     1 <1>   0.1500 
 46 H        7.8660    -1.7050     0.0510 H     1 <1>   0.1500 
 47 H        2.2310     6.6540     1.3080 H     1 <1>   0.1500 
 48 H        5.8250     2.1850    -0.2410 H     1 <1>   0.1500 
 49 H        0.1030     4.2760     3.0630 H     1 <1>   0.0800 
 50 H        0.3090     5.6010     1.9250 H     1 <1>   0.0800 
 51 H        1.4310     5.4100     3.2830 H     1 <1>   0.0800 
 52 H        4.2040     7.4350     0.1220 H     1 <1>   0.1500 
 53 H        6.2540     6.9900    -1.1070 H     1 <1>   0.1500 
 54 H        7.9370     5.4400    -1.9410 H     1 <1>   0.1500 
 55 H        9.6790     2.2510    -2.2700 H     1 <1>   0.0800 
 56 H        9.6140     3.7690    -1.3820 H     1 <1>   0.0800 
 57 H        8.9490     3.6640    -3.0220 H     1 <1>   0.0800 
@<TRIPOS>BOND
  1   1   2  1   
  2   1   3  1   
  3   2   4  1   
  4   2   5  1   
  5   2  30  1   
  6   3   6  1   
  7   3  31  1   
  8   3  32  1   
  9   4   7  1   
 10   4   8  1   
 11   4  33  1   
 12   5   9  1   
 13   5  34  1   
 14   5  35  1   
 15   6   7  1   
 16   6  36  1   
 17   6  37  1   
 18   7  10  1   
 19   7  38  1   
 20   8  11  ar  
 21   8  12  ar  
 22   9  39  1   
 23  10  13  1   
 24  10  40  1   
 25  10  41  1   
 26  11  14  ar  
 27  11  42  1   
 28  12  15  ar  
 29  12  43  1   
 30  13  16  ar  
 31  13  17  ar  
 32  14  18  ar  
 33  14  44  1   
 34  15  18  ar  
 35  15  45  1   
 36  16  19  1   
 37  16  20  ar  
 38  17  21  ar  
 39  17  22  ar  
 40  18  46  1   
 41  19  23  1   
 42  20  24  ar  
 43  20  47  1   
 44  21  24  ar  
 45  21  25  ar  
 46  22  26  ar  
 47  22  48  1   
 48  23  49  1   
 49  23  50  1   
 50  23  51  1   
 51  24  52  1   
 52  25  27  ar  
 53  25  53  1   
 54  26  27  ar  
 55  26  28  1   
 56  27  54  1   
 57  28  29  1   
 58  29  55  1   
 59  29  56  1   
 60  29  57  1   
@<TRIPOS>SUBSTRUCTURE
  1 ****   7 GROUP 4 **** **** 0

# MOE 2024.06 (io_trps.svl 2023.06)
