@<TRIPOS>MOLECULE
NONAME
48 50 1 0 0 
SMALL
USER_CHARGES


@<TRIPOS>ATOM
  1 O        0.8700    -0.6380    -1.5610 O.2   1 <1>  -0.5700 
  2 C        1.7270    -0.8560    -0.7380 C.2   1 <1>   0.5690 
  3 N        2.5290     0.1110    -0.2200 N.am  1 <1>  -0.4930 
  4 C        1.9000    -2.2990    -0.2620 C.3   1 <1>  -0.0190 
  5 C        2.4930     1.5120    -0.4570 C.2   1 <1>   0.0630 
  6 C        2.2510    -3.2250    -1.4440 C.3   1 <1>  -0.1600 
  7 C        0.6190    -2.7910     0.4430 C.3   1 <1>  -0.1600 
  8 C        3.4140     2.3970    -0.0040 C.2   1 <1>  -0.0680 
  9 C        1.5450     2.2870    -1.1300 C.2   1 <1>   0.1390 
 10 C        2.2600    -4.7010    -1.0480 C.3   1 <1>   0.3430 
 11 C        0.6730    -4.2790     0.7850 C.3   1 <1>   0.3430 
 12 N        2.9700     3.6230    -0.3860 N.pl3 1 <1>   0.3140 
 13 N        4.6120     2.1820     0.7220 N.pl3 1 <1>  -0.8530 
 14 N        1.8200     3.5590    -1.0950 N.2   1 <1>  -0.7070 
 15 N        0.9410    -5.0630    -0.4570 N.4   1 <1>  -0.9590 
 16 C        3.6740     4.8730    -0.0670 C.3   1 <1>   0.0960 
 17 C        5.4810     3.3750     0.9290 C.3   1 <1>   0.2090 
 18 C        0.8690    -6.5440    -0.2230 C.3   1 <1>   0.3430 
 19 C        4.6360     4.6450     1.1140 C.3   1 <1>  -0.1600 
 20 C       -0.5490    -7.0350     0.0930 C.3   1 <1>   0.1200 
 21 O       -0.4720    -8.4090     0.2630 O.3   1 <1>  -0.5600 
 22 C       -1.6910    -9.0270     0.5370 C.3   1 <1>   0.0400 
 23 H        3.2160    -0.1350     0.4900 H     1 <1>   0.3700 
 24 H        2.7090    -2.3320     0.4470 H     1 <1>   0.0800 
 25 H        3.2190    -2.9580    -1.8300 H     1 <1>   0.0800 
 26 H        1.5430    -3.0850    -2.2440 H     1 <1>   0.0800 
 27 H       -0.2380    -2.6100    -0.1850 H     1 <1>   0.0800 
 28 H        0.4710    -2.2270     1.3470 H     1 <1>   0.0800 
 29 H        0.6760     1.8820    -1.6210 H     1 <1>   0.1500 
 30 H        3.0460    -4.8820    -0.3320 H     1 <1>   0.0800 
 31 H        2.4520    -5.3030    -1.9220 H     1 <1>   0.0800 
 32 H       -0.2680    -4.5750     1.2190 H     1 <1>   0.0800 
 33 H        1.4520    -4.4590     1.5080 H     1 <1>   0.0800 
 34 H        5.1640     1.4030     0.3430 H     1 <1>   0.4000 
 35 H        0.2240    -4.8050    -1.1510 H     1 <1>   0.4500 
 36 H        2.9470     5.6270     0.1730 H     1 <1>   0.0800 
 37 H        4.2170     5.1760    -0.9420 H     1 <1>   0.0800 
 38 H        6.1310     3.4910     0.0770 H     1 <1>   0.0800 
 39 H        6.0920     3.2190     1.8030 H     1 <1>   0.0800 
 40 H        1.5190    -6.8160     0.5920 H     1 <1>   0.0800 
 41 H        1.2050    -7.0620    -1.1080 H     1 <1>   0.0800 
 42 H        4.0670     4.5530     2.0230 H     1 <1>   0.0800 
 43 H        5.2820     5.4980     1.2200 H     1 <1>   0.0800 
 44 H       -1.2170    -6.8320    -0.7270 H     1 <1>   0.0800 
 45 H       -0.9200    -6.6050     1.0060 H     1 <1>   0.0800 
 46 H       -1.5140   -10.0830     0.6500 H     1 <1>   0.0800 
 47 H       -2.3700    -8.8630    -0.2830 H     1 <1>   0.0800 
 48 H       -2.0980    -8.6320     1.4520 H     1 <1>   0.0800 
@<TRIPOS>BOND
  1   1   2  2   
  2   2   3  am  
  3   2   4  1   
  4   3   5  1   
  5   3  23  1   
  6   4   6  1   
  7   4   7  1   
  8   4  24  1   
  9   5   8  2   
 10   5   9  1   
 11   6  10  1   
 12   6  25  1   
 13   6  26  1   
 14   7  11  1   
 15   7  27  1   
 16   7  28  1   
 17   8  12  1   
 18   8  13  1   
 19   9  14  2   
 20   9  29  1   
 21  10  15  1   
 22  10  30  1   
 23  10  31  1   
 24  11  15  1   
 25  11  32  1   
 26  11  33  1   
 27  12  14  1   
 28  12  16  1   
 29  13  17  1   
 30  13  34  1   
 31  15  18  1   
 32  15  35  1   
 33  16  19  1   
 34  16  36  1   
 35  16  37  1   
 36  17  19  1   
 37  17  38  1   
 38  17  39  1   
 39  18  20  1   
 40  18  40  1   
 41  18  41  1   
 42  19  42  1   
 43  19  43  1   
 44  20  21  1   
 45  20  44  1   
 46  20  45  1   
 47  21  22  1   
 48  22  46  1   
 49  22  47  1   
 50  22  48  1   
@<TRIPOS>SUBSTRUCTURE
  1 ****   2 GROUP 4 **** **** 0

# MOE 2024.06 (io_trps.svl 2023.06)
