@<TRIPOS>MOLECULE
NONAME
39 39 1 0 0 
SMALL
USER_CHARGES


@<TRIPOS>ATOM
  1 S        1.3290     0.7920    -0.2210 S.3   1 <1>  -0.4600 
  2 C        1.6340     1.5880     1.4010 C.3   1 <1>   0.2110 
  3 C        0.6620    -0.8340     0.2140 C.3   1 <1>   0.0700 
  4 C        1.6430     3.1170     1.2670 C.2   1 <1>   0.5690 
  5 C        2.9610     1.0330     1.9300 C.3   1 <1>  -0.2400 
  6 C        0.3060    -1.5460    -1.0880 C.3   1 <1>  -0.2400 
  7 O        1.4340     3.7910     2.2480 O.2   1 <1>  -0.5700 
  8 N        1.8920     3.6830     0.0590 N.am  1 <1>  -0.7300 
  9 C        2.0020     5.1210    -0.2030 C.3   1 <1>   0.3200 
 10 C        3.2470     5.3910    -1.0270 C.2   1 <1>  -0.3320 
 11 N        3.6270     6.6250    -1.4220 N.pl3 1 <1>   0.0480 
 12 C        4.1820     4.5380    -1.5070 C.2   1 <1>   0.0770 
 13 C        4.7670     6.4280    -2.1220 C.2   1 <1>   0.0360 
 14 C        2.9920     7.9250    -1.1330 C.3   1 <1>   0.0960 
 15 N        5.1330     5.1920    -2.1980 N.2   1 <1>  -0.5650 
 16 C        3.4560     8.4350     0.2290 C.3   1 <1>   0.1200 
 17 O        2.8120     9.6430     0.4710 O.3   1 <1>  -0.5600 
 18 C        3.1270    10.2140     1.7000 C.3   1 <1>   0.0400 
 19 H        0.8210     1.3040     2.0440 H     1 <1>   0.0800 
 20 H       -0.2070    -0.6770     0.8300 H     1 <1>   0.0800 
 21 H        1.4200    -1.3670     0.7610 H     1 <1>   0.0800 
 22 H        3.7600     1.2750     1.2510 H     1 <1>   0.0800 
 23 H        2.9090    -0.0340     2.0470 H     1 <1>   0.0800 
 24 H        3.1810     1.4730     2.8860 H     1 <1>   0.0800 
 25 H       -0.4280    -0.9790    -1.6320 H     1 <1>   0.0800 
 26 H       -0.0980    -2.5200    -0.8760 H     1 <1>   0.0800 
 27 H        1.1840    -1.6610    -1.6990 H     1 <1>   0.0800 
 28 H        1.9920     3.0680    -0.7540 H     1 <1>   0.3700 
 29 H        2.0520     5.6590     0.7280 H     1 <1>   0.0800 
 30 H        1.1270     5.4450    -0.7400 H     1 <1>   0.0800 
 31 H        4.2250     3.4680    -1.3900 H     1 <1>   0.1500 
 32 H        5.3110     7.2430    -2.5680 H     1 <1>   0.1500 
 33 H        1.9250     7.8040    -1.1370 H     1 <1>   0.0800 
 34 H        3.2700     8.6270    -1.8970 H     1 <1>   0.0800 
 35 H        4.5190     8.6040     0.2280 H     1 <1>   0.0800 
 36 H        3.1880     7.7410     1.0080 H     1 <1>   0.0800 
 37 H        2.5840    11.1390     1.7890 H     1 <1>   0.0800 
 38 H        4.1850    10.4100     1.7430 H     1 <1>   0.0800 
 39 H        2.8330     9.5450     2.4900 H     1 <1>   0.0800 
@<TRIPOS>BOND
  1   1   2  1   
  2   1   3  1   
  3   2   4  1   
  4   2   5  1   
  5   2  19  1   
  6   3   6  1   
  7   3  20  1   
  8   3  21  1   
  9   4   7  2   
 10   4   8  am  
 11   5  22  1   
 12   5  23  1   
 13   5  24  1   
 14   6  25  1   
 15   6  26  1   
 16   6  27  1   
 17   8   9  1   
 18   8  28  1   
 19   9  10  1   
 20   9  29  1   
 21   9  30  1   
 22  10  11  1   
 23  10  12  2   
 24  11  13  1   
 25  11  14  1   
 26  12  15  1   
 27  12  31  1   
 28  13  15  2   
 29  13  32  1   
 30  14  16  1   
 31  14  33  1   
 32  14  34  1   
 33  16  17  1   
 34  16  35  1   
 35  16  36  1   
 36  17  18  1   
 37  18  37  1   
 38  18  38  1   
 39  18  39  1   
@<TRIPOS>SUBSTRUCTURE
  1 ****   9 GROUP 4 **** **** 0

# MOE 2024.06 (io_trps.svl 2023.06)
