@<TRIPOS>MOLECULE
NONAME
46 48 1 0 0 
SMALL
USER_CHARGES


@<TRIPOS>ATOM
  1 S        0.1870     0.3560     1.9770 S.o2  1 <1>   1.4470 
  2 O        0.8270    -0.6250     2.8230 O.2   1 <1>  -0.6500 
  3 O       -0.3190     1.5860     2.5420 O.2   1 <1>  -0.6500 
  4 N        1.3890     0.8270     0.8700 N.am  1 <1>  -0.8490 
  5 C       -1.0730    -0.4000     0.9120 C.ar  1 <1>  -0.0090 
  6 C        2.2880     1.8220     1.4980 C.3   1 <1>   0.1960 
  7 C        2.1120    -0.3240     0.3120 C.3   1 <1>   0.1960 
  8 C       -1.8730     0.3820     0.0890 C.ar  1 <1>  -0.1500 
  9 C       -1.2500    -1.7770     0.8620 C.ar  1 <1>  -0.1500 
 10 C        3.4950     2.3130     0.6540 C.3   1 <1>   0.4230 
 11 C        2.8570     0.0310    -0.9930 C.3   1 <1>  -0.0800 
 12 C       -2.8050    -0.1900    -0.7600 C.ar  1 <1>  -0.1500 
 13 C       -2.1810    -2.3490     0.0110 C.ar  1 <1>  -0.1500 
 14 N        3.2000     2.5530    -0.8130 N.4   1 <1>  -0.9590 
 15 C        4.7250     1.3800     0.7950 C.3   1 <1>   0.1200 
 16 C        4.3770    -0.2420    -0.9130 C.3   1 <1>   0.1200 
 17 C        2.4980     1.4330    -1.5250 C.3   1 <1>   0.3430 
 18 C       -2.9720    -1.5680    -0.8200 C.ar  1 <1>  -0.0090 
 19 C        2.5250     3.8600    -1.0590 C.3   1 <1>   0.2630 
 20 O        5.1040     0.8580    -0.4500 O.3   1 <1>  -0.5600 
 21 S       -4.1860    -2.3250    -1.9370 S.o2  1 <1>   1.4470 
 22 O       -3.6320    -3.4700    -2.6150 O.2   1 <1>  -0.6500 
 23 O       -4.9430    -1.3330    -2.6580 O.2   1 <1>  -0.6500 
 24 N       -5.3160    -2.9870    -0.9270 N.am  1 <1>  -0.9780 
 25 H        1.7060     2.6950     1.7420 H     1 <1>   0.0800 
 26 H        2.6540     1.4330     2.4350 H     1 <1>   0.0800 
 27 H        2.7790    -0.7380     1.0520 H     1 <1>   0.0800 
 28 H        1.4020    -1.1010     0.0760 H     1 <1>   0.0800 
 29 H       -1.7690     1.4540     0.1170 H     1 <1>   0.1500 
 30 H       -0.6550    -2.4150     1.4970 H     1 <1>   0.1500 
 31 H        3.7980     3.2490     1.0920 H     1 <1>   0.0800 
 32 H        2.4830    -0.6690    -1.7190 H     1 <1>   0.0800 
 33 H       -3.4140     0.4440    -1.3850 H     1 <1>   0.1500 
 34 H       -2.2980    -3.4210    -0.0080 H     1 <1>   0.1500 
 35 H        4.1490     2.5540    -1.2280 H     1 <1>   0.4500 
 36 H        4.5590     0.5740     1.4890 H     1 <1>   0.0800 
 37 H        5.5570     1.9550     1.1610 H     1 <1>   0.0800 
 38 H        4.7550    -0.4620    -1.8980 H     1 <1>   0.0800 
 39 H        4.5960    -1.0880    -0.2830 H     1 <1>   0.0800 
 40 H        1.4310     1.5650    -1.4340 H     1 <1>   0.0800 
 41 H        2.7420     1.4810    -2.5730 H     1 <1>   0.0800 
 42 H        1.5410     3.8590    -0.6160 H     1 <1>   0.0800 
 43 H        2.4260     4.0360    -2.1180 H     1 <1>   0.0800 
 44 H        3.0970     4.6660    -0.6300 H     1 <1>   0.0800 
 45 H       -5.5220    -3.8830    -1.3620 H     1 <1>   0.4200 
 46 H       -6.1360    -2.4050    -1.0790 H     1 <1>   0.4200 
@<TRIPOS>BOND
  1   1   2  2   
  2   1   3  2   
  3   1   4  am  
  4   1   5  1   
  5   4   6  1   
  6   4   7  1   
  7   5   8  ar  
  8   5   9  ar  
  9   6  10  1   
 10   6  25  1   
 11   6  26  1   
 12   7  11  1   
 13   7  27  1   
 14   7  28  1   
 15   8  12  ar  
 16   8  29  1   
 17   9  13  ar  
 18   9  30  1   
 19  10  14  1   
 20  10  15  1   
 21  10  31  1   
 22  11  16  1   
 23  11  17  1   
 24  11  32  1   
 25  12  18  ar  
 26  12  33  1   
 27  13  18  ar  
 28  13  34  1   
 29  14  17  1   
 30  14  19  1   
 31  14  35  1   
 32  15  20  1   
 33  15  36  1   
 34  15  37  1   
 35  16  20  1   
 36  16  38  1   
 37  16  39  1   
 38  17  40  1   
 39  17  41  1   
 40  18  21  1   
 41  19  42  1   
 42  19  43  1   
 43  19  44  1   
 44  21  22  2   
 45  21  23  2   
 46  21  24  am  
 47  24  45  1   
 48  24  46  1   
@<TRIPOS>SUBSTRUCTURE
  1 ****   5 GROUP 4 **** **** 0

# MOE 2024.06 (io_trps.svl 2023.06)
