@<TRIPOS>MOLECULE
NONAME
65 68 1 0 0 
SMALL
USER_CHARGES


@<TRIPOS>ATOM
  1 O       -2.0330    -1.9410     1.2710 O.2   1 <1>  -0.5700 
  2 C       -1.0870    -2.3090     0.6120 C.2   1 <1>   0.5690 
  3 N       -1.1880    -2.5090    -0.7300 N.am  1 <1>  -0.7300 
  4 C        0.2540    -2.5480     1.3050 C.3   1 <1>   0.2010 
  5 C       -2.3930    -2.3620    -1.5790 C.3   1 <1>   0.1400 
  6 N        0.6440    -4.0010     1.4310 N.am  1 <1>  -0.6600 
  7 C       -3.5140    -3.2770    -1.0560 C.3   1 <1>  -0.0800 
  8 C        1.6680    -4.5570     0.6930 C.2   1 <1>   0.5690 
  9 C        0.0770    -4.6670     2.6480 C.3   1 <1>   0.1400 
 10 C       -4.5040    -2.6860    -0.0480 C.3   1 <1>   0.4230 
 11 C       -4.4300    -3.8890    -2.1160 C.3   1 <1>  -0.1600 
 12 O        2.2370    -5.5640     1.0400 O.2   1 <1>  -0.5700 
 13 C        2.1440    -3.9280    -0.6250 C.3   1 <1>   0.1810 
 14 C       -0.3760    -6.1250     2.4430 C.3   1 <1>  -0.1600 
 15 N       -5.7460    -3.5030    -0.1780 N.4   1 <1>  -0.9590 
 16 C       -4.9600    -1.2470    -0.2890 C.3   1 <1>  -0.1600 
 17 C       -5.5870    -4.4650    -1.2940 C.3   1 <1>   0.5660 
 18 O        1.1530    -3.9620    -1.6170 O.3   1 <1>  -0.6800 
 19 C       -1.3520    -6.3460     1.2760 C.3   1 <1>  -0.1600 
 20 C       -6.9240    -2.6050    -0.3010 C.3   1 <1>   0.3430 
 21 C       -6.4210    -1.2410     0.1350 C.3   1 <1>  -0.1600 
 22 C       -5.3170    -5.8090    -0.6080 C.ar  1 <1>  -0.1440 
 23 C       -1.7850    -7.8210     1.2160 C.3   1 <1>   0.1200 
 24 C       -4.0880    -6.4590    -0.6620 C.ar  1 <1>  -0.1500 
 25 C       -6.3300    -6.3860     0.1520 C.ar  1 <1>  -0.1500 
 26 O       -2.5710    -8.0630     0.0650 O.3   1 <1>  -0.3630 
 27 C       -3.8410    -7.5930     0.0860 C.ar  1 <1>   0.0820 
 28 C       -6.1050    -7.5510     0.8670 C.ar  1 <1>  -0.1500 
 29 C       -4.8650    -8.1660     0.8440 C.ar  1 <1>   0.0820 
 30 O       -4.7220    -9.2990     1.5760 O.3   1 <1>  -0.3630 
 31 C       -4.1840   -10.4380     0.9380 C.3   1 <1>   0.0400 
 32 H       -0.3580    -2.8970    -1.2120 H     1 <1>   0.3700 
 33 H        0.2030    -2.1160     2.2880 H     1 <1>   0.0800 
 34 H        1.0060    -2.0000     0.7710 H     1 <1>   0.0800 
 35 H       -2.6850    -1.3270    -1.6100 H     1 <1>   0.0800 
 36 H       -2.1270    -2.6590    -2.5800 H     1 <1>   0.0800 
 37 H       -3.0210    -4.0800    -0.5420 H     1 <1>   0.0800 
 38 H        0.8200    -4.6410     3.4270 H     1 <1>   0.0800 
 39 H       -0.7740    -4.1030     2.9930 H     1 <1>   0.0800 
 40 H       -4.1130    -2.7690     0.9540 H     1 <1>   0.0800 
 41 H       -3.9450    -4.6290    -2.7260 H     1 <1>   0.0800 
 42 H       -4.8130    -3.1220    -2.7670 H     1 <1>   0.0800 
 43 H        2.9950    -4.4750    -0.9920 H     1 <1>   0.0800 
 44 H        2.4420    -2.9080    -0.4750 H     1 <1>   0.0800 
 45 H        0.4880    -6.7530     2.3150 H     1 <1>   0.0800 
 46 H       -0.8500    -6.4450     3.3540 H     1 <1>   0.0800 
 47 H       -5.8200    -4.0730     0.6740 H     1 <1>   0.4500 
 48 H       -4.3650    -0.5520     0.2800 H     1 <1>   0.0800 
 49 H       -4.8900    -0.9930    -1.3320 H     1 <1>   0.0800 
 50 H       -6.4850    -4.5360    -1.8860 H     1 <1>   0.0800 
 51 H        0.9970    -4.8970    -1.8720 H     1 <1>   0.4000 
 52 H       -0.8680    -6.0840     0.3520 H     1 <1>   0.0800 
 53 H       -2.2130    -5.7180     1.4150 H     1 <1>   0.0800 
 54 H       -7.2390    -2.5530    -1.3310 H     1 <1>   0.0800 
 55 H       -7.7470    -2.9390     0.3100 H     1 <1>   0.0800 
 56 H       -6.9790    -0.4420    -0.3240 H     1 <1>   0.0800 
 57 H       -6.5000    -1.1530     1.2050 H     1 <1>   0.0800 
 58 H       -2.3520    -8.0990     2.0880 H     1 <1>   0.0800 
 59 H       -0.9200    -8.4580     1.1460 H     1 <1>   0.0800 
 60 H       -3.2660    -6.1090    -1.2560 H     1 <1>   0.1500 
 61 H       -7.3080    -5.9380     0.2040 H     1 <1>   0.1500 
 62 H       -6.8910    -7.9960     1.4520 H     1 <1>   0.1500 
 63 H       -4.4450   -11.3030     1.5210 H     1 <1>   0.0800 
 64 H       -3.1150   -10.3460     0.8870 H     1 <1>   0.0800 
 65 H       -4.6030   -10.5200    -0.0500 H     1 <1>   0.0800 
@<TRIPOS>BOND
  1   1   2  2   
  2   2   3  am  
  3   2   4  1   
  4   3   5  1   
  5   3  32  1   
  6   4   6  1   
  7   4  33  1   
  8   4  34  1   
  9   5   7  1   
 10   5  35  1   
 11   5  36  1   
 12   6   8  am  
 13   6   9  1   
 14   7  10  1   
 15   7  11  1   
 16   7  37  1   
 17   8  12  2   
 18   8  13  1   
 19   9  14  1   
 20   9  38  1   
 21   9  39  1   
 22  10  15  1   
 23  10  16  1   
 24  10  40  1   
 25  11  17  1   
 26  11  41  1   
 27  11  42  1   
 28  13  18  1   
 29  13  43  1   
 30  13  44  1   
 31  14  19  1   
 32  14  45  1   
 33  14  46  1   
 34  15  17  1   
 35  15  20  1   
 36  15  47  1   
 37  16  21  1   
 38  16  48  1   
 39  16  49  1   
 40  17  22  1   
 41  17  50  1   
 42  18  51  1   
 43  19  23  1   
 44  19  52  1   
 45  19  53  1   
 46  20  21  1   
 47  20  54  1   
 48  20  55  1   
 49  21  56  1   
 50  21  57  1   
 51  22  24  ar  
 52  22  25  ar  
 53  23  26  1   
 54  23  58  1   
 55  23  59  1   
 56  24  27  ar  
 57  24  60  1   
 58  25  28  ar  
 59  25  61  1   
 60  26  27  1   
 61  27  29  ar  
 62  28  29  ar  
 63  28  62  1   
 64  29  30  1   
 65  30  31  1   
 66  31  63  1   
 67  31  64  1   
 68  31  65  1   
@<TRIPOS>SUBSTRUCTURE
  1 ****   7 GROUP 4 **** **** 0

# MOE 2024.06 (io_trps.svl 2023.06)
