@<TRIPOS>MOLECULE
NONAME
53 55 1 0 0 
SMALL
USER_CHARGES


@<TRIPOS>ATOM
  1 O        0.7230     2.6290    -0.9760 O.2   1 <1>  -0.5700 
  2 C       -0.1850     3.4280    -0.9740 C.2   1 <1>   0.5690 
  3 N       -1.1170     3.4960     0.0210 N.am  1 <1>  -0.6600 
  4 C       -0.3060     4.4100    -2.1440 C.3   1 <1>   0.1810 
  5 C       -2.0960     4.6280    -0.0220 C.3   1 <1>   0.3640 
  6 C       -1.0560     2.6180     1.2180 C.3   1 <1>   0.2200 
  7 O       -0.6560     5.7270    -1.7650 O.3   1 <1>  -0.5600 
  8 C       -3.3600     4.2860    -0.8260 C.ar  1 <1>  -0.1440 
  9 C       -1.4040     5.9090    -0.5580 C.3   1 <1>   0.2610 
 10 C       -2.4300     2.0310     1.5410 C.3   1 <1>  -0.2400 
 11 C       -0.4840     3.3980     2.4020 C.3   1 <1>  -0.2400 
 12 C       -3.4700     3.1700    -1.6510 C.ar  1 <1>  -0.1500 
 13 C       -4.4550     5.1340    -0.7140 C.ar  1 <1>  -0.1500 
 14 C       -0.5200     6.4830     0.5530 C.2   1 <1>   0.5690 
 15 C       -4.6360     2.9200    -2.3530 C.ar  1 <1>  -0.1500 
 16 C       -5.6220     4.8850    -1.4150 C.ar  1 <1>  -0.1500 
 17 O       -1.0450     6.8680     1.5730 O.2   1 <1>  -0.5700 
 18 N        0.8280     6.5480     0.3760 N.am  1 <1>  -0.7300 
 19 C       -5.7130     3.7790    -2.2380 C.ar  1 <1>  -0.1500 
 20 C        1.8130     7.0250     1.3630 C.3   1 <1>   0.1400 
 21 C        2.5260     8.2490     0.7950 C.3   1 <1>  -0.1600 
 22 C        3.5230     8.8190     1.8110 C.3   1 <1>   0.0960 
 23 N        4.2530     9.9640     1.2370 N.pl3 1 <1>   0.3140 
 24 N        5.4210     9.8070     0.5890 N.2   1 <1>  -0.7070 
 25 C        3.8810    11.2590     1.2680 C.2   1 <1>  -0.3020 
 26 C        5.7640    11.0050     0.2250 C.2   1 <1>   0.1390 
 27 C        4.8370    11.9600     0.6230 C.2   1 <1>  -0.1500 
 28 H       -1.0590     4.0540    -2.8230 H     1 <1>   0.0800 
 29 H        0.6290     4.4590    -2.6710 H     1 <1>   0.0800 
 30 H       -2.4250     4.8370     0.9810 H     1 <1>   0.0800 
 31 H       -0.3900     1.7960     1.0100 H     1 <1>   0.0800 
 32 H       -2.1520     6.6490    -0.7710 H     1 <1>   0.0800 
 33 H       -3.1300     2.7940     1.8280 H     1 <1>   0.0800 
 34 H       -2.3410     1.3360     2.3560 H     1 <1>   0.0800 
 35 H       -2.8120     1.4980     0.6890 H     1 <1>   0.0800 
 36 H       -1.1400     4.1920     2.7080 H     1 <1>   0.0800 
 37 H        0.4750     3.8100     2.1390 H     1 <1>   0.0800 
 38 H       -0.3460     2.7360     3.2370 H     1 <1>   0.0800 
 39 H       -2.6570     2.4750    -1.7560 H     1 <1>   0.1500 
 40 H       -4.4130     5.9990    -0.0740 H     1 <1>   0.1500 
 41 H       -4.7050     2.0540    -2.9880 H     1 <1>   0.1500 
 42 H       -6.4610     5.5530    -1.3190 H     1 <1>   0.1500 
 43 H        1.1930     6.2590    -0.5360 H     1 <1>   0.3700 
 44 H       -6.6190     3.5840    -2.7840 H     1 <1>   0.1500 
 45 H        1.3120     7.2810     2.2830 H     1 <1>   0.0800 
 46 H        2.5190     6.2380     1.5660 H     1 <1>   0.0800 
 47 H        1.7980     9.0030     0.5520 H     1 <1>   0.0800 
 48 H        3.0580     7.9680    -0.0980 H     1 <1>   0.0800 
 49 H        4.2440     8.0710     2.0850 H     1 <1>   0.0800 
 50 H        3.0120     9.1480     2.6970 H     1 <1>   0.0800 
 51 H        2.9770    11.6030     1.7360 H     1 <1>   0.1500 
 52 H        6.6660    11.2220    -0.3220 H     1 <1>   0.1500 
 53 H        4.8970    13.0180     0.4400 H     1 <1>   0.1500 
@<TRIPOS>BOND
  1   1   2  2   
  2   2   3  am  
  3   2   4  1   
  4   3   5  1   
  5   3   6  1   
  6   4   7  1   
  7   4  28  1   
  8   4  29  1   
  9   5   8  1   
 10   5   9  1   
 11   5  30  1   
 12   6  10  1   
 13   6  11  1   
 14   6  31  1   
 15   7   9  1   
 16   8  12  ar  
 17   8  13  ar  
 18   9  14  1   
 19   9  32  1   
 20  10  33  1   
 21  10  34  1   
 22  10  35  1   
 23  11  36  1   
 24  11  37  1   
 25  11  38  1   
 26  12  15  ar  
 27  12  39  1   
 28  13  16  ar  
 29  13  40  1   
 30  14  17  2   
 31  14  18  am  
 32  15  19  ar  
 33  15  41  1   
 34  16  19  ar  
 35  16  42  1   
 36  18  20  1   
 37  18  43  1   
 38  19  44  1   
 39  20  21  1   
 40  20  45  1   
 41  20  46  1   
 42  21  22  1   
 43  21  47  1   
 44  21  48  1   
 45  22  23  1   
 46  22  49  1   
 47  22  50  1   
 48  23  24  1   
 49  23  25  1   
 50  24  26  2   
 51  25  27  2   
 52  25  51  1   
 53  26  27  1   
 54  26  52  1   
 55  27  53  1   
@<TRIPOS>SUBSTRUCTURE
  1 ****  14 GROUP 4 **** **** 0

# MOE 2024.06 (io_trps.svl 2023.06)
