@<TRIPOS>MOLECULE
NONAME
46 49 1 0 0 
SMALL
USER_CHARGES


@<TRIPOS>ATOM
  1 O       -3.2810     1.3470    -1.5810 O.2   1 <1>  -0.5700 
  2 C       -2.5840     0.9200    -0.6940 C.2   1 <1>   0.6300 
  3 N       -2.3810    -0.4050    -0.5180 N.am  1 <1>  -0.7300 
  4 C       -1.9070     1.8930     0.2600 C.3   1 <1>  -0.0950 
  5 C       -2.9780    -1.4770    -1.3460 C.3   1 <1>   0.2200 
  6 C       -2.7740     2.6270     1.2460 C.3   1 <1>  -0.2000 
  7 C       -1.8290     1.5630     1.7270 C.3   1 <1>  -0.2000 
  8 C       -0.7560     2.6030    -0.4720 C.3   1 <1>   0.2150 
  9 C       -4.1500    -2.1390    -0.6320 C.3   1 <1>  -0.0800 
 10 C       -2.0010    -2.6410    -1.4230 C.3   1 <1>   0.1200 
 11 O       -0.0820     3.4690     0.3750 O.3   1 <1>  -0.6800 
 12 C       -3.4750    -3.2130     0.2300 C.3   1 <1>   0.1200 
 13 C       -5.0810    -1.1960     0.1570 C.3   1 <1>  -0.0170 
 14 O       -2.1530    -3.3160    -0.2130 O.3   1 <1>  -0.5600 
 15 C       -6.2900    -1.9510     0.6990 C.ar  1 <1>  -0.1440 
 16 C       -7.3940    -2.2950    -0.1170 C.ar  1 <1>   0.0000 
 17 C       -6.3320    -2.3270     2.0090 C.ar  1 <1>  -0.1500 
 18 C       -8.4500    -3.0250     0.4820 C.ar  1 <1>   0.3100 
 19 C       -7.5140    -1.9580    -1.4850 C.ar  1 <1>  -0.1500 
 20 C       -7.4320    -3.0400     2.5030 C.ar  1 <1>   0.1600 
 21 N       -8.4540    -3.3890     1.7890 N.ar  1 <1>  -0.6200 
 22 C       -9.5530    -3.3930    -0.3060 C.ar  1 <1>  -0.1500 
 23 C       -8.6030    -2.3310    -2.2240 C.ar  1 <1>  -0.1500 
 24 C       -9.6360    -3.0600    -1.6310 C.ar  1 <1>  -0.1500 
 25 H       -1.8050    -0.7400     0.2570 H     1 <1>   0.3700 
 26 H       -3.2440    -1.1000    -2.3200 H     1 <1>   0.0800 
 27 H       -2.5620     3.6520     1.4950 H     1 <1>   0.1000 
 28 H       -3.8310     2.4230     1.2400 H     1 <1>   0.1000 
 29 H       -2.2550     0.6470     2.0980 H     1 <1>   0.1000 
 30 H       -0.9560     1.8590     2.2840 H     1 <1>   0.1000 
 31 H       -1.1370     3.1730    -1.3030 H     1 <1>   0.0800 
 32 H       -0.0430     1.8840    -0.8390 H     1 <1>   0.0800 
 33 H       -4.7330    -2.6520    -1.3750 H     1 <1>   0.0800 
 34 H       -0.9790    -2.3250    -1.5400 H     1 <1>   0.0800 
 35 H       -2.2720    -3.3170    -2.2160 H     1 <1>   0.0800 
 36 H       -0.7180     4.0850     0.7850 H     1 <1>   0.4000 
 37 H       -3.9560    -4.1700     0.1190 H     1 <1>   0.0800 
 38 H       -3.4490    -2.9380     1.2700 H     1 <1>   0.0800 
 39 H       -5.4050    -0.3840    -0.4700 H     1 <1>   0.0800 
 40 H       -4.5420    -0.7550     0.9770 H     1 <1>   0.0800 
 41 H       -5.5350    -2.0940     2.6900 H     1 <1>   0.1500 
 42 H       -6.7350    -1.3930    -1.9620 H     1 <1>   0.1500 
 43 H       -7.4250    -3.3170     3.5440 H     1 <1>   0.1500 
 44 H      -10.3360    -3.9510     0.1720 H     1 <1>   0.1500 
 45 H       -8.6810    -2.0680    -3.2660 H     1 <1>   0.1500 
 46 H      -10.4870    -3.3480    -2.2220 H     1 <1>   0.1500 
@<TRIPOS>BOND
  1   1   2  2   
  2   2   3  am  
  3   2   4  1   
  4   3   5  1   
  5   3  25  1   
  6   4   6  1   
  7   4   7  1   
  8   4   8  1   
  9   5   9  1   
 10   5  10  1   
 11   5  26  1   
 12   6   7  1   
 13   6  27  1   
 14   6  28  1   
 15   7  29  1   
 16   7  30  1   
 17   8  11  1   
 18   8  31  1   
 19   8  32  1   
 20   9  12  1   
 21   9  13  1   
 22   9  33  1   
 23  10  14  1   
 24  10  34  1   
 25  10  35  1   
 26  11  36  1   
 27  12  14  1   
 28  12  37  1   
 29  12  38  1   
 30  13  15  1   
 31  13  39  1   
 32  13  40  1   
 33  15  16  ar  
 34  15  17  ar  
 35  16  18  ar  
 36  16  19  ar  
 37  17  20  ar  
 38  17  41  1   
 39  18  21  ar  
 40  18  22  ar  
 41  19  23  ar  
 42  19  42  1   
 43  20  21  ar  
 44  20  43  1   
 45  22  24  ar  
 46  22  44  1   
 47  23  24  ar  
 48  23  45  1   
 49  24  46  1   
@<TRIPOS>SUBSTRUCTURE
  1 ****  13 GROUP 4 **** **** 0

# MOE 2024.06 (io_trps.svl 2023.06)
