@<TRIPOS>MOLECULE
NONAME
44 47 1 0 0 
SMALL
USER_CHARGES


@<TRIPOS>ATOM
  1 S        0.2040    -0.0320    -2.0050 S.3   1 <1>  -0.0800 
  2 C       -0.3240    -1.4900    -1.1270 C.2   1 <1>  -0.0450 
  3 C        1.7660    -0.0100    -1.1980 C.2   1 <1>  -0.1100 
  4 C        0.6820    -1.8710    -0.2970 C.2   1 <1>   0.0620 
  5 C       -1.6140    -2.0500    -1.4070 C.2   1 <1>   0.7150 
  6 C        1.8490    -1.0380    -0.3360 C.2   1 <1>   0.0620 
  7 O        0.6350    -2.9370     0.5290 O.3   1 <1>  -0.3420 
  8 O       -1.7150    -3.2440    -1.6360 O.2   1 <1>  -0.5700 
  9 N       -2.7600    -1.2770    -1.4310 N.am  1 <1>  -0.6600 
 10 O        2.9290    -1.3010     0.4480 O.3   1 <1>  -0.3420 
 11 C        1.8600    -3.3930     1.0690 C.3   1 <1>   0.1200 
 12 C       -4.0230    -1.7570    -2.0580 C.3   1 <1>   0.1400 
 13 C       -2.8950     0.0200    -0.7130 C.3   1 <1>   0.1400 
 14 C        2.7160    -2.2000     1.5220 C.3   1 <1>   0.1200 
 15 C       -5.1070    -1.8940    -0.9870 C.3   1 <1>  -0.1600 
 16 C       -3.9710    -0.1100     0.3670 C.3   1 <1>  -0.1600 
 17 C       -5.3080    -0.5870    -0.2160 C.3   1 <1>   0.4180 
 18 O       -5.7730     0.3570    -1.1520 O.3   1 <1>  -0.5600 
 19 C       -6.3430    -0.7960     0.8870 C.2   1 <1>  -0.2880 
 20 C       -6.4330     1.4870    -0.6560 C.3   1 <1>   0.1200 
 21 C       -7.4490    -0.0610     1.0270 C.2   1 <1>  -0.2760 
 22 C       -7.7240     1.0840     0.0710 C.3   1 <1>  -0.0220 
 23 C       -8.5030    -0.2870     2.0960 C.3   1 <1>  -0.1020 
 24 H        2.4610     0.7690    -1.4510 H     1 <1>   0.1500 
 25 H        2.3710    -3.9560     0.3080 H     1 <1>   0.0800 
 26 H        1.6350    -4.0400     1.8960 H     1 <1>   0.0800 
 27 H       -3.8720    -2.7050    -2.5470 H     1 <1>   0.0800 
 28 H       -4.3350    -1.0470    -2.8040 H     1 <1>   0.0800 
 29 H       -3.1700     0.7860    -1.4190 H     1 <1>   0.0800 
 30 H       -1.9670     0.3030    -0.2500 H     1 <1>   0.0800 
 31 H        2.2220    -1.6650     2.3140 H     1 <1>   0.0800 
 32 H        3.6780    -2.5320     1.8680 H     1 <1>   0.0800 
 33 H       -4.8190    -2.6760    -0.3090 H     1 <1>   0.0800 
 34 H       -6.0360    -2.1820    -1.4430 H     1 <1>   0.0800 
 35 H       -4.1000     0.8250     0.8760 H     1 <1>   0.0800 
 36 H       -3.6340    -0.8230     1.0980 H     1 <1>   0.0800 
 37 H       -6.0920    -1.6100     1.5430 H     1 <1>   0.1500 
 38 H       -6.6590     2.1280    -1.4890 H     1 <1>   0.0800 
 39 H       -5.7720     2.0080     0.0130 H     1 <1>   0.0800 
 40 H       -8.4680     0.7890    -0.6470 H     1 <1>   0.0800 
 41 H       -8.0940     1.9390     0.6080 H     1 <1>   0.0800 
 42 H       -8.5960     0.5850     2.7190 H     1 <1>   0.0800 
 43 H       -8.2370    -1.1230     2.7170 H     1 <1>   0.0800 
 44 H       -9.4550    -0.4910     1.6390 H     1 <1>   0.0800 
@<TRIPOS>BOND
  1   1   2  1   
  2   1   3  1   
  3   2   4  2   
  4   2   5  1   
  5   3   6  2   
  6   3  24  1   
  7   4   6  1   
  8   4   7  1   
  9   5   8  2   
 10   5   9  am  
 11   6  10  1   
 12   7  11  1   
 13   9  12  1   
 14   9  13  1   
 15  10  14  1   
 16  11  14  1   
 17  11  25  1   
 18  11  26  1   
 19  12  15  1   
 20  12  27  1   
 21  12  28  1   
 22  13  16  1   
 23  13  29  1   
 24  13  30  1   
 25  14  31  1   
 26  14  32  1   
 27  15  17  1   
 28  15  33  1   
 29  15  34  1   
 30  16  17  1   
 31  16  35  1   
 32  16  36  1   
 33  17  18  1   
 34  17  19  1   
 35  18  20  1   
 36  19  21  2   
 37  19  37  1   
 38  20  22  1   
 39  20  38  1   
 40  20  39  1   
 41  21  22  1   
 42  21  23  1   
 43  22  40  1   
 44  22  41  1   
 45  23  42  1   
 46  23  43  1   
 47  23  44  1   
@<TRIPOS>SUBSTRUCTURE
  1 ****   9 GROUP 4 **** **** 0

# MOE 2024.06 (io_trps.svl 2023.06)
