@<TRIPOS>MOLECULE
NONAME
40 41 1 0 0 
SMALL
USER_CHARGES


@<TRIPOS>ATOM
  1 S       -1.2110    -0.3880    -0.7710 S.3   1 <1>  -0.0800 
  2 C       -0.8400    -1.5210     0.4850 C.2   1 <1>   0.4420 
  3 C       -0.5340     0.8470     0.2400 C.2   1 <1>   0.1980 
  4 N       -0.2790    -0.9600     1.4940 N.2   1 <1>  -0.3380 
  5 N       -1.1820    -2.8350     0.2450 N.am  1 <1>  -0.4940 
  6 N       -0.1080     0.3890     1.3480 N.2   1 <1>  -0.3380 
  7 C       -0.5200     2.2900    -0.2590 C.3   1 <1>   0.3800 
  8 C       -1.0420    -3.9260     1.0520 C.2   1 <1>   0.5690 
  9 O       -1.8080     2.7110    -0.6070 O.3   1 <1>  -0.5600 
 10 C        0.3560     2.4680    -1.4970 C.3   1 <1>  -0.2400 
 11 O       -0.5810    -3.8890     2.1620 O.2   1 <1>  -0.5700 
 12 C       -1.5010    -5.2660     0.5080 C.3   1 <1>  -0.0990 
 13 C       -2.6760     2.8970     0.4700 C.3   1 <1>   0.0400 
 14 C       -3.0330    -5.3610     0.4120 C.3   1 <1>  -0.1600 
 15 C       -3.4880    -6.7500    -0.0510 C.3   1 <1>  -0.0170 
 16 C       -5.0030    -6.7950    -0.1680 C.ar  1 <1>  -0.1430 
 17 C       -5.7770    -7.0220     0.9640 C.ar  1 <1>  -0.1500 
 18 C       -5.6160    -6.6070    -1.4010 C.ar  1 <1>  -0.1500 
 19 C       -7.1580    -7.0610     0.8700 C.ar  1 <1>  -0.1500 
 20 C       -6.9960    -6.6440    -1.5080 C.ar  1 <1>  -0.1500 
 21 C       -7.7420    -6.8700    -0.3670 C.ar  1 <1>   0.1900 
 22 F       -9.0440    -6.9050    -0.4620 F     1 <1>  -0.1900 
 23 H       -1.6150    -3.0030    -0.6570 H     1 <1>   0.3700 
 24 H       -0.1550     2.9330     0.5240 H     1 <1>   0.0800 
 25 H       -0.0240     1.8840    -2.3150 H     1 <1>   0.0800 
 26 H        1.3600     2.1500    -1.2810 H     1 <1>   0.0800 
 27 H        0.3780     3.5040    -1.7820 H     1 <1>   0.0800 
 28 H       -1.1370    -6.0360     1.1660 H     1 <1>   0.0800 
 29 H       -1.0560    -5.4250    -0.4570 H     1 <1>   0.0800 
 30 H       -3.6180     3.2440     0.0830 H     1 <1>   0.0800 
 31 H       -2.2670     3.6360     1.1370 H     1 <1>   0.0800 
 32 H       -2.8220     1.9630     0.9850 H     1 <1>   0.0800 
 33 H       -3.4070    -4.6220    -0.2750 H     1 <1>   0.0800 
 34 H       -3.4610    -5.1560     1.3800 H     1 <1>   0.0800 
 35 H       -3.1630    -7.4960     0.6540 H     1 <1>   0.0800 
 36 H       -3.0450    -6.9850    -1.0030 H     1 <1>   0.0800 
 37 H       -5.3070    -7.1670     1.9210 H     1 <1>   0.1500 
 38 H       -5.0230    -6.4320    -2.2820 H     1 <1>   0.1500 
 39 H       -7.7720    -7.2350     1.7350 H     1 <1>   0.1500 
 40 H       -7.4880    -6.5010    -2.4530 H     1 <1>   0.1500 
@<TRIPOS>BOND
  1   1   2  1   
  2   1   3  1   
  3   2   4  2   
  4   2   5  1   
  5   3   6  2   
  6   3   7  1   
  7   4   6  1   
  8   5   8  am  
  9   5  23  1   
 10   7   9  1   
 11   7  10  1   
 12   7  24  1   
 13   8  11  2   
 14   8  12  1   
 15   9  13  1   
 16  10  25  1   
 17  10  26  1   
 18  10  27  1   
 19  12  14  1   
 20  12  28  1   
 21  12  29  1   
 22  13  30  1   
 23  13  31  1   
 24  13  32  1   
 25  14  15  1   
 26  14  33  1   
 27  14  34  1   
 28  15  16  1   
 29  15  35  1   
 30  15  36  1   
 31  16  17  ar  
 32  16  18  ar  
 33  17  19  ar  
 34  17  37  1   
 35  18  20  ar  
 36  18  38  1   
 37  19  21  ar  
 38  19  39  1   
 39  20  21  ar  
 40  20  40  1   
 41  21  22  1   
@<TRIPOS>SUBSTRUCTURE
  1 ****   5 GROUP 4 **** **** 0

# MOE 2024.06 (io_trps.svl 2023.06)
