@<TRIPOS>MOLECULE
NONAME
38 40 1 0 0 
SMALL
USER_CHARGES


@<TRIPOS>ATOM
  1 S        1.6800    -0.2450     1.9390 S.3   1 <1>  -0.0800 
  2 C        2.1950    -0.4090     0.2680 C.2   1 <1>   0.4620 
  3 C        0.8620    -1.7710     1.8160 C.2   1 <1>  -0.1100 
  4 N        1.7870    -1.4890    -0.2940 N.2   1 <1>  -0.5650 
  5 N        2.9610     0.5860    -0.2780 N.3   1 <1>  -0.5740 
  6 C        1.0250    -2.2830     0.5770 C.2   1 <1>   0.1410 
  7 C        2.6490     2.0430    -0.0770 C.3   1 <1>   0.2450 
  8 C        3.0190     0.8210    -1.7630 C.3   1 <1>   0.2450 
  9 C        0.4770    -3.5550     0.1240 C.2   1 <1>   0.7160 
 10 C        3.2580     2.3210    -1.4750 C.3   1 <1>   0.2580 
 11 O       -0.2080    -4.2550     0.8400 O.2   1 <1>  -0.5700 
 12 N        0.7180    -4.0070    -1.1270 N.am  1 <1>  -0.8000 
 13 O        4.6450     2.6160    -1.4190 O.3   1 <1>  -0.3400 
 14 C        5.0250     3.7770    -0.8370 C.ar  1 <1>   0.0830 
 15 C        5.9710     3.7410     0.1850 C.ar  1 <1>  -0.1430 
 16 C        4.4810     4.9840    -1.2590 C.ar  1 <1>  -0.1500 
 17 C        6.3490     4.9390     0.7790 C.ar  1 <1>  -0.1500 
 18 C        6.5460     2.3840     0.6060 C.3   1 <1>  -0.0170 
 19 C        4.8660     6.1660    -0.6550 C.ar  1 <1>  -0.1500 
 20 C        5.8000     6.1410     0.3650 C.ar  1 <1>  -0.1500 
 21 C        7.4720     2.4040     1.8270 C.3   1 <1>  -0.2400 
 22 H        0.3390    -2.1440     2.6780 H     1 <1>   0.1500 
 23 H        3.1970     2.4700     0.7450 H     1 <1>   0.0000 
 24 H        1.5870     2.2100    -0.0320 H     1 <1>   0.0000 
 25 H        2.0700     0.6200    -2.2270 H     1 <1>   0.0000 
 26 H        3.8530     0.3230    -2.2240 H     1 <1>   0.0000 
 27 H        2.7220     3.0040    -2.1080 H     1 <1>   0.0000 
 28 H        0.3470    -4.9030    -1.4350 H     1 <1>   0.3700 
 29 H        1.3040    -3.4690    -1.7660 H     1 <1>   0.3700 
 30 H        3.7670     5.0080    -2.0610 H     1 <1>   0.1500 
 31 H        7.0740     4.9610     1.5710 H     1 <1>   0.1500 
 32 H        7.0840     1.9720    -0.2300 H     1 <1>   0.0800 
 33 H        5.7270     1.7170     0.8170 H     1 <1>   0.0800 
 34 H        4.4460     7.1020    -0.9780 H     1 <1>   0.1500 
 35 H        6.1040     7.0600     0.8370 H     1 <1>   0.1500 
 36 H        8.3450     3.0000     1.6270 H     1 <1>   0.0800 
 37 H        7.7910     1.4030     2.0570 H     1 <1>   0.0800 
 38 H        6.9550     2.8020     2.6820 H     1 <1>   0.0800 
@<TRIPOS>BOND
  1   1   2  1   
  2   1   3  1   
  3   2   4  2   
  4   2   5  1   
  5   3   6  2   
  6   3  22  1   
  7   4   6  1   
  8   5   7  1   
  9   5   8  1   
 10   6   9  1   
 11   7  10  1   
 12   7  23  1   
 13   7  24  1   
 14   8  10  1   
 15   8  25  1   
 16   8  26  1   
 17   9  11  2   
 18   9  12  am  
 19  10  13  1   
 20  10  27  1   
 21  12  28  1   
 22  12  29  1   
 23  13  14  1   
 24  14  15  ar  
 25  14  16  ar  
 26  15  17  ar  
 27  15  18  1   
 28  16  19  ar  
 29  16  30  1   
 30  17  20  ar  
 31  17  31  1   
 32  18  21  1   
 33  18  32  1   
 34  18  33  1   
 35  19  20  ar  
 36  19  34  1   
 37  20  35  1   
 38  21  36  1   
 39  21  37  1   
 40  21  38  1   
@<TRIPOS>SUBSTRUCTURE
  1 ****   5 GROUP 4 **** **** 0

# MOE 2024.06 (io_trps.svl 2023.06)
