@<TRIPOS>MOLECULE
NONAME
54 57 1 0 0 
SMALL
USER_CHARGES


@<TRIPOS>ATOM
  1 O       -1.2250     0.3780    -1.2690 O.2   1 <1>  -0.5700 
  2 C       -2.0860     0.8100    -0.5250 C.2   1 <1>   0.5440 
  3 N       -1.9750     2.1070    -0.0670 N.am  1 <1>  -0.6600 
  4 C       -3.1950    -0.0400    -0.1640 C.ar  1 <1>   0.0860 
  5 C       -0.6990     2.8780    -0.1840 C.3   1 <1>   0.1400 
  6 C       -3.1450     2.9660     0.2870 C.3   1 <1>   0.1400 
  7 C       -3.7920    -0.8610    -1.1170 C.ar  1 <1>   0.1600 
  8 C       -3.7130    -0.0990     1.1260 C.ar  1 <1>  -0.1500 
  9 C       -0.8970     4.1200    -1.0670 C.3   1 <1>   0.1200 
 10 C       -3.1960     4.2120    -0.6150 C.3   1 <1>   0.1200 
 11 N       -4.8230    -1.6630    -0.9170 N.ar  1 <1>  -0.6200 
 12 C       -4.7800    -0.9330     1.3540 C.ar  1 <1>  -0.1500 
 13 O       -1.9710     4.8880    -0.6000 O.3   1 <1>  -0.5600 
 14 C       -5.3180    -1.6910     0.3160 C.ar  1 <1>   0.4100 
 15 N       -6.4010    -2.5080     0.5470 N.pl3 1 <1>  -0.8380 
 16 C       -7.6740    -1.9210     1.0670 C.3   1 <1>   0.2090 
 17 C       -6.6710    -3.6640    -0.3640 C.3   1 <1>   0.2090 
 18 C       -8.5430    -2.9830     1.7740 C.3   1 <1>   0.2090 
 19 C       -7.5130    -4.7490     0.3350 C.3   1 <1>   0.2090 
 20 N       -8.7730    -4.2040     0.9330 N.pl3 1 <1>  -0.8380 
 21 C       -9.9110    -4.2550     0.1370 C.ar  1 <1>   0.4100 
 22 N      -10.1900    -3.1430    -0.5320 N.ar  1 <1>  -0.6200 
 23 C      -10.7020    -5.4240     0.0290 C.ar  1 <1>   0.1670 
 24 C      -11.2530    -3.2550    -1.3040 C.ar  1 <1>   0.1670 
 25 N      -11.7620    -5.5330    -0.7500 N.ar  1 <1>  -0.6200 
 26 C      -10.3660    -6.6700     0.8310 C.3   1 <1>  -0.0970 
 27 C      -12.0120    -4.4140    -1.4110 C.ar  1 <1>   0.1600 
 28 C      -11.6180    -2.0180    -2.1000 C.3   1 <1>  -0.0970 
 29 H        0.0820     2.2660    -0.6000 H     1 <1>   0.0800 
 30 H       -0.3840     3.1890     0.7960 H     1 <1>   0.0800 
 31 H       -3.0590     3.2770     1.3130 H     1 <1>   0.0800 
 32 H       -4.0650     2.4220     0.1760 H     1 <1>   0.0800 
 33 H       -3.3800    -0.8430    -2.1120 H     1 <1>   0.1500 
 34 H       -3.2790     0.4870     1.9160 H     1 <1>   0.1500 
 35 H       -1.0930     3.8300    -2.0850 H     1 <1>   0.0800 
 36 H       -0.0160     4.7360    -1.0450 H     1 <1>   0.0800 
 37 H       -3.9510     4.8940    -0.2650 H     1 <1>   0.0800 
 38 H       -3.4230     3.9360    -1.6300 H     1 <1>   0.0800 
 39 H       -5.2080    -1.0230     2.3340 H     1 <1>   0.1500 
 40 H       -8.2290    -1.5080     0.2440 H     1 <1>   0.0800 
 41 H       -7.4630    -1.1230     1.7550 H     1 <1>   0.0800 
 42 H       -5.7400    -4.0950    -0.6890 H     1 <1>   0.0800 
 43 H       -7.1990    -3.3130    -1.2340 H     1 <1>   0.0800 
 44 H       -9.4910    -2.5450     2.0330 H     1 <1>   0.0800 
 45 H       -8.0570    -3.2780     2.6870 H     1 <1>   0.0800 
 46 H       -6.9220    -5.1980     1.1130 H     1 <1>   0.0800 
 47 H       -7.7550    -5.5160    -0.3800 H     1 <1>   0.0800 
 48 H       -9.8620    -6.4170     1.7450 H     1 <1>   0.0800 
 49 H       -9.7360    -7.3130     0.2460 H     1 <1>   0.0800 
 50 H      -11.2670    -7.2000     1.0800 H     1 <1>   0.0800 
 51 H      -12.8620    -4.4230    -2.0670 H     1 <1>   0.1500 
 52 H      -10.7940    -1.7460    -2.7350 H     1 <1>   0.0800 
 53 H      -11.8170    -1.2050    -1.4270 H     1 <1>   0.0800 
 54 H      -12.4860    -2.1890    -2.7090 H     1 <1>   0.0800 
@<TRIPOS>BOND
  1   1   2  2   
  2   2   3  am  
  3   2   4  1   
  4   3   5  1   
  5   3   6  1   
  6   4   7  ar  
  7   4   8  ar  
  8   5   9  1   
  9   5  29  1   
 10   5  30  1   
 11   6  10  1   
 12   6  31  1   
 13   6  32  1   
 14   7  11  ar  
 15   7  33  1   
 16   8  12  ar  
 17   8  34  1   
 18   9  13  1   
 19   9  35  1   
 20   9  36  1   
 21  10  13  1   
 22  10  37  1   
 23  10  38  1   
 24  11  14  ar  
 25  12  14  ar  
 26  12  39  1   
 27  14  15  1   
 28  15  16  1   
 29  15  17  1   
 30  16  18  1   
 31  16  40  1   
 32  16  41  1   
 33  17  19  1   
 34  17  42  1   
 35  17  43  1   
 36  18  20  1   
 37  18  44  1   
 38  18  45  1   
 39  19  20  1   
 40  19  46  1   
 41  19  47  1   
 42  20  21  1   
 43  21  22  ar  
 44  21  23  ar  
 45  22  24  ar  
 46  23  25  ar  
 47  23  26  1   
 48  24  27  ar  
 49  24  28  1   
 50  25  27  ar  
 51  26  48  1   
 52  26  49  1   
 53  26  50  1   
 54  27  51  1   
 55  28  52  1   
 56  28  53  1   
 57  28  54  1   
@<TRIPOS>SUBSTRUCTURE
  1 ****  14 GROUP 4 **** **** 0

# MOE 2024.06 (io_trps.svl 2023.06)
