@<TRIPOS>MOLECULE
NONAME
49 52 1 0 0 
SMALL
USER_CHARGES


@<TRIPOS>ATOM
  1 O        1.4510    -0.7820    -2.0470 O.2   1 <1>  -0.5700 
  2 C        2.1910    -1.2040    -1.1800 C.2   1 <1>   0.7030 
  3 N        3.2280    -0.3810    -0.7600 N.am  1 <1>  -0.6600 
  4 C        1.8970    -2.5390    -0.6660 C.2   1 <1>   0.2770 
  5 C        3.9210    -0.5290     0.5810 C.3   1 <1>   0.2200 
  6 C        3.4480     0.9040    -1.5270 C.3   1 <1>   0.1400 
  7 N        0.6190    -3.0740    -0.6140 N.pl3 1 <1>  -0.7000 
  8 C        2.7150    -3.5180    -0.2030 C.2   1 <1>   0.2000 
  9 C        3.5410     0.6030     1.5550 C.3   1 <1>   0.1200 
 10 C        5.4590    -0.6630     0.4460 C.3   1 <1>   0.3430 
 11 C        4.5300     1.8690    -0.9960 C.3   1 <1>  -0.0800 
 12 C        0.6700    -4.3210    -0.1330 C.cat 1 <1>   0.7910 
 13 N        1.9610    -4.6180     0.1440 N.pl3 1 <1>  -0.6290 
 14 O        4.3710     1.7080     1.4000 O.3   1 <1>  -0.5600 
 15 N        5.9980    -0.1840    -0.8770 N.4   1 <1>  -0.9590 
 16 C        4.1150     2.5380     0.3200 C.3   1 <1>   0.1200 
 17 C        5.9640     1.3070    -0.9320 C.3   1 <1>   0.3430 
 18 C       -0.3500    -5.2600     0.0880 C.2   1 <1>  -0.1410 
 19 C        2.2910    -5.8590     0.6490 C.2   1 <1>   0.2290 
 20 C        7.4500    -0.6400    -1.0050 C.3   1 <1>   0.2370 
 21 C       -0.0390    -6.4940     0.5930 C.2   1 <1>  -0.1380 
 22 C        1.3130    -6.7850     0.8730 C.2   1 <1>  -0.1500 
 23 C        8.3140    -0.3680     0.2290 C.2   1 <1>   0.9060 
 24 C       -1.0960    -7.5540     0.8560 C.3   1 <1>  -0.1020 
 25 O        8.9410     0.6900     0.2750 O.co2 1 <1>  -0.9000 
 26 O        8.2070    -1.1600     1.1720 O.co2 1 <1>  -0.9000 
 27 H        3.5730    -1.4220     1.0610 H     1 <1>   0.0800 
 28 H        3.6870     0.6500    -2.5460 H     1 <1>   0.0800 
 29 H        2.5130     1.4420    -1.5600 H     1 <1>   0.0800 
 30 H       -0.2170    -2.5970    -0.9710 H     1 <1>   0.4500 
 31 H        3.7880    -3.5100    -0.1100 H     1 <1>   0.1500 
 32 H        3.6900     0.2620     2.5650 H     1 <1>   0.0800 
 33 H        2.5120     0.9020     1.4480 H     1 <1>   0.0800 
 34 H        5.7320    -1.6960     0.5800 H     1 <1>   0.0800 
 35 H        5.9380    -0.1220     1.2500 H     1 <1>   0.0800 
 36 H        4.5680     2.6760    -1.7060 H     1 <1>   0.0800 
 37 H        5.4280    -0.5620    -1.6380 H     1 <1>   0.4500 
 38 H        3.0740     2.8170     0.3250 H     1 <1>   0.0800 
 39 H        4.7010     3.4290     0.4740 H     1 <1>   0.0800 
 40 H        6.4790     1.7130    -0.0730 H     1 <1>   0.0800 
 41 H        6.5010     1.6320    -1.8070 H     1 <1>   0.0800 
 42 H       -1.3600    -4.9820    -0.1470 H     1 <1>   0.1500 
 43 H        3.3290    -6.0700     0.8570 H     1 <1>   0.1500 
 44 H        7.4840    -1.7010    -1.1720 H     1 <1>   0.0800 
 45 H        7.9210    -0.1520    -1.8390 H     1 <1>   0.0800 
 46 H        1.5610    -7.7560     1.2680 H     1 <1>   0.1500 
 47 H       -1.0970    -7.8250     1.8980 H     1 <1>   0.0800 
 48 H       -0.8910    -8.4350     0.2720 H     1 <1>   0.0800 
 49 H       -2.0770    -7.1970     0.5980 H     1 <1>   0.0800 
@<TRIPOS>BOND
  1   1   2  2   
  2   2   3  am  
  3   2   4  1   
  4   3   5  1   
  5   3   6  1   
  6   4   7  1   
  7   4   8  2   
  8   5   9  1   
  9   5  10  1   
 10   5  27  1   
 11   6  11  1   
 12   6  28  1   
 13   6  29  1   
 14   7  12  ar  
 15   7  30  1   
 16   8  13  1   
 17   8  31  1   
 18   9  14  1   
 19   9  32  1   
 20   9  33  1   
 21  10  15  1   
 22  10  34  1   
 23  10  35  1   
 24  11  16  1   
 25  11  17  1   
 26  11  36  1   
 27  12  13  ar  
 28  12  18  1   
 29  13  19  1   
 30  14  16  1   
 31  15  17  1   
 32  15  20  1   
 33  15  37  1   
 34  16  38  1   
 35  16  39  1   
 36  17  40  1   
 37  17  41  1   
 38  18  21  2   
 39  18  42  1   
 40  19  22  2   
 41  19  43  1   
 42  20  23  1   
 43  20  44  1   
 44  20  45  1   
 45  21  22  1   
 46  21  24  1   
 47  22  46  1   
 48  23  25  ar  
 49  23  26  ar  
 50  24  47  1   
 51  24  48  1   
 52  24  49  1   
@<TRIPOS>SUBSTRUCTURE
  1 ****   5 GROUP 4 **** **** 0

# MOE 2024.06 (io_trps.svl 2023.06)
