@<TRIPOS>MOLECULE
NONAME
46 48 1 0 0 
SMALL
USER_CHARGES


@<TRIPOS>ATOM
  1 F        1.3630     0.6350     0.7800 F     1 <1>  -0.3400 
  2 C        1.5840    -0.0510    -0.3320 C.3   1 <1>   1.1640 
  3 F        0.6750     0.3410    -1.2110 F     1 <1>  -0.3400 
  4 F        2.7600     0.3530    -0.7970 F     1 <1>  -0.3400 
  5 C        1.5370    -1.5740    -0.0920 C.ar  1 <1>  -0.1440 
  6 C        2.5990    -2.4100    -0.3600 C.ar  1 <1>  -0.1500 
  7 C        0.3780    -2.1480     0.4410 C.ar  1 <1>  -0.1500 
  8 C        2.5250    -3.7930    -0.1290 C.ar  1 <1>   0.3610 
  9 C        0.2860    -3.5010     0.6440 C.ar  1 <1>  -0.1500 
 10 N        3.6530    -4.5670    -0.2660 N.ar  1 <1>  -0.1790 
 11 C        1.3220    -4.3940     0.2990 C.ar  1 <1>   0.0000 
 12 C        3.6550    -5.8810     0.0010 C.ar  1 <1>   0.2180 
 13 C        1.2560    -5.8310     0.4010 C.ar  1 <1>   0.1000 
 14 C        2.4830    -6.5060     0.3360 C.ar  1 <1>  -0.1500 
 15 C        4.9720    -6.6340    -0.0950 C.3   1 <1>  -0.0970 
 16 N        0.1000    -6.5580     0.5050 N.pl3 1 <1>  -0.8380 
 17 C       -1.2830    -6.0940     0.1590 C.3   1 <1>   0.2090 
 18 C        0.0210    -8.0270     0.8080 C.3   1 <1>   0.2090 
 19 C       -2.0700    -7.3580    -0.1850 C.3   1 <1>   0.2000 
 20 C       -1.4670    -8.4170     0.7530 C.3   1 <1>   0.4230 
 21 O       -3.4370    -7.2070     0.0470 O.3   1 <1>  -0.6800 
 22 N       -1.7550    -9.8690     0.3980 N.4   1 <1>  -0.9590 
 23 C       -1.3590   -10.2600    -0.9940 C.3   1 <1>   0.2630 
 24 C       -3.2120   -10.1630     0.6070 C.3   1 <1>   0.2630 
 25 H        3.5160    -1.9980    -0.7470 H     1 <1>   0.1500 
 26 H       -0.4540    -1.5110     0.7040 H     1 <1>   0.1500 
 27 H       -0.6080    -3.8690     1.1040 H     1 <1>   0.1500 
 28 H        4.5210    -4.1000    -0.5390 H     1 <1>   0.4570 
 29 H        2.5170    -7.5610     0.5290 H     1 <1>   0.1500 
 30 H        4.8370    -7.6750     0.1450 H     1 <1>   0.0800 
 31 H        5.6910    -6.2260     0.5940 H     1 <1>   0.0800 
 32 H        5.3700    -6.5720    -1.0930 H     1 <1>   0.0800 
 33 H       -1.7290    -5.6340     1.0240 H     1 <1>   0.0800 
 34 H       -1.2640    -5.4090    -0.6720 H     1 <1>   0.0800 
 35 H        0.5750    -8.5700     0.0640 H     1 <1>   0.0800 
 36 H        0.4250    -8.2230     1.7870 H     1 <1>   0.0800 
 37 H       -1.9140    -7.6050    -1.2200 H     1 <1>   0.0800 
 38 H       -1.8640    -8.2220     1.7360 H     1 <1>   0.0800 
 39 H       -3.8310    -6.5150    -0.5280 H     1 <1>   0.4000 
 40 H       -1.2360   -10.4620     1.0630 H     1 <1>   0.4500 
 41 H       -1.9260    -9.6990    -1.7190 H     1 <1>   0.0800 
 42 H       -1.5500   -11.3100    -1.1530 H     1 <1>   0.0800 
 43 H       -0.3090   -10.0780    -1.1570 H     1 <1>   0.0800 
 44 H       -3.8140    -9.5910    -0.0810 H     1 <1>   0.0800 
 45 H       -3.5080    -9.9030     1.6110 H     1 <1>   0.0800 
 46 H       -3.4120   -11.2100     0.4500 H     1 <1>   0.0800 
@<TRIPOS>BOND
  1   1   2  1   
  2   2   3  1   
  3   2   4  1   
  4   2   5  1   
  5   5   6  ar  
  6   5   7  ar  
  7   6   8  ar  
  8   6  25  1   
  9   7   9  ar  
 10   7  26  1   
 11   8  10  ar  
 12   8  11  ar  
 13   9  11  ar  
 14   9  27  1   
 15  10  12  ar  
 16  10  28  1   
 17  11  13  ar  
 18  12  14  ar  
 19  12  15  1   
 20  13  14  ar  
 21  13  16  1   
 22  14  29  1   
 23  15  30  1   
 24  15  31  1   
 25  15  32  1   
 26  16  17  1   
 27  16  18  1   
 28  17  19  1   
 29  17  33  1   
 30  17  34  1   
 31  18  20  1   
 32  18  35  1   
 33  18  36  1   
 34  19  20  1   
 35  19  21  1   
 36  19  37  1   
 37  20  22  1   
 38  20  38  1   
 39  21  39  1   
 40  22  23  1   
 41  22  24  1   
 42  22  40  1   
 43  23  41  1   
 44  23  42  1   
 45  23  43  1   
 46  24  44  1   
 47  24  45  1   
 48  24  46  1   
@<TRIPOS>SUBSTRUCTURE
  1 ****  11 GROUP 4 **** **** 0

# MOE 2024.06 (io_trps.svl 2023.06)
