@<TRIPOS>MOLECULE
NONAME
52 56 1 0 0 
SMALL
USER_CHARGES


@<TRIPOS>ATOM
  1 O        0.8090    -0.4100    -1.2350 O.3   1 <1>  -0.5600 
  2 C        1.8990    -0.9350    -0.5130 C.3   1 <1>   0.4240 
  3 C       -0.4730    -0.7340    -0.7960 C.3   1 <1>   0.1200 
  4 C        1.6320    -2.3860    -0.0560 C.ar  1 <1>  -0.1440 
  5 C        2.1650    -0.0160     0.6920 C.3   1 <1>  -0.1600 
  6 C        3.0870    -0.8930    -1.4870 C.3   1 <1>  -0.1600 
  7 C       -0.6930    -2.2320    -0.9820 C.3   1 <1>  -0.0160 
  8 C        0.4080    -3.0020    -0.2790 C.ar  1 <1>  -0.1440 
  9 C        2.6210    -3.1090     0.5990 C.ar  1 <1>  -0.1500 
 10 C        2.5170     1.4050     0.2530 C.3   1 <1>   0.2090 
 11 C        3.4350     0.5360    -1.8990 C.3   1 <1>   0.2090 
 12 C        0.1850    -4.3040     0.1390 C.ar  1 <1>  -0.1500 
 13 C        2.4190    -4.4130     1.0170 C.ar  1 <1>   0.0830 
 14 N        3.6740     1.3390    -0.6730 N.pl3 1 <1>  -0.8220 
 15 C        1.1760    -5.0270     0.7970 C.ar  1 <1>   0.0830 
 16 O        3.4890    -4.9920     1.6320 O.3   1 <1>  -0.3630 
 17 C        4.9330     1.7850    -0.3350 C.2   1 <1>   0.5620 
 18 O        0.9550    -6.2990     1.2430 O.3   1 <1>  -0.3630 
 19 C        3.7650    -6.3640     1.4610 C.3   1 <1>   0.0400 
 20 O        5.1060     2.4200     0.8200 O.3   1 <1>  -0.2800 
 21 N        6.0040     1.6390    -1.0400 N.2   1 <1>  -0.5650 
 22 C       -0.3230    -6.8960     1.2050 C.3   1 <1>   0.0400 
 23 C        6.3920     2.7100     0.8680 C.ar  1 <1>   0.1400 
 24 C        6.9600     2.2290    -0.2840 C.ar  1 <1>   0.2270 
 25 C        7.1240     3.3670     1.8440 C.ar  1 <1>  -0.1500 
 26 C        8.3230     2.3970    -0.5000 C.ar  1 <1>  -0.1500 
 27 C        8.4810     3.5340     1.6280 C.ar  1 <1>  -0.1500 
 28 C        9.0770     3.0500     0.4590 C.ar  1 <1>  -0.1500 
 29 H       -1.1760    -0.1740    -1.3880 H     1 <1>   0.0800 
 30 H       -0.5780    -0.4520     0.2360 H     1 <1>   0.0800 
 31 H        2.9910    -0.4000     1.2610 H     1 <1>   0.0800 
 32 H        1.3140    -0.0010     1.3440 H     1 <1>   0.0800 
 33 H        2.8520    -1.4780    -2.3570 H     1 <1>   0.0800 
 34 H        3.9570    -1.3250    -1.0320 H     1 <1>   0.0800 
 35 H       -0.6860    -2.4670    -2.0320 H     1 <1>   0.0800 
 36 H       -1.6520    -2.5010    -0.5800 H     1 <1>   0.0800 
 37 H        3.5800    -2.6680     0.7970 H     1 <1>   0.1500 
 38 H        2.7460     2.0090     1.1140 H     1 <1>   0.0800 
 39 H        1.6820     1.8530    -0.2580 H     1 <1>   0.0800 
 40 H        2.6210     0.9720    -2.4540 H     1 <1>   0.0800 
 41 H        4.3060     0.5330    -2.5320 H     1 <1>   0.0800 
 42 H       -0.7750    -4.7410    -0.0590 H     1 <1>   0.1500 
 43 H        4.8040    -6.5260     1.6800 H     1 <1>   0.0800 
 44 H        3.5530    -6.6420     0.4440 H     1 <1>   0.0800 
 45 H        3.1570    -6.9280     2.1460 H     1 <1>   0.0800 
 46 H       -0.2530    -7.8600     1.6760 H     1 <1>   0.0800 
 47 H       -0.6240    -7.0120     0.1790 H     1 <1>   0.0800 
 48 H       -1.0150    -6.2750     1.7460 H     1 <1>   0.0800 
 49 H        6.6380     3.7290     2.7320 H     1 <1>   0.1500 
 50 H        8.7590     2.0170    -1.4060 H     1 <1>   0.1500 
 51 H        9.0860     4.0390     2.3610 H     1 <1>   0.1500 
 52 H       10.1340     3.1890     0.3090 H     1 <1>   0.1500 
@<TRIPOS>BOND
  1   1   2  1   
  2   1   3  1   
  3   2   4  1   
  4   2   5  1   
  5   2   6  1   
  6   3   7  1   
  7   3  29  1   
  8   3  30  1   
  9   4   8  ar  
 10   4   9  ar  
 11   5  10  1   
 12   5  31  1   
 13   5  32  1   
 14   6  11  1   
 15   6  33  1   
 16   6  34  1   
 17   7   8  1   
 18   7  35  1   
 19   7  36  1   
 20   8  12  ar  
 21   9  13  ar  
 22   9  37  1   
 23  10  14  1   
 24  10  38  1   
 25  10  39  1   
 26  11  14  1   
 27  11  40  1   
 28  11  41  1   
 29  12  15  ar  
 30  12  42  1   
 31  13  15  ar  
 32  13  16  1   
 33  14  17  1   
 34  15  18  1   
 35  16  19  1   
 36  17  20  1   
 37  17  21  2   
 38  18  22  1   
 39  19  43  1   
 40  19  44  1   
 41  19  45  1   
 42  20  23  1   
 43  21  24  1   
 44  22  46  1   
 45  22  47  1   
 46  22  48  1   
 47  23  24  ar  
 48  23  25  ar  
 49  24  26  ar  
 50  25  27  ar  
 51  25  49  1   
 52  26  28  ar  
 53  26  50  1   
 54  27  28  ar  
 55  27  51  1   
 56  28  52  1   
@<TRIPOS>SUBSTRUCTURE
  1 ****   5 GROUP 4 **** **** 0

# MOE 2024.06 (io_trps.svl 2023.06)
