@<TRIPOS>MOLECULE
NONAME
50 52 1 0 0 
SMALL
USER_CHARGES


@<TRIPOS>ATOM
  1 S        0.0180     0.1910     0.2730 S.o2  1 <1>   1.3330 
  2 O       -0.5060     1.5050     0.5660 O.2   1 <1>  -0.6500 
  3 O        0.1280    -0.7880     1.3310 O.2   1 <1>  -0.6500 
  4 N       -0.9080    -0.4910    -0.9750 N.am  1 <1>  -0.8490 
  5 C        1.6190     0.4030    -0.5050 C.3   1 <1>  -0.0550 
  6 C       -0.7840    -1.9510    -1.0650 C.3   1 <1>   0.1160 
  7 C       -2.3230    -0.1160    -0.8900 C.3   1 <1>   0.1160 
  8 C        2.6310     1.1450     0.3880 C.3   1 <1>  -0.0800 
  9 C        3.9130     1.4580    -0.3720 C.3   1 <1>   0.2200 
 10 C        3.1130     0.2900     1.5730 C.3   1 <1>   0.1200 
 11 N        4.4380     2.7520     0.1090 N.am  1 <1>  -0.7300 
 12 C        4.8360     0.3360     0.0800 C.3   1 <1>   0.1200 
 13 O        4.4850     0.1010     1.4040 O.3   1 <1>  -0.5600 
 14 C        4.5560     3.8870    -0.6340 C.2   1 <1>   0.7160 
 15 O        4.2890     3.8360    -1.8190 O.2   1 <1>  -0.5700 
 16 C        4.9790     5.1100     0.0020 C.2   1 <1>  -0.0860 
 17 C        5.6950     6.1860    -0.4360 C.2   1 <1>  -0.3320 
 18 C        4.6820     5.4430     1.3240 C.2   1 <1>   0.1390 
 19 N        5.8140     7.0790     0.5890 N.pl3 1 <1>   0.5930 
 20 C        6.2820     6.4020    -1.8280 C.3   1 <1>  -0.0600 
 21 N        5.1590     6.5860     1.6820 N.2   1 <1>  -0.7070 
 22 C        6.4540     8.3700     0.6020 C.ar  1 <1>   0.2870 
 23 N        7.6070     8.5420    -0.0600 N.ar  1 <1>  -0.6200 
 24 C        5.8510     9.4070     1.3150 C.ar  1 <1>  -0.1500 
 25 C        8.1480     9.7480    -0.0060 C.ar  1 <1>   0.1600 
 26 C        6.4250    10.6580     1.3610 C.ar  1 <1>  -0.1500 
 27 C        7.6090    10.8220     0.6760 C.ar  1 <1>  -0.1500 
 28 H        2.0150    -0.5540    -0.7850 H     1 <1>   0.0800 
 29 H        1.4760     0.9750    -1.4020 H     1 <1>   0.0800 
 30 H       -1.3160    -2.3140    -1.9280 H     1 <1>   0.0800 
 31 H       -1.1880    -2.4180    -0.1810 H     1 <1>   0.0800 
 32 H        0.2510    -2.2310    -1.1610 H     1 <1>   0.0800 
 33 H       -2.8750    -0.5520    -1.7040 H     1 <1>   0.0800 
 34 H       -2.4250     0.9550    -0.9510 H     1 <1>   0.0800 
 35 H       -2.7440    -0.4500     0.0440 H     1 <1>   0.0800 
 36 H        2.1670     2.0500     0.7420 H     1 <1>   0.0800 
 37 H        3.7880     1.4700    -1.4420 H     1 <1>   0.0800 
 38 H        2.6470    -0.6800     1.6020 H     1 <1>   0.0800 
 39 H        2.9550     0.7900     2.5140 H     1 <1>   0.0800 
 40 H        4.7990     2.7310     1.0640 H     1 <1>   0.3700 
 41 H        5.8780     0.6010     0.0200 H     1 <1>   0.0800 
 42 H        4.6520    -0.5650    -0.4780 H     1 <1>   0.0800 
 43 H        4.1050     4.8170     1.9850 H     1 <1>   0.1500 
 44 H        5.9890     5.6180    -2.5020 H     1 <1>   0.0800 
 45 H        7.3560     6.4190    -1.7790 H     1 <1>   0.0800 
 46 H        5.9410     7.3390    -2.2330 H     1 <1>   0.0800 
 47 H        4.9280     9.2220     1.8370 H     1 <1>   0.1500 
 48 H        9.0750     9.8870    -0.5350 H     1 <1>   0.1500 
 49 H        5.9710    11.4670     1.9070 H     1 <1>   0.1500 
 50 H        8.1100    11.7730     0.6720 H     1 <1>   0.1500 
@<TRIPOS>BOND
  1   1   2  2   
  2   1   3  2   
  3   1   4  am  
  4   1   5  1   
  5   4   6  1   
  6   4   7  1   
  7   5   8  1   
  8   5  28  1   
  9   5  29  1   
 10   6  30  1   
 11   6  31  1   
 12   6  32  1   
 13   7  33  1   
 14   7  34  1   
 15   7  35  1   
 16   8   9  1   
 17   8  10  1   
 18   8  36  1   
 19   9  11  1   
 20   9  12  1   
 21   9  37  1   
 22  10  13  1   
 23  10  38  1   
 24  10  39  1   
 25  11  14  am  
 26  11  40  1   
 27  12  13  1   
 28  12  41  1   
 29  12  42  1   
 30  14  15  2   
 31  14  16  1   
 32  16  17  2   
 33  16  18  1   
 34  17  19  1   
 35  17  20  1   
 36  18  21  2   
 37  18  43  1   
 38  19  21  1   
 39  19  22  1   
 40  20  44  1   
 41  20  45  1   
 42  20  46  1   
 43  22  23  ar  
 44  22  24  ar  
 45  23  25  ar  
 46  24  26  ar  
 47  24  47  1   
 48  25  27  ar  
 49  25  48  1   
 50  26  27  ar  
 51  26  49  1   
 52  27  50  1   
@<TRIPOS>SUBSTRUCTURE
  1 ****  14 GROUP 4 **** **** 0

# MOE 2024.06 (io_trps.svl 2023.06)
