@<TRIPOS>MOLECULE
NONAME
57 61 1 0 0 
SMALL
USER_CHARGES


@<TRIPOS>ATOM
  1 O       -0.4620     4.4260    -1.0120 O.2   1 <1>  -0.5700 
  2 C       -0.6500     3.3160    -0.5610 C.2   1 <1>   0.5690 
  3 N       -1.9430     2.8690    -0.3760 N.am  1 <1>  -0.6600 
  4 C        0.6120     2.4800    -0.2010 C.3   1 <1>   0.0610 
  5 C       -3.0970     3.6740    -0.8880 C.3   1 <1>   0.1400 
  6 C       -2.3580     1.6890     0.4470 C.3   1 <1>   0.1400 
  7 C        0.5090     0.9710    -0.5040 C.3   1 <1>  -0.1600 
  8 C        1.8120     2.8750    -1.0870 C.3   1 <1>  -0.1600 
  9 C        0.9940     2.7110     1.2790 C.3   1 <1>  -0.2400 
 10 C       -3.8940     4.2980     0.2790 C.3   1 <1>   0.1430 
 11 C       -3.7510     1.8760     1.0790 C.3   1 <1>  -0.1600 
 12 C        1.9290     0.4610    -0.7720 C.3   1 <1>  -0.1600 
 13 C        2.7820     1.6940    -1.0730 C.3   1 <1>  -0.1600 
 14 C       -5.2600     4.6880    -0.2610 C.ar  1 <1>   0.1670 
 15 C       -3.9830     3.3380     1.4950 C.3   1 <1>  -0.1600 
 16 C       -3.3080     5.6730     0.6930 C.3   1 <1>  -0.1600 
 17 N       -6.2440     3.8600    -0.5190 N.ar  1 <1>  -0.6200 
 18 C       -5.3490     6.0300    -0.4720 C.ar  1 <1>  -0.1440 
 19 C       -4.0700     6.7410    -0.1070 C.3   1 <1>  -0.0170 
 20 C       -7.3660     4.4140    -0.9960 C.ar  1 <1>   0.6200 
 21 C       -6.5290     6.5210    -0.9660 C.ar  1 <1>   0.1600 
 22 N       -7.5400     5.7240    -1.2280 N.ar  1 <1>  -0.6200 
 23 C       -8.4820     3.5240    -1.2850 C.ar  1 <1>   0.0000 
 24 C       -8.2810     2.1870    -1.6420 C.ar  1 <1>  -0.1500 
 25 C       -9.8080     3.9630    -1.2190 C.ar  1 <1>  -0.1500 
 26 C       -9.3370     1.3380    -1.9160 C.ar  1 <1>  -0.1500 
 27 C      -10.8700     3.1210    -1.4920 C.ar  1 <1>  -0.1500 
 28 C      -10.6370     1.8030    -1.8410 C.ar  1 <1>  -0.1500 
 29 H       -3.7400     3.0170    -1.4470 H     1 <1>   0.0800 
 30 H       -2.7700     4.4420    -1.5670 H     1 <1>   0.0800 
 31 H       -1.6520     1.5480     1.2420 H     1 <1>   0.0800 
 32 H       -2.3600     0.8060    -0.1690 H     1 <1>   0.0800 
 33 H       -0.0790     0.8350    -1.3960 H     1 <1>   0.0800 
 34 H        0.0580     0.4160     0.2980 H     1 <1>   0.0800 
 35 H        2.2790     3.7880    -0.7610 H     1 <1>   0.0800 
 36 H        1.4690     3.0180    -2.0980 H     1 <1>   0.0800 
 37 H        0.2020     2.4050     1.9350 H     1 <1>   0.0800 
 38 H        1.1770     3.7580     1.4460 H     1 <1>   0.0800 
 39 H        1.8810     2.1660     1.5460 H     1 <1>   0.0800 
 40 H       -3.8430     1.2300     1.9340 H     1 <1>   0.0800 
 41 H       -4.5080     1.5800     0.3730 H     1 <1>   0.0800 
 42 H        1.9340    -0.2250    -1.6020 H     1 <1>   0.0800 
 43 H        2.3160    -0.0440     0.0970 H     1 <1>   0.0800 
 44 H        3.5120     1.8300    -0.2930 H     1 <1>   0.0800 
 45 H        3.2950     1.6030    -2.0150 H     1 <1>   0.0800 
 46 H       -4.9400     3.4400     1.9770 H     1 <1>   0.0800 
 47 H       -3.2250     3.5960     2.2140 H     1 <1>   0.0800 
 48 H       -2.2460     5.7300     0.5300 H     1 <1>   0.0800 
 49 H       -3.5000     5.8460     1.7380 H     1 <1>   0.0800 
 50 H       -3.5300     7.0010    -1.0020 H     1 <1>   0.0800 
 51 H       -4.2530     7.6230     0.4810 H     1 <1>   0.0800 
 52 H       -6.6470     7.5750    -1.1490 H     1 <1>   0.1500 
 53 H       -7.2760     1.8060    -1.7060 H     1 <1>   0.1500 
 54 H      -10.0090     4.9850    -0.9490 H     1 <1>   0.1500 
 55 H       -9.1490     0.3130    -2.1870 H     1 <1>   0.1500 
 56 H      -11.8790     3.4910    -1.4330 H     1 <1>   0.1500 
 57 H      -11.4620     1.1450    -2.0540 H     1 <1>   0.1500 
@<TRIPOS>BOND
  1   1   2  2   
  2   2   3  am  
  3   2   4  1   
  4   3   5  1   
  5   3   6  1   
  6   4   7  1   
  7   4   8  1   
  8   4   9  1   
  9   5  10  1   
 10   5  29  1   
 11   5  30  1   
 12   6  11  1   
 13   6  31  1   
 14   6  32  1   
 15   7  12  1   
 16   7  33  1   
 17   7  34  1   
 18   8  13  1   
 19   8  35  1   
 20   8  36  1   
 21   9  37  1   
 22   9  38  1   
 23   9  39  1   
 24  10  14  1   
 25  10  15  1   
 26  10  16  1   
 27  11  15  1   
 28  11  40  1   
 29  11  41  1   
 30  12  13  1   
 31  12  42  1   
 32  12  43  1   
 33  13  44  1   
 34  13  45  1   
 35  14  17  ar  
 36  14  18  ar  
 37  15  46  1   
 38  15  47  1   
 39  16  19  1   
 40  16  48  1   
 41  16  49  1   
 42  17  20  ar  
 43  18  19  1   
 44  18  21  ar  
 45  19  50  1   
 46  19  51  1   
 47  20  22  ar  
 48  20  23  1   
 49  21  22  ar  
 50  21  52  1   
 51  23  24  ar  
 52  23  25  ar  
 53  24  26  ar  
 54  24  53  1   
 55  25  27  ar  
 56  25  54  1   
 57  26  28  ar  
 58  26  55  1   
 59  27  28  ar  
 60  27  56  1   
 61  28  57  1   
@<TRIPOS>SUBSTRUCTURE
  1 ****   5 GROUP 4 **** **** 0

# MOE 2024.06 (io_trps.svl 2023.06)
