@<TRIPOS>MOLECULE
NONAME
54 56 1 0 0 
SMALL
USER_CHARGES


@<TRIPOS>ATOM
  1 O       -3.6030     2.0870    -2.5450 O.2   1 <1>  -0.5700 
  2 C       -3.2630     1.5430    -1.5100 C.2   1 <1>   0.5440 
  3 N       -3.9220     0.3810    -1.1390 N.am  1 <1>  -0.6600 
  4 C       -2.1940     2.1470    -0.7360 C.ar  1 <1>   0.0860 
  5 C       -3.3800    -0.7020    -0.2240 C.3   1 <1>   0.3640 
  6 C       -5.3140     0.1470    -1.6310 C.3   1 <1>   0.1400 
  7 C       -1.0040     2.5300    -1.3580 C.ar  1 <1>  -0.1500 
  8 C       -2.3020     2.3500     0.6430 C.ar  1 <1>  -0.1500 
  9 C       -1.8460    -0.7140    -0.2320 C.ar  1 <1>  -0.1430 
 10 C       -3.8990    -2.1360    -0.5750 C.3   1 <1>   0.2000 
 11 C       -5.4890    -1.2950    -2.0960 C.3   1 <1>   0.1200 
 12 C        0.0490     3.0330    -0.6220 C.ar  1 <1>   0.0830 
 13 C       -1.2460     2.8500     1.3860 C.ar  1 <1>  -0.1500 
 14 C       -1.1500    -0.6050     0.9640 C.ar  1 <1>  -0.1500 
 15 C       -1.1280    -0.8130    -1.4170 C.ar  1 <1>  -0.1500 
 16 O       -5.2280    -2.1470    -1.0280 O.3   1 <1>  -0.5600 
 17 C       -3.8820    -3.1150     0.6140 C.3   1 <1>   0.1200 
 18 O        1.1940     3.3890    -1.2300 O.3   1 <1>  -0.5320 
 19 C       -0.0540     3.1720     0.7560 C.ar  1 <1>   0.0830 
 20 C        0.2320    -0.5710     0.9840 C.ar  1 <1>   0.0830 
 21 C        0.2560    -0.7640    -1.4100 C.ar  1 <1>  -0.1500 
 22 O       -2.6310    -3.2250     1.2100 O.3   1 <1>  -0.6800 
 23 O        1.0090     3.6140     1.4630 O.3   1 <1>  -0.3630 
 24 O        0.8360    -0.4680     2.1930 O.3   1 <1>  -0.3620 
 25 C        0.9510    -0.6210    -0.2130 C.ar  1 <1>   0.0830 
 26 C        1.6330     2.6560     2.2910 C.3   1 <1>   0.0400 
 27 C        1.5640    -1.5970     2.6240 C.3   1 <1>   0.0400 
 28 O        2.3070    -0.5100    -0.1800 O.3   1 <1>  -0.3630 
 29 C        2.9800     0.0990    -1.2600 C.3   1 <1>   0.0400 
 30 H       -3.7160    -0.4750     0.7720 H     1 <1>   0.0800 
 31 H       -6.0110     0.3500    -0.8370 H     1 <1>   0.0800 
 32 H       -5.5520     0.8040    -2.4490 H     1 <1>   0.0800 
 33 H       -0.9020     2.4200    -2.4220 H     1 <1>   0.1500 
 34 H       -3.2250     2.0980     1.1340 H     1 <1>   0.1500 
 35 H       -3.3000    -2.5470    -1.3680 H     1 <1>   0.0800 
 36 H       -4.8230    -1.5250    -2.9110 H     1 <1>   0.0800 
 37 H       -6.5030    -1.4640    -2.4120 H     1 <1>   0.0800 
 38 H       -1.3400     2.9860     2.4470 H     1 <1>   0.1500 
 39 H       -1.6740    -0.5440     1.9010 H     1 <1>   0.1500 
 40 H       -1.6480    -0.9040    -2.3550 H     1 <1>   0.1500 
 41 H       -4.1750    -4.0970     0.2830 H     1 <1>   0.0800 
 42 H       -4.5680    -2.7820     1.3730 H     1 <1>   0.0800 
 43 H        1.7980     3.7720    -0.5640 H     1 <1>   0.4500 
 44 H        0.7790    -0.8310    -2.3440 H     1 <1>   0.1500 
 45 H       -1.9430    -3.4660     0.5560 H     1 <1>   0.4000 
 46 H        2.4550     3.1270     2.7970 H     1 <1>   0.0800 
 47 H        1.9920     1.8480     1.6750 H     1 <1>   0.0800 
 48 H        0.9220     2.2850     3.0070 H     1 <1>   0.0800 
 49 H        1.8890    -1.4220     3.6330 H     1 <1>   0.0800 
 50 H        2.4160    -1.7360     1.9840 H     1 <1>   0.0800 
 51 H        0.9210    -2.4580     2.5860 H     1 <1>   0.0800 
 52 H        3.9830     0.3260    -0.9450 H     1 <1>   0.0800 
 53 H        2.4660     1.0060    -1.5270 H     1 <1>   0.0800 
 54 H        3.0050    -0.5850    -2.0880 H     1 <1>   0.0800 
@<TRIPOS>BOND
  1   1   2  2   
  2   2   3  am  
  3   2   4  1   
  4   3   5  1   
  5   3   6  1   
  6   4   7  ar  
  7   4   8  ar  
  8   5   9  1   
  9   5  10  1   
 10   5  30  1   
 11   6  11  1   
 12   6  31  1   
 13   6  32  1   
 14   7  12  ar  
 15   7  33  1   
 16   8  13  ar  
 17   8  34  1   
 18   9  14  ar  
 19   9  15  ar  
 20  10  16  1   
 21  10  17  1   
 22  10  35  1   
 23  11  16  1   
 24  11  36  1   
 25  11  37  1   
 26  12  18  1   
 27  12  19  ar  
 28  13  19  ar  
 29  13  38  1   
 30  14  20  ar  
 31  14  39  1   
 32  15  21  ar  
 33  15  40  1   
 34  17  22  1   
 35  17  41  1   
 36  17  42  1   
 37  18  43  1   
 38  19  23  1   
 39  20  24  1   
 40  20  25  ar  
 41  21  25  ar  
 42  21  44  1   
 43  22  45  1   
 44  23  26  1   
 45  24  27  1   
 46  25  28  1   
 47  26  46  1   
 48  26  47  1   
 49  26  48  1   
 50  27  49  1   
 51  27  50  1   
 52  27  51  1   
 53  28  29  1   
 54  29  52  1   
 55  29  53  1   
 56  29  54  1   
@<TRIPOS>SUBSTRUCTURE
  1 ****   9 GROUP 4 **** **** 0

# MOE 2024.06 (io_trps.svl 2023.06)
