@<TRIPOS>MOLECULE
NONAME
57 60 1 0 0 
SMALL
USER_CHARGES


@<TRIPOS>ATOM
  1 O       -2.6540    -2.3700    -1.1100 O.3   1 <1>  -0.3630 
  2 C       -2.8730    -1.0710    -0.7960 C.ar  1 <1>   0.0820 
  3 C       -1.3130    -2.7390    -1.3660 C.3   1 <1>   0.0400 
  4 C       -3.1140    -0.7410     0.5350 C.ar  1 <1>  -0.1440 
  5 C       -2.8910    -0.0860    -1.7800 C.ar  1 <1>  -0.1440 
  6 C       -3.3270     0.5820     0.8860 C.ar  1 <1>  -0.1500 
  7 C       -3.1680    -1.8220     1.5930 C.3   1 <1>   0.4870 
  8 C       -3.1040     1.2300    -1.4060 C.ar  1 <1>  -0.1500 
  9 C       -2.6990    -0.4000    -3.2580 C.3   1 <1>  -0.0960 
 10 C       -3.3160     1.5720    -0.0810 C.ar  1 <1>  -0.1440 
 11 N       -4.2360    -2.7710     1.2080 N.4   1 <1>  -0.9590 
 12 C       -3.5420     3.0250     0.2990 C.3   1 <1>  -0.0970 
 13 C       -5.5940    -2.1460     1.3050 C.3   1 <1>   0.3430 
 14 C       -4.2420    -4.0000     2.0460 C.3   1 <1>   0.3430 
 15 C       -6.3340    -2.9150     2.4070 C.3   1 <1>   0.2000 
 16 C       -5.7150    -4.3080     2.3420 C.3   1 <1>  -0.0800 
 17 O       -5.9930    -2.3530     3.6320 O.3   1 <1>  -0.6800 
 18 C       -6.3870    -5.1860     1.2620 C.3   1 <1>  -0.0170 
 19 C       -5.4950    -6.3630     0.8790 C.ar  1 <1>  -0.1440 
 20 C       -4.6330    -6.3490    -0.2470 C.ar  1 <1>   0.0000 
 21 C       -5.4940    -7.4800     1.6620 C.ar  1 <1>  -0.1500 
 22 C       -3.7970    -7.4760    -0.4430 C.ar  1 <1>   0.3100 
 23 C       -4.5400    -5.2930    -1.1860 C.ar  1 <1>  -0.1500 
 24 C       -4.6410    -8.5500     1.3650 C.ar  1 <1>   0.1600 
 25 N       -3.8120    -8.5590     0.3720 N.ar  1 <1>  -0.6200 
 26 C       -2.9020    -7.4840    -1.5240 C.ar  1 <1>  -0.1500 
 27 C       -3.6600    -5.3340    -2.2330 C.ar  1 <1>  -0.1500 
 28 C       -2.8260    -6.4400    -2.4040 C.ar  1 <1>  -0.1500 
 29 H       -1.2690    -3.8080    -1.4760 H     1 <1>   0.0800 
 30 H       -0.6980    -2.4280    -0.5400 H     1 <1>   0.0800 
 31 H       -0.9800    -2.2670    -2.2720 H     1 <1>   0.0800 
 32 H       -3.5040     0.8550     1.9130 H     1 <1>   0.1500 
 33 H       -3.3770    -1.3960     2.5610 H     1 <1>   0.0800 
 34 H       -2.2170    -2.3290     1.6300 H     1 <1>   0.0800 
 35 H       -3.1090     2.0030    -2.1560 H     1 <1>   0.1500 
 36 H       -3.2370     0.3070    -3.8640 H     1 <1>   0.0800 
 37 H       -3.0660    -1.3830    -3.4920 H     1 <1>   0.0800 
 38 H       -1.6560    -0.3430    -3.5130 H     1 <1>   0.0800 
 39 H       -4.0250    -2.9980     0.2200 H     1 <1>   0.4500 
 40 H       -2.9330     3.6690    -0.3100 H     1 <1>   0.0800 
 41 H       -3.2860     3.1960     1.3290 H     1 <1>   0.0800 
 42 H       -4.5750     3.2850     0.1500 H     1 <1>   0.0800 
 43 H       -5.5430    -1.0950     1.5390 H     1 <1>   0.0800 
 44 H       -6.1110    -2.2720     0.3690 H     1 <1>   0.0800 
 45 H       -3.7380    -4.8180     1.5580 H     1 <1>   0.0800 
 46 H       -3.7460    -3.7960     2.9810 H     1 <1>   0.0800 
 47 H       -7.4050    -2.8880     2.2940 H     1 <1>   0.0800 
 48 H       -5.7930    -4.8200     3.2850 H     1 <1>   0.0800 
 49 H       -6.5750    -2.6820     4.3500 H     1 <1>   0.4000 
 50 H       -6.6550    -4.6160     0.3940 H     1 <1>   0.0800 
 51 H       -7.3130    -5.5680     1.6590 H     1 <1>   0.0800 
 52 H       -6.1320    -7.5730     2.5220 H     1 <1>   0.1500 
 53 H       -5.1760    -4.4350    -1.1010 H     1 <1>   0.1500 
 54 H       -4.6720    -9.4150     2.0070 H     1 <1>   0.1500 
 55 H       -2.2770    -8.3500    -1.6410 H     1 <1>   0.1500 
 56 H       -3.6020    -4.5240    -2.9400 H     1 <1>   0.1500 
 57 H       -2.1380    -6.4630    -3.2320 H     1 <1>   0.1500 
@<TRIPOS>BOND
  1   1   2  1   
  2   1   3  1   
  3   2   4  ar  
  4   2   5  ar  
  5   3  29  1   
  6   3  30  1   
  7   3  31  1   
  8   4   6  ar  
  9   4   7  1   
 10   5   8  ar  
 11   5   9  1   
 12   6  10  ar  
 13   6  32  1   
 14   7  11  1   
 15   7  33  1   
 16   7  34  1   
 17   8  10  ar  
 18   8  35  1   
 19   9  36  1   
 20   9  37  1   
 21   9  38  1   
 22  10  12  1   
 23  11  13  1   
 24  11  14  1   
 25  11  39  1   
 26  12  40  1   
 27  12  41  1   
 28  12  42  1   
 29  13  15  1   
 30  13  43  1   
 31  13  44  1   
 32  14  16  1   
 33  14  45  1   
 34  14  46  1   
 35  15  16  1   
 36  15  17  1   
 37  15  47  1   
 38  16  18  1   
 39  16  48  1   
 40  17  49  1   
 41  18  19  1   
 42  18  50  1   
 43  18  51  1   
 44  19  20  ar  
 45  19  21  ar  
 46  20  22  ar  
 47  20  23  ar  
 48  21  24  ar  
 49  21  52  1   
 50  22  25  ar  
 51  22  26  ar  
 52  23  27  ar  
 53  23  53  1   
 54  24  25  ar  
 55  24  54  1   
 56  26  28  ar  
 57  26  55  1   
 58  27  28  ar  
 59  27  56  1   
 60  28  57  1   
@<TRIPOS>SUBSTRUCTURE
  1 ****  11 GROUP 4 **** **** 0

# MOE 2024.06 (io_trps.svl 2023.06)
