@<TRIPOS>MOLECULE
NONAME
53 55 1 0 0 
SMALL
USER_CHARGES


@<TRIPOS>ATOM
  1 O       -0.4380     1.4630    -1.2540 O.2   1 <1>  -0.5700 
  2 C       -0.8210     2.5940    -1.0630 C.2   1 <1>   0.5690 
  3 N       -1.5160     2.9880     0.0520 N.am  1 <1>  -0.6600 
  4 C       -0.5150     3.6330    -2.1370 C.3   1 <1>   0.1810 
  5 C       -1.9720     4.4120     0.2010 C.3   1 <1>   0.3640 
  6 C       -1.8100     2.1150     1.2220 C.3   1 <1>   0.2200 
  7 O       -0.2950     4.9000    -1.5780 O.3   1 <1>  -0.5600 
  8 C       -3.5030     4.4560     0.1710 C.ar  1 <1>  -0.1440 
  9 C       -1.4030     5.4110    -0.8480 C.3   1 <1>   0.2610 
 10 C       -0.5080     1.7010     1.9070 C.3   1 <1>  -0.2400 
 11 C       -2.6570     0.9060     0.8220 C.3   1 <1>  -0.2400 
 12 C       -4.2290     3.7500    -0.7810 C.ar  1 <1>  -0.1500 
 13 C       -4.1890     5.2210     1.1040 C.ar  1 <1>  -0.1500 
 14 C       -1.0170     6.7210    -0.1480 C.2   1 <1>   0.5690 
 15 C       -5.6120     3.8050    -0.7970 C.ar  1 <1>  -0.1500 
 16 C       -5.5710     5.2770     1.0900 C.ar  1 <1>  -0.1500 
 17 O       -1.8300     7.2920     0.5390 O.2   1 <1>  -0.5700 
 18 N        0.2430     7.2030    -0.3080 N.am  1 <1>  -0.7300 
 19 C       -6.2840     4.5680     0.1400 C.ar  1 <1>  -0.1500 
 20 C        0.7920     8.4320     0.2810 C.3   1 <1>   0.2200 
 21 C        1.2690     9.3520    -0.8480 C.3   1 <1>  -0.1600 
 22 C        1.9440     8.0590     1.2200 C.3   1 <1>  -0.1600 
 23 C        1.9530    10.6080    -0.2890 C.3   1 <1>  -0.1600 
 24 C        2.6300     9.3130     1.7830 C.3   1 <1>  -0.1600 
 25 C        3.1060    10.2380     0.6540 C.3   1 <1>  -0.1600 
 26 H       -1.3300     3.6940    -2.8350 H     1 <1>   0.0800 
 27 H        0.3770     3.3480    -2.6640 H     1 <1>   0.0800 
 28 H       -1.6480     4.7440     1.1720 H     1 <1>   0.0800 
 29 H       -2.3860     2.6810     1.9370 H     1 <1>   0.0800 
 30 H       -2.1700     5.6460    -1.5640 H     1 <1>   0.0800 
 31 H        0.0790     1.0720     1.2620 H     1 <1>   0.0800 
 32 H       -0.7280     1.1500     2.8030 H     1 <1>   0.0800 
 33 H        0.0650     2.5700     2.1720 H     1 <1>   0.0800 
 34 H       -2.1120     0.2460     0.1730 H     1 <1>   0.0800 
 35 H       -3.5560     1.2280     0.3300 H     1 <1>   0.0800 
 36 H       -2.9350     0.3540     1.7000 H     1 <1>   0.0800 
 37 H       -3.7230     3.1470    -1.5140 H     1 <1>   0.1500 
 38 H       -3.6510     5.7870     1.8460 H     1 <1>   0.1500 
 39 H       -6.1640     3.2520    -1.5360 H     1 <1>   0.1500 
 40 H       -6.0910     5.8750     1.8180 H     1 <1>   0.1500 
 41 H        0.8780     6.6600    -0.9000 H     1 <1>   0.3700 
 42 H       -7.3600     4.6120     0.1300 H     1 <1>   0.1500 
 43 H        0.0250     8.9370     0.8470 H     1 <1>   0.0800 
 44 H        1.9660     8.8230    -1.4730 H     1 <1>   0.0800 
 45 H        0.4240     9.6440    -1.4470 H     1 <1>   0.0800 
 46 H        1.5610     7.4690     2.0330 H     1 <1>   0.0800 
 47 H        2.6700     7.4740     0.6840 H     1 <1>   0.0800 
 48 H        2.3280    11.2060    -1.1010 H     1 <1>   0.0800 
 49 H        1.2300    11.1980     0.2480 H     1 <1>   0.0800 
 50 H        1.9370     9.8470     2.4110 H     1 <1>   0.0800 
 51 H        3.4700     9.0240     2.3910 H     1 <1>   0.0800 
 52 H        3.5270    11.1350     1.0770 H     1 <1>   0.0800 
 53 H        3.8820     9.7460     0.0930 H     1 <1>   0.0800 
@<TRIPOS>BOND
  1   1   2  2   
  2   2   3  am  
  3   2   4  1   
  4   3   5  1   
  5   3   6  1   
  6   4   7  1   
  7   4  26  1   
  8   4  27  1   
  9   5   8  1   
 10   5   9  1   
 11   5  28  1   
 12   6  10  1   
 13   6  11  1   
 14   6  29  1   
 15   7   9  1   
 16   8  12  ar  
 17   8  13  ar  
 18   9  14  1   
 19   9  30  1   
 20  10  31  1   
 21  10  32  1   
 22  10  33  1   
 23  11  34  1   
 24  11  35  1   
 25  11  36  1   
 26  12  15  ar  
 27  12  37  1   
 28  13  16  ar  
 29  13  38  1   
 30  14  17  2   
 31  14  18  am  
 32  15  19  ar  
 33  15  39  1   
 34  16  19  ar  
 35  16  40  1   
 36  18  20  1   
 37  18  41  1   
 38  19  42  1   
 39  20  21  1   
 40  20  22  1   
 41  20  43  1   
 42  21  23  1   
 43  21  44  1   
 44  21  45  1   
 45  22  24  1   
 46  22  46  1   
 47  22  47  1   
 48  23  25  1   
 49  23  48  1   
 50  23  49  1   
 51  24  25  1   
 52  24  50  1   
 53  24  51  1   
 54  25  52  1   
 55  25  53  1   
@<TRIPOS>SUBSTRUCTURE
  1 ****   9 GROUP 4 **** **** 0

# MOE 2024.06 (io_trps.svl 2023.06)
