@<TRIPOS>MOLECULE
NONAME
42 44 1 0 0 
SMALL
USER_CHARGES


@<TRIPOS>ATOM
  1 O        2.6150    -1.6030    -3.0030 O.2   1 <1>  -0.5700 
  2 C        1.9800    -1.0600    -2.1340 C.2   1 <1>   0.5690 
  3 N        2.5390    -0.0380    -1.3940 N.am  1 <1>  -0.6600 
  4 C        0.5820    -1.6110    -1.8660 C.3   1 <1>   0.0440 
  5 C        1.8570     0.6080    -0.2070 C.3   1 <1>   0.2200 
  6 C        3.9260     0.4220    -1.7510 C.3   1 <1>   0.1400 
  7 C        0.4630    -2.2000    -0.4630 C.ar  1 <1>  -0.1440 
  8 C        1.9450     2.1430    -0.2190 C.3   1 <1>   0.1200 
  9 C        2.4000     0.0290     1.1260 C.3   1 <1>   0.3430 
 10 C        4.7190     1.1100    -0.6220 C.3   1 <1>  -0.0800 
 11 C        1.4570    -3.0310     0.0330 C.ar  1 <1>   0.1600 
 12 C       -0.6180    -1.9010     0.3430 C.ar  1 <1>  -0.1500 
 13 O        3.1130     2.5800     0.4060 O.3   1 <1>  -0.5600 
 14 N        3.7370    -0.6410     0.9630 N.4   1 <1>  -0.9590 
 15 C        4.2560     2.5530    -0.3780 C.3   1 <1>   0.1200 
 16 C        4.8570     0.3130     0.6920 C.3   1 <1>   0.3430 
 17 N        1.4920    -3.5150     1.2640 N.ar  1 <1>  -0.6200 
 18 C       -0.6210    -2.4390     1.6120 C.ar  1 <1>  -0.1500 
 19 C        4.0360    -1.5340     2.1210 C.3   1 <1>   0.2630 
 20 C        0.4420    -3.2270     2.0180 C.ar  1 <1>   0.1600 
 21 H       -0.1350    -0.8270    -2.0180 H     1 <1>   0.0800 
 22 H        0.3690    -2.3840    -2.5840 H     1 <1>   0.0800 
 23 H        0.8060     0.3960    -0.2500 H     1 <1>   0.0800 
 24 H        4.4990    -0.4280    -2.0840 H     1 <1>   0.0800 
 25 H        3.8530     1.0900    -2.5930 H     1 <1>   0.0800 
 26 H        1.1290     2.5470     0.3540 H     1 <1>   0.0800 
 27 H        1.8820     2.5420    -1.2180 H     1 <1>   0.0800 
 28 H        1.6880    -0.6970     1.4820 H     1 <1>   0.0800 
 29 H        2.4600     0.8110     1.8640 H     1 <1>   0.0800 
 30 H        5.7190     1.2160    -1.0040 H     1 <1>   0.0800 
 31 H        2.2770    -3.3060    -0.6130 H     1 <1>   0.1500 
 32 H       -1.4340    -1.2830     0.0050 H     1 <1>   0.1500 
 33 H        3.6320    -1.2170     0.1120 H     1 <1>   0.4500 
 34 H        4.0670     3.0770    -1.3010 H     1 <1>   0.0800 
 35 H        5.0150     3.0940     0.1610 H     1 <1>   0.0800 
 36 H        4.9490     1.0060     1.5140 H     1 <1>   0.0800 
 37 H        5.7740    -0.2510     0.6410 H     1 <1>   0.0800 
 38 H       -1.4430    -2.2570     2.2830 H     1 <1>   0.1500 
 39 H        4.1490    -0.9540     3.0220 H     1 <1>   0.0800 
 40 H        4.9460    -2.0840     1.9440 H     1 <1>   0.0800 
 41 H        3.2360    -2.2410     2.2660 H     1 <1>   0.0800 
 42 H        0.4240    -3.6450     3.0120 H     1 <1>   0.1500 
@<TRIPOS>BOND
  1   1   2  2   
  2   2   3  am  
  3   2   4  1   
  4   3   5  1   
  5   3   6  1   
  6   4   7  1   
  7   4  21  1   
  8   4  22  1   
  9   5   8  1   
 10   5   9  1   
 11   5  23  1   
 12   6  10  1   
 13   6  24  1   
 14   6  25  1   
 15   7  11  ar  
 16   7  12  ar  
 17   8  13  1   
 18   8  26  1   
 19   8  27  1   
 20   9  14  1   
 21   9  28  1   
 22   9  29  1   
 23  10  15  1   
 24  10  16  1   
 25  10  30  1   
 26  11  17  ar  
 27  11  31  1   
 28  12  18  ar  
 29  12  32  1   
 30  13  15  1   
 31  14  16  1   
 32  14  19  1   
 33  14  33  1   
 34  15  34  1   
 35  15  35  1   
 36  16  36  1   
 37  16  37  1   
 38  17  20  ar  
 39  18  20  ar  
 40  18  38  1   
 41  19  39  1   
 42  19  40  1   
 43  19  41  1   
 44  20  42  1   
@<TRIPOS>SUBSTRUCTURE
  1 ****   5 GROUP 4 **** **** 0

# MOE 2024.06 (io_trps.svl 2023.06)
