@<TRIPOS>MOLECULE
NONAME
52 54 1 0 0 
SMALL
USER_CHARGES


@<TRIPOS>ATOM
  1 F        1.1590     2.0490     1.7630 F     1 <1>  -0.3400 
  2 C        1.6180     1.6720     0.5730 C.3   1 <1>   1.1640 
  3 F        0.6740     1.9870    -0.3090 F     1 <1>  -0.3400 
  4 F        1.6490     0.3410     0.6050 F     1 <1>  -0.3400 
  5 C        2.9970     2.3040     0.2340 C.ar  1 <1>   0.1660 
  6 N        3.1110     3.6240     0.1220 N.ar  1 <1>  -0.6200 
  7 C        4.1090     1.5030     0.0510 C.ar  1 <1>  -0.1500 
  8 C        4.3090     4.0940    -0.1720 C.ar  1 <1>   0.4760 
  9 C        5.3110     2.1030    -0.2440 C.ar  1 <1>   0.1660 
 10 N        5.4210     3.4060    -0.3530 N.ar  1 <1>  -0.6200 
 11 C        4.4280     5.5950    -0.2970 C.3   1 <1>  -0.0160 
 12 C        6.5680     1.2860    -0.4570 C.3   1 <1>  -0.0960 
 13 C        4.8710     6.1750     1.0420 C.3   1 <1>   0.2090 
 14 N        5.1780     7.6220     0.8960 N.pl3 1 <1>  -0.8690 
 15 C        6.3440     8.2160     0.5970 C.ar  1 <1>   0.4100 
 16 N        6.3330     9.5270     0.6600 N.ar  1 <1>  -0.6200 
 17 C        7.4940     7.4920     0.2360 C.ar  1 <1>  -0.1500 
 18 C        7.4550    10.1780     0.3800 C.ar  1 <1>   0.7710 
 19 C        8.6320     8.1690    -0.0460 C.ar  1 <1>   0.2180 
 20 N        8.5800     9.5200     0.0390 N.ar  1 <1>  -0.1790 
 21 N        7.4750    11.5380     0.4440 N.pl3 1 <1>  -0.8380 
 22 C        9.9390     7.4960    -0.4450 C.3   1 <1>  -0.0170 
 23 C        8.5890    12.4640     0.0300 C.3   1 <1>   0.2090 
 24 C        6.2950    12.3260     0.9660 C.3   1 <1>   0.2090 
 25 C       11.0580     7.7560     0.5720 C.3   1 <1>  -0.2400 
 26 C        8.0690    13.5840    -0.8910 C.3   1 <1>   0.1200 
 27 C        5.9060    13.4600     0.0010 C.3   1 <1>   0.1200 
 28 O        7.0140    14.2650    -0.2830 O.3   1 <1>  -0.5600 
 29 H        4.0530     0.4330     0.1330 H     1 <1>   0.1500 
 30 H        3.4800     6.0130    -0.5820 H     1 <1>   0.0800 
 31 H        5.1490     5.8250    -1.0590 H     1 <1>   0.0800 
 32 H        6.3670     0.2340    -0.3700 H     1 <1>   0.0800 
 33 H        7.3050     1.5600     0.2750 H     1 <1>   0.0800 
 34 H        6.9630     1.4830    -1.4370 H     1 <1>   0.0800 
 35 H        5.7400     5.6500     1.3990 H     1 <1>   0.0800 
 36 H        4.0880     6.0450     1.7700 H     1 <1>   0.0800 
 37 H        4.3940     8.2490     1.1080 H     1 <1>   0.4000 
 38 H        7.4460     6.4200     0.1880 H     1 <1>   0.1500 
 39 H        9.3960    10.0920    -0.1220 H     1 <1>   0.4570 
 40 H       10.2440     7.8420    -1.4180 H     1 <1>   0.0800 
 41 H        9.7830     6.4330    -0.5200 H     1 <1>   0.0800 
 42 H        9.3700    11.9390    -0.4880 H     1 <1>   0.0800 
 43 H        9.0180    12.9180     0.9080 H     1 <1>   0.0800 
 44 H        6.5510    12.7580     1.9180 H     1 <1>   0.0800 
 45 H        5.4300    11.7050     1.1220 H     1 <1>   0.0800 
 46 H       11.3090     8.8000     0.6310 H     1 <1>   0.0800 
 47 H       11.9450     7.2170     0.2820 H     1 <1>   0.0800 
 48 H       10.7650     7.4110     1.5500 H     1 <1>   0.0800 
 49 H        7.7270    13.1860    -1.8300 H     1 <1>   0.0800 
 50 H        8.8480    14.3010    -1.0830 H     1 <1>   0.0800 
 51 H        5.1530    14.0850     0.4490 H     1 <1>   0.0800 
 52 H        5.5190    13.0610    -0.9200 H     1 <1>   0.0800 
@<TRIPOS>BOND
  1   1   2  1   
  2   2   3  1   
  3   2   4  1   
  4   2   5  1   
  5   5   6  ar  
  6   5   7  ar  
  7   6   8  ar  
  8   7   9  ar  
  9   7  29  1   
 10   8  10  ar  
 11   8  11  1   
 12   9  10  ar  
 13   9  12  1   
 14  11  13  1   
 15  11  30  1   
 16  11  31  1   
 17  12  32  1   
 18  12  33  1   
 19  12  34  1   
 20  13  14  1   
 21  13  35  1   
 22  13  36  1   
 23  14  15  1   
 24  14  37  1   
 25  15  16  ar  
 26  15  17  ar  
 27  16  18  ar  
 28  17  19  ar  
 29  17  38  1   
 30  18  20  ar  
 31  18  21  1   
 32  19  20  ar  
 33  19  22  1   
 34  20  39  1   
 35  21  23  1   
 36  21  24  1   
 37  22  25  1   
 38  22  40  1   
 39  22  41  1   
 40  23  26  1   
 41  23  42  1   
 42  23  43  1   
 43  24  27  1   
 44  24  44  1   
 45  24  45  1   
 46  25  46  1   
 47  25  47  1   
 48  25  48  1   
 49  26  28  1   
 50  26  49  1   
 51  26  50  1   
 52  27  28  1   
 53  27  51  1   
 54  27  52  1   
@<TRIPOS>SUBSTRUCTURE
  1 ****  14 GROUP 4 **** **** 0

# MOE 2024.06 (io_trps.svl 2023.06)
