@<TRIPOS>MOLECULE
NONAME
53 56 1 0 0 
SMALL
USER_CHARGES


@<TRIPOS>ATOM
  1 O       -1.3120     0.8140    -0.6180 O.2   1 <1>  -0.5700 
  2 C       -0.9700     1.8890    -0.1980 C.2   1 <1>   0.5690 
  3 N       -1.8870     2.8240     0.1280 N.am  1 <1>  -0.7300 
  4 C        0.5170     2.2250    -0.0660 C.3   1 <1>   0.1810 
  5 C       -1.5470     4.1760     0.6360 C.3   1 <1>   0.3640 
  6 O        0.7620     3.3290     0.7790 O.3   1 <1>  -0.5600 
  7 C       -2.3730     5.1950    -0.1440 C.ar  1 <1>  -0.1440 
  8 C       -0.0250     4.4830     0.5150 C.3   1 <1>   0.2610 
  9 C       -3.0090     6.2330     0.5260 C.ar  1 <1>   0.1600 
 10 C       -2.5110     5.1180    -1.5190 C.ar  1 <1>  -0.1500 
 11 C        0.4070     5.6440     1.4360 C.2   1 <1>   0.5690 
 12 N       -3.7510     7.1660    -0.0490 N.ar  1 <1>  -0.6200 
 13 C       -3.2820     6.0820    -2.1320 C.ar  1 <1>  -0.1500 
 14 O       -0.4050     6.0830     2.2200 O.2   1 <1>  -0.5700 
 15 N        1.6810     6.1830     1.3850 N.am  1 <1>  -0.6600 
 16 C       -3.8720     7.0690    -1.3620 C.ar  1 <1>   0.1600 
 17 C        2.7770     5.6630     0.5220 C.3   1 <1>   0.1400 
 18 C        2.1070     7.1970     2.3910 C.3   1 <1>   0.1400 
 19 C        3.4590     6.8310    -0.1960 C.3   1 <1>  -0.1600 
 20 C        2.7790     8.3720     1.6830 C.3   1 <1>  -0.1600 
 21 C        3.9410     7.8770     0.8210 C.3   1 <1>   0.4230 
 22 N        4.6200     9.0430     0.1800 N.4   1 <1>  -0.9590 
 23 C        3.8330     9.7980    -0.8310 C.3   1 <1>   0.3430 
 24 C        5.9170     8.7270    -0.4690 C.3   1 <1>   0.3430 
 25 C        4.8700    10.6460    -1.5540 C.3   1 <1>  -0.1600 
 26 C        6.2160     9.9500    -1.3260 C.3   1 <1>  -0.1600 
 27 H       -2.8770     2.5900     0.0420 H     1 <1>   0.3700 
 28 H        0.9210     2.4410    -1.0370 H     1 <1>   0.0800 
 29 H        1.0350     1.3770     0.3450 H     1 <1>   0.0800 
 30 H       -1.8310     4.2070     1.6750 H     1 <1>   0.0800 
 31 H        0.1760     4.7810    -0.4970 H     1 <1>   0.0800 
 32 H       -2.9020     6.3060     1.5970 H     1 <1>   0.1500 
 33 H       -2.0470     4.3370    -2.0980 H     1 <1>   0.1500 
 34 H       -3.4300     6.0710    -3.1970 H     1 <1>   0.1500 
 35 H       -4.4750     7.8160    -1.8500 H     1 <1>   0.1500 
 36 H        3.4850     5.1360     1.1400 H     1 <1>   0.0800 
 37 H        2.4040     4.9700    -0.2110 H     1 <1>   0.0800 
 38 H        1.2630     7.5610     2.9550 H     1 <1>   0.0800 
 39 H        2.7880     6.7360     3.0870 H     1 <1>   0.0800 
 40 H        2.7480     7.2550    -0.8800 H     1 <1>   0.0800 
 41 H        4.2880     6.4400    -0.7560 H     1 <1>   0.0800 
 42 H        3.1360     9.0590     2.4280 H     1 <1>   0.0800 
 43 H        2.0350     8.8680     1.0840 H     1 <1>   0.0800 
 44 H        4.6460     7.3930     1.4780 H     1 <1>   0.0800 
 45 H        4.8350     9.7160     0.9280 H     1 <1>   0.4500 
 46 H        3.3800     9.1170    -1.5330 H     1 <1>   0.0800 
 47 H        3.0670    10.4050    -0.3750 H     1 <1>   0.0800 
 48 H        6.6960     8.5470     0.2550 H     1 <1>   0.0800 
 49 H        5.8120     7.8640    -1.1060 H     1 <1>   0.0800 
 50 H        4.6300    10.7200    -2.6010 H     1 <1>   0.0800 
 51 H        4.8840    11.6380    -1.1370 H     1 <1>   0.0800 
 52 H        6.8950    10.6050    -0.8070 H     1 <1>   0.0800 
 53 H        6.6740     9.6540    -2.2550 H     1 <1>   0.0800 
@<TRIPOS>BOND
  1   1   2  2   
  2   2   3  am  
  3   2   4  1   
  4   3   5  1   
  5   3  27  1   
  6   4   6  1   
  7   4  28  1   
  8   4  29  1   
  9   5   7  1   
 10   5   8  1   
 11   5  30  1   
 12   6   8  1   
 13   7   9  ar  
 14   7  10  ar  
 15   8  11  1   
 16   8  31  1   
 17   9  12  ar  
 18   9  32  1   
 19  10  13  ar  
 20  10  33  1   
 21  11  14  2   
 22  11  15  am  
 23  12  16  ar  
 24  13  16  ar  
 25  13  34  1   
 26  15  17  1   
 27  15  18  1   
 28  16  35  1   
 29  17  19  1   
 30  17  36  1   
 31  17  37  1   
 32  18  20  1   
 33  18  38  1   
 34  18  39  1   
 35  19  21  1   
 36  19  40  1   
 37  19  41  1   
 38  20  21  1   
 39  20  42  1   
 40  20  43  1   
 41  21  22  1   
 42  21  44  1   
 43  22  23  1   
 44  22  24  1   
 45  22  45  1   
 46  23  25  1   
 47  23  46  1   
 48  23  47  1   
 49  24  26  1   
 50  24  48  1   
 51  24  49  1   
 52  25  26  1   
 53  25  50  1   
 54  25  51  1   
 55  26  52  1   
 56  26  53  1   
@<TRIPOS>SUBSTRUCTURE
  1 ****  11 GROUP 4 **** **** 0

# MOE 2024.06 (io_trps.svl 2023.06)
