@<TRIPOS>MOLECULE
NONAME
52 54 1 0 0 
SMALL
USER_CHARGES


@<TRIPOS>ATOM
  1 O        0.6230    -0.0160    -0.3130 O.2   1 <1>  -0.5700 
  2 C        1.3120    -0.9480     0.0120 C.2   1 <1>   0.5690 
  3 N        0.9490    -1.7870     1.0040 N.am  1 <1>  -0.7300 
  4 C        2.6260    -1.2240    -0.6840 C.3   1 <1>  -0.0990 
  5 C        1.8050    -2.8930     1.4760 C.3   1 <1>   0.1400 
  6 C        2.7720    -2.7340    -0.9570 C.3   1 <1>  -0.0800 
  7 C        2.4350    -3.6230     0.2680 C.3   1 <1>  -0.0800 
  8 C        4.1840    -3.1210    -1.4220 C.3   1 <1>  -0.1600 
  9 C        3.7350    -4.3540     0.6250 C.3   1 <1>  -0.1600 
 10 C        4.5030    -4.4230    -0.6940 C.3   1 <1>   0.4230 
 11 N        5.9750    -4.6940    -0.5860 N.4   1 <1>  -0.9590 
 12 C        6.7220    -4.0180     0.5620 C.3   1 <1>   0.4040 
 13 C        6.2030    -6.1710    -0.5290 C.3   1 <1>   0.2630 
 14 C        6.7820    -2.4810     0.5320 C.2   1 <1>   0.5690 
 15 O        5.9630    -1.8750     1.1780 O.2   1 <1>  -0.5700 
 16 N        7.7130    -1.8400    -0.2310 N.am  1 <1>  -0.7300 
 17 C        7.7890    -0.3600    -0.3710 C.3   1 <1>   0.1400 
 18 C        8.8260     0.2140     0.5940 C.3   1 <1>  -0.0170 
 19 C        8.9320     1.7170     0.3990 C.ar  1 <1>  -0.1440 
 20 C        8.0400     2.5650     1.0370 C.ar  1 <1>  -0.1500 
 21 C        9.9130     2.2530    -0.4210 C.ar  1 <1>  -0.1500 
 22 C        8.1250     3.9340     0.8560 C.ar  1 <1>  -0.1500 
 23 C        9.9990     3.6230    -0.6030 C.ar  1 <1>  -0.1500 
 24 C        9.1050     4.4640     0.0350 C.ar  1 <1>  -0.1500 
 25 H        0.0880    -1.5700     1.5130 H     1 <1>   0.3700 
 26 H        2.6640    -0.6700    -1.6050 H     1 <1>   0.0800 
 27 H        3.4150    -0.8740    -0.0440 H     1 <1>   0.0800 
 28 H        2.5710    -2.4730     2.1060 H     1 <1>   0.0800 
 29 H        1.2210    -3.5810     2.0640 H     1 <1>   0.0800 
 30 H        2.0690    -2.9840    -1.7370 H     1 <1>   0.0800 
 31 H        1.7220    -4.3610    -0.0630 H     1 <1>   0.0800 
 32 H        4.8710    -2.3400    -1.1680 H     1 <1>   0.0800 
 33 H        4.2010    -3.2630    -2.4890 H     1 <1>   0.0800 
 34 H        3.5310    -5.3340     1.0200 H     1 <1>   0.0800 
 35 H        4.2560    -3.7720     1.3590 H     1 <1>   0.0800 
 36 H        4.0510    -5.2090    -1.2790 H     1 <1>   0.0800 
 37 H        6.3830    -4.3390    -1.4620 H     1 <1>   0.4500 
 38 H        6.2740    -4.3040     1.4980 H     1 <1>   0.0800 
 39 H        7.7380    -4.3720     0.5780 H     1 <1>   0.0800 
 40 H        5.7730    -6.5820     0.3710 H     1 <1>   0.0800 
 41 H        7.2580    -6.3930    -0.5390 H     1 <1>   0.0800 
 42 H        5.7450    -6.6540    -1.3780 H     1 <1>   0.0800 
 43 H        8.4740    -2.3390    -0.6980 H     1 <1>   0.3700 
 44 H        8.0550    -0.1070    -1.3830 H     1 <1>   0.0800 
 45 H        6.8280     0.0810    -0.1610 H     1 <1>   0.0800 
 46 H        8.5300     0.0070     1.6080 H     1 <1>   0.0800 
 47 H        9.7850    -0.2400     0.4190 H     1 <1>   0.0800 
 48 H        7.2730     2.1650     1.6780 H     1 <1>   0.1500 
 49 H       10.6160     1.6120    -0.9230 H     1 <1>   0.1500 
 50 H        7.4290     4.5870     1.3540 H     1 <1>   0.1500 
 51 H       10.7620     4.0340    -1.2400 H     1 <1>   0.1500 
 52 H        9.1720     5.5290    -0.1050 H     1 <1>   0.1500 
@<TRIPOS>BOND
  1   1   2  2   
  2   2   3  am  
  3   2   4  1   
  4   3   5  1   
  5   3  25  1   
  6   4   6  1   
  7   4  26  1   
  8   4  27  1   
  9   5   7  1   
 10   5  28  1   
 11   5  29  1   
 12   6   7  1   
 13   6   8  1   
 14   6  30  1   
 15   7   9  1   
 16   7  31  1   
 17   8  10  1   
 18   8  32  1   
 19   8  33  1   
 20   9  10  1   
 21   9  34  1   
 22   9  35  1   
 23  10  11  1   
 24  10  36  1   
 25  11  12  1   
 26  11  13  1   
 27  11  37  1   
 28  12  14  1   
 29  12  38  1   
 30  12  39  1   
 31  13  40  1   
 32  13  41  1   
 33  13  42  1   
 34  14  15  2   
 35  14  16  am  
 36  16  17  1   
 37  16  43  1   
 38  17  18  1   
 39  17  44  1   
 40  17  45  1   
 41  18  19  1   
 42  18  46  1   
 43  18  47  1   
 44  19  20  ar  
 45  19  21  ar  
 46  20  22  ar  
 47  20  48  1   
 48  21  23  ar  
 49  21  49  1   
 50  22  24  ar  
 51  22  50  1   
 52  23  24  ar  
 53  23  51  1   
 54  24  52  1   
@<TRIPOS>SUBSTRUCTURE
  1 ****  15 GROUP 4 **** **** 0

# MOE 2024.06 (io_trps.svl 2023.06)
