@<TRIPOS>MOLECULE
NONAME
39 41 1 0 0 
SMALL
USER_CHARGES


@<TRIPOS>ATOM
  1 O       -0.7040     0.5460     1.2980 O.2   1 <1>  -0.5700 
  2 C       -1.5480     0.9730     0.5270 C.2   1 <1>   0.5440 
  3 N       -2.4000     0.0810    -0.0780 N.am  1 <1>  -0.6600 
  4 C       -1.6140     2.3840     0.2340 C.ar  1 <1>   0.0860 
  5 C       -3.3890     0.5050    -1.1160 C.3   1 <1>   0.2350 
  6 C       -2.9220    -1.0660     0.7180 C.3   1 <1>   0.2350 
  7 C       -2.4530     3.1940     1.0160 C.ar  1 <1>   0.0820 
  8 C       -0.9230     3.0030    -0.8290 C.ar  1 <1>   0.0820 
  9 C       -4.5960    -0.3970    -0.9520 C.3   1 <1>  -0.2420 
 10 C       -4.3110    -1.3590     0.1780 C.3   1 <1>  -0.2420 
 11 O       -3.1290     2.6980     2.0730 O.3   1 <1>  -0.3630 
 12 C       -2.6080     4.5450     0.7540 C.ar  1 <1>  -0.1500 
 13 O       -0.0650     2.3970    -1.6920 O.3   1 <1>  -0.3620 
 14 C       -1.0990     4.3560    -1.0800 C.ar  1 <1>  -0.1500 
 15 C       -5.8830     0.3440    -1.3240 C.2   1 <1>   0.9470 
 16 C       -4.4870    -1.8730    -1.2240 C.3   1 <1>  -0.2000 
 17 C       -5.2390    -1.8500     1.2890 C.2   1 <1>   0.9470 
 18 C       -4.4210     2.1600     1.8390 C.3   1 <1>   0.0400 
 19 C       -1.9350     5.1300    -0.2980 C.ar  1 <1>  -0.1500 
 20 C        0.6130     1.1880    -1.4250 C.3   1 <1>   0.0400 
 21 O       -6.1080     1.4490    -0.8090 O.co2 1 <1>  -0.9000 
 22 O       -6.5840    -0.0850    -2.2500 O.co2 1 <1>  -0.9000 
 23 O       -5.4590    -1.1140     2.2600 O.co2 1 <1>  -0.9000 
 24 O       -5.6310    -3.0260     1.2680 O.co2 1 <1>  -0.9000 
 25 H       -3.6760     1.5320    -0.9700 H     1 <1>   0.0800 
 26 H       -2.9720     0.3920    -2.1000 H     1 <1>   0.0800 
 27 H       -2.2830    -1.9230     0.6090 H     1 <1>   0.0800 
 28 H       -2.9730    -0.7900     1.7580 H     1 <1>   0.0800 
 29 H       -3.2630     5.1260     1.3780 H     1 <1>   0.1500 
 30 H       -0.5710     4.8040    -1.9020 H     1 <1>   0.1500 
 31 H       -3.6380    -2.2530    -1.7590 H     1 <1>   0.1000 
 32 H       -5.3930    -2.4120    -1.4470 H     1 <1>   0.1000 
 33 H       -4.9370     2.0810     2.7780 H     1 <1>   0.0800 
 34 H       -4.3340     1.1800     1.4130 H     1 <1>   0.0800 
 35 H       -4.9680     2.7980     1.1670 H     1 <1>   0.0800 
 36 H       -2.0610     6.1780    -0.5070 H     1 <1>   0.1500 
 37 H        1.3930     1.0740    -2.1540 H     1 <1>   0.0800 
 38 H       -0.0790     0.3680    -1.5090 H     1 <1>   0.0800 
 39 H        1.0410     1.2330    -0.4390 H     1 <1>   0.0800 
@<TRIPOS>BOND
  1   1   2  2   
  2   2   3  am  
  3   2   4  1   
  4   3   5  1   
  5   3   6  1   
  6   4   7  ar  
  7   4   8  ar  
  8   5   9  1   
  9   5  25  1   
 10   5  26  1   
 11   6  10  1   
 12   6  27  1   
 13   6  28  1   
 14   7  11  1   
 15   7  12  ar  
 16   8  13  1   
 17   8  14  ar  
 18   9  10  1   
 19   9  15  1   
 20   9  16  1   
 21  10  16  1   
 22  10  17  1   
 23  11  18  1   
 24  12  19  ar  
 25  12  29  1   
 26  13  20  1   
 27  14  19  ar  
 28  14  30  1   
 29  15  21  ar  
 30  15  22  ar  
 31  16  31  1   
 32  16  32  1   
 33  17  23  ar  
 34  17  24  ar  
 35  18  33  1   
 36  18  34  1   
 37  18  35  1   
 38  19  36  1   
 39  20  37  1   
 40  20  38  1   
 41  20  39  1   
@<TRIPOS>SUBSTRUCTURE
  1 ****   3 GROUP 4 **** **** 0

# MOE 2024.06 (io_trps.svl 2023.06)
