@<TRIPOS>MOLECULE
NONAME
52 54 1 0 0 
SMALL
USER_CHARGES


@<TRIPOS>ATOM
  1 O       -1.2390    -1.1310     1.0680 O.2   1 <1>  -0.5700 
  2 C       -0.3050    -1.5740     0.4340 C.2   1 <1>   0.6900 
  3 N        0.4200    -2.6780     0.8570 N.am  1 <1>  -0.4690 
  4 N        0.0330    -0.9860    -0.7430 N.am  1 <1>  -0.4900 
  5 C        1.4750    -3.1620     0.0880 C.2   1 <1>  -0.0410 
  6 C        0.0820    -3.3600     2.1500 C.3   1 <1>   0.2010 
  7 C        1.0460    -1.4320    -1.5330 C.2   1 <1>   0.6160 
  8 C        1.7870    -2.5610    -1.0820 C.2   1 <1>  -0.1360 
  9 C       -0.2120    -4.8490     1.9680 C.2   1 <1>   0.5690 
 10 O        1.2690    -0.8610    -2.5780 O.2   1 <1>  -0.5700 
 11 O        0.6760    -5.6200     2.2490 O.2   1 <1>  -0.5700 
 12 N       -1.4170    -5.2970     1.4810 N.am  1 <1>  -0.6600 
 13 C       -1.6580    -6.7460     1.1930 C.3   1 <1>   0.1400 
 14 C       -2.5180    -4.4380     0.9470 C.3   1 <1>   0.1400 
 15 C       -1.9520    -6.9590    -0.3030 C.3   1 <1>   0.3430 
 16 C       -2.7380    -4.7340    -0.5550 C.3   1 <1>   0.2000 
 17 O       -2.9890    -6.1080    -0.7200 O.3   1 <1>  -0.5600 
 18 C       -2.3440    -8.4090    -0.5730 C.ar  1 <1>  -0.1430 
 19 C       -3.8860    -3.9190    -1.2230 C.3   1 <1>   0.0000 
 20 C       -1.3650    -9.3310    -0.9160 C.ar  1 <1>  -0.1500 
 21 C       -3.6620    -8.8340    -0.4680 C.ar  1 <1>  -0.1500 
 22 C       -3.9740    -4.2840    -2.7170 C.3   1 <1>  -0.2400 
 23 C       -3.6110    -2.4070    -1.1330 C.3   1 <1>  -0.2400 
 24 C       -5.2540    -4.2050    -0.5750 C.3   1 <1>  -0.2400 
 25 C       -1.6970   -10.6550    -1.1510 C.ar  1 <1>  -0.1500 
 26 C       -3.9950   -10.1570    -0.7020 C.ar  1 <1>  -0.1500 
 27 C       -3.0120   -11.0690    -1.0430 C.ar  1 <1>  -0.1500 
 28 H       -0.4870    -0.1690    -1.0420 H     1 <1>   0.3700 
 29 H        2.0170    -4.0190     0.4620 H     1 <1>   0.1500 
 30 H        0.9190    -3.2600     2.8160 H     1 <1>   0.0800 
 31 H       -0.7610    -2.8940     2.6250 H     1 <1>   0.0800 
 32 H        2.5880    -2.8920    -1.7150 H     1 <1>   0.1500 
 33 H       -0.8070    -7.3410     1.4720 H     1 <1>   0.0800 
 34 H       -2.4990    -7.0890     1.7700 H     1 <1>   0.0800 
 35 H       -3.4200    -4.6520     1.4910 H     1 <1>   0.0800 
 36 H       -2.2950    -3.4000     1.0860 H     1 <1>   0.0800 
 37 H       -1.0770    -6.7160    -0.8790 H     1 <1>   0.0800 
 38 H       -1.8250    -4.5070    -1.0800 H     1 <1>   0.0800 
 39 H       -0.3370    -9.0250    -1.0030 H     1 <1>   0.1500 
 40 H       -4.4340    -8.1310    -0.2070 H     1 <1>   0.1500 
 41 H       -4.7360    -3.7060    -3.2090 H     1 <1>   0.0800 
 42 H       -4.2150    -5.3250    -2.8390 H     1 <1>   0.0800 
 43 H       -3.0360    -4.0970    -3.2080 H     1 <1>   0.0800 
 44 H       -4.3620    -1.8560    -1.6730 H     1 <1>   0.0800 
 45 H       -2.6530    -2.1710    -1.5600 H     1 <1>   0.0800 
 46 H       -3.6280    -2.0630    -0.1150 H     1 <1>   0.0800 
 47 H       -6.0350    -3.6850    -1.1000 H     1 <1>   0.0800 
 48 H       -5.2750    -3.8870     0.4510 H     1 <1>   0.0800 
 49 H       -5.4710    -5.2590    -0.6100 H     1 <1>   0.0800 
 50 H       -0.9310   -11.3630    -1.4170 H     1 <1>   0.1500 
 51 H       -5.0200   -10.4740    -0.6200 H     1 <1>   0.1500 
 52 H       -3.2710   -12.0970    -1.2250 H     1 <1>   0.1500 
@<TRIPOS>BOND
  1   1   2  2   
  2   2   3  am  
  3   2   4  am  
  4   3   5  1   
  5   3   6  1   
  6   4   7  am  
  7   4  28  1   
  8   5   8  2   
  9   5  29  1   
 10   6   9  1   
 11   6  30  1   
 12   6  31  1   
 13   7   8  1   
 14   7  10  2   
 15   8  32  1   
 16   9  11  2   
 17   9  12  am  
 18  12  13  1   
 19  12  14  1   
 20  13  15  1   
 21  13  33  1   
 22  13  34  1   
 23  14  16  1   
 24  14  35  1   
 25  14  36  1   
 26  15  17  1   
 27  15  18  1   
 28  15  37  1   
 29  16  17  1   
 30  16  19  1   
 31  16  38  1   
 32  18  20  ar  
 33  18  21  ar  
 34  19  22  1   
 35  19  23  1   
 36  19  24  1   
 37  20  25  ar  
 38  20  39  1   
 39  21  26  ar  
 40  21  40  1   
 41  22  41  1   
 42  22  42  1   
 43  22  43  1   
 44  23  44  1   
 45  23  45  1   
 46  23  46  1   
 47  24  47  1   
 48  24  48  1   
 49  24  49  1   
 50  25  27  ar  
 51  25  50  1   
 52  26  27  ar  
 53  26  51  1   
 54  27  52  1   
@<TRIPOS>SUBSTRUCTURE
  1 ****  16 GROUP 4 **** **** 0

# MOE 2024.06 (io_trps.svl 2023.06)
