@<TRIPOS>MOLECULE
NONAME
51 53 1 0 0 
SMALL
USER_CHARGES


@<TRIPOS>ATOM
  1 O        1.5880     1.5160    -0.7380 O.3   1 <1>  -0.6800 
  2 C        2.4450     2.5680    -0.4560 C.3   1 <1>   0.2000 
  3 C        1.8280     3.8880    -0.9580 C.3   1 <1>   0.2090 
  4 C        3.7850     2.2720    -1.1340 C.3   1 <1>  -0.1600 
  5 N        2.8040     5.0230    -0.8140 N.pl3 1 <1>  -0.8380 
  6 C        4.7340     3.4730    -0.9910 C.3   1 <1>  -0.1600 
  7 C        2.6010     6.1240    -0.0450 C.ar  1 <1>   0.4100 
  8 C        4.0970     4.7600    -1.5230 C.3   1 <1>   0.2090 
  9 N        3.6590     6.6970     0.5010 N.ar  1 <1>  -0.6200 
 10 C        1.3070     6.6430     0.1590 C.ar  1 <1>  -0.1500 
 11 C        3.4720     7.7580     1.2560 C.ar  1 <1>   0.7710 
 12 C        1.1450     7.7320     0.9480 C.ar  1 <1>   0.2110 
 13 N        2.2550     8.2790     1.5000 N.ar  1 <1>  -0.1790 
 14 N        4.5740     8.3090     1.7660 N.pl3 1 <1>  -0.8690 
 15 C        4.8600     9.6420     2.3170 C.3   1 <1>   0.3890 
 16 C        6.1210    10.1550     1.6630 C.2   1 <1>  -0.3320 
 17 N        6.3870    10.2380     0.3350 N.pl3 1 <1>   0.0480 
 18 C        7.2090    10.6440     2.3000 C.2   1 <1>   0.0770 
 19 C        7.6260    10.7780     0.2750 C.2   1 <1>   0.0360 
 20 C        5.6060     9.7950    -0.8470 C.3   1 <1>   0.0960 
 21 N        8.1490    11.0360     1.4270 N.2   1 <1>  -0.5650 
 22 C        4.3140    10.6100    -1.0470 C.3   1 <1>  -0.0800 
 23 C        3.4900    10.0070    -2.1900 C.3   1 <1>  -0.2400 
 24 C        4.6140    12.0860    -1.3470 C.3   1 <1>  -0.2400 
 25 H        0.8510     1.4830    -0.1000 H     1 <1>   0.4000 
 26 H        2.5790     2.6110     0.6120 H     1 <1>   0.0800 
 27 H        0.9350     4.0790    -0.3940 H     1 <1>   0.0800 
 28 H        1.5690     3.7840    -1.9970 H     1 <1>   0.0800 
 29 H        3.6200     2.0730    -2.1790 H     1 <1>   0.0800 
 30 H        4.2320     1.4020    -0.6850 H     1 <1>   0.0800 
 31 H        5.6420     3.2770    -1.5330 H     1 <1>   0.0800 
 32 H        4.9930     3.6160     0.0430 H     1 <1>   0.0800 
 33 H        4.7830     5.5810    -1.3990 H     1 <1>   0.0800 
 34 H        3.9030     4.6560    -2.5770 H     1 <1>   0.0800 
 35 H        0.4700     6.1770    -0.3260 H     1 <1>   0.1500 
 36 H        0.1810     8.1740     1.1460 H     1 <1>   0.1500 
 37 H        2.2140     9.0730     2.1290 H     1 <1>   0.4570 
 38 H        5.4390     7.7850     1.5850 H     1 <1>   0.4000 
 39 H        5.0110     9.5680     3.3820 H     1 <1>   0.0800 
 40 H        4.0530    10.3270     2.1280 H     1 <1>   0.0800 
 41 H        7.3760    10.7430     3.3610 H     1 <1>   0.1500 
 42 H        8.1210    10.9670    -0.6610 H     1 <1>   0.1500 
 43 H        5.3740     8.7530    -0.7300 H     1 <1>   0.0800 
 44 H        6.2260     9.8910    -1.7210 H     1 <1>   0.0800 
 45 H        3.7220    10.5580    -0.1540 H     1 <1>   0.0800 
 46 H        4.0360    10.0530    -3.1170 H     1 <1>   0.0800 
 47 H        2.5690    10.5490    -2.3170 H     1 <1>   0.0800 
 48 H        3.2530     8.9770    -1.9880 H     1 <1>   0.0800 
 49 H        5.2140    12.1800    -2.2360 H     1 <1>   0.0800 
 50 H        5.1450    12.5430    -0.5290 H     1 <1>   0.0800 
 51 H        3.7000    12.6330    -1.4960 H     1 <1>   0.0800 
@<TRIPOS>BOND
  1   1   2  1   
  2   1  25  1   
  3   2   3  1   
  4   2   4  1   
  5   2  26  1   
  6   3   5  1   
  7   3  27  1   
  8   3  28  1   
  9   4   6  1   
 10   4  29  1   
 11   4  30  1   
 12   5   7  1   
 13   5   8  1   
 14   6   8  1   
 15   6  31  1   
 16   6  32  1   
 17   7   9  ar  
 18   7  10  ar  
 19   8  33  1   
 20   8  34  1   
 21   9  11  ar  
 22  10  12  ar  
 23  10  35  1   
 24  11  13  ar  
 25  11  14  1   
 26  12  13  ar  
 27  12  36  1   
 28  13  37  1   
 29  14  15  1   
 30  14  38  1   
 31  15  16  1   
 32  15  39  1   
 33  15  40  1   
 34  16  17  1   
 35  16  18  2   
 36  17  19  1   
 37  17  20  1   
 38  18  21  1   
 39  18  41  1   
 40  19  21  2   
 41  19  42  1   
 42  20  22  1   
 43  20  43  1   
 44  20  44  1   
 45  22  23  1   
 46  22  24  1   
 47  22  45  1   
 48  23  46  1   
 49  23  47  1   
 50  23  48  1   
 51  24  49  1   
 52  24  50  1   
 53  24  51  1   
@<TRIPOS>SUBSTRUCTURE
  1 ****   9 GROUP 4 **** **** 0

# MOE 2024.06 (io_trps.svl 2023.06)
