@<TRIPOS>MOLECULE
NONAME
51 53 1 0 0 
SMALL
USER_CHARGES


@<TRIPOS>ATOM
  1 F        0.1800     1.0110     3.1290 F     1 <1>  -0.1900 
  2 C       -0.7530     1.6660     2.4940 C.ar  1 <1>   0.1900 
  3 C       -0.4570     2.9070     1.9750 C.ar  1 <1>  -0.1500 
  4 C       -1.9980     1.0910     2.3620 C.ar  1 <1>  -0.1500 
  5 C       -1.4270     3.6280     1.2770 C.ar  1 <1>   0.0860 
  6 C       -2.9770     1.8000     1.6890 C.ar  1 <1>  -0.1500 
  7 C       -2.7060     3.0550     1.1580 C.ar  1 <1>  -0.1440 
  8 C       -1.0540     4.9140     0.7100 C.2   1 <1>   0.5440 
  9 C       -3.8500     3.7850     0.4630 C.3   1 <1>  -0.0960 
 10 O       -0.3300     5.6830     1.3170 O.2   1 <1>  -0.5700 
 11 N       -1.3480     5.2560    -0.5880 N.am  1 <1>  -0.6600 
 12 C       -0.6800     4.5150    -1.7030 C.3   1 <1>   0.1400 
 13 C       -1.8660     6.6120    -0.9370 C.3   1 <1>   0.1400 
 14 C        0.8300     4.8450    -1.7720 C.3   1 <1>   0.3430 
 15 C       -0.7650     7.6860    -0.9910 C.3   1 <1>  -0.1600 
 16 N        1.1400     6.1440    -1.0920 N.4   1 <1>  -0.9590 
 17 C        0.5010     7.3050    -1.7640 C.3   1 <1>   0.3430 
 18 C        2.5980     6.3220    -0.8180 C.3   1 <1>   0.3430 
 19 C        2.8400     7.2680     0.3610 C.3   1 <1>   0.0960 
 20 N        4.2890     7.4020     0.5660 N.pl3 1 <1>   0.3140 
 21 N        5.1440     7.2920    -0.4670 N.2   1 <1>  -0.7070 
 22 C        4.9420     7.6420     1.7240 C.2   1 <1>  -0.3320 
 23 C        6.3200     7.4670     0.0540 C.2   1 <1>   0.1390 
 24 C        6.2580     7.6890     1.4230 C.2   1 <1>  -0.1500 
 25 C        4.2890     7.8240     3.0860 C.3   1 <1>  -0.0600 
 26 H        0.5280     3.3120     2.1170 H     1 <1>   0.1500 
 27 H       -2.1950     0.1190     2.7780 H     1 <1>   0.1500 
 28 H       -3.9560     1.3630     1.5900 H     1 <1>   0.1500 
 29 H       -3.8940     4.8090     0.7880 H     1 <1>   0.0800 
 30 H       -4.7970     3.3280     0.6940 H     1 <1>   0.0800 
 31 H       -3.7160     3.7590    -0.6030 H     1 <1>   0.0800 
 32 H       -1.1470     4.7720    -2.6380 H     1 <1>   0.0800 
 33 H       -0.8080     3.4550    -1.5640 H     1 <1>   0.0800 
 34 H       -2.5990     6.9030    -0.2020 H     1 <1>   0.0800 
 35 H       -2.3710     6.5600    -1.8870 H     1 <1>   0.0800 
 36 H        1.1580     4.8650    -2.7990 H     1 <1>   0.0800 
 37 H        1.3660     4.0530    -1.2750 H     1 <1>   0.0800 
 38 H       -0.4970     7.9690     0.0120 H     1 <1>   0.0800 
 39 H       -1.1850     8.5640    -1.4470 H     1 <1>   0.0800 
 40 H        0.6450     6.0660    -0.1740 H     1 <1>   0.4500 
 41 H        1.1760     8.1460    -1.7700 H     1 <1>   0.0800 
 42 H        0.2570     7.0620    -2.7850 H     1 <1>   0.0800 
 43 H        3.0930     6.7070    -1.6960 H     1 <1>   0.0800 
 44 H        3.0410     5.3700    -0.5760 H     1 <1>   0.0800 
 45 H        2.3970     6.8690     1.2540 H     1 <1>   0.0800 
 46 H        2.4440     8.2440     0.1580 H     1 <1>   0.0800 
 47 H        7.2350     7.4420    -0.5150 H     1 <1>   0.1500 
 48 H        7.0980     7.8600     2.0730 H     1 <1>   0.1500 
 49 H        3.6040     8.6530     3.0660 H     1 <1>   0.0800 
 50 H        5.0400     8.0230     3.8300 H     1 <1>   0.0800 
 51 H        3.7590     6.9330     3.3710 H     1 <1>   0.0800 
@<TRIPOS>BOND
  1   1   2  1   
  2   2   3  ar  
  3   2   4  ar  
  4   3   5  ar  
  5   3  26  1   
  6   4   6  ar  
  7   4  27  1   
  8   5   7  ar  
  9   5   8  1   
 10   6   7  ar  
 11   6  28  1   
 12   7   9  1   
 13   8  10  2   
 14   8  11  am  
 15   9  29  1   
 16   9  30  1   
 17   9  31  1   
 18  11  12  1   
 19  11  13  1   
 20  12  14  1   
 21  12  32  1   
 22  12  33  1   
 23  13  15  1   
 24  13  34  1   
 25  13  35  1   
 26  14  16  1   
 27  14  36  1   
 28  14  37  1   
 29  15  17  1   
 30  15  38  1   
 31  15  39  1   
 32  16  17  1   
 33  16  18  1   
 34  16  40  1   
 35  17  41  1   
 36  17  42  1   
 37  18  19  1   
 38  18  43  1   
 39  18  44  1   
 40  19  20  1   
 41  19  45  1   
 42  19  46  1   
 43  20  21  1   
 44  20  22  1   
 45  21  23  2   
 46  22  24  2   
 47  22  25  1   
 48  23  24  1   
 49  23  47  1   
 50  24  48  1   
 51  25  49  1   
 52  25  50  1   
 53  25  51  1   
@<TRIPOS>SUBSTRUCTURE
  1 ****  10 GROUP 4 **** **** 0

# MOE 2024.06 (io_trps.svl 2023.06)
