@<TRIPOS>MOLECULE
NONAME
76 79 1 0 0 
SMALL
USER_CHARGES


@<TRIPOS>ATOM
  1 O       -1.2870     0.4440    -0.3200 O.3   1 <1>  -0.3630 
  2 C       -2.1880     1.4120    -0.6470 C.ar  1 <1>   0.0820 
  3 C        0.0080     0.8300     0.1130 C.3   1 <1>   0.1200 
  4 C       -3.2480     1.0660    -1.4790 C.ar  1 <1>  -0.1440 
  5 C       -2.0850     2.7210    -0.1810 C.ar  1 <1>  -0.1500 
  6 C        0.9470    -0.3790     0.0720 C.3   1 <1>   0.1100 
  7 C       -4.1760     2.0250    -1.8560 C.ar  1 <1>  -0.1500 
  8 C       -3.4000    -0.3580    -1.9680 C.3   1 <1>   0.4870 
  9 C       -3.0180     3.6700    -0.5570 C.ar  1 <1>  -0.1500 
 10 N        2.3390     0.0250     0.3470 N.3   1 <1>  -0.8100 
 11 C       -4.0610     3.3230    -1.3960 C.ar  1 <1>  -0.1500 
 12 N       -3.6550    -1.2340    -0.7880 N.4   1 <1>  -0.9590 
 13 C        2.5860     0.3300     1.7820 C.3   1 <1>   0.1100 
 14 C        3.3090    -0.9910    -0.1330 C.3   1 <1>   0.1100 
 15 C       -3.6520    -2.6910    -1.1730 C.3   1 <1>   0.3430 
 16 C       -4.9170    -0.8200    -0.1030 C.3   1 <1>   0.3430 
 17 C        4.0670     0.6830     2.0750 C.3   1 <1>   0.3430 
 18 C        4.7810    -0.5490     0.0690 C.3   1 <1>   0.3430 
 19 C       -3.9980    -3.6610     0.0040 C.3   1 <1>   0.4230 
 20 C       -5.1640    -1.7120     1.1180 C.3   1 <1>  -0.1600 
 21 N        4.8680     0.7550     0.8100 N.4   1 <1>  -0.9590 
 22 N       -3.9840    -5.1510    -0.3440 N.4   1 <1>  -0.9590 
 23 C       -5.2740    -3.2240     0.7830 C.3   1 <1>   0.0000 
 24 C        6.2480     1.2530     1.0270 C.3   1 <1>   0.3430 
 25 C       -4.6540    -6.0220     0.6850 C.3   1 <1>   0.3430 
 26 C       -4.5400    -5.4920    -1.6980 C.3   1 <1>   0.2630 
 27 C       -5.3250    -4.0120     2.1230 C.3   1 <1>  -0.1600 
 28 C       -6.6030    -3.4850     0.0150 C.3   1 <1>   0.1200 
 29 C        6.8650     1.6580    -0.3060 C.3   1 <1>  -0.2400 
 30 C       -4.6080    -5.3770     2.0710 C.3   1 <1>  -0.1600 
 31 O       -6.5380    -3.0310    -1.2950 O.3   1 <1>  -0.6800 
 32 H        0.3740     1.5900    -0.5560 H     1 <1>   0.0800 
 33 H       -0.0740     1.2170     1.1120 H     1 <1>   0.0800 
 34 H       -1.2920     3.0290     0.4750 H     1 <1>   0.1500 
 35 H        0.8960    -0.7980    -0.9190 H     1 <1>   0.0800 
 36 H        0.6300    -1.1230     0.7830 H     1 <1>   0.0800 
 37 H       -4.9970     1.7810    -2.5100 H     1 <1>   0.1500 
 38 H       -2.4900    -0.6550    -2.4650 H     1 <1>   0.0800 
 39 H       -4.2150    -0.4240    -2.6700 H     1 <1>   0.0800 
 40 H       -2.9330     4.6820    -0.1980 H     1 <1>   0.1500 
 41 H       -4.7810     4.0700    -1.6900 H     1 <1>   0.1500 
 42 H       -2.8700    -0.9990    -0.1560 H     1 <1>   0.4500 
 43 H        1.9760     1.1640     2.0830 H     1 <1>   0.0800 
 44 H        2.3030    -0.5120     2.3920 H     1 <1>   0.0800 
 45 H        3.1480    -1.9220     0.3830 H     1 <1>   0.0800 
 46 H        3.1510    -1.1730    -1.1830 H     1 <1>   0.0800 
 47 H       -4.3740    -2.8350    -1.9580 H     1 <1>   0.0800 
 48 H       -2.6810    -2.9490    -1.5610 H     1 <1>   0.0800 
 49 H       -4.8430     0.2080     0.2180 H     1 <1>   0.0800 
 50 H       -5.7490    -0.8950    -0.7850 H     1 <1>   0.0800 
 51 H        4.4850    -0.0640     2.7300 H     1 <1>   0.0800 
 52 H        4.1050     1.6280     2.5910 H     1 <1>   0.0800 
 53 H        5.2450    -0.4500    -0.8980 H     1 <1>   0.0800 
 54 H        5.3110    -1.3180     0.6070 H     1 <1>   0.0800 
 55 H       -3.1960    -3.5240     0.7090 H     1 <1>   0.0800 
 56 H       -4.3640    -1.5350     1.8170 H     1 <1>   0.0800 
 57 H       -6.0690    -1.3810     1.5980 H     1 <1>   0.0800 
 58 H        4.3430     1.4170     0.2170 H     1 <1>   0.4500 
 59 H       -2.9970    -5.4480    -0.3430 H     1 <1>   0.4500 
 60 H        6.2230     2.1150     1.6750 H     1 <1>   0.0800 
 61 H        6.8500     0.4920     1.5000 H     1 <1>   0.0800 
 62 H       -5.6860    -6.1780     0.4160 H     1 <1>   0.0800 
 63 H       -4.1750    -6.9890     0.7160 H     1 <1>   0.0800 
 64 H       -5.5770    -5.2040    -1.7660 H     1 <1>   0.0800 
 65 H       -4.4730    -6.5550    -1.8720 H     1 <1>   0.0800 
 66 H       -3.9910    -4.9900    -2.4770 H     1 <1>   0.0800 
 67 H       -4.8710    -3.4480     2.9210 H     1 <1>   0.0800 
 68 H       -6.3510    -4.1620     2.4190 H     1 <1>   0.0800 
 69 H       -7.4220    -2.9790     0.5020 H     1 <1>   0.0800 
 70 H       -6.8400    -4.5340    -0.0170 H     1 <1>   0.0800 
 71 H        6.2580     2.3950    -0.8000 H     1 <1>   0.0800 
 72 H        7.0050     0.8090    -0.9500 H     1 <1>   0.0800 
 73 H        7.8330     2.0930    -0.1270 H     1 <1>   0.0800 
 74 H       -5.0680    -6.0420     2.7830 H     1 <1>   0.0800 
 75 H       -3.5790    -5.2680     2.3710 H     1 <1>   0.0800 
 76 H       -7.4350    -3.0520    -1.7050 H     1 <1>   0.4000 
@<TRIPOS>BOND
  1   1   2  1   
  2   1   3  1   
  3   2   4  ar  
  4   2   5  ar  
  5   3   6  1   
  6   3  32  1   
  7   3  33  1   
  8   4   7  ar  
  9   4   8  1   
 10   5   9  ar  
 11   5  34  1   
 12   6  10  1   
 13   6  35  1   
 14   6  36  1   
 15   7  11  ar  
 16   7  37  1   
 17   8  12  1   
 18   8  38  1   
 19   8  39  1   
 20   9  11  ar  
 21   9  40  1   
 22  10  13  1   
 23  10  14  1   
 24  11  41  1   
 25  12  15  1   
 26  12  16  1   
 27  12  42  1   
 28  13  17  1   
 29  13  43  1   
 30  13  44  1   
 31  14  18  1   
 32  14  45  1   
 33  14  46  1   
 34  15  19  1   
 35  15  47  1   
 36  15  48  1   
 37  16  20  1   
 38  16  49  1   
 39  16  50  1   
 40  17  21  1   
 41  17  51  1   
 42  17  52  1   
 43  18  21  1   
 44  18  53  1   
 45  18  54  1   
 46  19  22  1   
 47  19  23  1   
 48  19  55  1   
 49  20  23  1   
 50  20  56  1   
 51  20  57  1   
 52  21  24  1   
 53  21  58  1   
 54  22  25  1   
 55  22  26  1   
 56  22  59  1   
 57  23  27  1   
 58  23  28  1   
 59  24  29  1   
 60  24  60  1   
 61  24  61  1   
 62  25  30  1   
 63  25  62  1   
 64  25  63  1   
 65  26  64  1   
 66  26  65  1   
 67  26  66  1   
 68  27  30  1   
 69  27  67  1   
 70  27  68  1   
 71  28  31  1   
 72  28  69  1   
 73  28  70  1   
 74  29  71  1   
 75  29  72  1   
 76  29  73  1   
 77  30  74  1   
 78  30  75  1   
 79  31  76  1   
@<TRIPOS>SUBSTRUCTURE
  1 ****   1 GROUP 4 **** **** 0

# MOE 2024.06 (io_trps.svl 2023.06)
