@<TRIPOS>MOLECULE
NONAME
49 51 1 0 0 
SMALL
USER_CHARGES


@<TRIPOS>ATOM
  1 S       -0.3680     0.4140     2.1690 S.o2  1 <1>   1.4470 
  2 O       -1.2420     1.4870     2.5820 O.2   1 <1>  -0.6500 
  3 O        0.2320    -0.4480     3.1640 O.2   1 <1>  -0.6500 
  4 N        0.9520     1.1660     1.4060 N.am  1 <1>  -0.8490 
  5 C       -1.1310    -0.5520     0.8380 C.ar  1 <1>  -0.0090 
  6 C        2.0070     0.2040     1.0370 C.3   1 <1>   0.1960 
  7 C        1.4840     2.2500     2.2480 C.3   1 <1>   0.1960 
  8 C       -1.2050    -1.9400     0.9040 C.ar  1 <1>  -0.1500 
  9 C       -1.6460     0.0730    -0.2910 C.ar  1 <1>  -0.1500 
 10 C        3.2010     0.9020     0.3520 C.3   1 <1>   0.3430 
 11 C        2.6790     2.9670     1.5840 C.3   1 <1>   0.3430 
 12 C       -1.7650    -2.6820    -0.1220 C.ar  1 <1>  -0.1500 
 13 C       -2.2070    -0.6600    -1.3220 C.ar  1 <1>  -0.1500 
 14 N        3.7910     2.0150     1.1970 N.4   1 <1>  -0.9590 
 15 C       -2.2700    -2.0400    -1.2480 C.ar  1 <1>   0.0830 
 16 C        4.9050     2.7030     0.4450 C.3   1 <1>   0.4230 
 17 O       -2.8310    -2.6850    -2.2980 O.3   1 <1>  -0.3620 
 18 C        6.0520     1.7370     0.0980 C.3   1 <1>   0.0700 
 19 C        5.4980     3.9370     1.1460 C.3   1 <1>   0.0700 
 20 C       -3.0050    -4.0850    -2.2970 C.3   1 <1>   0.0400 
 21 S        6.2140     1.7000    -1.7030 S.3   1 <1>  -0.4600 
 22 S        6.0350     5.0930    -0.1450 S.3   1 <1>  -0.4600 
 23 C        6.6610     3.3950    -2.2390 C.3   1 <1>   0.0700 
 24 C        7.3140     4.2440    -1.1370 C.3   1 <1>   0.0700 
 25 H        1.6010    -0.5270     0.3570 H     1 <1>   0.0800 
 26 H        2.3600    -0.3210     1.9100 H     1 <1>   0.0800 
 27 H        1.7800     1.8600     3.2090 H     1 <1>   0.0800 
 28 H        0.7100     2.9810     2.4210 H     1 <1>   0.0800 
 29 H       -0.8230    -2.4510     1.7730 H     1 <1>   0.1500 
 30 H       -1.6120     1.1470    -0.3640 H     1 <1>   0.1500 
 31 H        2.8610     1.3060    -0.5880 H     1 <1>   0.0800 
 32 H        3.9520     0.1610     0.1330 H     1 <1>   0.0800 
 33 H        3.0470     3.7120     2.2690 H     1 <1>   0.0800 
 34 H        2.3180     3.4770     0.7060 H     1 <1>   0.0800 
 35 H       -1.8020    -3.7510    -0.0280 H     1 <1>   0.1500 
 36 H       -2.6050    -0.1660    -2.1910 H     1 <1>   0.1500 
 37 H        4.1690     1.5990     2.0590 H     1 <1>   0.4500 
 38 H        4.4850     3.0550    -0.4840 H     1 <1>   0.0800 
 39 H        5.8630     0.7270     0.4120 H     1 <1>   0.0800 
 40 H        7.0030     2.0450     0.4930 H     1 <1>   0.0800 
 41 H        6.3550     3.7080     1.7560 H     1 <1>   0.0800 
 42 H        4.7790     4.4830     1.7250 H     1 <1>   0.0800 
 43 H       -3.4890    -4.3610    -3.2160 H     1 <1>   0.0800 
 44 H       -3.6250    -4.3590    -1.4610 H     1 <1>   0.0800 
 45 H       -2.0410    -4.5570    -2.2350 H     1 <1>   0.0800 
 46 H        5.7700     3.8670    -2.6160 H     1 <1>   0.0800 
 47 H        7.3500     3.2650    -3.0560 H     1 <1>   0.0800 
 48 H        7.9630     3.6830    -0.4910 H     1 <1>   0.0800 
 49 H        7.8860     5.0340    -1.5930 H     1 <1>   0.0800 
@<TRIPOS>BOND
  1   1   2  2   
  2   1   3  2   
  3   1   4  am  
  4   1   5  1   
  5   4   6  1   
  6   4   7  1   
  7   5   8  ar  
  8   5   9  ar  
  9   6  10  1   
 10   6  25  1   
 11   6  26  1   
 12   7  11  1   
 13   7  27  1   
 14   7  28  1   
 15   8  12  ar  
 16   8  29  1   
 17   9  13  ar  
 18   9  30  1   
 19  10  14  1   
 20  10  31  1   
 21  10  32  1   
 22  11  14  1   
 23  11  33  1   
 24  11  34  1   
 25  12  15  ar  
 26  12  35  1   
 27  13  15  ar  
 28  13  36  1   
 29  14  16  1   
 30  14  37  1   
 31  15  17  1   
 32  16  18  1   
 33  16  19  1   
 34  16  38  1   
 35  17  20  1   
 36  18  21  1   
 37  18  39  1   
 38  18  40  1   
 39  19  22  1   
 40  19  41  1   
 41  19  42  1   
 42  20  43  1   
 43  20  44  1   
 44  20  45  1   
 45  21  23  1   
 46  22  24  1   
 47  23  24  1   
 48  23  46  1   
 49  23  47  1   
 50  24  48  1   
 51  24  49  1   
@<TRIPOS>SUBSTRUCTURE
  1 ****   6 GROUP 4 **** **** 0

# MOE 2024.06 (io_trps.svl 2023.06)
