@<TRIPOS>MOLECULE
NONAME
48 52 1 0 0 
SMALL
USER_CHARGES


@<TRIPOS>ATOM
  1 S       -0.7520     1.2830     2.4470 S.3   1 <1>  -0.0800 
  2 C       -0.3080     2.0400     0.9320 C.2   1 <1>  -0.1400 
  3 C        0.5750     2.0960     3.2640 C.2   1 <1>  -0.1100 
  4 C        0.7670     2.8280     1.0620 C.2   1 <1>  -0.1810 
  5 C       -1.0710     1.8110    -0.3440 C.3   1 <1>   0.0200 
  6 C        1.2720     2.8660     2.4050 C.2   1 <1>  -0.1500 
  7 C        1.3430     3.5790    -0.1400 C.3   1 <1>   0.4610 
  8 C       -0.6930     2.9460    -1.3080 C.3   1 <1>   0.1200 
  9 O        0.7000     3.1570    -1.3300 O.3   1 <1>  -0.5600 
 10 C        1.1570     5.0960     0.0150 C.3   1 <1>  -0.1600 
 11 C        2.8270     3.2370    -0.3210 C.3   1 <1>  -0.1600 
 12 C        1.8080     5.8600    -1.1390 C.3   1 <1>   0.1400 
 13 C        3.4590     4.0400    -1.4600 C.3   1 <1>   0.1400 
 14 N        3.2500     5.4930    -1.2010 N.am  1 <1>  -0.6600 
 15 C        4.3180     6.3380    -0.9970 C.2   1 <1>   0.5690 
 16 O        5.4540     5.9280    -1.0450 O.2   1 <1>  -0.5700 
 17 C        4.1010     7.8190    -0.6830 C.3   1 <1>  -0.0190 
 18 C        5.3300     8.7350    -0.8730 C.3   1 <1>  -0.0170 
 19 C        3.6340     8.0660     0.7650 C.3   1 <1>  -0.0170 
 20 C        5.0730     9.8410     0.1220 C.ar  1 <1>  -0.1430 
 21 C        4.1260     9.4650     1.0410 C.ar  1 <1>  -0.1430 
 22 C        5.6600    11.0910     0.1830 C.ar  1 <1>  -0.1500 
 23 C        3.7360    10.3260     2.0500 C.ar  1 <1>  -0.1500 
 24 C        5.2760    11.9630     1.1900 C.ar  1 <1>  -0.1500 
 25 C        4.3190    11.5830     2.1190 C.ar  1 <1>  -0.1500 
 26 H        0.6940     1.9080     4.3160 H     1 <1>   0.1500 
 27 H       -2.1300     1.8270    -0.1580 H     1 <1>   0.0800 
 28 H       -0.8060     0.8580    -0.7650 H     1 <1>   0.0800 
 29 H        2.1290     3.4620     2.6650 H     1 <1>   0.1500 
 30 H       -1.1730     3.8620    -1.0140 H     1 <1>   0.0800 
 31 H       -1.0040     2.7010    -2.3090 H     1 <1>   0.0800 
 32 H        1.6100     5.4130     0.9360 H     1 <1>   0.0800 
 33 H        0.1120     5.3340     0.0770 H     1 <1>   0.0800 
 34 H        2.9260     2.1850    -0.5150 H     1 <1>   0.0800 
 35 H        3.3670     3.4530     0.5820 H     1 <1>   0.0800 
 36 H        1.6670     6.9140    -0.9980 H     1 <1>   0.0800 
 37 H        1.3370     5.5870    -2.0690 H     1 <1>   0.0800 
 38 H        2.9990     3.7770    -2.3980 H     1 <1>   0.0800 
 39 H        4.5070     3.8040    -1.5290 H     1 <1>   0.0800 
 40 H        3.3490     8.2030    -1.3460 H     1 <1>   0.0800 
 41 H        5.3980     9.1040    -1.8800 H     1 <1>   0.0800 
 42 H        6.2460     8.2390    -0.6040 H     1 <1>   0.0800 
 43 H        4.1150     7.3810     1.4410 H     1 <1>   0.0800 
 44 H        2.5670     7.9950     0.8650 H     1 <1>   0.0800 
 45 H        6.4040    11.3810    -0.5390 H     1 <1>   0.1500 
 46 H        2.9950    10.0280     2.7690 H     1 <1>   0.1500 
 47 H        5.7240    12.9400     1.2510 H     1 <1>   0.1500 
 48 H        4.0270    12.2650     2.8980 H     1 <1>   0.1500 
@<TRIPOS>BOND
  1   1   2  1   
  2   1   3  1   
  3   2   4  2   
  4   2   5  1   
  5   3   6  2   
  6   3  26  1   
  7   4   6  1   
  8   4   7  1   
  9   5   8  1   
 10   5  27  1   
 11   5  28  1   
 12   6  29  1   
 13   7   9  1   
 14   7  10  1   
 15   7  11  1   
 16   8   9  1   
 17   8  30  1   
 18   8  31  1   
 19  10  12  1   
 20  10  32  1   
 21  10  33  1   
 22  11  13  1   
 23  11  34  1   
 24  11  35  1   
 25  12  14  1   
 26  12  36  1   
 27  12  37  1   
 28  13  14  1   
 29  13  38  1   
 30  13  39  1   
 31  14  15  am  
 32  15  16  2   
 33  15  17  1   
 34  17  18  1   
 35  17  19  1   
 36  17  40  1   
 37  18  20  1   
 38  18  41  1   
 39  18  42  1   
 40  19  21  1   
 41  19  43  1   
 42  19  44  1   
 43  20  21  ar  
 44  20  22  ar  
 45  21  23  ar  
 46  22  24  ar  
 47  22  45  1   
 48  23  25  ar  
 49  23  46  1   
 50  24  25  ar  
 51  24  47  1   
 52  25  48  1   
@<TRIPOS>SUBSTRUCTURE
  1 ****  12 GROUP 4 **** **** 0

# MOE 2024.06 (io_trps.svl 2023.06)
