@<TRIPOS>MOLECULE
NONAME
48 50 1 0 0 
SMALL
USER_CHARGES


@<TRIPOS>ATOM
  1 O       -3.5110    -0.4780     0.6910 O.2   1 <1>  -0.5700 
  2 C       -2.7280    -0.9560    -0.1130 C.2   1 <1>   0.7160 
  3 N       -1.7510    -0.1370    -0.6290 N.am  1 <1>  -0.7300 
  4 C       -2.8200    -2.3610    -0.5280 C.2   1 <1>   0.4300 
  5 C       -1.5360     1.2970    -0.3000 C.3   1 <1>   0.0600 
  6 N       -2.0600    -2.9300    -1.4070 N.2   1 <1>  -0.4100 
  7 N       -3.7190    -3.2380    -0.0420 N.2   1 <1>  -0.5650 
  8 O       -2.4230    -4.1660    -1.5250 O.3   1 <1>  -0.0190 
  9 C       -3.4160    -4.2890    -0.6880 C.2   1 <1>   0.2980 
 10 C       -4.0990    -5.6500    -0.5580 C.3   1 <1>   0.5230 
 11 N       -5.3550    -5.5710     0.2710 N.4   1 <1>  -0.9590 
 12 C       -5.8500    -6.8880     0.7940 C.3   1 <1>   0.4230 
 13 C       -6.3960    -4.8530    -0.5260 C.3   1 <1>   0.3430 
 14 C       -7.1050    -6.6370     1.6510 C.3   1 <1>  -0.1600 
 15 C       -4.8100    -7.6380     1.6600 C.3   1 <1>  -0.1600 
 16 C       -7.6270    -4.5740     0.3310 C.3   1 <1>  -0.1600 
 17 C       -8.2000    -5.8710     0.9020 C.3   1 <1>  -0.1600 
 18 C       -3.7800    -8.5280     0.9290 C.3   1 <1>  -0.0170 
 19 C       -4.3490    -9.2150    -0.3040 C.ar  1 <1>   0.1670 
 20 N       -4.4040    -8.4860    -1.4110 N.ar  1 <1>  -0.6200 
 21 C       -4.7710   -10.5330    -0.2160 C.ar  1 <1>  -0.1500 
 22 C       -4.8820    -9.1120    -2.4790 C.ar  1 <1>   0.1600 
 23 C       -5.2790   -11.1620    -1.3320 C.ar  1 <1>  -0.1500 
 24 C       -5.3280   -10.4220    -2.4920 C.ar  1 <1>  -0.1500 
 25 H       -1.1010    -0.5490    -1.3050 H     1 <1>   0.3700 
 26 H       -2.2650     1.6350     0.4180 H     1 <1>   0.0800 
 27 H       -1.6280     1.8930    -1.1920 H     1 <1>   0.0800 
 28 H       -0.5530     1.4320     0.1160 H     1 <1>   0.0800 
 29 H       -3.3930    -6.3110    -0.1020 H     1 <1>   0.0800 
 30 H       -4.3280    -6.0340    -1.5380 H     1 <1>   0.0800 
 31 H       -5.1340    -4.9620     1.0710 H     1 <1>   0.4500 
 32 H       -6.1400    -7.5140    -0.0350 H     1 <1>   0.0800 
 33 H       -6.6810    -5.4530    -1.3750 H     1 <1>   0.0800 
 34 H       -6.0060    -3.9150    -0.8890 H     1 <1>   0.0800 
 35 H       -6.8320    -6.0940     2.5390 H     1 <1>   0.0800 
 36 H       -7.5140    -7.5810     1.9660 H     1 <1>   0.0800 
 37 H       -5.3570    -8.3150     2.2930 H     1 <1>   0.0800 
 38 H       -4.3070    -6.9530     2.3200 H     1 <1>   0.0800 
 39 H       -8.3740    -4.0880    -0.2730 H     1 <1>   0.0800 
 40 H       -7.3650    -3.8970     1.1260 H     1 <1>   0.0800 
 41 H       -9.0160    -5.6490     1.5700 H     1 <1>   0.0800 
 42 H       -8.5860    -6.4810     0.1020 H     1 <1>   0.0800 
 43 H       -3.4290    -9.2780     1.6170 H     1 <1>   0.0800 
 44 H       -2.9070    -7.9720     0.6460 H     1 <1>   0.0800 
 45 H       -4.7040   -11.0730     0.7120 H     1 <1>   0.1500 
 46 H       -4.9230    -8.5560    -3.4010 H     1 <1>   0.1500 
 47 H       -5.6150   -12.1850    -1.3010 H     1 <1>   0.1500 
 48 H       -5.7060   -10.8570    -3.4010 H     1 <1>   0.1500 
@<TRIPOS>BOND
  1   1   2  2   
  2   2   3  am  
  3   2   4  1   
  4   3   5  1   
  5   3  25  1   
  6   4   6  2   
  7   4   7  1   
  8   5  26  1   
  9   5  27  1   
 10   5  28  1   
 11   6   8  1   
 12   7   9  2   
 13   8   9  1   
 14   9  10  1   
 15  10  11  1   
 16  10  29  1   
 17  10  30  1   
 18  11  12  1   
 19  11  13  1   
 20  11  31  1   
 21  12  14  1   
 22  12  15  1   
 23  12  32  1   
 24  13  16  1   
 25  13  33  1   
 26  13  34  1   
 27  14  17  1   
 28  14  35  1   
 29  14  36  1   
 30  15  18  1   
 31  15  37  1   
 32  15  38  1   
 33  16  17  1   
 34  16  39  1   
 35  16  40  1   
 36  17  41  1   
 37  17  42  1   
 38  18  19  1   
 39  18  43  1   
 40  18  44  1   
 41  19  20  ar  
 42  19  21  ar  
 43  20  22  ar  
 44  21  23  ar  
 45  21  45  1   
 46  22  24  ar  
 47  22  46  1   
 48  23  24  ar  
 49  23  47  1   
 50  24  48  1   
@<TRIPOS>SUBSTRUCTURE
  1 ****  10 GROUP 4 **** **** 0

# MOE 2024.06 (io_trps.svl 2023.06)
