@<TRIPOS>MOLECULE
NONAME
40 40 1 0 0 
SMALL
USER_CHARGES


@<TRIPOS>ATOM
  1 O        2.2480    -1.5020    -2.2740 O.2   1 <1>  -0.5700 
  2 C        2.3050    -1.6510    -1.0780 C.2   1 <1>   0.5690 
  3 N        2.4790    -0.6220    -0.1940 N.am  1 <1>  -0.4940 
  4 C        2.1470    -3.0720    -0.5040 C.3   1 <1>   0.2810 
  5 C        2.6390     0.7480    -0.4180 C.2   1 <1>   0.2040 
  6 N        1.8410    -3.0650     0.9610 N.am  1 <1>  -0.7300 
  7 C        3.4160    -3.9080    -0.7410 C.3   1 <1>  -0.1600 
  8 O        2.8240     1.2480    -1.6170 O.3   1 <1>  -0.0190 
  9 C        2.6480     1.7710     0.4590 C.2   1 <1>  -0.1810 
 10 C        0.6950    -2.6950     1.5700 C.2   1 <1>   0.5690 
 11 C        3.2780    -5.3740    -0.2940 C.3   1 <1>  -0.1600 
 12 N        2.9580     2.5490    -1.5850 N.2   1 <1>  -0.4100 
 13 C        2.8570     2.8890    -0.3490 C.2   1 <1>   0.1080 
 14 C        2.4720     1.7520     1.9690 C.3   1 <1>  -0.0590 
 15 O        0.6760    -2.5660     2.7640 O.2   1 <1>  -0.5700 
 16 C       -0.5510    -2.4010     0.7710 C.3   1 <1>  -0.1790 
 17 C        4.5470    -6.1660    -0.6190 C.3   1 <1>  -0.2400 
 18 C        2.9570     4.3280     0.1260 C.3   1 <1>   0.0210 
 19 C        4.3850     4.6730     0.5600 C.3   1 <1>  -0.2400 
 20 H        2.4340    -0.9010     0.7860 H     1 <1>   0.3700 
 21 H        1.3300    -3.5390    -1.0270 H     1 <1>   0.0800 
 22 H        2.6030    -3.3610     1.5760 H     1 <1>   0.3700 
 23 H        4.2490    -3.4450    -0.2400 H     1 <1>   0.0800 
 24 H        3.6320    -3.8910    -1.7960 H     1 <1>   0.0800 
 25 H        2.4410    -5.8290    -0.7970 H     1 <1>   0.0800 
 26 H        3.0960    -5.4300     0.7660 H     1 <1>   0.0800 
 27 H        2.3020     0.7510     2.3210 H     1 <1>   0.0800 
 28 H        1.6290     2.3580     2.2470 H     1 <1>   0.0800 
 29 H        3.3530     2.1400     2.4470 H     1 <1>   0.0800 
 30 H       -0.7980    -3.2430     0.1520 H     1 <1>   0.0800 
 31 H       -0.4040    -1.5320     0.1590 H     1 <1>   0.0800 
 32 H       -1.3720    -2.2160     1.4400 H     1 <1>   0.0800 
 33 H        4.7380    -6.1570    -1.6780 H     1 <1>   0.0800 
 34 H        4.4330    -7.1890    -0.3030 H     1 <1>   0.0800 
 35 H        5.3960    -5.7460    -0.1100 H     1 <1>   0.0800 
 36 H        2.2760     4.4870     0.9420 H     1 <1>   0.0800 
 37 H        2.6620     4.9790    -0.6790 H     1 <1>   0.0800 
 38 H        4.6940     4.0410     1.3740 H     1 <1>   0.0800 
 39 H        4.4400     5.6990     0.8750 H     1 <1>   0.0800 
 40 H        5.0620     4.5270    -0.2640 H     1 <1>   0.0800 
@<TRIPOS>BOND
  1   1   2  2   
  2   2   3  am  
  3   2   4  1   
  4   3   5  1   
  5   3  20  1   
  6   4   6  1   
  7   4   7  1   
  8   4  21  1   
  9   5   8  1   
 10   5   9  2   
 11   6  10  am  
 12   6  22  1   
 13   7  11  1   
 14   7  23  1   
 15   7  24  1   
 16   8  12  1   
 17   9  13  1   
 18   9  14  1   
 19  10  15  2   
 20  10  16  1   
 21  11  17  1   
 22  11  25  1   
 23  11  26  1   
 24  12  13  2   
 25  13  18  1   
 26  14  27  1   
 27  14  28  1   
 28  14  29  1   
 29  16  30  1   
 30  16  31  1   
 31  16  32  1   
 32  17  33  1   
 33  17  34  1   
 34  17  35  1   
 35  18  19  1   
 36  18  36  1   
 37  18  37  1   
 38  19  38  1   
 39  19  39  1   
 40  19  40  1   
@<TRIPOS>SUBSTRUCTURE
  1 ****   3 GROUP 4 **** **** 0

# MOE 2024.06 (io_trps.svl 2023.06)
