@<TRIPOS>MOLECULE
NONAME
51 54 1 0 0 
SMALL
USER_CHARGES


@<TRIPOS>ATOM
  1 O       -2.6480     1.2680    -3.1990 O.2   1 <1>  -0.5700 
  2 C       -2.5410     1.3110    -1.9860 C.2   1 <1>   0.5440 
  3 N       -2.8510     0.1830    -1.2530 N.am  1 <1>  -0.6600 
  4 C       -2.1480     2.5600    -1.3680 C.ar  1 <1>   0.0860 
  5 C       -3.1120    -1.1380    -1.9210 C.3   1 <1>   0.1400 
  6 C       -2.9440     0.1520     0.2330 C.3   1 <1>   0.1400 
  7 C       -0.9910     2.6860    -0.5930 C.ar  1 <1>   0.0820 
  8 C       -2.9390     3.6970    -1.5440 C.ar  1 <1>  -0.1500 
  9 C       -4.0530    -2.0580    -1.1110 C.3   1 <1>   0.2000 
 10 C       -4.3250    -0.3270     0.7150 C.3   1 <1>  -0.1600 
 11 O       -0.1830     1.6100    -0.4130 O.3   1 <1>  -0.3630 
 12 C       -0.6640     3.9110    -0.0030 C.ar  1 <1>   0.0820 
 13 C       -2.6190     4.9070    -0.9550 C.ar  1 <1>  -0.1500 
 14 O       -3.2740    -2.8410    -0.2600 O.3   1 <1>  -0.6800 
 15 C       -5.0930    -1.2740    -0.2710 C.3   1 <1>  -0.1060 
 16 C        0.7940     1.6680     0.6050 C.3   1 <1>   0.1200 
 17 O        0.4590     4.0550     0.7460 O.3   1 <1>  -0.3630 
 18 C       -1.4790     5.0120    -0.1770 C.ar  1 <1>  -0.1500 
 19 C       -5.8930    -2.3610     0.4740 C.2   1 <1>   0.9060 
 20 C       -6.0220    -0.4540    -1.2320 C.3   1 <1>  -0.0160 
 21 C        1.4490     3.0530     0.6230 C.3   1 <1>   0.1200 
 22 O       -5.3330    -2.9680     1.4000 O.co2 1 <1>  -0.9000 
 23 O       -7.0070    -2.7170     0.0750 O.co2 1 <1>  -0.9000 
 24 C       -6.8760     0.6390    -0.5860 C.ar  1 <1>  -0.1440 
 25 C       -6.4970     1.9690    -0.7020 C.ar  1 <1>  -0.1500 
 26 C       -8.0330     0.3300     0.1110 C.ar  1 <1>  -0.1500 
 27 C       -7.2590     2.9730    -0.1300 C.ar  1 <1>  -0.1500 
 28 C       -8.7970     1.3300     0.6860 C.ar  1 <1>  -0.1500 
 29 C       -8.4120     2.6540     0.5660 C.ar  1 <1>  -0.1500 
 30 H       -3.5660    -0.9570    -2.8790 H     1 <1>   0.0800 
 31 H       -2.1780    -1.6420    -2.0960 H     1 <1>   0.0800 
 32 H       -2.1950    -0.5330     0.5930 H     1 <1>   0.0800 
 33 H       -2.7380     1.1140     0.6620 H     1 <1>   0.0800 
 34 H       -3.8190     3.6180    -2.1590 H     1 <1>   0.1500 
 35 H       -4.5590    -2.7380    -1.7750 H     1 <1>   0.0800 
 36 H       -4.1500    -0.8450     1.6410 H     1 <1>   0.0800 
 37 H       -4.9190     0.5230     0.9870 H     1 <1>   0.0800 
 38 H       -3.2500     5.7660    -1.1030 H     1 <1>   0.1500 
 39 H       -3.8710    -3.1120     0.5000 H     1 <1>   0.4000 
 40 H        0.3110     1.4670     1.5450 H     1 <1>   0.0800 
 41 H        1.5220     0.9010     0.4100 H     1 <1>   0.0800 
 42 H       -1.2170     5.9450     0.2890 H     1 <1>   0.1500 
 43 H       -5.4330     0.0280    -1.9880 H     1 <1>   0.0800 
 44 H       -6.6730    -1.1250    -1.7630 H     1 <1>   0.0800 
 45 H        1.9870     3.2250    -0.2930 H     1 <1>   0.0800 
 46 H        2.1250     3.1480     1.4540 H     1 <1>   0.0800 
 47 H       -5.6010     2.2190    -1.2400 H     1 <1>   0.1500 
 48 H       -8.3410    -0.6980     0.2100 H     1 <1>   0.1500 
 49 H       -6.9530     3.9990    -0.2250 H     1 <1>   0.1500 
 50 H       -9.6900     1.0700     1.2260 H     1 <1>   0.1500 
 51 H       -9.0060     3.4300     1.0140 H     1 <1>   0.1500 
@<TRIPOS>BOND
  1   1   2  2   
  2   2   3  am  
  3   2   4  1   
  4   3   5  1   
  5   3   6  1   
  6   4   7  ar  
  7   4   8  ar  
  8   5   9  1   
  9   5  30  1   
 10   5  31  1   
 11   6  10  1   
 12   6  32  1   
 13   6  33  1   
 14   7  11  1   
 15   7  12  ar  
 16   8  13  ar  
 17   8  34  1   
 18   9  14  1   
 19   9  15  1   
 20   9  35  1   
 21  10  15  1   
 22  10  36  1   
 23  10  37  1   
 24  11  16  1   
 25  12  17  1   
 26  12  18  ar  
 27  13  18  ar  
 28  13  38  1   
 29  14  39  1   
 30  15  19  1   
 31  15  20  1   
 32  16  21  1   
 33  16  40  1   
 34  16  41  1   
 35  17  21  1   
 36  18  42  1   
 37  19  22  ar  
 38  19  23  ar  
 39  20  24  1   
 40  20  43  1   
 41  20  44  1   
 42  21  45  1   
 43  21  46  1   
 44  24  25  ar  
 45  24  26  ar  
 46  25  27  ar  
 47  25  47  1   
 48  26  28  ar  
 49  26  48  1   
 50  27  29  ar  
 51  27  49  1   
 52  28  29  ar  
 53  28  50  1   
 54  29  51  1   
@<TRIPOS>SUBSTRUCTURE
  1 ****   6 GROUP 4 **** **** 0

# MOE 2024.06 (io_trps.svl 2023.06)
