@<TRIPOS>MOLECULE
NONAME
57 60 1 0 0 
SMALL
USER_CHARGES


@<TRIPOS>ATOM
  1 O        0.7130    -1.7520    -2.8360 O.2   1 <1>  -0.5700 
  2 C        0.2060    -1.9670    -1.7590 C.2   1 <1>   0.5690 
  3 N        0.4990    -1.2870    -0.6180 N.am  1 <1>  -0.4930 
  4 C       -0.8510    -3.0670    -1.6260 C.3   1 <1>   0.1710 
  5 C        1.2810    -0.1270    -0.4060 C.2   1 <1>   0.0630 
  6 N       -1.7360    -2.8840    -0.4350 N.3   1 <1>  -0.8100 
  7 C        1.5850     0.4800     0.8150 C.2   1 <1>   0.1080 
  8 C        1.8800     0.6540    -1.3260 C.2   1 <1>  -0.3020 
  9 C       -2.7030    -1.7800    -0.6660 C.3   1 <1>   0.1100 
 10 C       -2.4520    -4.1240    -0.1010 C.3   1 <1>   0.1100 
 11 N        2.2970     1.5530     0.6670 N.2   1 <1>  -0.7070 
 12 C        1.1670    -0.0110     2.1830 C.3   1 <1>  -0.0590 
 13 N        2.4870     1.6560    -0.6600 N.pl3 1 <1>   0.3140 
 14 C       -3.5160    -1.4700     0.6050 C.3   1 <1>   0.1430 
 15 C       -3.2600    -3.9300     1.1890 C.3   1 <1>  -0.1600 
 16 C        3.2680     2.7470    -1.2520 C.3   1 <1>   0.0160 
 17 C       -4.4630    -0.3240     0.3010 C.ar  1 <1>   0.1670 
 18 C       -4.2410    -2.7490     1.0710 C.3   1 <1>  -0.1600 
 19 C       -2.6180    -0.8630     1.7150 C.3   1 <1>  -0.1600 
 20 N       -5.5700    -0.4130    -0.3940 N.ar  1 <1>  -0.6200 
 21 C       -4.0090     0.8470     0.8280 C.ar  1 <1>  -0.1430 
 22 C       -2.7060     0.6650     1.5650 C.3   1 <1>  -0.0170 
 23 C       -6.2420     0.7320    -0.5420 C.ar  1 <1>   0.7200 
 24 C       -4.7630     1.9740     0.6200 C.ar  1 <1>   0.1600 
 25 N       -5.8820     1.9270    -0.0630 N.ar  1 <1>  -0.6200 
 26 N       -7.4220     0.6750    -1.2600 N.pl3 1 <1>  -0.8380 
 27 C       -8.4050     1.7930    -1.2500 C.3   1 <1>   0.1290 
 28 C       -7.8020    -0.5150    -2.0700 C.3   1 <1>   0.1290 
 29 H       -0.0650    -1.6140     0.1710 H     1 <1>   0.3700 
 30 H       -0.3250    -4.0010    -1.5430 H     1 <1>   0.0800 
 31 H       -1.4410    -3.0970    -2.5250 H     1 <1>   0.0800 
 32 H        1.9010     0.5450    -2.3940 H     1 <1>   0.1500 
 33 H       -3.3820    -2.0510    -1.4580 H     1 <1>   0.0800 
 34 H       -2.1850    -0.8880    -0.9730 H     1 <1>   0.0800 
 35 H       -1.7440    -4.9230     0.0450 H     1 <1>   0.0800 
 36 H       -3.1110    -4.3970    -0.9090 H     1 <1>   0.0800 
 37 H        0.9840    -1.0690     2.1660 H     1 <1>   0.0800 
 38 H        0.2790     0.5040     2.4950 H     1 <1>   0.0800 
 39 H        1.9510     0.1910     2.8890 H     1 <1>   0.0800 
 40 H       -2.5790    -3.7630     2.0050 H     1 <1>   0.0800 
 41 H       -3.8090    -4.8300     1.4010 H     1 <1>   0.0800 
 42 H        3.9000     2.3510    -2.0250 H     1 <1>   0.0800 
 43 H        3.8720     3.2000    -0.4880 H     1 <1>   0.0800 
 44 H        2.5960     3.4750    -1.6640 H     1 <1>   0.0800 
 45 H       -4.9960    -3.0010     0.3460 H     1 <1>   0.0800 
 46 H       -4.7400    -2.5780     2.0090 H     1 <1>   0.0800 
 47 H       -1.6050    -1.2160     1.6670 H     1 <1>   0.0800 
 48 H       -3.0200    -1.1250     2.6780 H     1 <1>   0.0800 
 49 H       -1.8950     1.0370     0.9620 H     1 <1>   0.0800 
 50 H       -2.7120     1.1600     2.5200 H     1 <1>   0.0800 
 51 H       -4.4450     2.9230     1.0160 H     1 <1>   0.1500 
 52 H       -8.3620     2.3250    -0.3150 H     1 <1>   0.0800 
 53 H       -9.4030     1.4120    -1.3770 H     1 <1>   0.0800 
 54 H       -8.1790     2.4760    -2.0510 H     1 <1>   0.0800 
 55 H       -6.9250    -1.0240    -2.4290 H     1 <1>   0.0800 
 56 H       -8.3880    -0.2120    -2.9200 H     1 <1>   0.0800 
 57 H       -8.3770    -1.1930    -1.4640 H     1 <1>   0.0800 
@<TRIPOS>BOND
  1   1   2  2   
  2   2   3  am  
  3   2   4  1   
  4   3   5  1   
  5   3  29  1   
  6   4   6  1   
  7   4  30  1   
  8   4  31  1   
  9   5   7  1   
 10   5   8  2   
 11   6   9  1   
 12   6  10  1   
 13   7  11  2   
 14   7  12  1   
 15   8  13  1   
 16   8  32  1   
 17   9  14  1   
 18   9  33  1   
 19   9  34  1   
 20  10  15  1   
 21  10  35  1   
 22  10  36  1   
 23  11  13  1   
 24  12  37  1   
 25  12  38  1   
 26  12  39  1   
 27  13  16  1   
 28  14  17  1   
 29  14  18  1   
 30  14  19  1   
 31  15  18  1   
 32  15  40  1   
 33  15  41  1   
 34  16  42  1   
 35  16  43  1   
 36  16  44  1   
 37  17  20  ar  
 38  17  21  ar  
 39  18  45  1   
 40  18  46  1   
 41  19  22  1   
 42  19  47  1   
 43  19  48  1   
 44  20  23  ar  
 45  21  22  1   
 46  21  24  ar  
 47  22  49  1   
 48  22  50  1   
 49  23  25  ar  
 50  23  26  1   
 51  24  25  ar  
 52  24  51  1   
 53  26  27  1   
 54  26  28  1   
 55  27  52  1   
 56  27  53  1   
 57  27  54  1   
 58  28  55  1   
 59  28  56  1   
 60  28  57  1   
@<TRIPOS>SUBSTRUCTURE
  1 ****   9 GROUP 4 **** **** 0

# MOE 2024.06 (io_trps.svl 2023.06)
