@<TRIPOS>MOLECULE
NONAME
35 36 1 0 0 
SMALL
USER_CHARGES


@<TRIPOS>ATOM
  1 O        0.0010    -0.4270    -1.0640 O.2   1 <1>  -0.5700 
  2 C       -0.0560    -1.4300    -0.3850 C.2   1 <1>   0.5440 
  3 N       -1.2400    -1.6520     0.2360 N.am  1 <1>  -0.8000 
  4 C        1.0860    -2.2990    -0.2240 C.ar  1 <1>   0.0860 
  5 C        0.9740    -3.7020    -0.1860 C.ar  1 <1>   0.4100 
  6 C        2.3550    -1.7550    -0.0960 C.ar  1 <1>  -0.1500 
  7 N        2.0060    -4.5150     0.0170 N.ar  1 <1>  -0.6200 
  8 N       -0.2420    -4.3320    -0.3730 N.pl3 1 <1>  -0.8690 
  9 C        3.4300    -2.5950     0.0920 C.ar  1 <1>  -0.1430 
 10 C        3.1960    -3.9660     0.1500 C.ar  1 <1>   0.1670 
 11 C       -0.3710    -5.7740    -0.7210 C.3   1 <1>   0.2090 
 12 C        4.8240    -1.9960     0.2300 C.3   1 <1>  -0.0970 
 13 C        4.3380    -4.9420     0.3690 C.3   1 <1>  -0.0970 
 14 C       -0.3240    -6.6250     0.5460 C.3   1 <1>   0.0960 
 15 N       -0.4050    -8.0450     0.1810 N.pl3 1 <1>   0.3140 
 16 N       -1.5410    -8.6260    -0.2170 N.2   1 <1>  -0.4180 
 17 C        0.5840    -8.9400     0.1580 C.2   1 <1>  -0.3020 
 18 N       -1.2940    -9.8610    -0.4870 N.2   1 <1>  -0.2270 
 19 C        0.0060   -10.0740    -0.2630 C.2   1 <1>   0.0770 
 20 H       -1.9710    -0.9420     0.1680 H     1 <1>   0.3700 
 21 H       -1.3570    -2.3760     0.9470 H     1 <1>   0.3700 
 22 H        2.4800    -0.6870    -0.1460 H     1 <1>   0.1500 
 23 H       -0.9760    -3.7430    -0.7850 H     1 <1>   0.4000 
 24 H        0.4320    -6.0560    -1.3820 H     1 <1>   0.0800 
 25 H       -1.3070    -5.9340    -1.2300 H     1 <1>   0.0800 
 26 H        4.8080    -0.9370     0.0420 H     1 <1>   0.0800 
 27 H        5.4960    -2.4500    -0.4770 H     1 <1>   0.0800 
 28 H        5.2000    -2.1570     1.2240 H     1 <1>   0.0800 
 29 H        3.9560    -5.9250     0.5810 H     1 <1>   0.0800 
 30 H        4.9440    -4.6320     1.1990 H     1 <1>   0.0800 
 31 H        4.9430    -4.9950    -0.5170 H     1 <1>   0.0800 
 32 H       -1.1550    -6.3860     1.1810 H     1 <1>   0.0800 
 33 H        0.5940    -6.4560     1.0760 H     1 <1>   0.0800 
 34 H        1.5990    -8.7220     0.4300 H     1 <1>   0.1500 
 35 H        0.4540   -11.0400    -0.4200 H     1 <1>   0.1500 
@<TRIPOS>BOND
  1   1   2  2   
  2   2   3  am  
  3   2   4  1   
  4   3  20  1   
  5   3  21  1   
  6   4   5  ar  
  7   4   6  ar  
  8   5   7  ar  
  9   5   8  1   
 10   6   9  ar  
 11   6  22  1   
 12   7  10  ar  
 13   8  11  1   
 14   8  23  1   
 15   9  10  ar  
 16   9  12  1   
 17  10  13  1   
 18  11  14  1   
 19  11  24  1   
 20  11  25  1   
 21  12  26  1   
 22  12  27  1   
 23  12  28  1   
 24  13  29  1   
 25  13  30  1   
 26  13  31  1   
 27  14  15  1   
 28  14  32  1   
 29  14  33  1   
 30  15  16  1   
 31  15  17  1   
 32  16  18  2   
 33  17  19  2   
 34  17  34  1   
 35  18  19  1   
 36  19  35  1   
@<TRIPOS>SUBSTRUCTURE
  1 ****   5 GROUP 4 **** **** 0

# MOE 2024.06 (io_trps.svl 2023.06)
