@<TRIPOS>MOLECULE
NONAME
52 54 1 0 0 
SMALL
USER_CHARGES


@<TRIPOS>ATOM
  1 O        0.3820    -0.4580     0.9940 O.3   1 <1>  -0.3630 
  2 C        0.1480    -1.6830     0.4640 C.ar  1 <1>   0.0830 
  3 C        1.4070    -0.2440     1.9390 C.3   1 <1>   0.0400 
  4 C       -0.8320    -1.7620    -0.5100 C.ar  1 <1>  -0.1500 
  5 C        0.8310    -2.8350     0.8400 C.ar  1 <1>  -0.1500 
  6 C       -1.1410    -2.9730    -1.1010 C.ar  1 <1>  -0.1500 
  7 C        0.5240    -4.0480     0.2490 C.ar  1 <1>  -0.1500 
  8 C       -0.4710    -4.1260    -0.7170 C.ar  1 <1>  -0.1430 
  9 C       -0.8300    -5.4590    -1.3400 C.3   1 <1>   0.4860 
 10 N       -1.6360    -6.2270    -0.3460 N.4   1 <1>  -0.9590 
 11 C       -1.7780    -7.6740    -0.7500 C.3   1 <1>   0.3430 
 12 C       -2.9610    -5.5640    -0.1420 C.3   1 <1>   0.3430 
 13 C       -2.6730    -8.5150     0.2180 C.3   1 <1>   0.4230 
 14 C       -3.7760    -6.3410     0.8970 C.3   1 <1>  -0.1600 
 15 N       -2.8080    -9.9980    -0.1290 N.4   1 <1>  -0.9590 
 16 C       -4.0360    -7.8250     0.5200 C.3   1 <1>   0.0000 
 17 C       -3.9300   -10.6910     0.5950 C.3   1 <1>   0.3430 
 18 C       -2.9240   -10.3000    -1.5970 C.3   1 <1>   0.2630 
 19 C       -4.6820    -8.5300     1.7460 C.3   1 <1>  -0.1600 
 20 C       -5.0470    -7.8850    -0.6630 C.3   1 <1>   0.1200 
 21 C       -4.2440   -10.0000     1.9220 C.3   1 <1>  -0.1600 
 22 O       -4.4600    -7.5030    -1.8610 O.3   1 <1>  -0.6800 
 23 H        1.4170     0.8020     2.1880 H     1 <1>   0.0800 
 24 H        2.3490    -0.5240     1.5030 H     1 <1>   0.0800 
 25 H        1.2000    -0.8250     2.8200 H     1 <1>   0.0800 
 26 H       -1.3470    -0.8620    -0.8000 H     1 <1>   0.1500 
 27 H        1.6030    -2.8000     1.5860 H     1 <1>   0.1500 
 28 H       -1.9040    -2.9950    -1.8610 H     1 <1>   0.1500 
 29 H        1.0770    -4.9200     0.5540 H     1 <1>   0.1500 
 30 H        0.0780    -5.9890    -1.5820 H     1 <1>   0.0800 
 31 H       -1.3920    -5.3070    -2.2480 H     1 <1>   0.0800 
 32 H       -1.1180    -6.1350     0.5400 H     1 <1>   0.4500 
 33 H       -2.2090    -7.7120    -1.7360 H     1 <1>   0.0800 
 34 H       -0.8010    -8.1240    -0.7960 H     1 <1>   0.0800 
 35 H       -2.8170    -4.5520     0.2050 H     1 <1>   0.0800 
 36 H       -3.5010    -5.5220    -1.0740 H     1 <1>   0.0800 
 37 H       -2.1470    -8.4890     1.1580 H     1 <1>   0.0800 
 38 H       -3.2550    -6.2740     1.8370 H     1 <1>   0.0800 
 39 H       -4.7170    -5.8340     1.0330 H     1 <1>   0.0800 
 40 H       -1.9500   -10.4630     0.2050 H     1 <1>   0.4500 
 41 H       -4.8200   -10.6800    -0.0140 H     1 <1>   0.0800 
 42 H       -3.6710   -11.7230     0.7730 H     1 <1>   0.0800 
 43 H       -3.8050    -9.8380    -2.0120 H     1 <1>   0.0800 
 44 H       -2.9950   -11.3650    -1.7550 H     1 <1>   0.0800 
 45 H       -2.0620    -9.9400    -2.1340 H     1 <1>   0.0800 
 46 H       -4.4370    -8.0170     2.6620 H     1 <1>   0.0800 
 47 H       -5.7560    -8.4880     1.6670 H     1 <1>   0.0800 
 48 H       -5.8810    -7.2270    -0.4760 H     1 <1>   0.0800 
 49 H       -5.4390    -8.8780    -0.7960 H     1 <1>   0.0800 
 50 H       -5.0300   -10.5410     2.4230 H     1 <1>   0.0800 
 51 H       -3.3780   -10.0560     2.5590 H     1 <1>   0.0800 
 52 H       -5.1520    -7.3930    -2.5560 H     1 <1>   0.4000 
@<TRIPOS>BOND
  1   1   2  1   
  2   1   3  1   
  3   2   4  ar  
  4   2   5  ar  
  5   3  23  1   
  6   3  24  1   
  7   3  25  1   
  8   4   6  ar  
  9   4  26  1   
 10   5   7  ar  
 11   5  27  1   
 12   6   8  ar  
 13   6  28  1   
 14   7   8  ar  
 15   7  29  1   
 16   8   9  1   
 17   9  10  1   
 18   9  30  1   
 19   9  31  1   
 20  10  11  1   
 21  10  12  1   
 22  10  32  1   
 23  11  13  1   
 24  11  33  1   
 25  11  34  1   
 26  12  14  1   
 27  12  35  1   
 28  12  36  1   
 29  13  15  1   
 30  13  16  1   
 31  13  37  1   
 32  14  16  1   
 33  14  38  1   
 34  14  39  1   
 35  15  17  1   
 36  15  18  1   
 37  15  40  1   
 38  16  19  1   
 39  16  20  1   
 40  17  21  1   
 41  17  41  1   
 42  17  42  1   
 43  18  43  1   
 44  18  44  1   
 45  18  45  1   
 46  19  21  1   
 47  19  46  1   
 48  19  47  1   
 49  20  22  1   
 50  20  48  1   
 51  20  49  1   
 52  21  50  1   
 53  21  51  1   
 54  22  52  1   
@<TRIPOS>SUBSTRUCTURE
  1 ****  10 GROUP 4 **** **** 0

# MOE 2024.06 (io_trps.svl 2023.06)
