@<TRIPOS>MOLECULE
NONAME
42 44 1 0 0 
SMALL
USER_CHARGES


@<TRIPOS>ATOM
  1 O        2.2000    -3.7510     1.6930 O.3   1 <1>  -0.6800 
  2 C        1.0280    -3.5340     0.9900 C.3   1 <1>   0.2000 
  3 C        1.2010    -4.0710    -0.4240 C.3   1 <1>  -0.1600 
  4 C        0.8360    -2.0350     0.7970 C.3   1 <1>  -0.1600 
  5 C        1.8840    -2.9550    -1.2350 C.3   1 <1>  -0.0800 
  6 C        1.5980    -1.6430    -0.4830 C.3   1 <1>  -0.0800 
  7 C        3.4150    -3.0910    -1.2880 C.3   1 <1>  -0.1600 
  8 C        2.9640    -1.0080    -0.1950 C.3   1 <1>  -0.1600 
  9 C        3.9500    -2.1710    -0.1940 C.3   1 <1>   0.4230 
 10 N        5.3450    -1.7230    -0.4610 N.4   1 <1>  -0.9590 
 11 C        5.8080    -0.7710     0.5970 C.3   1 <1>   0.4860 
 12 C        6.2780    -2.8930    -0.5910 C.3   1 <1>   0.2630 
 13 C        7.1990    -0.2750     0.2750 C.ar  1 <1>  -0.1440 
 14 C        8.2990    -0.7330     0.9650 C.ar  1 <1>   0.1600 
 15 C        7.4290     0.6480    -0.7210 C.ar  1 <1>   0.1600 
 16 N        9.5140    -0.3460     0.6740 N.ar  1 <1>  -0.6200 
 17 N        8.6350     1.0520    -1.0310 N.ar  1 <1>  -0.6200 
 18 C        9.6130     0.5200    -0.3200 C.ar  1 <1>   0.7200 
 19 N       10.8460     0.9130    -0.6340 N.pl3 1 <1>  -0.9000 
 20 H        2.1990    -4.6640     2.0460 H     1 <1>   0.4000 
 21 H        0.2110    -3.9900     1.5260 H     1 <1>   0.0800 
 22 H        1.7220    -5.0120    -0.4500 H     1 <1>   0.0800 
 23 H        0.2190    -4.2280    -0.8360 H     1 <1>   0.0800 
 24 H       -0.2120    -1.8610     0.6280 H     1 <1>   0.0800 
 25 H        1.1240    -1.4770     1.6710 H     1 <1>   0.0800 
 26 H        1.4820    -2.9320    -2.2350 H     1 <1>   0.0800 
 27 H        0.9920    -0.9740    -1.0730 H     1 <1>   0.0800 
 28 H        3.7490    -2.7500    -2.2520 H     1 <1>   0.0800 
 29 H        3.7280    -4.1090    -1.1400 H     1 <1>   0.0800 
 30 H        2.9600    -0.4760     0.7390 H     1 <1>   0.0800 
 31 H        3.1940    -0.3290    -0.9970 H     1 <1>   0.0800 
 32 H        3.8970    -2.6790     0.7550 H     1 <1>   0.0800 
 33 H        5.3340    -1.2250    -1.3590 H     1 <1>   0.4500 
 34 H        5.1390     0.0730     0.6550 H     1 <1>   0.0800 
 35 H        5.8090    -1.2630     1.5560 H     1 <1>   0.0800 
 36 H        6.3040    -3.4570     0.3270 H     1 <1>   0.0800 
 37 H        7.2770    -2.5580    -0.8210 H     1 <1>   0.0800 
 38 H        5.9540    -3.5470    -1.3850 H     1 <1>   0.0800 
 39 H        8.1920    -1.4380     1.7740 H     1 <1>   0.1500 
 40 H        6.6130     1.0690    -1.2860 H     1 <1>   0.1500 
 41 H       10.9190     1.7710    -1.1730 H     1 <1>   0.4000 
 42 H       11.5610     0.7530     0.0720 H     1 <1>   0.4000 
@<TRIPOS>BOND
  1   1   2  1   
  2   1  20  1   
  3   2   3  1   
  4   2   4  1   
  5   2  21  1   
  6   3   5  1   
  7   3  22  1   
  8   3  23  1   
  9   4   6  1   
 10   4  24  1   
 11   4  25  1   
 12   5   6  1   
 13   5   7  1   
 14   5  26  1   
 15   6   8  1   
 16   6  27  1   
 17   7   9  1   
 18   7  28  1   
 19   7  29  1   
 20   8   9  1   
 21   8  30  1   
 22   8  31  1   
 23   9  10  1   
 24   9  32  1   
 25  10  11  1   
 26  10  12  1   
 27  10  33  1   
 28  11  13  1   
 29  11  34  1   
 30  11  35  1   
 31  12  36  1   
 32  12  37  1   
 33  12  38  1   
 34  13  14  ar  
 35  13  15  ar  
 36  14  16  ar  
 37  14  39  1   
 38  15  17  ar  
 39  15  40  1   
 40  16  18  ar  
 41  17  18  ar  
 42  18  19  1   
 43  19  41  1   
 44  19  42  1   
@<TRIPOS>SUBSTRUCTURE
  1 ****  10 GROUP 4 **** **** 0

# MOE 2024.06 (io_trps.svl 2023.06)
