@<TRIPOS>MOLECULE
NONAME
49 51 1 0 0 
SMALL
USER_CHARGES


@<TRIPOS>ATOM
  1 F        0.3590     1.1840     0.0640 F     1 <1>  -0.1900 
  2 C        1.1010     2.2630     0.0520 C.ar  1 <1>   0.1900 
  3 C        1.0900     3.0910     1.1590 C.ar  1 <1>  -0.1500 
  4 C        1.8650     2.5330    -1.0670 C.ar  1 <1>  -0.1500 
  5 C        1.8770     4.2300     1.1390 C.ar  1 <1>  -0.1500 
  6 C        2.6460     3.6760    -1.0710 C.ar  1 <1>  -0.1500 
  7 C        2.6600     4.5310     0.0270 C.ar  1 <1>   0.1000 
  8 N        3.4520     5.6710    -0.0080 N.pl3 1 <1>  -0.8380 
  9 C        4.5530     5.7590     0.9960 C.3   1 <1>   0.2090 
 10 C        2.7420     6.9350    -0.3260 C.3   1 <1>   0.2090 
 11 C        5.8930     6.0750     0.3120 C.3   1 <1>   0.1100 
 12 C        3.6760     8.1440    -0.4590 C.3   1 <1>  -0.1600 
 13 N        6.0320     7.4800    -0.1420 N.3   1 <1>  -0.8100 
 14 C        5.0100     7.8380    -1.1470 C.3   1 <1>   0.1100 
 15 C        7.4050     7.7030    -0.6930 C.3   1 <1>   0.1710 
 16 C        7.8050     9.1790    -0.7530 C.2   1 <1>   0.5690 
 17 O        8.6900     9.5180    -1.5030 O.2   1 <1>  -0.5700 
 18 N        7.1070    10.0210     0.0550 N.am  1 <1>  -0.4930 
 19 C        7.1320    11.4290     0.2170 C.2   1 <1>   0.0630 
 20 C        8.1790    12.3530     0.1210 C.2   1 <1>   0.1080 
 21 C        6.0570    12.1750     0.5380 C.2   1 <1>  -0.3020 
 22 N        7.7810    13.5670     0.3570 N.2   1 <1>  -0.7070 
 23 C        9.6270    12.0510    -0.1960 C.3   1 <1>  -0.0590 
 24 N        6.4700    13.4570     0.6100 N.pl3 1 <1>   0.3140 
 25 C        5.6520    14.6310     0.9290 C.3   1 <1>   0.0160 
 26 H        0.4810     2.8460     2.0100 H     1 <1>   0.1500 
 27 H        1.8470     1.8660    -1.9090 H     1 <1>   0.1500 
 28 H        1.8880     4.8940     1.9820 H     1 <1>   0.1500 
 29 H        3.2550     3.9210    -1.9220 H     1 <1>   0.1500 
 30 H        4.6450     4.8090     1.4940 H     1 <1>   0.0800 
 31 H        4.3320     6.5030     1.7410 H     1 <1>   0.0800 
 32 H        2.0010     7.1310     0.4300 H     1 <1>   0.0800 
 33 H        2.2250     6.7930    -1.2600 H     1 <1>   0.0800 
 34 H        6.0240     5.4010    -0.5170 H     1 <1>   0.0800 
 35 H        6.6720     5.8720     1.0270 H     1 <1>   0.0800 
 36 H        3.8540     8.5800     0.5070 H     1 <1>   0.0800 
 37 H        3.1550     8.8820    -1.0420 H     1 <1>   0.0800 
 38 H        5.3190     8.7270    -1.6720 H     1 <1>   0.0800 
 39 H        4.8960     7.0510    -1.8760 H     1 <1>   0.0800 
 40 H        7.4810     7.2780    -1.6780 H     1 <1>   0.0800 
 41 H        8.1280     7.2130    -0.0660 H     1 <1>   0.0800 
 42 H        6.3380     9.5330     0.5240 H     1 <1>   0.3700 
 43 H        5.0430    11.8740     0.7130 H     1 <1>   0.1500 
 44 H        9.9230    11.1310     0.2720 H     1 <1>   0.0800 
 45 H       10.2540    12.8440     0.1670 H     1 <1>   0.0800 
 46 H        9.7510    11.9660    -1.2590 H     1 <1>   0.0800 
 47 H        4.6230    14.4260     0.7010 H     1 <1>   0.0800 
 48 H        5.9950    15.4630     0.3420 H     1 <1>   0.0800 
 49 H        5.7610    14.8590     1.9720 H     1 <1>   0.0800 
@<TRIPOS>BOND
  1   1   2  1   
  2   2   3  ar  
  3   2   4  ar  
  4   3   5  ar  
  5   3  26  1   
  6   4   6  ar  
  7   4  27  1   
  8   5   7  ar  
  9   5  28  1   
 10   6   7  ar  
 11   6  29  1   
 12   7   8  1   
 13   8   9  1   
 14   8  10  1   
 15   9  11  1   
 16   9  30  1   
 17   9  31  1   
 18  10  12  1   
 19  10  32  1   
 20  10  33  1   
 21  11  13  1   
 22  11  34  1   
 23  11  35  1   
 24  12  14  1   
 25  12  36  1   
 26  12  37  1   
 27  13  14  1   
 28  13  15  1   
 29  14  38  1   
 30  14  39  1   
 31  15  16  1   
 32  15  40  1   
 33  15  41  1   
 34  16  17  2   
 35  16  18  am  
 36  18  19  1   
 37  18  42  1   
 38  19  20  1   
 39  19  21  2   
 40  20  22  2   
 41  20  23  1   
 42  21  24  1   
 43  21  43  1   
 44  22  24  1   
 45  23  44  1   
 46  23  45  1   
 47  23  46  1   
 48  24  25  1   
 49  25  47  1   
 50  25  48  1   
 51  25  49  1   
@<TRIPOS>SUBSTRUCTURE
  1 ****  13 GROUP 4 **** **** 0

# MOE 2024.06 (io_trps.svl 2023.06)
