@<TRIPOS>MOLECULE
NONAME
50 52 1 0 0 
SMALL
USER_CHARGES


@<TRIPOS>ATOM
  1 O        0.0490    -0.1140     0.0230 O.2   1 <1>  -0.5700 
  2 C        1.0240    -0.8250     0.0710 C.2   1 <1>   0.5690 
  3 N        0.9500    -2.0820     0.5680 N.am  1 <1>  -0.7300 
  4 C        2.3660    -0.3030    -0.4450 C.3   1 <1>  -0.0190 
  5 C       -0.3060    -2.7540     1.0020 C.3   1 <1>   0.2010 
  6 C        2.8780    -1.1250    -1.6400 C.3   1 <1>  -0.2400 
  7 C        3.4310    -0.2620     0.6640 C.3   1 <1>  -0.2400 
  8 C       -0.2690    -4.2780     0.8160 C.2   1 <1>   0.5690 
  9 O        0.8060    -4.7980     0.6140 O.2   1 <1>  -0.5700 
 10 N       -1.4190    -5.0270     0.8800 N.am  1 <1>  -0.6600 
 11 C       -1.4030    -6.5100     0.6590 C.3   1 <1>   0.1400 
 12 C       -2.8070    -4.5000     1.0760 C.3   1 <1>   0.1400 
 13 C       -2.4250    -6.9250    -0.4170 C.3   1 <1>   0.3430 
 14 C       -3.7470    -5.0130    -0.0330 C.3   1 <1>   0.2950 
 15 O       -3.6940    -6.4070    -0.1070 O.3   1 <1>  -0.5600 
 16 C       -2.5040    -8.4450    -0.5220 C.ar  1 <1>  -0.1440 
 17 C       -5.2010    -4.6190     0.2390 C.3   1 <1>  -0.1950 
 18 C       -3.3760    -9.1830     0.2670 C.ar  1 <1>  -0.1500 
 19 C       -1.6760    -9.1130    -1.4150 C.ar  1 <1>  -0.1500 
 20 C       -6.2030    -4.5470    -0.8690 C.3   1 <1>  -0.2000 
 21 C       -5.7360    -3.2890    -0.1920 C.3   1 <1>  -0.2000 
 22 C       -3.4200   -10.5620     0.1670 C.ar  1 <1>  -0.1500 
 23 C       -1.7190   -10.4920    -1.5160 C.ar  1 <1>  -0.1500 
 24 C       -2.5910   -11.2190    -0.7240 C.ar  1 <1>  -0.1500 
 25 H        1.7590    -2.7120     0.5230 H     1 <1>   0.3700 
 26 H        2.2040     0.7060    -0.7840 H     1 <1>   0.0800 
 27 H       -0.4730    -2.5380     2.0410 H     1 <1>   0.0800 
 28 H       -1.1200    -2.3460     0.4320 H     1 <1>   0.0800 
 29 H        3.0820    -2.1400    -1.3490 H     1 <1>   0.0800 
 30 H        3.7800    -0.6910    -2.0330 H     1 <1>   0.0800 
 31 H        2.1370    -1.1350    -2.4210 H     1 <1>   0.0800 
 32 H        3.6520    -1.2520     1.0210 H     1 <1>   0.0800 
 33 H        3.0760     0.3290     1.4900 H     1 <1>   0.0800 
 34 H        4.3380     0.1820     0.2940 H     1 <1>   0.0800 
 35 H       -0.4260    -6.8410     0.3540 H     1 <1>   0.0800 
 36 H       -1.6420    -7.0090     1.5810 H     1 <1>   0.0800 
 37 H       -3.1780    -4.8360     2.0290 H     1 <1>   0.0800 
 38 H       -2.8260    -3.4260     1.0790 H     1 <1>   0.0800 
 39 H       -2.1280    -6.5220    -1.3690 H     1 <1>   0.0800 
 40 H       -3.4400    -4.6140    -0.9860 H     1 <1>   0.0800 
 41 H       -5.5500    -5.0030     1.1830 H     1 <1>   0.1000 
 42 H       -4.0290    -8.6820     0.9610 H     1 <1>   0.1500 
 43 H       -0.9920    -8.5630    -2.0370 H     1 <1>   0.1500 
 44 H       -5.8780    -4.7560    -1.8730 H     1 <1>   0.1000 
 45 H       -7.2000    -4.9050    -0.6780 H     1 <1>   0.1000 
 46 H       -6.4230    -2.7700     0.4540 H     1 <1>   0.1000 
 47 H       -5.1120    -2.6150    -0.7540 H     1 <1>   0.1000 
 48 H       -4.1020   -11.1230     0.7830 H     1 <1>   0.1500 
 49 H       -1.0740   -11.0020    -2.2110 H     1 <1>   0.1500 
 50 H       -2.6250   -12.2910    -0.8030 H     1 <1>   0.1500 
@<TRIPOS>BOND
  1   1   2  2   
  2   2   3  am  
  3   2   4  1   
  4   3   5  1   
  5   3  25  1   
  6   4   6  1   
  7   4   7  1   
  8   4  26  1   
  9   5   8  1   
 10   5  27  1   
 11   5  28  1   
 12   6  29  1   
 13   6  30  1   
 14   6  31  1   
 15   7  32  1   
 16   7  33  1   
 17   7  34  1   
 18   8   9  2   
 19   8  10  am  
 20  10  11  1   
 21  10  12  1   
 22  11  13  1   
 23  11  35  1   
 24  11  36  1   
 25  12  14  1   
 26  12  37  1   
 27  12  38  1   
 28  13  15  1   
 29  13  16  1   
 30  13  39  1   
 31  14  15  1   
 32  14  17  1   
 33  14  40  1   
 34  16  18  ar  
 35  16  19  ar  
 36  17  20  1   
 37  17  21  1   
 38  17  41  1   
 39  18  22  ar  
 40  18  42  1   
 41  19  23  ar  
 42  19  43  1   
 43  20  21  1   
 44  20  44  1   
 45  20  45  1   
 46  21  46  1   
 47  21  47  1   
 48  22  24  ar  
 49  22  48  1   
 50  23  24  ar  
 51  23  49  1   
 52  24  50  1   
@<TRIPOS>SUBSTRUCTURE
  1 ****  10 GROUP 4 **** **** 0

# MOE 2024.06 (io_trps.svl 2023.06)
