@<TRIPOS>MOLECULE
NONAME
46 49 1 0 0 
SMALL
USER_CHARGES


@<TRIPOS>ATOM
  1 O        0.6340     0.4910     0.0960 O.3   1 <1>  -0.5600 
  2 C        0.7190     1.8900     0.0390 C.3   1 <1>   0.2950 
  3 C        1.8550    -0.1800    -0.0540 C.3   1 <1>   0.2000 
  4 C       -0.6930     2.4320     0.3300 C.3   1 <1>  -0.1950 
  5 C        1.3200     2.3250    -1.3190 C.3   1 <1>   0.2090 
  6 C        2.5030     0.1810    -1.4130 C.3   1 <1>   0.2090 
  7 C        1.5560    -1.6770     0.0960 C.3   1 <1>  -0.1600 
  8 C       -1.7870     2.5000    -0.6910 C.3   1 <1>  -0.2000 
  9 C       -1.1850     3.7660    -0.1460 C.3   1 <1>  -0.2000 
 10 N        2.6430     1.6630    -1.5620 N.pl3 1 <1>  -0.8210 
 11 C        2.8250    -2.5460     0.1200 C.3   1 <1>  -0.1600 
 12 C        3.7680     2.2360    -0.9630 C.2   1 <1>   0.5990 
 13 C        2.4780    -4.0170     0.3720 C.3   1 <1>  -0.1600 
 14 N        4.8830     1.6440    -0.7650 N.2   1 <1>  -0.4100 
 15 N        3.7560     3.4880    -0.5260 N.2   1 <1>  -0.5650 
 16 C        3.7390    -4.8850     0.3930 C.3   1 <1>  -0.2400 
 17 O        5.6760     2.5060    -0.1860 O.3   1 <1>  -0.0190 
 18 C        4.9390     3.5830    -0.0770 C.2   1 <1>   0.3930 
 19 C        5.5550     4.8140     0.5690 C.3   1 <1>  -0.0150 
 20 C        5.0960     6.1980     0.2200 C.3   1 <1>  -0.2000 
 21 C        6.4460     5.7200    -0.2250 C.3   1 <1>  -0.2000 
 22 H        1.3760     2.2160     0.8260 H     1 <1>   0.0800 
 23 H        2.5050     0.1320     0.7460 H     1 <1>   0.0800 
 24 H       -0.9910     2.1550     1.3260 H     1 <1>   0.1000 
 25 H        1.4250     3.3940    -1.3480 H     1 <1>   0.0800 
 26 H        0.6460     2.0500    -2.1100 H     1 <1>   0.0800 
 27 H        1.8870    -0.1970    -2.2090 H     1 <1>   0.0800 
 28 H        3.4650    -0.2930    -1.5000 H     1 <1>   0.0800 
 29 H        1.0240    -1.8190     1.0210 H     1 <1>   0.0800 
 30 H        0.9180    -1.9930    -0.7100 H     1 <1>   0.0800 
 31 H       -1.5830     2.2190    -1.7090 H     1 <1>   0.1000 
 32 H       -2.7810     2.2210    -0.3860 H     1 <1>   0.1000 
 33 H       -1.7720     4.3650     0.5290 H     1 <1>   0.1000 
 34 H       -0.5900     4.3700    -0.8090 H     1 <1>   0.1000 
 35 H        3.3450    -2.4660    -0.8180 H     1 <1>   0.0800 
 36 H        3.4830    -2.1970     0.8990 H     1 <1>   0.0800 
 37 H        1.9670    -4.1130     1.3160 H     1 <1>   0.0800 
 38 H        1.8170    -4.3710    -0.4010 H     1 <1>   0.0800 
 39 H        4.4050    -4.5620     1.1750 H     1 <1>   0.0800 
 40 H        4.2550    -4.8240    -0.5490 H     1 <1>   0.0800 
 41 H        3.4760    -5.9130     0.5720 H     1 <1>   0.0800 
 42 H        5.8230     4.6320     1.5940 H     1 <1>   0.1000 
 43 H        4.3180     6.3110    -0.5160 H     1 <1>   0.1000 
 44 H        5.0340     6.9330     1.0030 H     1 <1>   0.1000 
 45 H        7.3240     6.1260     0.2480 H     1 <1>   0.1000 
 46 H        6.5980     5.5120    -1.2710 H     1 <1>   0.1000 
@<TRIPOS>BOND
  1   1   2  1   
  2   1   3  1   
  3   2   4  1   
  4   2   5  1   
  5   2  22  1   
  6   3   6  1   
  7   3   7  1   
  8   3  23  1   
  9   4   8  1   
 10   4   9  1   
 11   4  24  1   
 12   5  10  1   
 13   5  25  1   
 14   5  26  1   
 15   6  10  1   
 16   6  27  1   
 17   6  28  1   
 18   7  11  1   
 19   7  29  1   
 20   7  30  1   
 21   8   9  1   
 22   8  31  1   
 23   8  32  1   
 24   9  33  1   
 25   9  34  1   
 26  10  12  1   
 27  11  13  1   
 28  11  35  1   
 29  11  36  1   
 30  12  14  2   
 31  12  15  1   
 32  13  16  1   
 33  13  37  1   
 34  13  38  1   
 35  14  17  1   
 36  15  18  2   
 37  16  39  1   
 38  16  40  1   
 39  16  41  1   
 40  17  18  1   
 41  18  19  1   
 42  19  20  1   
 43  19  21  1   
 44  19  42  1   
 45  20  21  1   
 46  20  43  1   
 47  20  44  1   
 48  21  45  1   
 49  21  46  1   
@<TRIPOS>SUBSTRUCTURE
  1 ****  10 GROUP 4 **** **** 0

# MOE 2024.06 (io_trps.svl 2023.06)
