@<TRIPOS>MOLECULE
NONAME
52 55 1 0 0 
SMALL
USER_CHARGES


@<TRIPOS>ATOM
  1 O       -0.5720     0.2900    -0.2380 O.2   1 <1>  -0.5700 
  2 C       -1.6520     0.8020    -0.0060 C.2   1 <1>   0.5440 
  3 N       -1.7520     2.1770    -0.0420 N.am  1 <1>  -0.6600 
  4 C       -2.7840    -0.0460     0.2820 C.ar  1 <1>   0.0860 
  5 C       -3.0050     2.9090    -0.3990 C.3   1 <1>   0.1400 
  6 C       -0.5430     3.0580    -0.0410 C.3   1 <1>   0.1400 
  7 C       -2.9880    -1.2190    -0.4410 C.ar  1 <1>   0.1600 
  8 C       -3.7110     0.2400     1.2810 C.ar  1 <1>  -0.1500 
  9 C       -2.7960     3.7620    -1.6630 C.3   1 <1>   0.1200 
 10 C       -0.4780     3.8880    -1.3320 C.3   1 <1>   0.1200 
 11 N       -3.9910    -2.0650    -0.2850 N.ar  1 <1>  -0.6200 
 12 C       -4.7570    -0.6320     1.4620 C.ar  1 <1>  -0.1500 
 13 O       -1.6750     4.5890    -1.5260 O.3   1 <1>  -0.5600 
 14 C       -4.8690    -1.7680     0.6640 C.ar  1 <1>   0.4100 
 15 N       -5.9170    -2.6280     0.8580 N.pl3 1 <1>  -0.8690 
 16 C       -6.0500    -3.9270     0.1450 C.3   1 <1>   0.2090 
 17 C       -7.5020    -4.4000     0.1720 C.3   1 <1>   0.0210 
 18 C       -7.6850    -5.7500    -0.5030 C.2   1 <1>  -0.1810 
 19 C       -8.9250    -6.4270    -0.5480 C.ar  1 <1>   0.0000 
 20 C       -6.7760    -6.5230    -1.1480 C.2   1 <1>  -0.3020 
 21 C       -8.7040    -7.6140    -1.2370 C.ar  1 <1>  -0.1520 
 22 C      -10.2070    -6.1390    -0.0690 C.ar  1 <1>  -0.1500 
 23 N       -7.3820    -7.6610    -1.6000 N.pl3 1 <1>   0.0330 
 24 C       -9.7420    -8.5230    -1.4550 C.ar  1 <1>  -0.1500 
 25 C      -11.2360    -7.0280    -0.2790 C.ar  1 <1>   0.0820 
 26 C      -10.9990    -8.2280    -0.9780 C.ar  1 <1>  -0.1500 
 27 O      -12.4570    -6.6820     0.2160 O.3   1 <1>  -0.3620 
 28 C      -13.5760    -7.5220     0.0410 C.3   1 <1>   0.0400 
 29 H       -3.2860     3.5520     0.4170 H     1 <1>   0.0800 
 30 H       -3.8120     2.2210    -0.5780 H     1 <1>   0.0800 
 31 H        0.3560     2.4740     0.0530 H     1 <1>   0.0800 
 32 H       -0.5910     3.7220     0.8030 H     1 <1>   0.0800 
 33 H       -2.2640    -1.4620    -1.2010 H     1 <1>   0.1500 
 34 H       -3.5990     1.1190     1.8910 H     1 <1>   0.1500 
 35 H       -3.6500     4.3930    -1.8320 H     1 <1>   0.0800 
 36 H       -2.6550     3.1320    -2.5250 H     1 <1>   0.0800 
 37 H       -0.3060     3.2500    -2.1820 H     1 <1>   0.0800 
 38 H        0.3190     4.6080    -1.2720 H     1 <1>   0.0800 
 39 H       -5.4970    -0.4510     2.2170 H     1 <1>   0.1500 
 40 H       -6.4000    -2.5810     1.7550 H     1 <1>   0.4000 
 41 H       -5.4170    -4.6570     0.6190 H     1 <1>   0.0800 
 42 H       -5.7350    -3.8160    -0.8790 H     1 <1>   0.0800 
 43 H       -8.1170    -3.6750    -0.3320 H     1 <1>   0.0800 
 44 H       -7.8290    -4.4830     1.1930 H     1 <1>   0.0800 
 45 H       -5.7300    -6.3400    -1.3190 H     1 <1>   0.1500 
 46 H      -10.3830    -5.2230     0.4610 H     1 <1>   0.1500 
 47 H       -6.9400    -8.4220    -2.1220 H     1 <1>   0.2700 
 48 H       -9.5520    -9.4360    -1.9900 H     1 <1>   0.1500 
 49 H      -11.7930    -8.9290    -1.1470 H     1 <1>   0.1500 
 50 H      -14.4230    -7.0500     0.5050 H     1 <1>   0.0800 
 51 H      -13.3810    -8.4670     0.5150 H     1 <1>   0.0800 
 52 H      -13.7590    -7.6460    -1.0120 H     1 <1>   0.0800 
@<TRIPOS>BOND
  1   1   2  2   
  2   2   3  am  
  3   2   4  1   
  4   3   5  1   
  5   3   6  1   
  6   4   7  ar  
  7   4   8  ar  
  8   5   9  1   
  9   5  29  1   
 10   5  30  1   
 11   6  10  1   
 12   6  31  1   
 13   6  32  1   
 14   7  11  ar  
 15   7  33  1   
 16   8  12  ar  
 17   8  34  1   
 18   9  13  1   
 19   9  35  1   
 20   9  36  1   
 21  10  13  1   
 22  10  37  1   
 23  10  38  1   
 24  11  14  ar  
 25  12  14  ar  
 26  12  39  1   
 27  14  15  1   
 28  15  16  1   
 29  15  40  1   
 30  16  17  1   
 31  16  41  1   
 32  16  42  1   
 33  17  18  1   
 34  17  43  1   
 35  17  44  1   
 36  18  19  1   
 37  18  20  2   
 38  19  21  ar  
 39  19  22  ar  
 40  20  23  1   
 41  20  45  1   
 42  21  23  1   
 43  21  24  ar  
 44  22  25  ar  
 45  22  46  1   
 46  23  47  1   
 47  24  26  ar  
 48  24  48  1   
 49  25  26  ar  
 50  25  27  1   
 51  26  49  1   
 52  27  28  1   
 53  28  50  1   
 54  28  51  1   
 55  28  52  1   
@<TRIPOS>SUBSTRUCTURE
  1 ****  15 GROUP 4 **** **** 0

# MOE 2024.06 (io_trps.svl 2023.06)
