@<TRIPOS>MOLECULE
NONAME
49 52 1 0 0 
SMALL
USER_CHARGES


@<TRIPOS>ATOM
  1 O        0.4700     1.4560    -1.7050 O.2   1 <1>  -0.5700 
  2 C        0.2110     2.3030    -0.8780 C.2   1 <1>   0.5690 
  3 N       -1.0910     2.6980    -0.6670 N.am  1 <1>  -0.6600 
  4 C        1.3730     2.9310    -0.1040 C.3   1 <1>   0.3800 
  5 C       -2.2100     1.9310    -1.2990 C.3   1 <1>   0.1400 
  6 C       -1.4750     3.9310     0.0950 C.3   1 <1>   0.1400 
  7 N        2.0280     3.8730    -1.0250 N.pl3 1 <1>   0.3140 
  8 C        2.3960     1.9660     0.5280 C.ar  1 <1>  -0.1440 
  9 C       -3.4510     1.9620    -0.4050 C.3   1 <1>  -0.1600 
 10 C       -2.8420     4.4400    -0.3570 C.3   1 <1>  -0.1600 
 11 N        2.0310     5.1780    -0.8430 N.2   1 <1>  -0.4180 
 12 C        2.6990     3.6270    -2.1340 C.2   1 <1>   0.0360 
 13 C        3.6150     2.4610     0.9810 C.ar  1 <1>  -0.1500 
 14 C        2.1330     0.6090     0.6890 C.ar  1 <1>  -0.1500 
 15 C       -3.9330     3.3910    -0.0910 C.3   1 <1>   0.4180 
 16 N        2.6920     5.6780    -1.8250 N.2   1 <1>   0.0000 
 17 N        3.1180     4.7210    -2.6430 N.2   1 <1>  -0.3380 
 18 C        4.5490     1.6230     1.5640 C.ar  1 <1>  -0.1500 
 19 C        3.0670    -0.2290     1.2720 C.ar  1 <1>  -0.1500 
 20 O       -4.2230     3.3910     1.2860 O.3   1 <1>  -0.5600 
 21 C       -5.1840     3.7080    -0.9070 C.2   1 <1>  -0.2880 
 22 C        4.2770     0.2760     1.7090 C.ar  1 <1>  -0.1500 
 23 C       -5.1260     4.3480     1.7710 C.3   1 <1>   0.1200 
 24 C       -6.3610     4.0480    -0.3790 C.2   1 <1>  -0.2760 
 25 C       -6.5060     4.1730     1.1260 C.3   1 <1>  -0.0220 
 26 C       -7.6210     4.3210    -1.1820 C.3   1 <1>  -0.1020 
 27 H        0.9730     3.5060     0.7060 H     1 <1>   0.0800 
 28 H       -1.9130     0.9070    -1.4560 H     1 <1>   0.0800 
 29 H       -2.4350     2.3620    -2.2600 H     1 <1>   0.0800 
 30 H       -0.7480     4.7080    -0.0690 H     1 <1>   0.0800 
 31 H       -1.5100     3.7020     1.1480 H     1 <1>   0.0800 
 32 H       -3.2090     1.4470     0.5080 H     1 <1>   0.0800 
 33 H       -4.2400     1.4090    -0.8820 H     1 <1>   0.0800 
 34 H       -2.7930     4.6570    -1.4090 H     1 <1>   0.0800 
 35 H       -3.0770     5.3610     0.1400 H     1 <1>   0.0800 
 36 H        2.8560     2.6390    -2.5310 H     1 <1>   0.1500 
 37 H        3.8570     3.5070     0.8900 H     1 <1>   0.1500 
 38 H        1.2020     0.1760     0.3640 H     1 <1>   0.1500 
 39 H        5.4900     2.0210     1.9050 H     1 <1>   0.1500 
 40 H        2.8510    -1.2780     1.3850 H     1 <1>   0.1500 
 41 H       -5.0230     3.6160    -1.9660 H     1 <1>   0.1500 
 42 H        5.0040    -0.3770     2.1610 H     1 <1>   0.1500 
 43 H       -4.7370     5.3280     1.5610 H     1 <1>   0.0800 
 44 H       -5.1940     4.2240     2.8370 H     1 <1>   0.0800 
 45 H       -7.1090     5.0280     1.3730 H     1 <1>   0.0800 
 46 H       -6.9870     3.2960     1.5220 H     1 <1>   0.0800 
 47 H       -8.4000     3.6390    -0.8900 H     1 <1>   0.0800 
 48 H       -7.4320     4.1940    -2.2330 H     1 <1>   0.0800 
 49 H       -7.9580     5.3280    -1.0150 H     1 <1>   0.0800 
@<TRIPOS>BOND
  1   1   2  2   
  2   2   3  am  
  3   2   4  1   
  4   3   5  1   
  5   3   6  1   
  6   4   7  1   
  7   4   8  1   
  8   4  27  1   
  9   5   9  1   
 10   5  28  1   
 11   5  29  1   
 12   6  10  1   
 13   6  30  1   
 14   6  31  1   
 15   7  11  1   
 16   7  12  1   
 17   8  13  ar  
 18   8  14  ar  
 19   9  15  1   
 20   9  32  1   
 21   9  33  1   
 22  10  15  1   
 23  10  34  1   
 24  10  35  1   
 25  11  16  2   
 26  12  17  2   
 27  12  36  1   
 28  13  18  ar  
 29  13  37  1   
 30  14  19  ar  
 31  14  38  1   
 32  15  20  1   
 33  15  21  1   
 34  16  17  1   
 35  18  22  ar  
 36  18  39  1   
 37  19  22  ar  
 38  19  40  1   
 39  20  23  1   
 40  21  24  2   
 41  21  41  1   
 42  22  42  1   
 43  23  25  1   
 44  23  43  1   
 45  23  44  1   
 46  24  25  1   
 47  24  26  1   
 48  25  45  1   
 49  25  46  1   
 50  26  47  1   
 51  26  48  1   
 52  26  49  1   
@<TRIPOS>SUBSTRUCTURE
  1 ****   3 GROUP 4 **** **** 0

# MOE 2024.06 (io_trps.svl 2023.06)
