@<TRIPOS>MOLECULE
NONAME
35 38 1 0 0 
SMALL
USER_CHARGES


@<TRIPOS>ATOM
  1 S        0.0720    -0.4350     1.5470 S.3   1 <1>  -0.0800 
  2 C       -0.3060    -1.3040     0.0580 C.2   1 <1>   0.4620 
  3 C        1.4250     0.3180     0.7510 C.2   1 <1>  -0.1100 
  4 N        0.5080    -1.0400    -0.9020 N.2   1 <1>  -0.5650 
  5 N       -1.3820    -2.1680     0.0210 N.pl3 1 <1>  -0.8220 
  6 C        1.4730    -0.1310    -0.5100 C.2   1 <1>   0.0770 
  7 C       -1.5940    -3.0130    -1.1900 C.3   1 <1>   0.2090 
  8 C       -2.3330    -2.3280     1.1590 C.3   1 <1>   0.2090 
  9 C       -2.2710    -4.3170    -0.7860 C.3   1 <1>  -0.1600 
 10 C       -3.7080    -2.7440     0.6400 C.3   1 <1>  -0.1600 
 11 C       -3.6550    -4.0450    -0.1840 C.3   1 <1>   0.4600 
 12 O       -4.5220    -3.8880    -1.2890 O.3   1 <1>  -0.5600 
 13 C       -4.1360    -5.2420     0.6340 C.2   1 <1>  -0.1400 
 14 C       -5.9020    -4.0620    -1.0700 C.3   1 <1>   0.1200 
 15 S       -3.2360    -5.8940     1.9950 S.3   1 <1>  -0.0800 
 16 C       -5.2730    -5.9260     0.4480 C.2   1 <1>  -0.1810 
 17 C       -6.2200    -5.5120    -0.6560 C.3   1 <1>   0.0210 
 18 C       -4.4620    -7.1280     2.2560 C.2   1 <1>  -0.1100 
 19 C       -5.4630    -7.0100     1.3630 C.2   1 <1>  -0.1500 
 20 H        2.0260     1.0080     1.3140 H     1 <1>   0.1500 
 21 H        2.2050     0.1600    -1.2440 H     1 <1>   0.1500 
 22 H       -0.6490    -3.2270    -1.6590 H     1 <1>   0.0800 
 23 H       -2.2080    -2.4780    -1.8950 H     1 <1>   0.0800 
 24 H       -2.4320    -1.4000     1.6950 H     1 <1>   0.0800 
 25 H       -1.9510    -3.0740     1.8350 H     1 <1>   0.0800 
 26 H       -1.6360    -4.8090    -0.0740 H     1 <1>   0.0800 
 27 H       -2.3690    -4.9680    -1.6350 H     1 <1>   0.0800 
 28 H       -4.0790    -1.9400     0.0290 H     1 <1>   0.0800 
 29 H       -4.3750    -2.8660     1.4720 H     1 <1>   0.0800 
 30 H       -6.4130    -3.8160    -1.9840 H     1 <1>   0.0800 
 31 H       -6.2140    -3.3750    -0.3030 H     1 <1>   0.0800 
 32 H       -6.1060    -6.1680    -1.5000 H     1 <1>   0.0800 
 33 H       -7.2370    -5.5700    -0.3130 H     1 <1>   0.0800 
 34 H       -4.3000    -7.8210     3.0620 H     1 <1>   0.1500 
 35 H       -6.3320    -7.6410     1.3080 H     1 <1>   0.1500 
@<TRIPOS>BOND
  1   1   2  1   
  2   1   3  1   
  3   2   4  2   
  4   2   5  1   
  5   3   6  2   
  6   3  20  1   
  7   4   6  1   
  8   5   7  1   
  9   5   8  1   
 10   6  21  1   
 11   7   9  1   
 12   7  22  1   
 13   7  23  1   
 14   8  10  1   
 15   8  24  1   
 16   8  25  1   
 17   9  11  1   
 18   9  26  1   
 19   9  27  1   
 20  10  11  1   
 21  10  28  1   
 22  10  29  1   
 23  11  12  1   
 24  11  13  1   
 25  12  14  1   
 26  13  15  1   
 27  13  16  2   
 28  14  17  1   
 29  14  30  1   
 30  14  31  1   
 31  15  18  1   
 32  16  17  1   
 33  16  19  1   
 34  17  32  1   
 35  17  33  1   
 36  18  19  2   
 37  18  34  1   
 38  19  35  1   
@<TRIPOS>SUBSTRUCTURE
  1 ****  11 GROUP 4 **** **** 0

# MOE 2024.06 (io_trps.svl 2023.06)
