@<TRIPOS>MOLECULE
NONAME
44 47 1 0 0 
SMALL
USER_CHARGES


@<TRIPOS>ATOM
  1 O        0.1800     0.2090    -0.1730 O.3   1 <1>  -0.5600 
  2 C        1.3160    -0.4320    -0.6850 C.3   1 <1>   0.3440 
  3 C        0.0740     1.5680    -0.4740 C.3   1 <1>   0.2950 
  4 C        1.3020    -1.9000    -0.2880 C.ar  1 <1>  -0.1440 
  5 C        2.5910     0.2330    -0.1140 C.3   1 <1>   0.3430 
  6 C       -1.2380     2.0700     0.1290 C.3   1 <1>  -0.1950 
  7 C        1.2810     2.3330     0.1170 C.3   1 <1>   0.3430 
  8 C        0.7970    -2.3110     0.9390 C.ar  1 <1>  -0.1500 
  9 C        1.8220    -2.8510    -1.1560 C.ar  1 <1>  -0.1500 
 10 N        2.6150     1.7370    -0.2860 N.4   1 <1>  -0.9590 
 11 C       -2.5360     1.8890    -0.5910 C.3   1 <1>  -0.2000 
 12 C       -1.9440     3.2620    -0.4400 C.3   1 <1>  -0.2000 
 13 C        0.8230    -3.6470     1.2970 C.ar  1 <1>  -0.1500 
 14 C        1.8470    -4.1880    -0.7980 C.ar  1 <1>  -0.1500 
 15 C        3.7550     2.3500     0.4590 C.3   1 <1>   0.4860 
 16 C        1.3500    -4.5860     0.4300 C.ar  1 <1>  -0.1500 
 17 C        3.8000     3.8320     0.1710 C.ar  1 <1>  -0.1440 
 18 C        3.3390     4.7540     1.0840 C.ar  1 <1>   0.1600 
 19 C        4.2950     4.3210    -1.0170 C.ar  1 <1>   0.1600 
 20 N        3.3360     6.0410     0.8320 N.ar  1 <1>  -0.6200 
 21 N        4.3020     5.6030    -1.2920 N.ar  1 <1>  -0.6200 
 22 C        3.8230     6.3970    -0.3470 C.ar  1 <1>   0.4700 
 23 H        1.2910    -0.3520    -1.7580 H     1 <1>   0.0800 
 24 H        0.0420     1.6800    -1.5450 H     1 <1>   0.0800 
 25 H        3.4520    -0.2100    -0.5870 H     1 <1>   0.0800 
 26 H        2.6360    -0.0130     0.9340 H     1 <1>   0.0800 
 27 H       -1.2660     1.9520     1.1990 H     1 <1>   0.1000 
 28 H        1.1840     2.3140     1.1900 H     1 <1>   0.0800 
 29 H        1.2240     3.3630    -0.1960 H     1 <1>   0.0800 
 30 H        0.3730    -1.5970     1.6250 H     1 <1>   0.1500 
 31 H        2.2100    -2.5700    -2.1200 H     1 <1>   0.1500 
 32 H        2.7470     1.9450    -1.2850 H     1 <1>   0.4500 
 33 H       -2.5390     1.4250    -1.5630 H     1 <1>   0.1000 
 34 H       -3.4120     1.6350    -0.0180 H     1 <1>   0.1000 
 35 H       -2.4350     3.9520     0.2270 H     1 <1>   0.1000 
 36 H       -1.5820     3.7460    -1.3320 H     1 <1>   0.1000 
 37 H        0.4280    -3.9590     2.2490 H     1 <1>   0.1500 
 38 H        2.2500    -4.9220    -1.4740 H     1 <1>   0.1500 
 39 H        3.6360     2.1870     1.5180 H     1 <1>   0.0800 
 40 H        4.6850     1.8990     0.1520 H     1 <1>   0.0800 
 41 H        1.3680    -5.6260     0.7080 H     1 <1>   0.1500 
 42 H        2.9580     4.4450     2.0440 H     1 <1>   0.1500 
 43 H        4.6940     3.6610    -1.7690 H     1 <1>   0.1500 
 44 H        3.8300     7.4550    -0.5610 H     1 <1>   0.1500 
@<TRIPOS>BOND
  1   1   2  1   
  2   1   3  1   
  3   2   4  1   
  4   2   5  1   
  5   2  23  1   
  6   3   6  1   
  7   3   7  1   
  8   3  24  1   
  9   4   8  ar  
 10   4   9  ar  
 11   5  10  1   
 12   5  25  1   
 13   5  26  1   
 14   6  11  1   
 15   6  12  1   
 16   6  27  1   
 17   7  10  1   
 18   7  28  1   
 19   7  29  1   
 20   8  13  ar  
 21   8  30  1   
 22   9  14  ar  
 23   9  31  1   
 24  10  15  1   
 25  10  32  1   
 26  11  12  1   
 27  11  33  1   
 28  11  34  1   
 29  12  35  1   
 30  12  36  1   
 31  13  16  ar  
 32  13  37  1   
 33  14  16  ar  
 34  14  38  1   
 35  15  17  1   
 36  15  39  1   
 37  15  40  1   
 38  16  41  1   
 39  17  18  ar  
 40  17  19  ar  
 41  18  20  ar  
 42  18  42  1   
 43  19  21  ar  
 44  19  43  1   
 45  20  22  ar  
 46  21  22  ar  
 47  22  44  1   
@<TRIPOS>SUBSTRUCTURE
  1 ****  10 GROUP 4 **** **** 0

# MOE 2024.06 (io_trps.svl 2023.06)
