@<TRIPOS>MOLECULE
NONAME
45 47 1 0 0 
SMALL
USER_CHARGES


@<TRIPOS>ATOM
  1 S        0.3540    -0.2830     0.2920 S.3   1 <1>  -0.0800 
  2 C       -0.3520     1.2650    -0.1740 C.2   1 <1>   0.3250 
  3 C       -1.0680    -1.1110    -0.2570 C.2   1 <1>  -0.1400 
  4 N       -1.5270     1.1260    -0.6840 N.2   1 <1>  -0.5650 
  5 C        0.3920     2.4890     0.0450 C.ar  1 <1>   0.0530 
  6 C       -1.9210    -0.1950    -0.7360 C.2   1 <1>   0.0770 
  7 C       -1.1140    -2.6200    -0.1240 C.3   1 <1>   0.2900 
  8 C       -0.2020     3.7210    -0.2290 C.ar  1 <1>  -0.1500 
  9 C        1.7050     2.5150     0.5280 C.ar  1 <1>  -0.1500 
 10 N       -2.4980    -3.1060    -0.2690 N.3   1 <1>  -0.8100 
 11 C        0.4610     4.9200    -0.0360 C.ar  1 <1>   0.0830 
 12 C        2.3810     3.7060     0.7260 C.ar  1 <1>  -0.1500 
 13 C       -2.5150    -4.5810    -0.4760 C.3   1 <1>   0.1100 
 14 C       -3.3030    -2.7990     0.9460 C.3   1 <1>   0.1100 
 15 O       -0.2220     6.0520    -0.3370 O.3   1 <1>  -0.3620 
 16 C        1.7650     4.9110     0.4470 C.ar  1 <1>  -0.1500 
 17 C       -3.9470    -5.1800    -0.4810 C.3   1 <1>   0.3170 
 18 C       -4.7710    -3.2820     0.8270 C.3   1 <1>   0.3430 
 19 C        0.3600     7.3260    -0.1790 C.3   1 <1>   0.0400 
 20 N       -4.9920    -4.0610    -0.4380 N.4   1 <1>  -0.9590 
 21 C       -4.0980    -6.2290     0.6420 C.2   1 <1>   0.9060 
 22 C       -6.3630    -4.6410    -0.5140 C.3   1 <1>   0.2630 
 23 O       -3.7590    -5.9310     1.7950 O.co2 1 <1>  -0.9000 
 24 O       -4.6680    -7.2860     0.3630 O.co2 1 <1>  -0.9000 
 25 H       -2.8870    -0.4150    -1.1560 H     1 <1>   0.1500 
 26 H       -0.7180    -2.9180     0.8330 H     1 <1>   0.0800 
 27 H       -0.4940    -3.0460    -0.8940 H     1 <1>   0.0800 
 28 H       -1.2090     3.7490    -0.6040 H     1 <1>   0.1500 
 29 H        2.2190     1.5990     0.7540 H     1 <1>   0.1500 
 30 H        3.3900     3.6940     1.0990 H     1 <1>   0.1500 
 31 H       -1.9310    -5.0640     0.2920 H     1 <1>   0.0800 
 32 H       -2.0480    -4.8130    -1.4180 H     1 <1>   0.0800 
 33 H       -3.3030    -1.7400     1.1380 H     1 <1>   0.0800 
 34 H       -2.8630    -3.2820     1.8040 H     1 <1>   0.0800 
 35 H        2.3090     5.8220     0.6090 H     1 <1>   0.1500 
 36 H       -4.0690    -5.7320    -1.3950 H     1 <1>   0.0800 
 37 H       -5.4280    -2.4300     0.8540 H     1 <1>   0.0800 
 38 H       -4.9960    -3.9020     1.6810 H     1 <1>   0.0800 
 39 H       -0.3630     8.0630    -0.4790 H     1 <1>   0.0800 
 40 H        1.2310     7.3920    -0.8070 H     1 <1>   0.0800 
 41 H        0.6180     7.4670     0.8550 H     1 <1>   0.0800 
 42 H       -4.7580    -3.4320    -1.2160 H     1 <1>   0.4500 
 43 H       -6.5280    -5.3090     0.3180 H     1 <1>   0.0800 
 44 H       -6.4770    -5.2060    -1.4250 H     1 <1>   0.0800 
 45 H       -7.1050    -3.8610    -0.4900 H     1 <1>   0.0800 
@<TRIPOS>BOND
  1   1   2  1   
  2   1   3  1   
  3   2   4  2   
  4   2   5  1   
  5   3   6  2   
  6   3   7  1   
  7   4   6  1   
  8   5   8  ar  
  9   5   9  ar  
 10   6  25  1   
 11   7  10  1   
 12   7  26  1   
 13   7  27  1   
 14   8  11  ar  
 15   8  28  1   
 16   9  12  ar  
 17   9  29  1   
 18  10  13  1   
 19  10  14  1   
 20  11  15  1   
 21  11  16  ar  
 22  12  16  ar  
 23  12  30  1   
 24  13  17  1   
 25  13  31  1   
 26  13  32  1   
 27  14  18  1   
 28  14  33  1   
 29  14  34  1   
 30  15  19  1   
 31  16  35  1   
 32  17  20  1   
 33  17  21  1   
 34  17  36  1   
 35  18  20  1   
 36  18  37  1   
 37  18  38  1   
 38  19  39  1   
 39  19  40  1   
 40  19  41  1   
 41  20  22  1   
 42  20  42  1   
 43  21  23  ar  
 44  21  24  ar  
 45  22  43  1   
 46  22  44  1   
 47  22  45  1   
@<TRIPOS>SUBSTRUCTURE
  1 ****   3 GROUP 4 **** **** 0

# MOE 2024.06 (io_trps.svl 2023.06)
