@<TRIPOS>MOLECULE
NONAME
51 52 1 0 0 
SMALL
USER_CHARGES


@<TRIPOS>ATOM
  1 S        0.7440     0.8130    -1.5260 S.o2  1 <1>   1.3330 
  2 O       -0.3050    -0.0360    -2.0420 O.2   1 <1>  -0.6500 
  3 O        2.0510     0.7930    -2.1430 O.2   1 <1>  -0.6500 
  4 N        0.9340     0.4430     0.1210 N.am  1 <1>  -0.8490 
  5 C        0.1700     2.5140    -1.5150 C.3   1 <1>  -0.0550 
  6 C       -0.3140     0.0400     0.7780 C.3   1 <1>   0.1160 
  7 C        1.9690    -0.5700     0.3510 C.3   1 <1>   0.1160 
  8 C        1.2150     3.5380    -1.0200 C.3   1 <1>  -0.0800 
  9 C        0.7930     4.9990    -1.1980 C.3   1 <1>   0.2000 
 10 C        1.5690     3.4250     0.4700 C.3   1 <1>   0.1400 
 11 O       -0.5190     5.1460    -0.7730 O.3   1 <1>  -0.6800 
 12 C        1.6930     5.7540    -0.2240 C.3   1 <1>   0.1400 
 13 N        1.8730     4.8100     0.9070 N.am  1 <1>  -0.6600 
 14 C        2.3670     5.0970     2.1520 C.2   1 <1>   0.5690 
 15 O        2.4990     4.2300     2.9820 O.2   1 <1>  -0.5700 
 16 C        2.7470     6.5210     2.5440 C.3   1 <1>   0.0440 
 17 C        3.7560     7.1720     1.6020 C.ar  1 <1>  -0.1430 
 18 C        4.9160     6.4980     1.2480 C.ar  1 <1>  -0.1500 
 19 C        3.5230     8.4380     1.0850 C.ar  1 <1>  -0.1500 
 20 C        5.8220     7.0780     0.3800 C.ar  1 <1>  -0.1500 
 21 C        4.4290     9.0210     0.2170 C.ar  1 <1>  -0.1500 
 22 C        5.5880     8.3390    -0.1430 C.ar  1 <1>   0.0820 
 23 O        6.5250     8.8340    -0.9890 O.3   1 <1>  -0.3630 
 24 C        6.4120    10.1270    -1.5340 C.3   1 <1>   0.1200 
 25 C        7.6340    10.3780    -2.4110 C.3   1 <1>  -0.2400 
 26 H       -0.1030     2.7790    -2.5180 H     1 <1>   0.0800 
 27 H       -0.7180     2.5840    -0.9180 H     1 <1>   0.0800 
 28 H       -0.1510    -0.0860     1.8350 H     1 <1>   0.0800 
 29 H       -0.6740    -0.8890     0.3650 H     1 <1>   0.0800 
 30 H       -1.0690     0.7940     0.6380 H     1 <1>   0.0800 
 31 H        2.0730    -0.7640     1.4050 H     1 <1>   0.0800 
 32 H        2.9170    -0.2200    -0.0210 H     1 <1>   0.0800 
 33 H        1.7150    -1.4860    -0.1560 H     1 <1>   0.0800 
 34 H        2.1250     3.3940    -1.5780 H     1 <1>   0.0800 
 35 H        0.8710     5.3510    -2.2120 H     1 <1>   0.0800 
 36 H        2.4190     2.7820     0.6260 H     1 <1>   0.0800 
 37 H        0.7370     3.0550     1.0430 H     1 <1>   0.0800 
 38 H       -0.5470     5.0070     0.1960 H     1 <1>   0.4000 
 39 H        1.2520     6.6850     0.0880 H     1 <1>   0.0800 
 40 H        2.6500     5.9420    -0.6810 H     1 <1>   0.0800 
 41 H        1.8470     7.1030     2.5890 H     1 <1>   0.0800 
 42 H        3.1680     6.5010     3.5330 H     1 <1>   0.0800 
 43 H        5.1170     5.5160     1.6450 H     1 <1>   0.1500 
 44 H        2.6330     8.9790     1.3560 H     1 <1>   0.1500 
 45 H        6.7210     6.5570     0.1030 H     1 <1>   0.1500 
 46 H        4.2180    10.0010    -0.1650 H     1 <1>   0.1500 
 47 H        5.5090    10.1740    -2.1180 H     1 <1>   0.0800 
 48 H        6.3730    10.8350    -0.7240 H     1 <1>   0.0800 
 49 H        7.6730     9.6550    -3.2060 H     1 <1>   0.0800 
 50 H        8.5310    10.3120    -1.8210 H     1 <1>   0.0800 
 51 H        7.5780    11.3610    -2.8420 H     1 <1>   0.0800 
@<TRIPOS>BOND
  1   1   2  2   
  2   1   3  2   
  3   1   4  am  
  4   1   5  1   
  5   4   6  1   
  6   4   7  1   
  7   5   8  1   
  8   5  26  1   
  9   5  27  1   
 10   6  28  1   
 11   6  29  1   
 12   6  30  1   
 13   7  31  1   
 14   7  32  1   
 15   7  33  1   
 16   8   9  1   
 17   8  10  1   
 18   8  34  1   
 19   9  11  1   
 20   9  12  1   
 21   9  35  1   
 22  10  13  1   
 23  10  36  1   
 24  10  37  1   
 25  11  38  1   
 26  12  13  1   
 27  12  39  1   
 28  12  40  1   
 29  13  14  am  
 30  14  15  2   
 31  14  16  1   
 32  16  17  1   
 33  16  41  1   
 34  16  42  1   
 35  17  18  ar  
 36  17  19  ar  
 37  18  20  ar  
 38  18  43  1   
 39  19  21  ar  
 40  19  44  1   
 41  20  22  ar  
 42  20  45  1   
 43  21  22  ar  
 44  21  46  1   
 45  22  23  1   
 46  23  24  1   
 47  24  25  1   
 48  24  47  1   
 49  24  48  1   
 50  25  49  1   
 51  25  50  1   
 52  25  51  1   
@<TRIPOS>SUBSTRUCTURE
  1 ****  13 GROUP 4 **** **** 0

# MOE 2024.06 (io_trps.svl 2023.06)
