@<TRIPOS>MOLECULE
NONAME
39 42 1 0 0 
SMALL
USER_CHARGES


@<TRIPOS>ATOM
  1 S       -0.1680     0.4500     2.3350 S.3   1 <1>  -0.0800 
  2 C       -1.0810     1.0080     0.9410 C.2   1 <1>  -0.1400 
  3 C       -1.3800    -0.7770     2.6770 C.2   1 <1>  -0.1100 
  4 C       -2.2080     0.2990     0.7990 C.2   1 <1>  -0.1810 
  5 C       -0.6100     2.1500     0.0480 C.3   1 <1>   0.4600 
  6 C       -2.3840    -0.7260     1.7810 C.2   1 <1>  -0.1500 
  7 C       -3.1560     0.6240    -0.3330 C.3   1 <1>   0.0210 
  8 O       -1.4820     2.2410    -1.0640 O.3   1 <1>  -0.5600 
  9 C       -0.6140     3.4890     0.7980 C.3   1 <1>  -0.1600 
 10 C        0.7840     1.8640    -0.5200 C.3   1 <1>  -0.1600 
 11 C       -2.8600     2.0480    -0.8450 C.3   1 <1>   0.1200 
 12 C       -0.0960     4.6320    -0.0760 C.3   1 <1>   0.1400 
 13 C        1.2850     3.0200    -1.3850 C.3   1 <1>   0.1400 
 14 N        1.2570     4.2830    -0.5920 N.am  1 <1>  -0.6600 
 15 C        2.4030     5.0320    -0.3650 C.2   1 <1>   0.5440 
 16 O        3.4790     4.5010    -0.5870 O.2   1 <1>  -0.5700 
 17 C        2.4010     6.4000     0.1530 C.ar  1 <1>   0.3960 
 18 N        1.4990     7.3100    -0.2590 N.ar  1 <1>  -0.6200 
 19 C        3.3860     6.7390     1.0890 C.ar  1 <1>   0.1600 
 20 C        1.6550     8.4940     0.3030 C.ar  1 <1>   0.1600 
 21 N        3.5370     7.9240     1.6630 N.ar  1 <1>  -0.6200 
 22 C        2.6400     8.7930     1.2350 C.ar  1 <1>   0.1600 
 23 H       -1.2080    -1.4160     3.5250 H     1 <1>   0.1500 
 24 H       -3.2460    -1.3700     1.7690 H     1 <1>   0.1500 
 25 H       -4.1740     0.5730     0.0090 H     1 <1>   0.0800 
 26 H       -3.0270    -0.0850    -1.1310 H     1 <1>   0.0800 
 27 H        0.0200     3.4080     1.6620 H     1 <1>   0.0800 
 28 H       -1.6030     3.7120     1.1520 H     1 <1>   0.0800 
 29 H        0.7520     0.9590    -1.0980 H     1 <1>   0.0800 
 30 H        1.4820     1.7140     0.2830 H     1 <1>   0.0800 
 31 H       -3.1980     2.7790    -0.1320 H     1 <1>   0.0800 
 32 H       -3.3670     2.2180    -1.7780 H     1 <1>   0.0800 
 33 H       -0.0700     5.5310     0.5120 H     1 <1>   0.0800 
 34 H       -0.7590     4.7930    -0.9100 H     1 <1>   0.0800 
 35 H        0.6510     3.1340    -2.2480 H     1 <1>   0.0800 
 36 H        2.2800     2.8050    -1.7350 H     1 <1>   0.0800 
 37 H        4.0870     5.9730     1.3720 H     1 <1>   0.1500 
 38 H        0.9700     9.2720     0.0130 H     1 <1>   0.1500 
 39 H        2.6870     9.7890     1.6400 H     1 <1>   0.1500 
@<TRIPOS>BOND
  1   1   2  1   
  2   1   3  1   
  3   2   4  2   
  4   2   5  1   
  5   3   6  2   
  6   3  23  1   
  7   4   6  1   
  8   4   7  1   
  9   5   8  1   
 10   5   9  1   
 11   5  10  1   
 12   6  24  1   
 13   7  11  1   
 14   7  25  1   
 15   7  26  1   
 16   8  11  1   
 17   9  12  1   
 18   9  27  1   
 19   9  28  1   
 20  10  13  1   
 21  10  29  1   
 22  10  30  1   
 23  11  31  1   
 24  11  32  1   
 25  12  14  1   
 26  12  33  1   
 27  12  34  1   
 28  13  14  1   
 29  13  35  1   
 30  13  36  1   
 31  14  15  am  
 32  15  16  2   
 33  15  17  1   
 34  17  18  ar  
 35  17  19  ar  
 36  18  20  ar  
 37  19  21  ar  
 38  19  37  1   
 39  20  22  ar  
 40  20  38  1   
 41  21  22  ar  
 42  22  39  1   
@<TRIPOS>SUBSTRUCTURE
  1 ****   9 GROUP 4 **** **** 0

# MOE 2024.06 (io_trps.svl 2023.06)
