@<TRIPOS>MOLECULE
NONAME
55 57 1 0 0 
SMALL
USER_CHARGES


@<TRIPOS>ATOM
  1 F        0.1310    -1.6790    -1.8630 F     1 <1>  -0.1900 
  2 C       -0.6020    -2.6000    -1.2910 C.ar  1 <1>   0.1900 
  3 C       -0.0440    -3.6010    -0.4870 C.ar  1 <1>   0.0820 
  4 C       -1.9630    -2.5320    -1.5190 C.ar  1 <1>  -0.1500 
  5 O        1.2760    -3.7730    -0.1890 O.3   1 <1>  -0.3630 
  6 C       -0.9070    -4.5270     0.0760 C.ar  1 <1>  -0.1500 
  7 C       -2.7940    -3.4720    -0.9400 C.ar  1 <1>  -0.1500 
  8 C        2.2970    -2.9600    -0.7240 C.3   1 <1>   0.0400 
  9 C       -2.2890    -4.4930    -0.1320 C.ar  1 <1>   0.0530 
 10 C       -3.1510    -5.4800     0.4750 C.2   1 <1>   0.0870 
 11 O       -2.7600    -6.1410     1.5400 O.3   1 <1>  -0.0190 
 12 C       -4.3950    -5.9330     0.1760 C.2   1 <1>  -0.2330 
 13 N       -3.6560    -6.9910     1.9700 N.2   1 <1>  -0.4100 
 14 C       -4.6520    -6.8810     1.1640 C.2   1 <1>   0.3720 
 15 C       -5.2790    -5.5800    -0.8820 C.2   1 <1>   1.0330 
 16 N       -5.8140    -7.6410     1.3130 N.pl3 1 <1>  -0.8210 
 17 O       -5.2870    -6.2220    -1.9460 O.co2 1 <1>  -0.9000 
 18 O       -6.0540    -4.6160    -0.7550 O.co2 1 <1>  -0.9000 
 19 C       -6.0470    -8.5920     0.1880 C.3   1 <1>   0.2090 
 20 C       -7.0250    -6.8310     1.5910 C.3   1 <1>   0.2090 
 21 C       -7.1250    -9.6340     0.5710 C.3   1 <1>   0.0000 
 22 C       -8.1560    -7.7690     2.0240 C.3   1 <1>  -0.1600 
 23 C       -8.4130    -8.8570     0.9650 C.3   1 <1>  -0.1600 
 24 C       -6.5840   -10.4720     1.7580 C.3   1 <1>   0.1200 
 25 C       -7.4630   -10.5170    -0.6640 C.3   1 <1>  -0.1600 
 26 O       -7.5400   -11.3740     2.2170 O.3   1 <1>  -0.6800 
 27 C       -6.3240   -11.4040    -1.2280 C.3   1 <1>  -0.0800 
 28 C       -6.3390   -11.3780    -2.7610 C.3   1 <1>  -0.2400 
 29 C       -6.4530   -12.8590    -0.7550 C.3   1 <1>  -0.2400 
 30 H       -2.3690    -1.7550    -2.1400 H     1 <1>   0.1500 
 31 H       -0.4900    -5.3030     0.6920 H     1 <1>   0.1500 
 32 H       -3.8540    -3.4060    -1.1180 H     1 <1>   0.1500 
 33 H        3.2400    -3.3240    -0.3580 H     1 <1>   0.0800 
 34 H        2.1460    -1.9470    -0.3950 H     1 <1>   0.0800 
 35 H        2.2710    -3.0270    -1.7970 H     1 <1>   0.0800 
 36 H       -5.1160    -9.0730    -0.0530 H     1 <1>   0.0800 
 37 H       -6.3720    -8.0500    -0.6830 H     1 <1>   0.0800 
 38 H       -7.3190    -6.2900     0.7060 H     1 <1>   0.0800 
 39 H       -6.8110    -6.1180     2.3680 H     1 <1>   0.0800 
 40 H       -9.0500    -7.1890     2.1690 H     1 <1>   0.0800 
 41 H       -7.8950    -8.2120     2.9680 H     1 <1>   0.0800 
 42 H       -9.1760    -9.5310     1.3100 H     1 <1>   0.0800 
 43 H       -8.8000    -8.3670     0.0870 H     1 <1>   0.0800 
 44 H       -6.3080    -9.8380     2.5820 H     1 <1>   0.0800 
 45 H       -5.7120   -11.0290     1.4670 H     1 <1>   0.0800 
 46 H       -7.7950    -9.8520    -1.4440 H     1 <1>   0.0800 
 47 H       -8.3070   -11.1410    -0.4290 H     1 <1>   0.0800 
 48 H       -8.3300   -10.8800     2.5040 H     1 <1>   0.4000 
 49 H       -5.3660   -11.0320    -0.9110 H     1 <1>   0.0800 
 50 H       -7.2790   -11.7390    -3.1390 H     1 <1>   0.0800 
 51 H       -5.5500   -11.9950    -3.1540 H     1 <1>   0.0800 
 52 H       -6.1850   -10.3740    -3.1170 H     1 <1>   0.0800 
 53 H       -7.3810   -13.2870    -1.0930 H     1 <1>   0.0800 
 54 H       -6.4260   -12.9180     0.3170 H     1 <1>   0.0800 
 55 H       -5.6420   -13.4500    -1.1420 H     1 <1>   0.0800 
@<TRIPOS>BOND
  1   1   2  1   
  2   2   3  ar  
  3   2   4  ar  
  4   3   5  1   
  5   3   6  ar  
  6   4   7  ar  
  7   4  30  1   
  8   5   8  1   
  9   6   9  ar  
 10   6  31  1   
 11   7   9  ar  
 12   7  32  1   
 13   8  33  1   
 14   8  34  1   
 15   8  35  1   
 16   9  10  1   
 17  10  11  1   
 18  10  12  2   
 19  11  13  1   
 20  12  14  1   
 21  12  15  1   
 22  13  14  2   
 23  14  16  1   
 24  15  17  ar  
 25  15  18  ar  
 26  16  19  1   
 27  16  20  1   
 28  19  21  1   
 29  19  36  1   
 30  19  37  1   
 31  20  22  1   
 32  20  38  1   
 33  20  39  1   
 34  21  23  1   
 35  21  24  1   
 36  21  25  1   
 37  22  23  1   
 38  22  40  1   
 39  22  41  1   
 40  23  42  1   
 41  23  43  1   
 42  24  26  1   
 43  24  44  1   
 44  24  45  1   
 45  25  27  1   
 46  25  46  1   
 47  25  47  1   
 48  26  48  1   
 49  27  28  1   
 50  27  29  1   
 51  27  49  1   
 52  28  50  1   
 53  28  51  1   
 54  28  52  1   
 55  29  53  1   
 56  29  54  1   
 57  29  55  1   
@<TRIPOS>SUBSTRUCTURE
  1 ****  12 GROUP 4 **** **** 0

# MOE 2024.06 (io_trps.svl 2023.06)
