@<TRIPOS>MOLECULE
NONAME
39 41 1 0 0 
SMALL
USER_CHARGES


@<TRIPOS>ATOM
  1 S       -0.4120     0.0750    -0.8040 S.o2  1 <1>   1.0900 
  2 O        0.7170     0.4780    -1.6070 O.2   1 <1>  -0.6500 
  3 O       -1.6570     0.8070    -0.7940 O.2   1 <1>  -0.6500 
  4 C       -0.8040    -1.6220    -1.1300 C.3   1 <1>  -0.0550 
  5 C        0.0880    -0.2070     0.8900 C.3   1 <1>  -0.0550 
  6 C       -1.2480    -2.1620     0.2180 C.3   1 <1>   0.2890 
  7 C       -0.2280    -1.6700     1.2470 C.3   1 <1>  -0.1600 
  8 N       -1.2970    -3.6420     0.2080 N.pl3 1 <1>  -0.8690 
  9 C       -2.3400    -4.4530    -0.0850 C.ar  1 <1>   0.1000 
 10 C       -2.2290    -5.8730     0.0610 C.ar  1 <1>   0.0000 
 11 C       -3.5590    -3.9420    -0.5400 C.ar  1 <1>  -0.1500 
 12 C       -3.3420    -6.6780    -0.2540 C.ar  1 <1>   0.3610 
 13 C       -1.0610    -6.5240     0.5110 C.ar  1 <1>  -0.1500 
 14 C       -4.6240    -4.7550    -0.8350 C.ar  1 <1>   0.2170 
 15 N       -4.5050    -6.0860    -0.6900 N.ar  1 <1>  -0.1790 
 16 C       -3.2570    -8.0700    -0.1170 C.ar  1 <1>  -0.1500 
 17 C       -0.9800    -7.8960     0.6480 C.ar  1 <1>  -0.1430 
 18 C       -5.9480    -4.1920    -1.3280 C.3   1 <1>  -0.0970 
 19 C       -2.1030    -8.6670     0.3230 C.ar  1 <1>  -0.1500 
 20 C        0.2970    -8.6090     1.1430 C.3   1 <1>   1.1630 
 21 F        0.7670    -9.4600     0.2420 F     1 <1>  -0.3400 
 22 F        1.2860    -7.7690     1.4220 F     1 <1>  -0.3400 
 23 F        0.0740    -9.3100     2.2460 F     1 <1>  -0.3400 
 24 H        0.0750    -2.1430    -1.4570 H     1 <1>   0.0800 
 25 H       -1.5780    -1.7090    -1.8670 H     1 <1>   0.0800 
 26 H       -0.4580     0.4550     1.5370 H     1 <1>   0.0800 
 27 H        1.1370    -0.0110     1.0150 H     1 <1>   0.0800 
 28 H       -2.2140    -1.7540     0.4690 H     1 <1>   0.0800 
 29 H       -0.6150    -1.7490     2.2480 H     1 <1>   0.0800 
 30 H        0.6780    -2.2470     1.1680 H     1 <1>   0.0800 
 31 H       -0.4040    -4.0550     0.5050 H     1 <1>   0.4000 
 32 H       -3.6680    -2.8810    -0.6660 H     1 <1>   0.1500 
 33 H       -0.2050    -5.9210     0.7580 H     1 <1>   0.1500 
 34 H       -5.2960    -6.6960    -0.9070 H     1 <1>   0.4570 
 35 H       -4.1040    -8.6880    -0.3590 H     1 <1>   0.1500 
 36 H       -5.9050    -3.1190    -1.3930 H     1 <1>   0.0800 
 37 H       -6.7430    -4.4520    -0.6510 H     1 <1>   0.0800 
 38 H       -6.1790    -4.5750    -2.3060 H     1 <1>   0.0800 
 39 H       -2.0530    -9.7420     0.4230 H     1 <1>   0.1500 
@<TRIPOS>BOND
  1   1   2  2   
  2   1   3  2   
  3   1   4  1   
  4   1   5  1   
  5   4   6  1   
  6   4  24  1   
  7   4  25  1   
  8   5   7  1   
  9   5  26  1   
 10   5  27  1   
 11   6   7  1   
 12   6   8  1   
 13   6  28  1   
 14   7  29  1   
 15   7  30  1   
 16   8   9  1   
 17   8  31  1   
 18   9  10  ar  
 19   9  11  ar  
 20  10  12  ar  
 21  10  13  ar  
 22  11  14  ar  
 23  11  32  1   
 24  12  15  ar  
 25  12  16  ar  
 26  13  17  ar  
 27  13  33  1   
 28  14  15  ar  
 29  14  18  1   
 30  15  34  1   
 31  16  19  ar  
 32  16  35  1   
 33  17  19  ar  
 34  17  20  1   
 35  18  36  1   
 36  18  37  1   
 37  18  38  1   
 38  19  39  1   
 39  20  21  1   
 40  20  22  1   
 41  20  23  1   
@<TRIPOS>SUBSTRUCTURE
  1 ****   9 GROUP 4 **** **** 0

# MOE 2024.06 (io_trps.svl 2023.06)
