@<TRIPOS>MOLECULE
NONAME
56 59 1 0 0 
SMALL
USER_CHARGES


@<TRIPOS>ATOM
  1 O       -0.3690     2.2350    -1.6120 O.3   1 <1>  -0.3630 
  2 C       -0.8410     3.2850    -0.8990 C.ar  1 <1>   0.0830 
  3 C       -0.1310     0.9810    -1.0120 C.3   1 <1>   0.0400 
  4 C       -0.9130     4.5030    -1.5550 C.ar  1 <1>  -0.1500 
  5 C       -1.2460     3.2030     0.4300 C.ar  1 <1>  -0.1500 
  6 C       -1.3920     5.6230    -0.9030 C.ar  1 <1>  -0.1500 
  7 C       -1.7250     4.3270     1.0760 C.ar  1 <1>  -0.1500 
  8 C       -1.8180     5.5500     0.4200 C.ar  1 <1>   0.0530 
  9 C       -2.3750     6.7010     1.0740 C.2   1 <1>  -0.2050 
 10 N       -1.7200     7.8710     1.2690 N.pl3 1 <1>   0.3000 
 11 C       -3.6160     6.8910     1.5960 C.2   1 <1>  -0.1810 
 12 N       -2.4930     8.7920     1.8730 N.2   1 <1>  -0.7070 
 13 C       -3.6260     8.1940     2.0690 C.2   1 <1>   0.1390 
 14 C       -4.7790     5.9290     1.6500 C.3   1 <1>   0.5240 
 15 N       -5.5300     6.0640     0.3870 N.4   1 <1>  -0.9590 
 16 C       -6.9540     5.6600     0.4860 C.3   1 <1>   0.3430 
 17 C       -4.8260     5.4800    -0.7950 C.3   1 <1>   0.3430 
 18 C       -7.7300     6.3170    -0.6800 C.3   1 <1>   0.0000 
 19 C       -5.8010     5.1910    -1.9470 C.3   1 <1>  -0.1600 
 20 C       -8.0650     7.7810    -0.3330 C.3   1 <1>   0.2000 
 21 C       -6.9470     6.2160    -2.0200 C.3   1 <1>  -0.1600 
 22 C       -9.1260     5.6840    -0.7580 C.3   1 <1>  -0.1600 
 23 O       -6.9720     8.4010     0.2880 O.3   1 <1>  -0.5600 
 24 C       -9.2790     7.7210     0.5990 C.3   1 <1>  -0.1600 
 25 C       -9.9330     6.3520     0.3610 C.3   1 <1>  -0.1600 
 26 C       -7.0440     9.7950     0.3330 C.3   1 <1>   0.0400 
 27 H        0.2810     0.3270    -1.7590 H     1 <1>   0.0800 
 28 H       -1.0620     0.5810    -0.6520 H     1 <1>   0.0800 
 29 H        0.5730     1.1050    -0.2080 H     1 <1>   0.0800 
 30 H       -0.5860     4.5600    -2.5790 H     1 <1>   0.1500 
 31 H       -1.1890     2.2760     0.9690 H     1 <1>   0.1500 
 32 H       -1.4390     6.5600    -1.4300 H     1 <1>   0.1500 
 33 H       -2.0240     4.2580     2.1070 H     1 <1>   0.1500 
 34 H       -0.7450     8.0600     1.0020 H     1 <1>   0.2700 
 35 H       -4.4640     8.6800     2.5450 H     1 <1>   0.1500 
 36 H       -5.4090     6.1810     2.4870 H     1 <1>   0.0800 
 37 H       -4.4250     4.9190     1.7690 H     1 <1>   0.0800 
 38 H       -5.6050     7.0880     0.2240 H     1 <1>   0.4500 
 39 H       -7.0350     4.5880     0.4270 H     1 <1>   0.0800 
 40 H       -7.3750     5.9900     1.4220 H     1 <1>   0.0800 
 41 H       -4.0750     6.1780    -1.1290 H     1 <1>   0.0800 
 42 H       -4.3240     4.5670    -0.5190 H     1 <1>   0.0800 
 43 H       -5.2540     5.1860    -2.8740 H     1 <1>   0.0800 
 44 H       -6.2100     4.2040    -1.8210 H     1 <1>   0.0800 
 45 H       -8.3180     8.3180    -1.2340 H     1 <1>   0.0800 
 46 H       -7.6050     5.9660    -2.8340 H     1 <1>   0.0800 
 47 H       -6.5130     7.1740    -2.2540 H     1 <1>   0.0800 
 48 H       -9.5890     5.9320    -1.6990 H     1 <1>   0.0800 
 49 H       -9.1080     4.6120    -0.6610 H     1 <1>   0.0800 
 50 H       -8.9810     7.8110     1.6290 H     1 <1>   0.0800 
 51 H       -9.9680     8.5120     0.3580 H     1 <1>   0.0800 
 52 H       -9.8810     5.7620     1.2610 H     1 <1>   0.0800 
 53 H      -10.9680     6.4530     0.0810 H     1 <1>   0.0800 
 54 H       -6.1530    10.1660     0.8100 H     1 <1>   0.0800 
 55 H       -7.9080    10.0960     0.9010 H     1 <1>   0.0800 
 56 H       -7.1010    10.1840    -0.6700 H     1 <1>   0.0800 
@<TRIPOS>BOND
  1   1   2  1   
  2   1   3  1   
  3   2   4  ar  
  4   2   5  ar  
  5   3  27  1   
  6   3  28  1   
  7   3  29  1   
  8   4   6  ar  
  9   4  30  1   
 10   5   7  ar  
 11   5  31  1   
 12   6   8  ar  
 13   6  32  1   
 14   7   8  ar  
 15   7  33  1   
 16   8   9  1   
 17   9  10  1   
 18   9  11  2   
 19  10  12  1   
 20  10  34  1   
 21  11  13  1   
 22  11  14  1   
 23  12  13  2   
 24  13  35  1   
 25  14  15  1   
 26  14  36  1   
 27  14  37  1   
 28  15  16  1   
 29  15  17  1   
 30  15  38  1   
 31  16  18  1   
 32  16  39  1   
 33  16  40  1   
 34  17  19  1   
 35  17  41  1   
 36  17  42  1   
 37  18  20  1   
 38  18  21  1   
 39  18  22  1   
 40  19  21  1   
 41  19  43  1   
 42  19  44  1   
 43  20  23  1   
 44  20  24  1   
 45  20  45  1   
 46  21  46  1   
 47  21  47  1   
 48  22  25  1   
 49  22  48  1   
 50  22  49  1   
 51  23  26  1   
 52  24  25  1   
 53  24  50  1   
 54  24  51  1   
 55  25  52  1   
 56  25  53  1   
 57  26  54  1   
 58  26  55  1   
 59  26  56  1   
@<TRIPOS>SUBSTRUCTURE
  1 ****  17 GROUP 4 **** **** 0

# MOE 2024.06 (io_trps.svl 2023.06)
