@<TRIPOS>MOLECULE
NONAME
42 44 1 0 0 
SMALL
USER_CHARGES


@<TRIPOS>ATOM
  1 S        2.4900    -0.7210    -0.6910 S.3   1 <1>  -0.0800 
  2 C        1.0920    -1.4240     0.0910 C.2   1 <1>   0.1980 
  3 C        2.6280     0.4010     0.6310 C.2   1 <1>  -0.1100 
  4 N        0.7750    -0.8810     1.2020 N.2   1 <1>  -0.5650 
  5 C        0.4060    -2.5910    -0.6060 C.3   1 <1>   0.5230 
  6 C        1.6460     0.1560     1.5120 C.2   1 <1>   0.0770 
  7 N       -0.8970    -2.8790     0.0770 N.4   1 <1>  -0.9590 
  8 C       -1.2820    -4.3170    -0.0690 C.3   1 <1>   0.3430 
  9 C       -1.9440    -1.8990    -0.3460 C.3   1 <1>   0.2630 
 10 C       -2.4540    -4.7160     0.8420 C.3   1 <1>  -0.0800 
 11 C       -2.3480    -6.2160     1.0680 C.3   1 <1>   0.2090 
 12 C       -3.8140    -4.6090     0.1330 C.3   1 <1>  -0.1600 
 13 N       -2.8500    -6.7710    -0.2010 N.pl3 1 <1>  -0.8380 
 14 C       -3.9250    -5.8820    -0.7090 C.3   1 <1>   0.2090 
 15 C       -3.1140    -8.1370    -0.2130 C.ar  1 <1>   0.1000 
 16 C       -2.3640    -8.9670    -1.0360 C.ar  1 <1>  -0.1500 
 17 C       -4.1080    -8.7060     0.5780 C.ar  1 <1>  -0.1500 
 18 C       -2.5940   -10.3300    -1.0690 C.ar  1 <1>  -0.1500 
 19 C       -4.3420   -10.0680     0.5480 C.ar  1 <1>  -0.1500 
 20 C       -3.5850   -10.8840    -0.2760 C.ar  1 <1>  -0.1500 
 21 H        3.4270     1.1210     0.6080 H     1 <1>   0.1500 
 22 H        1.0550    -3.4480    -0.5450 H     1 <1>   0.0800 
 23 H        0.2430    -2.3560    -1.6440 H     1 <1>   0.0800 
 24 H        1.4840     0.6960     2.4310 H     1 <1>   0.1500 
 25 H       -0.6920    -2.6790     1.0720 H     1 <1>   0.4500 
 26 H       -0.4340    -4.9290     0.1920 H     1 <1>   0.0800 
 27 H       -1.5350    -4.5420    -1.0930 H     1 <1>   0.0800 
 28 H       -2.2020    -2.0450    -1.3820 H     1 <1>   0.0800 
 29 H       -1.5840    -0.8900    -0.2150 H     1 <1>   0.0800 
 30 H       -2.8310    -2.0190     0.2540 H     1 <1>   0.0800 
 31 H       -2.4210    -4.1940     1.7810 H     1 <1>   0.0800 
 32 H       -2.9820    -6.5250     1.8830 H     1 <1>   0.0800 
 33 H       -1.3400    -6.5460     1.2590 H     1 <1>   0.0800 
 34 H       -3.9310    -3.7350    -0.4780 H     1 <1>   0.0800 
 35 H       -4.6040    -4.6190     0.8640 H     1 <1>   0.0800 
 36 H       -3.7450    -5.6760    -1.7500 H     1 <1>   0.0800 
 37 H       -4.8950    -6.3410    -0.6040 H     1 <1>   0.0800 
 38 H       -1.5980    -8.5320    -1.6500 H     1 <1>   0.1500 
 39 H       -4.6990    -8.0790     1.2170 H     1 <1>   0.1500 
 40 H       -2.0050   -10.9600    -1.7120 H     1 <1>   0.1500 
 41 H       -5.1130   -10.4970     1.1650 H     1 <1>   0.1500 
 42 H       -3.7660   -11.9440    -0.3010 H     1 <1>   0.1500 
@<TRIPOS>BOND
  1   1   2  1   
  2   1   3  1   
  3   2   4  2   
  4   2   5  1   
  5   3   6  2   
  6   3  21  1   
  7   4   6  1   
  8   5   7  1   
  9   5  22  1   
 10   5  23  1   
 11   6  24  1   
 12   7   8  1   
 13   7   9  1   
 14   7  25  1   
 15   8  10  1   
 16   8  26  1   
 17   8  27  1   
 18   9  28  1   
 19   9  29  1   
 20   9  30  1   
 21  10  11  1   
 22  10  12  1   
 23  10  31  1   
 24  11  13  1   
 25  11  32  1   
 26  11  33  1   
 27  12  14  1   
 28  12  34  1   
 29  12  35  1   
 30  13  14  1   
 31  13  15  1   
 32  14  36  1   
 33  14  37  1   
 34  15  16  ar  
 35  15  17  ar  
 36  16  18  ar  
 37  16  38  1   
 38  17  19  ar  
 39  17  39  1   
 40  18  20  ar  
 41  18  40  1   
 42  19  20  ar  
 43  19  41  1   
 44  20  42  1   
@<TRIPOS>SUBSTRUCTURE
  1 ****   8 GROUP 4 **** **** 0

# MOE 2024.06 (io_trps.svl 2023.06)
