@<TRIPOS>MOLECULE
NONAME
36 37 1 0 0 
SMALL
USER_CHARGES


@<TRIPOS>ATOM
  1 O        0.1340    -0.1470    -0.7520 O.2   1 <1>  -0.5700 
  2 C        1.1200    -0.5570    -0.1690 C.2   1 <1>   0.7150 
  3 N        1.9980     0.3480     0.3290 N.am  1 <1>  -0.7300 
  4 C        1.3910    -1.9620     0.0050 C.2   1 <1>  -0.2370 
  5 C        1.9600     1.7850     0.0630 C.3   1 <1>   0.4010 
  6 N        0.6240    -2.9840    -0.5070 N.pl3 1 <1>   0.0480 
  7 C        2.4310    -2.5420     0.6920 C.2   1 <1>  -0.1500 
  8 C        3.3970     2.2740     0.0770 C.2   1 <1>  -0.1810 
  9 C        1.0850     2.4740     1.1200 C.3   1 <1>  -0.1600 
 10 C        1.1870    -4.1600    -0.1410 C.2   1 <1>  -0.3020 
 11 C       -0.6050    -2.8740    -1.3190 C.3   1 <1>   0.0160 
 12 C        2.3020    -3.9230     0.5980 C.2   1 <1>  -0.1500 
 13 C        4.2220     2.4050     1.1900 C.2   1 <1>   0.1390 
 14 C        4.1690     2.6680    -0.9600 C.2   1 <1>  -0.3020 
 15 C        0.9930     3.9960     0.9240 C.3   1 <1>  -0.2400 
 16 N        5.4040     2.8390     0.8780 N.2   1 <1>  -0.7070 
 17 N        5.3710     3.0040    -0.4540 N.pl3 1 <1>   0.3140 
 18 C        6.5360     3.4960    -1.1960 C.3   1 <1>   0.0160 
 19 H        2.9000     0.0090     0.6530 H     1 <1>   0.3700 
 20 H        1.5390     1.9550    -0.9150 H     1 <1>   0.0800 
 21 H        3.2250    -2.0480     1.2230 H     1 <1>   0.1500 
 22 H        1.4720     2.2670     2.1010 H     1 <1>   0.0800 
 23 H        0.0920     2.0620     1.0590 H     1 <1>   0.0800 
 24 H        0.7730    -5.1130    -0.4200 H     1 <1>   0.1500 
 25 H       -0.3890    -2.3220    -2.2150 H     1 <1>   0.0800 
 26 H       -1.3570    -2.3560    -0.7530 H     1 <1>   0.0800 
 27 H       -0.9600    -3.8540    -1.5770 H     1 <1>   0.0800 
 28 H        2.9680    -4.6470     1.0350 H     1 <1>   0.1500 
 29 H        3.9270     2.1770     2.2010 H     1 <1>   0.1500 
 30 H        3.9340     2.7260    -2.0060 H     1 <1>   0.1500 
 31 H        1.9620     4.4530     1.0230 H     1 <1>   0.0800 
 32 H        0.3390     4.4220     1.6640 H     1 <1>   0.0800 
 33 H        0.6000     4.2250    -0.0510 H     1 <1>   0.0800 
 34 H        6.4330     3.2470    -2.2350 H     1 <1>   0.0800 
 35 H        7.4210     3.0350    -0.7980 H     1 <1>   0.0800 
 36 H        6.6000     4.5610    -1.0770 H     1 <1>   0.0800 
@<TRIPOS>BOND
  1   1   2  2   
  2   2   3  am  
  3   2   4  1   
  4   3   5  1   
  5   3  19  1   
  6   4   6  1   
  7   4   7  2   
  8   5   8  1   
  9   5   9  1   
 10   5  20  1   
 11   6  10  1   
 12   6  11  1   
 13   7  12  1   
 14   7  21  1   
 15   8  13  1   
 16   8  14  2   
 17   9  15  1   
 18   9  22  1   
 19   9  23  1   
 20  10  12  2   
 21  10  24  1   
 22  11  25  1   
 23  11  26  1   
 24  11  27  1   
 25  12  28  1   
 26  13  16  2   
 27  13  29  1   
 28  14  17  1   
 29  14  30  1   
 30  15  31  1   
 31  15  32  1   
 32  15  33  1   
 33  16  17  1   
 34  17  18  1   
 35  18  34  1   
 36  18  35  1   
 37  18  36  1   
@<TRIPOS>SUBSTRUCTURE
  1 ****   3 GROUP 4 **** **** 0

# MOE 2024.06 (io_trps.svl 2023.06)
