@<TRIPOS>MOLECULE
NONAME
62 66 1 0 0 
SMALL
USER_CHARGES


@<TRIPOS>ATOM
  1 O        0.9170     0.0800     1.2260 O.2   1 <1>  -0.5700 
  2 C        1.6360    -0.5200     0.4500 C.2   1 <1>   0.5440 
  3 N        1.1970    -1.7250    -0.0610 N.am  1 <1>  -0.6600 
  4 C        2.9220     0.0410     0.1060 C.ar  1 <1>   0.0860 
  5 C       -0.2330    -2.1510     0.0430 C.3   1 <1>   0.1400 
  6 C        2.1060    -2.8330    -0.4810 C.3   1 <1>   0.1400 
  7 C        3.7050     0.6560     1.0810 C.ar  1 <1>   0.1600 
  8 C        3.4380     0.0150    -1.1870 C.ar  1 <1>  -0.1500 
  9 C       -0.3530    -3.4510     0.8550 C.3   1 <1>   0.1200 
 10 C        1.8420    -4.1000     0.3520 C.3   1 <1>   0.1200 
 11 N        4.9000     1.1930     0.8990 N.ar  1 <1>  -0.6200 
 12 C        4.6740     0.5740    -1.3990 C.ar  1 <1>  -0.1500 
 13 O        0.4850    -4.4390     0.3250 O.3   1 <1>  -0.5600 
 14 C        5.3710     1.1520    -0.3430 C.ar  1 <1>   0.4100 
 15 N        6.6050     1.7100    -0.5580 N.pl3 1 <1>  -0.8380 
 16 C        6.7040     3.1920    -0.3160 C.3   1 <1>   0.2890 
 17 C        7.7190     0.8410    -0.0990 C.3   1 <1>   0.2090 
 18 C        8.1240     3.7610    -0.5710 C.3   1 <1>  -0.0800 
 19 C        5.6360     3.9000    -1.1850 C.3   1 <1>  -0.1600 
 20 C        9.0740     1.4260    -0.4750 C.3   1 <1>  -0.1600 
 21 C        9.2280     2.8650     0.0240 C.3   1 <1>   0.4240 
 22 C        8.3040     4.0990    -2.0710 C.3   1 <1>  -0.1600 
 23 C        6.0620     5.2950    -1.6610 C.3   1 <1>  -0.1600 
 24 O        9.0240     2.8210     1.3950 O.3   1 <1>  -0.6800 
 25 C       10.6350     3.4590    -0.2120 C.ar  1 <1>  -0.1440 
 26 C        7.3410     5.2170    -2.5130 C.3   1 <1>  -0.1600 
 27 C       11.5080     2.9650    -1.1800 C.ar  1 <1>  -0.1500 
 28 C       11.0580     4.5460     0.5470 C.ar  1 <1>  -0.1500 
 29 C       12.7540     3.5360    -1.3760 C.ar  1 <1>  -0.1500 
 30 C       12.3020     5.1190     0.3540 C.ar  1 <1>  -0.1500 
 31 C       13.1540     4.6140    -0.6090 C.ar  1 <1>  -0.1500 
 32 H       -0.8290    -1.3850     0.5080 H     1 <1>   0.0800 
 33 H       -0.6240    -2.3160    -0.9450 H     1 <1>   0.0800 
 34 H        1.9390    -3.0540    -1.5210 H     1 <1>   0.0800 
 35 H        3.1360    -2.5490    -0.3590 H     1 <1>   0.0800 
 36 H        3.3040     0.6990     2.0800 H     1 <1>   0.1500 
 37 H        2.8750    -0.4250    -1.9910 H     1 <1>   0.1500 
 38 H       -1.3630    -3.8200     0.8170 H     1 <1>   0.0800 
 39 H       -0.0840    -3.2790     1.8830 H     1 <1>   0.0800 
 40 H        2.1390    -3.9490     1.3750 H     1 <1>   0.0800 
 41 H        2.3960    -4.9310    -0.0490 H     1 <1>   0.0800 
 42 H        5.1250     0.5870    -2.3740 H     1 <1>   0.1500 
 43 H        6.4640     3.3780     0.7180 H     1 <1>   0.0800 
 44 H        7.6500     0.7060     0.9680 H     1 <1>   0.0800 
 45 H        7.6160    -0.1300    -0.5530 H     1 <1>   0.0800 
 46 H        8.1970     4.6990    -0.0500 H     1 <1>   0.0800 
 47 H        5.4400     3.3110    -2.0640 H     1 <1>   0.0800 
 48 H        4.7220     3.9730    -0.6240 H     1 <1>   0.0800 
 49 H        9.1620     1.3910    -1.5430 H     1 <1>   0.0800 
 50 H        9.8570     0.8180    -0.0590 H     1 <1>   0.0800 
 51 H        9.3110     4.4130    -2.2820 H     1 <1>   0.0800 
 52 H        8.1070     3.2150    -2.6530 H     1 <1>   0.0800 
 53 H        5.2720     5.7470    -2.2350 H     1 <1>   0.0800 
 54 H        6.2370     5.9210    -0.8020 H     1 <1>   0.0800 
 55 H        8.1280     2.4740     1.5600 H     1 <1>   0.4000 
 56 H        7.8450     6.1670    -2.4600 H     1 <1>   0.0800 
 57 H        7.0760     5.0520    -3.5440 H     1 <1>   0.0800 
 58 H       11.2370     2.1340    -1.8020 H     1 <1>   0.1500 
 59 H       10.4110     4.9530     1.3050 H     1 <1>   0.1500 
 60 H       13.4150     3.1390    -2.1270 H     1 <1>   0.1500 
 61 H       12.6060     5.9570     0.9570 H     1 <1>   0.1500 
 62 H       14.1220     5.0570    -0.7610 H     1 <1>   0.1500 
@<TRIPOS>BOND
  1   1   2  2   
  2   2   3  am  
  3   2   4  1   
  4   3   5  1   
  5   3   6  1   
  6   4   7  ar  
  7   4   8  ar  
  8   5   9  1   
  9   5  32  1   
 10   5  33  1   
 11   6  10  1   
 12   6  34  1   
 13   6  35  1   
 14   7  11  ar  
 15   7  36  1   
 16   8  12  ar  
 17   8  37  1   
 18   9  13  1   
 19   9  38  1   
 20   9  39  1   
 21  10  13  1   
 22  10  40  1   
 23  10  41  1   
 24  11  14  ar  
 25  12  14  ar  
 26  12  42  1   
 27  14  15  1   
 28  15  16  1   
 29  15  17  1   
 30  16  18  1   
 31  16  19  1   
 32  16  43  1   
 33  17  20  1   
 34  17  44  1   
 35  17  45  1   
 36  18  21  1   
 37  18  22  1   
 38  18  46  1   
 39  19  23  1   
 40  19  47  1   
 41  19  48  1   
 42  20  21  1   
 43  20  49  1   
 44  20  50  1   
 45  21  24  1   
 46  21  25  1   
 47  22  26  1   
 48  22  51  1   
 49  22  52  1   
 50  23  26  1   
 51  23  53  1   
 52  23  54  1   
 53  24  55  1   
 54  25  27  ar  
 55  25  28  ar  
 56  26  56  1   
 57  26  57  1   
 58  27  29  ar  
 59  27  58  1   
 60  28  30  ar  
 61  28  59  1   
 62  29  31  ar  
 63  29  60  1   
 64  30  31  ar  
 65  30  61  1   
 66  31  62  1   
@<TRIPOS>SUBSTRUCTURE
  1 ****  15 GROUP 4 **** **** 0

# MOE 2024.06 (io_trps.svl 2023.06)
