@<TRIPOS>MOLECULE
NONAME
47 48 1 0 0 
SMALL
USER_CHARGES


@<TRIPOS>ATOM
  1 S        1.3100     1.2100    -0.9510 S.o2  1 <1>   1.3330 
  2 O        2.0370    -0.0330    -1.0650 O.2   1 <1>  -0.6500 
  3 O        0.9450     1.9190    -2.1570 O.2   1 <1>  -0.6500 
  4 N        2.2600     2.2490    -0.0070 N.am  1 <1>  -0.8490 
  5 C       -0.1940     0.8850    -0.0080 C.3   1 <1>  -0.0550 
  6 C        2.8830     1.6000     1.1520 C.3   1 <1>   0.1160 
  7 C        3.2950     2.9210    -0.7980 C.3   1 <1>   0.1160 
  8 C       -1.1230     2.0500     0.4270 C.3   1 <1>  -0.0800 
  9 C       -1.4710     3.0560    -0.6770 C.3   1 <1>   0.2000 
 10 C       -0.5490     2.9080     1.5590 C.3   1 <1>   0.1400 
 11 O       -2.7450     3.5340    -0.4140 O.3   1 <1>  -0.6800 
 12 C       -0.4860     4.2150    -0.4980 C.3   1 <1>   0.1400 
 13 N       -0.0600     4.1510     0.9250 N.am  1 <1>  -0.6600 
 14 C        0.9440     4.8860     1.4930 C.2   1 <1>   0.5690 
 15 O        1.3140     4.6720     2.6240 O.2   1 <1>  -0.5700 
 16 C        1.6020     6.0040     0.6970 C.3   1 <1>  -0.0990 
 17 C        2.9060     6.5160     1.3260 C.3   1 <1>  -0.0170 
 18 C        3.5260     7.6080     0.4620 C.ar  1 <1>  -0.1440 
 19 C        4.3270     7.3080    -0.6360 C.ar  1 <1>   0.1900 
 20 C        3.2930     8.9450     0.7620 C.ar  1 <1>  -0.1500 
 21 F        4.5560     6.0580    -0.9440 F     1 <1>  -0.1900 
 22 C        4.8980     8.2800    -1.4340 C.ar  1 <1>  -0.1500 
 23 C        3.8520     9.9460    -0.0200 C.ar  1 <1>  -0.1500 
 24 C        4.6420     9.5950    -1.1000 C.ar  1 <1>   0.1900 
 25 F        5.1640    10.5420    -1.8320 F     1 <1>  -0.1900 
 26 H       -0.7910     0.2220    -0.6040 H     1 <1>   0.0800 
 27 H        0.0740     0.3320     0.8710 H     1 <1>   0.0800 
 28 H        3.3790     2.3370     1.7610 H     1 <1>   0.0800 
 29 H        3.6020     0.8640     0.8310 H     1 <1>   0.0800 
 30 H        2.1370     1.1150     1.7560 H     1 <1>   0.0800 
 31 H        3.8660     3.5870    -0.1760 H     1 <1>   0.0800 
 32 H        2.8420     3.5010    -1.5850 H     1 <1>   0.0800 
 33 H        3.9570     2.1960    -1.2420 H     1 <1>   0.0800 
 34 H       -2.0250     1.5830     0.7840 H     1 <1>   0.0800 
 35 H       -1.4680     2.6420    -1.6710 H     1 <1>   0.0800 
 36 H        0.2450     2.4080     2.0870 H     1 <1>   0.0800 
 37 H       -1.3230     3.1650     2.2620 H     1 <1>   0.0800 
 38 H       -2.7260     4.0600     0.4100 H     1 <1>   0.4000 
 39 H       -0.9420     5.1610    -0.7310 H     1 <1>   0.0800 
 40 H        0.3700     4.0730    -1.1320 H     1 <1>   0.0800 
 41 H        1.8220     5.6460    -0.2890 H     1 <1>   0.0800 
 42 H        0.9030     6.8150     0.6140 H     1 <1>   0.0800 
 43 H        3.5980     5.7000     1.4400 H     1 <1>   0.0800 
 44 H        2.7030     6.9020     2.3110 H     1 <1>   0.0800 
 45 H        2.6780     9.2130     1.6050 H     1 <1>   0.1500 
 46 H        5.5130     8.0270    -2.2760 H     1 <1>   0.1500 
 47 H        3.6790    10.9840     0.2030 H     1 <1>   0.1500 
@<TRIPOS>BOND
  1   1   2  2   
  2   1   3  2   
  3   1   4  am  
  4   1   5  1   
  5   4   6  1   
  6   4   7  1   
  7   5   8  1   
  8   5  26  1   
  9   5  27  1   
 10   6  28  1   
 11   6  29  1   
 12   6  30  1   
 13   7  31  1   
 14   7  32  1   
 15   7  33  1   
 16   8   9  1   
 17   8  10  1   
 18   8  34  1   
 19   9  11  1   
 20   9  12  1   
 21   9  35  1   
 22  10  13  1   
 23  10  36  1   
 24  10  37  1   
 25  11  38  1   
 26  12  13  1   
 27  12  39  1   
 28  12  40  1   
 29  13  14  am  
 30  14  15  2   
 31  14  16  1   
 32  16  17  1   
 33  16  41  1   
 34  16  42  1   
 35  17  18  1   
 36  17  43  1   
 37  17  44  1   
 38  18  19  ar  
 39  18  20  ar  
 40  19  21  1   
 41  19  22  ar  
 42  20  23  ar  
 43  20  45  1   
 44  22  24  ar  
 45  22  46  1   
 46  23  24  ar  
 47  23  47  1   
 48  24  25  1   
@<TRIPOS>SUBSTRUCTURE
  1 ****  16 GROUP 4 **** **** 0

# MOE 2024.06 (io_trps.svl 2023.06)
