@<TRIPOS>MOLECULE
NONAME
50 52 1 0 0 
SMALL
USER_CHARGES


@<TRIPOS>ATOM
  1 F       -2.2760    -1.7610     3.1200 F     1 <1>  -0.1900 
  2 C       -2.7460    -1.6470     1.9060 C.ar  1 <1>   0.1900 
  3 C       -2.8290    -2.7740     1.1100 C.ar  1 <1>  -0.1500 
  4 C       -3.1500    -0.4000     1.4680 C.ar  1 <1>  -0.1500 
  5 C       -3.3420    -2.6620    -0.1740 C.ar  1 <1>  -0.1440 
  6 C       -3.6490    -0.2840     0.1820 C.ar  1 <1>  -0.1500 
  7 C       -3.7350    -1.4040    -0.6350 C.ar  1 <1>   0.0830 
  8 C       -3.4750    -3.9180    -1.0390 C.3   1 <1>   0.2280 
  9 O       -4.2210    -1.2410    -1.8840 O.3   1 <1>  -0.3630 
 10 N       -4.4230    -4.8720    -0.3430 N.3   1 <1>  -0.8100 
 11 C       -2.0840    -4.4620    -1.4810 C.2   1 <1>   0.9060 
 12 C       -3.2460    -1.0890    -2.8950 C.3   1 <1>   0.0400 
 13 C       -4.3100    -6.2300    -0.9010 C.3   1 <1>   0.1100 
 14 C       -5.8020    -4.3700    -0.3840 C.3   1 <1>   0.1100 
 15 O       -1.7680    -4.3380    -2.6730 O.co2 1 <1>  -0.9000 
 16 O       -1.3610    -5.0850    -0.6870 O.co2 1 <1>  -0.9000 
 17 C       -5.2500    -7.2010    -0.1730 C.3   1 <1>   0.3430 
 18 C       -6.7500    -5.3290     0.3550 C.3   1 <1>   0.3430 
 19 N       -6.6870    -6.7330    -0.1980 N.4   1 <1>  -0.9590 
 20 C       -7.6200    -7.6780     0.4840 C.3   1 <1>   0.4230 
 21 C       -7.5180    -9.0740    -0.1490 C.3   1 <1>  -0.1600 
 22 C       -9.0620    -7.1540     0.3960 C.3   1 <1>  -0.1600 
 23 C       -8.6270    -9.9930     0.3660 C.3   1 <1>   0.1200 
 24 C      -10.0600    -8.2100     0.8720 C.3   1 <1>   0.1200 
 25 O       -9.8460    -9.3710     0.1420 O.3   1 <1>  -0.5600 
 26 H       -2.4970    -3.7300     1.4790 H     1 <1>   0.1500 
 27 H       -3.0720     0.4520     2.1180 H     1 <1>   0.1500 
 28 H       -3.9710     0.6690    -0.1970 H     1 <1>   0.1500 
 29 H       -3.9410    -3.6440    -1.9650 H     1 <1>   0.0800 
 30 H       -3.7480    -1.0110    -3.8420 H     1 <1>   0.0800 
 31 H       -2.5930    -1.9440    -2.8980 H     1 <1>   0.0800 
 32 H       -2.6790    -0.1960    -2.7000 H     1 <1>   0.0800 
 33 H       -3.3050    -6.5940    -0.7690 H     1 <1>   0.0800 
 34 H       -4.5210    -6.2190    -1.9570 H     1 <1>   0.0800 
 35 H       -6.1210    -4.2450    -1.4040 H     1 <1>   0.0800 
 36 H       -5.8440    -3.4060     0.0950 H     1 <1>   0.0800 
 37 H       -4.9120    -7.2880     0.8470 H     1 <1>   0.0800 
 38 H       -5.1610    -8.1670    -0.6390 H     1 <1>   0.0800 
 39 H       -7.7510    -4.9420     0.2760 H     1 <1>   0.0800 
 40 H       -6.4740    -5.3360     1.3960 H     1 <1>   0.0800 
 41 H       -6.9570    -6.6770    -1.1860 H     1 <1>   0.4500 
 42 H       -7.3510    -7.7570     1.5260 H     1 <1>   0.0800 
 43 H       -6.5780    -9.5350     0.0920 H     1 <1>   0.0800 
 44 H       -7.6110    -9.0090    -1.2180 H     1 <1>   0.0800 
 45 H       -9.3070    -6.9000    -0.6200 H     1 <1>   0.0800 
 46 H       -9.1900    -6.2840     1.0130 H     1 <1>   0.0800 
 47 H       -8.5280   -10.2000     1.4190 H     1 <1>   0.0800 
 48 H       -8.6310   -10.9250    -0.1730 H     1 <1>   0.0800 
 49 H      -11.0720    -7.8890     0.6870 H     1 <1>   0.0800 
 50 H       -9.9500    -8.4310     1.9210 H     1 <1>   0.0800 
@<TRIPOS>BOND
  1   1   2  1   
  2   2   3  ar  
  3   2   4  ar  
  4   3   5  ar  
  5   3  26  1   
  6   4   6  ar  
  7   4  27  1   
  8   5   7  ar  
  9   5   8  1   
 10   6   7  ar  
 11   6  28  1   
 12   7   9  1   
 13   8  10  1   
 14   8  11  1   
 15   8  29  1   
 16   9  12  1   
 17  10  13  1   
 18  10  14  1   
 19  11  15  ar  
 20  11  16  ar  
 21  12  30  1   
 22  12  31  1   
 23  12  32  1   
 24  13  17  1   
 25  13  33  1   
 26  13  34  1   
 27  14  18  1   
 28  14  35  1   
 29  14  36  1   
 30  17  19  1   
 31  17  37  1   
 32  17  38  1   
 33  18  19  1   
 34  18  39  1   
 35  18  40  1   
 36  19  20  1   
 37  19  41  1   
 38  20  21  1   
 39  20  22  1   
 40  20  42  1   
 41  21  23  1   
 42  21  43  1   
 43  21  44  1   
 44  22  24  1   
 45  22  45  1   
 46  22  46  1   
 47  23  25  1   
 48  23  47  1   
 49  23  48  1   
 50  24  25  1   
 51  24  49  1   
 52  24  50  1   
@<TRIPOS>SUBSTRUCTURE
  1 ****  10 GROUP 4 **** **** 0

# MOE 2024.06 (io_trps.svl 2023.06)
