@<TRIPOS>MOLECULE
NONAME
55 57 1 0 0 
SMALL
USER_CHARGES


@<TRIPOS>ATOM
  1 O       -1.0640    -0.0210     2.8630 O.2   1 <1>  -0.5700 
  2 C       -1.4730     0.5770     1.8950 C.2   1 <1>   0.5690 
  3 N       -1.9670    -0.0830     0.7990 N.am  1 <1>  -0.6600 
  4 C       -1.4240     2.1000     1.9510 C.3   1 <1>   0.0820 
  5 C       -1.9690    -1.5860     0.7540 C.3   1 <1>   0.3640 
  6 C       -2.5270     0.6140    -0.4030 C.3   1 <1>   0.1400 
  7 C       -0.5390     2.7180     0.8720 C.2   1 <1>  -0.1810 
  8 C       -0.7320    -2.1440     0.0290 C.ar  1 <1>  -0.1440 
  9 C       -3.2850    -2.1510     0.1270 C.3   1 <1>   0.2000 
 10 C       -3.1400    -0.3620    -1.4170 C.3   1 <1>   0.1200 
 11 C        0.7970     2.3960     0.6300 C.2   1 <1>   0.1080 
 12 C       -0.8370     3.6660    -0.0470 C.2   1 <1>  -0.3320 
 13 C       -0.4670    -3.5030     0.1570 C.ar  1 <1>  -0.1500 
 14 C        0.1390    -1.3730    -0.7370 C.ar  1 <1>  -0.1500 
 15 O       -3.9560    -1.2680    -0.7460 O.3   1 <1>  -0.5600 
 16 C       -4.2960    -2.5450     1.2100 C.3   1 <1>   0.1200 
 17 N        1.2890     3.0680    -0.3610 N.2   1 <1>  -0.7070 
 18 C        1.6260     1.3940     1.4050 C.3   1 <1>  -0.0590 
 19 N        0.2850     3.8580    -0.7740 N.pl3 1 <1>   0.3000 
 20 C       -2.1210     4.4370    -0.3070 C.3   1 <1>  -0.0600 
 21 C        0.6160    -4.0910    -0.4730 C.ar  1 <1>   0.0830 
 22 C        1.2370    -1.9450    -1.3560 C.ar  1 <1>  -0.1500 
 23 O       -3.8630    -3.6840     1.8840 O.3   1 <1>  -0.6800 
 24 O        0.7670    -5.4320    -0.3270 O.3   1 <1>  -0.3630 
 25 C        1.4920    -3.2970    -1.2200 C.ar  1 <1>   0.0830 
 26 C        0.7250    -6.2110    -1.5030 C.3   1 <1>   0.0400 
 27 O        2.6050    -3.7900    -1.8160 O.3   1 <1>  -0.3630 
 28 C        3.6400    -4.1860    -0.9440 C.3   1 <1>   0.0400 
 29 H       -2.4250     2.4740     1.8780 H     1 <1>   0.0800 
 30 H       -1.0420     2.3950     2.9100 H     1 <1>   0.0800 
 31 H       -1.9080    -1.9610     1.7620 H     1 <1>   0.0800 
 32 H       -3.2900     1.3040    -0.0880 H     1 <1>   0.0800 
 33 H       -1.7510     1.1760    -0.8920 H     1 <1>   0.0800 
 34 H       -3.0570    -3.0280    -0.4510 H     1 <1>   0.0800 
 35 H       -2.3800    -0.9030    -1.9530 H     1 <1>   0.0800 
 36 H       -3.7480     0.1710    -2.1270 H     1 <1>   0.0800 
 37 H       -1.1070    -4.1280     0.7550 H     1 <1>   0.1500 
 38 H       -0.0090    -0.3150    -0.8550 H     1 <1>   0.1500 
 39 H       -5.2560    -2.7600     0.7740 H     1 <1>   0.0800 
 40 H       -4.3960    -1.7510     1.9300 H     1 <1>   0.0800 
 41 H        1.3620     0.3940     1.1200 H     1 <1>   0.0800 
 42 H        1.4610     1.5120     2.4600 H     1 <1>   0.0800 
 43 H        2.6700     1.5490     1.2000 H     1 <1>   0.0800 
 44 H        0.4010     4.5200    -1.5490 H     1 <1>   0.2700 
 45 H       -2.8870     4.1610     0.3940 H     1 <1>   0.0800 
 46 H       -2.4800     4.2370    -1.3010 H     1 <1>   0.0800 
 47 H       -1.9410     5.4930    -0.2090 H     1 <1>   0.0800 
 48 H        1.9060    -1.3380    -1.9390 H     1 <1>   0.1500 
 49 H       -4.0390    -4.4890     1.3570 H     1 <1>   0.4000 
 50 H        0.6590    -7.2450    -1.2170 H     1 <1>   0.0800 
 51 H        1.6200    -6.0470    -2.0730 H     1 <1>   0.0800 
 52 H       -0.1410    -5.9300    -2.0760 H     1 <1>   0.0800 
 53 H        4.4780    -4.5020    -1.5380 H     1 <1>   0.0800 
 54 H        3.2960    -4.9990    -0.3300 H     1 <1>   0.0800 
 55 H        3.9160    -3.3470    -0.3310 H     1 <1>   0.0800 
@<TRIPOS>BOND
  1   1   2  2   
  2   2   3  am  
  3   2   4  1   
  4   3   5  1   
  5   3   6  1   
  6   4   7  1   
  7   4  29  1   
  8   4  30  1   
  9   5   8  1   
 10   5   9  1   
 11   5  31  1   
 12   6  10  1   
 13   6  32  1   
 14   6  33  1   
 15   7  11  1   
 16   7  12  2   
 17   8  13  ar  
 18   8  14  ar  
 19   9  15  1   
 20   9  16  1   
 21   9  34  1   
 22  10  15  1   
 23  10  35  1   
 24  10  36  1   
 25  11  17  2   
 26  11  18  1   
 27  12  19  1   
 28  12  20  1   
 29  13  21  ar  
 30  13  37  1   
 31  14  22  ar  
 32  14  38  1   
 33  16  23  1   
 34  16  39  1   
 35  16  40  1   
 36  17  19  1   
 37  18  41  1   
 38  18  42  1   
 39  18  43  1   
 40  19  44  1   
 41  20  45  1   
 42  20  46  1   
 43  20  47  1   
 44  21  24  1   
 45  21  25  ar  
 46  22  25  ar  
 47  22  48  1   
 48  23  49  1   
 49  24  26  1   
 50  25  27  1   
 51  26  50  1   
 52  26  51  1   
 53  26  52  1   
 54  27  28  1   
 55  28  53  1   
 56  28  54  1   
 57  28  55  1   
@<TRIPOS>SUBSTRUCTURE
  1 ****  14 GROUP 4 **** **** 0

# MOE 2024.06 (io_trps.svl 2023.06)
