@<TRIPOS>MOLECULE
NONAME
52 54 1 0 0 
SMALL
USER_CHARGES


@<TRIPOS>ATOM
  1 O        2.0290    -0.9240     2.4390 O.2   1 <1>  -0.5700 
  2 C        2.3890    -1.3730     1.3790 C.2   1 <1>   0.5690 
  3 N        3.4180    -0.8320     0.6720 N.am  1 <1>  -0.7300 
  4 C        1.5860    -2.5470     0.7980 C.3   1 <1>   0.4040 
  5 C        4.0380     0.4760     0.9870 C.3   1 <1>   0.2840 
  6 N        0.4150    -2.1730    -0.1030 N.4   1 <1>  -0.9590 
  7 C        3.4360     1.5080     0.0400 C.ar  1 <1>  -0.1440 
  8 C       -0.5100    -1.2140     0.5980 C.3   1 <1>   0.4230 
  9 C       -0.2170    -3.4270    -0.6240 C.3   1 <1>   0.2630 
 10 C        2.5460     2.4910     0.4700 C.ar  1 <1>  -0.1440 
 11 C        3.7820     1.4440    -1.3040 C.ar  1 <1>  -0.1500 
 12 C       -1.9750    -1.2940     0.1480 C.3   1 <1>  -0.1600 
 13 C       -0.1410     0.2040     0.1590 C.3   1 <1>  -0.1600 
 14 C        2.0060     3.3730    -0.4540 C.ar  1 <1>  -0.1500 
 15 C        2.1390     2.6370     1.9310 C.3   1 <1>  -0.0970 
 16 C        3.2390     2.3290    -2.2170 C.ar  1 <1>  -0.1500 
 17 C       -2.0430    -0.5430    -1.1900 C.3   1 <1>  -0.0800 
 18 C       -0.8610     0.4320    -1.1760 C.3   1 <1>  -0.0800 
 19 C        2.3460     3.2930    -1.7920 C.ar  1 <1>  -0.1500 
 20 C       -3.3070     0.3000    -1.4110 C.3   1 <1>  -0.1600 
 21 C       -1.4390     1.8390    -1.3740 C.3   1 <1>  -0.1600 
 22 C       -2.7940     1.5980    -2.0250 C.3   1 <1>   0.2000 
 23 O       -3.6530     2.6330    -1.7360 O.3   1 <1>  -0.6800 
 24 H        3.6950    -1.1900    -0.2420 H     1 <1>   0.3700 
 25 H        1.2160    -3.1170     1.6330 H     1 <1>   0.0800 
 26 H        2.2690    -3.1760     0.2550 H     1 <1>   0.0800 
 27 H        3.8710     0.7320     2.0180 H     1 <1>   0.0800 
 28 H        5.1030     0.4170     0.8340 H     1 <1>   0.0800 
 29 H        0.7830    -1.6360    -0.9010 H     1 <1>   0.4500 
 30 H       -0.4300    -1.3260     1.6690 H     1 <1>   0.0800 
 31 H       -0.6670    -3.9820     0.1830 H     1 <1>   0.0800 
 32 H        0.5200    -4.0500    -1.1040 H     1 <1>   0.0800 
 33 H       -0.9810    -3.1900    -1.3470 H     1 <1>   0.0800 
 34 H        4.4830     0.7070    -1.6510 H     1 <1>   0.1500 
 35 H       -2.3880    -2.2850     0.1030 H     1 <1>   0.0800 
 36 H       -2.5500    -0.7560     0.8810 H     1 <1>   0.0800 
 37 H       -0.5160     0.8840     0.9030 H     1 <1>   0.0800 
 38 H        0.9120     0.3710     0.0640 H     1 <1>   0.0800 
 39 H        1.3170     4.1370    -0.1390 H     1 <1>   0.1500 
 40 H        1.4060     3.4140     2.0530 H     1 <1>   0.0800 
 41 H        2.9960     2.8910     2.5270 H     1 <1>   0.0800 
 42 H        1.7160     1.7200     2.2990 H     1 <1>   0.0800 
 43 H        3.5140     2.2740    -3.2560 H     1 <1>   0.1500 
 44 H       -1.9180    -1.2260    -2.0140 H     1 <1>   0.0800 
 45 H       -0.2060     0.1990    -2.0000 H     1 <1>   0.0800 
 46 H        1.9220     3.9860    -2.4980 H     1 <1>   0.1500 
 47 H       -3.7950     0.5100    -0.4760 H     1 <1>   0.0800 
 48 H       -3.9990    -0.1920    -2.0730 H     1 <1>   0.0800 
 49 H       -0.8050     2.4390    -2.0030 H     1 <1>   0.0800 
 50 H       -1.5720     2.3330    -0.4280 H     1 <1>   0.0800 
 51 H       -2.7000     1.5100    -3.0950 H     1 <1>   0.0800 
 52 H       -3.7500     2.7380    -0.7720 H     1 <1>   0.4000 
@<TRIPOS>BOND
  1   1   2  2   
  2   2   3  am  
  3   2   4  1   
  4   3   5  1   
  5   3  24  1   
  6   4   6  1   
  7   4  25  1   
  8   4  26  1   
  9   5   7  1   
 10   5  27  1   
 11   5  28  1   
 12   6   8  1   
 13   6   9  1   
 14   6  29  1   
 15   7  10  ar  
 16   7  11  ar  
 17   8  12  1   
 18   8  13  1   
 19   8  30  1   
 20   9  31  1   
 21   9  32  1   
 22   9  33  1   
 23  10  14  ar  
 24  10  15  1   
 25  11  16  ar  
 26  11  34  1   
 27  12  17  1   
 28  12  35  1   
 29  12  36  1   
 30  13  18  1   
 31  13  37  1   
 32  13  38  1   
 33  14  19  ar  
 34  14  39  1   
 35  15  40  1   
 36  15  41  1   
 37  15  42  1   
 38  16  19  ar  
 39  16  43  1   
 40  17  18  1   
 41  17  20  1   
 42  17  44  1   
 43  18  21  1   
 44  18  45  1   
 45  19  46  1   
 46  20  22  1   
 47  20  47  1   
 48  20  48  1   
 49  21  22  1   
 50  21  49  1   
 51  21  50  1   
 52  22  23  1   
 53  22  51  1   
 54  23  52  1   
@<TRIPOS>SUBSTRUCTURE
  1 ****  13 GROUP 4 **** **** 0

# MOE 2024.06 (io_trps.svl 2023.06)
