@<TRIPOS>MOLECULE
NONAME
22 22 1 0 0 
SMALL
USER_CHARGES


@<TRIPOS>ATOM
  1 F        1.7070     0.5820     1.8630 F     1 <1>  -0.3400 
  2 C        1.5280     1.0040     0.6100 C.3   1 <1>   0.6000 
  3 F        0.2980     0.5980     0.3040 F     1 <1>  -0.3400 
  4 C        2.5660     0.3460    -0.3270 C.3   1 <1>   0.3440 
  5 O        2.5770    -1.0560    -0.1860 O.3   1 <1>  -0.6800 
  6 C        3.9480     0.9630    -0.0810 C.ar  1 <1>   0.1660 
  7 N        3.9860     2.2880    -0.1450 N.ar  1 <1>  -0.6200 
  8 C        5.0700     0.1830     0.1770 C.ar  1 <1>  -0.1500 
  9 C        5.1600     2.8640     0.0600 C.ar  1 <1>   0.3930 
 10 C        6.2920     0.7850     0.3900 C.ar  1 <1>  -0.1500 
 11 O        5.1260     4.2110    -0.0130 O.3   1 <1>  -0.3630 
 12 C        6.3310     2.1590     0.3300 C.ar  1 <1>  -0.1500 
 13 C        6.2710     5.0170     0.1580 C.3   1 <1>   0.0400 
 14 H        1.5410     2.0790     0.6030 H     1 <1>   0.0800 
 15 H        2.2950     0.5630    -1.3440 H     1 <1>   0.0800 
 16 H        2.4270    -1.2760     0.7570 H     1 <1>   0.4000 
 17 H        5.0050    -0.8900     0.2100 H     1 <1>   0.1500 
 18 H        7.1750     0.2030     0.5930 H     1 <1>   0.1500 
 19 H        7.2630     2.6620     0.4910 H     1 <1>   0.1500 
 20 H        5.9750     6.0450     0.0440 H     1 <1>   0.0800 
 21 H        6.9960     4.7620    -0.5950 H     1 <1>   0.0800 
 22 H        6.6660     4.8600     1.1460 H     1 <1>   0.0800 
@<TRIPOS>BOND
  1   1   2  1   
  2   2   3  1   
  3   2   4  1   
  4   2  14  1   
  5   4   5  1   
  6   4   6  1   
  7   4  15  1   
  8   5  16  1   
  9   6   7  ar  
 10   6   8  ar  
 11   7   9  ar  
 12   8  10  ar  
 13   8  17  1   
 14   9  11  1   
 15   9  12  ar  
 16  10  12  ar  
 17  10  18  1   
 18  11  13  1   
 19  12  19  1   
 20  13  20  1   
 21  13  21  1   
 22  13  22  1   
@<TRIPOS>SUBSTRUCTURE
  1 ****   6 GROUP 4 **** **** 0

# MOE 2024.06 (io_trps.svl 2023.06)
