@<TRIPOS>MOLECULE
NONAME
57 59 1 0 0 
SMALL
USER_CHARGES


@<TRIPOS>ATOM
  1 S       -0.4210     0.1300    -0.4630 S.o2  1 <1>   1.2040 
  2 O       -1.4520     0.7470     0.3390 O.2   1 <1>  -0.6500 
  3 O       -0.4190     0.2950    -1.8980 O.2   1 <1>  -0.6500 
  4 C       -0.3650    -1.6400    -0.0820 C.ar  1 <1>  -0.0090 
  5 C        1.1510     0.7080     0.1460 C.3   1 <1>  -0.1350 
  6 C       -0.8430    -2.1300     1.1270 C.ar  1 <1>  -0.1500 
  7 C        0.1720    -2.5520    -0.9810 C.ar  1 <1>  -0.1500 
  8 C       -0.8050    -3.4810     1.4220 C.ar  1 <1>  -0.1500 
  9 C        0.2150    -3.9060    -0.6970 C.ar  1 <1>  -0.1500 
 10 C       -0.2860    -4.3820     0.5050 C.ar  1 <1>  -0.1430 
 11 C       -0.2930    -5.8700     0.8070 C.3   1 <1>   0.4860 
 12 N       -1.3660    -6.5090    -0.0040 N.4   1 <1>  -0.9590 
 13 C       -1.4020    -8.0070     0.1900 C.3   1 <1>   0.3430 
 14 C       -2.7190    -5.9070     0.2880 C.3   1 <1>   0.3430 
 15 C       -2.6230    -8.6810    -0.4770 C.3   1 <1>   0.3430 
 16 C       -3.8680    -6.6590    -0.4220 C.3   1 <1>   0.2000 
 17 O       -3.7970    -8.0210    -0.0890 O.3   1 <1>  -0.5600 
 18 C       -2.6910   -10.1390    -0.0480 C.ar  1 <1>  -0.1430 
 19 C       -5.2760    -6.1080    -0.0580 C.3   1 <1>   0.0000 
 20 C       -2.1190   -11.1190    -0.8480 C.ar  1 <1>  -0.1500 
 21 C       -3.2990   -10.5110     1.1440 C.ar  1 <1>  -0.1500 
 22 C       -5.3940    -4.6240    -0.4490 C.3   1 <1>  -0.2400 
 23 C       -5.5770    -6.2410     1.4470 C.3   1 <1>  -0.2400 
 24 C       -6.3520    -6.8850    -0.8380 C.3   1 <1>  -0.2400 
 25 C       -2.1460   -12.4460    -0.4580 C.ar  1 <1>  -0.1500 
 26 C       -3.3260   -11.8380     1.5340 C.ar  1 <1>  -0.1500 
 27 C       -2.7470   -12.8070     0.7340 C.ar  1 <1>  -0.1500 
 28 H        1.2360     0.5260     1.1990 H     1 <1>   0.0800 
 29 H        1.2420     1.7630    -0.0240 H     1 <1>   0.0800 
 30 H        1.9560     0.2120    -0.3600 H     1 <1>   0.0800 
 31 H       -1.2580    -1.4400     1.8460 H     1 <1>   0.1500 
 32 H        0.5550    -2.1940    -1.9250 H     1 <1>   0.1500 
 33 H       -1.1890    -3.8140     2.3730 H     1 <1>   0.1500 
 34 H        0.6430    -4.5740    -1.4270 H     1 <1>   0.1500 
 35 H       -0.4750    -6.0290     1.8570 H     1 <1>   0.0800 
 36 H        0.6670    -6.2920     0.5570 H     1 <1>   0.0800 
 37 H       -1.1570    -6.3050    -0.9890 H     1 <1>   0.4500 
 38 H       -0.5040    -8.4560    -0.1990 H     1 <1>   0.0800 
 39 H       -1.4480    -8.2350     1.2430 H     1 <1>   0.0800 
 40 H       -2.9060    -5.9330     1.3480 H     1 <1>   0.0800 
 41 H       -2.7330    -4.8750    -0.0220 H     1 <1>   0.0800 
 42 H       -2.5490    -8.6260    -1.5490 H     1 <1>   0.0800 
 43 H       -3.7430    -6.5740    -1.4880 H     1 <1>   0.0800 
 44 H       -1.6500   -10.8670    -1.7830 H     1 <1>   0.1500 
 45 H       -3.7640    -9.7730     1.7750 H     1 <1>   0.1500 
 46 H       -6.3960    -4.2710    -0.2710 H     1 <1>   0.0800 
 47 H       -5.1800    -4.4860    -1.4950 H     1 <1>   0.0800 
 48 H       -4.7290    -4.0030     0.1240 H     1 <1>   0.0800 
 49 H       -6.5790    -5.9070     1.6570 H     1 <1>   0.0800 
 50 H       -4.9050    -5.6520     2.0430 H     1 <1>   0.0800 
 51 H       -5.5040    -7.2690     1.7590 H     1 <1>   0.0800 
 52 H       -7.3340    -6.4990    -0.6240 H     1 <1>   0.0800 
 53 H       -6.3420    -7.9270    -0.5660 H     1 <1>   0.0800 
 54 H       -6.1860    -6.8130    -1.8980 H     1 <1>   0.0800 
 55 H       -1.7020   -13.2030    -1.0820 H     1 <1>   0.1500 
 56 H       -3.8010   -12.1200     2.4580 H     1 <1>   0.1500 
 57 H       -2.7690   -13.8400     1.0370 H     1 <1>   0.1500 
@<TRIPOS>BOND
  1   1   2  2   
  2   1   3  2   
  3   1   4  1   
  4   1   5  1   
  5   4   6  ar  
  6   4   7  ar  
  7   5  28  1   
  8   5  29  1   
  9   5  30  1   
 10   6   8  ar  
 11   6  31  1   
 12   7   9  ar  
 13   7  32  1   
 14   8  10  ar  
 15   8  33  1   
 16   9  10  ar  
 17   9  34  1   
 18  10  11  1   
 19  11  12  1   
 20  11  35  1   
 21  11  36  1   
 22  12  13  1   
 23  12  14  1   
 24  12  37  1   
 25  13  15  1   
 26  13  38  1   
 27  13  39  1   
 28  14  16  1   
 29  14  40  1   
 30  14  41  1   
 31  15  17  1   
 32  15  18  1   
 33  15  42  1   
 34  16  17  1   
 35  16  19  1   
 36  16  43  1   
 37  18  20  ar  
 38  18  21  ar  
 39  19  22  1   
 40  19  23  1   
 41  19  24  1   
 42  20  25  ar  
 43  20  44  1   
 44  21  26  ar  
 45  21  45  1   
 46  22  46  1   
 47  22  47  1   
 48  22  48  1   
 49  23  49  1   
 50  23  50  1   
 51  23  51  1   
 52  24  52  1   
 53  24  53  1   
 54  24  54  1   
 55  25  27  ar  
 56  25  55  1   
 57  26  27  ar  
 58  26  56  1   
 59  27  57  1   
@<TRIPOS>SUBSTRUCTURE
  1 ****  14 GROUP 4 **** **** 0

# MOE 2024.06 (io_trps.svl 2023.06)
