@<TRIPOS>MOLECULE
NONAME
59 61 1 0 0 
SMALL
USER_CHARGES


@<TRIPOS>ATOM
  1 O       -0.0280     0.9040    -0.6520 O.2   1 <1>  -0.5700 
  2 C       -1.1510     1.2650    -0.9530 C.2   1 <1>   0.5440 
  3 N       -1.2980     2.2990    -1.8570 N.am  1 <1>  -0.6600 
  4 C       -2.2940     0.6150    -0.3390 C.ar  1 <1>   0.0860 
  5 C       -2.4920     3.1870    -1.8930 C.3   1 <1>   0.1400 
  6 C       -0.1510     2.7970    -2.6610 C.3   1 <1>   0.1400 
  7 C       -3.3530     0.1230    -1.0970 C.ar  1 <1>  -0.1500 
  8 C       -2.3740     0.4540     1.0410 C.ar  1 <1>  -0.1500 
  9 C       -2.1100     4.5620    -1.3380 C.3   1 <1>  -0.1600 
 10 C        0.2950     4.1490    -2.1020 C.3   1 <1>  -0.1600 
 11 C       -4.4450    -0.4820    -0.5030 C.ar  1 <1>  -0.1500 
 12 C       -3.4650    -0.1510     1.6380 C.ar  1 <1>  -0.1500 
 13 C       -0.8790     5.1500    -2.0590 C.3   1 <1>  -0.0190 
 14 C       -4.5290    -0.6300     0.8770 C.ar  1 <1>  -0.1430 
 15 C       -0.5110     6.5490    -1.5450 C.2   1 <1>   0.5690 
 16 C       -5.7690    -1.3110     1.4960 C.3   1 <1>   0.1440 
 17 O       -0.7510     7.4710    -2.2900 O.2   1 <1>  -0.5700 
 18 N        0.0450     6.7850    -0.3110 N.am  1 <1>  -0.6600 
 19 C       -5.8860    -2.7460     0.9610 C.3   1 <1>  -0.2400 
 20 C       -7.0320    -0.5220     1.1200 C.3   1 <1>  -0.2400 
 21 C       -5.7140    -1.3920     3.0310 C.3   1 <1>  -0.2400 
 22 C        0.2550     8.1750     0.1770 C.3   1 <1>   0.1400 
 23 C        0.4850     5.8180     0.7200 C.3   1 <1>   0.1400 
 24 C        0.9680     8.0430     1.5220 C.3   1 <1>   0.2000 
 25 C        0.6350     6.6340     1.9990 C.3   1 <1>  -0.1600 
 26 O        0.4740     8.9920     2.4170 O.3   1 <1>  -0.5600 
 27 C        1.2450     9.1800     3.5620 C.3   1 <1>   0.0400 
 28 H       -3.2980     2.7810    -1.3080 H     1 <1>   0.0800 
 29 H       -2.8290     3.2800    -2.9110 H     1 <1>   0.0800 
 30 H       -0.4570     2.9020    -3.6880 H     1 <1>   0.0800 
 31 H        0.6680     2.0980    -2.6280 H     1 <1>   0.0800 
 32 H       -3.3120     0.2160    -2.1680 H     1 <1>   0.1500 
 33 H       -1.5600     0.8090     1.6480 H     1 <1>   0.1500 
 34 H       -1.9240     4.4630    -0.2860 H     1 <1>   0.0800 
 35 H       -2.9430     5.2320    -1.4560 H     1 <1>   0.0800 
 36 H        1.0850     4.5460    -2.7150 H     1 <1>   0.0800 
 37 H        0.6960     3.9720    -1.1240 H     1 <1>   0.0800 
 38 H       -5.2360    -0.8440    -1.1350 H     1 <1>   0.1500 
 39 H       -3.4580    -0.2390     2.7080 H     1 <1>   0.1500 
 40 H       -1.1770     5.2920    -3.0840 H     1 <1>   0.0800 
 41 H       -6.0220    -2.7540    -0.1040 H     1 <1>   0.0800 
 42 H       -6.7230    -3.2520     1.4080 H     1 <1>   0.0800 
 43 H       -4.9910    -3.2970     1.1900 H     1 <1>   0.0800 
 44 H       -7.1790    -0.5090     0.0560 H     1 <1>   0.0800 
 45 H       -6.9450     0.4940     1.4610 H     1 <1>   0.0800 
 46 H       -7.9030    -0.9610     1.5710 H     1 <1>   0.0800 
 47 H       -4.8600    -1.9640     3.3490 H     1 <1>   0.0800 
 48 H       -6.5960    -1.8690     3.4180 H     1 <1>   0.0800 
 49 H       -5.6540    -0.4070     3.4590 H     1 <1>   0.0800 
 50 H       -0.7020     8.6510     0.3040 H     1 <1>   0.0800 
 51 H        0.8510     8.7320    -0.5250 H     1 <1>   0.0800 
 52 H        1.4420     5.4150     0.4350 H     1 <1>   0.0800 
 53 H       -0.2190     5.0180     0.8540 H     1 <1>   0.0800 
 54 H        2.0260     8.1850     1.3850 H     1 <1>   0.0800 
 55 H        1.4000     6.2270     2.6340 H     1 <1>   0.0800 
 56 H       -0.3070     6.6360     2.5180 H     1 <1>   0.0800 
 57 H        0.7750     9.9410     4.1590 H     1 <1>   0.0800 
 58 H        2.2320     9.5010     3.2780 H     1 <1>   0.0800 
 59 H        1.2890     8.2610     4.1200 H     1 <1>   0.0800 
@<TRIPOS>BOND
  1   1   2  2   
  2   2   3  am  
  3   2   4  1   
  4   3   5  1   
  5   3   6  1   
  6   4   7  ar  
  7   4   8  ar  
  8   5   9  1   
  9   5  28  1   
 10   5  29  1   
 11   6  10  1   
 12   6  30  1   
 13   6  31  1   
 14   7  11  ar  
 15   7  32  1   
 16   8  12  ar  
 17   8  33  1   
 18   9  13  1   
 19   9  34  1   
 20   9  35  1   
 21  10  13  1   
 22  10  36  1   
 23  10  37  1   
 24  11  14  ar  
 25  11  38  1   
 26  12  14  ar  
 27  12  39  1   
 28  13  15  1   
 29  13  40  1   
 30  14  16  1   
 31  15  17  2   
 32  15  18  am  
 33  16  19  1   
 34  16  20  1   
 35  16  21  1   
 36  18  22  1   
 37  18  23  1   
 38  19  41  1   
 39  19  42  1   
 40  19  43  1   
 41  20  44  1   
 42  20  45  1   
 43  20  46  1   
 44  21  47  1   
 45  21  48  1   
 46  21  49  1   
 47  22  24  1   
 48  22  50  1   
 49  22  51  1   
 50  23  25  1   
 51  23  52  1   
 52  23  53  1   
 53  24  25  1   
 54  24  26  1   
 55  24  54  1   
 56  25  55  1   
 57  25  56  1   
 58  26  27  1   
 59  27  57  1   
 60  27  58  1   
 61  27  59  1   
@<TRIPOS>SUBSTRUCTURE
  1 ****   9 GROUP 4 **** **** 0

# MOE 2024.06 (io_trps.svl 2023.06)
