@<TRIPOS>MOLECULE
NONAME
47 49 1 0 0 
SMALL
USER_CHARGES


@<TRIPOS>ATOM
  1 S       -0.2670    -0.6850     0.8010 S.3   1 <1>  -0.0800 
  2 C       -1.2230    -1.6720    -0.2590 C.2   1 <1>   0.4420 
  3 C       -0.1650     0.4710    -0.4840 C.2   1 <1>   0.1980 
  4 N       -1.3930    -1.1280    -1.4080 N.2   1 <1>  -0.3380 
  5 N       -1.7190    -2.8920     0.1360 N.am  1 <1>  -0.4940 
  6 N       -0.7870     0.0910    -1.5310 N.2   1 <1>  -0.3380 
  7 C        0.6330     1.7480    -0.2150 C.3   1 <1>   0.3800 
  8 C       -1.6760    -3.5880     1.3060 C.2   1 <1>   0.5690 
  9 O       -0.0420     2.5390     0.7150 O.3   1 <1>  -0.5600 
 10 C        0.7730     2.6670    -1.4260 C.3   1 <1>  -0.1600 
 11 O       -1.1140    -3.2090     2.3030 O.2   1 <1>  -0.5700 
 12 C       -2.4030    -4.9340     1.3130 C.3   1 <1>   0.1710 
 13 C       -0.9890     3.3310     0.0700 C.3   1 <1>   0.1200 
 14 C       -0.4660     3.5480    -1.3490 C.3   1 <1>  -0.1600 
 15 N       -3.3680    -5.0920     0.1810 N.3   1 <1>  -0.8100 
 16 C       -3.6190    -6.5310    -0.0690 C.3   1 <1>   0.1100 
 17 C       -4.6090    -4.3360     0.4450 C.3   1 <1>   0.1100 
 18 C       -4.5100    -6.8020    -1.2910 C.3   1 <1>   0.1400 
 19 C       -5.3290    -4.0250    -0.8720 C.3   1 <1>  -0.1600 
 20 N       -5.9360    -6.4740    -0.9960 N.am  1 <1>  -0.6600 
 21 C       -6.3620    -5.0790    -1.2990 C.3   1 <1>   0.1400 
 22 C       -6.7420    -7.4280    -0.4320 C.2   1 <1>   0.5690 
 23 O       -6.3130    -8.5010    -0.0810 O.2   1 <1>  -0.5700 
 24 C       -8.2170    -7.1730    -0.2200 C.3   1 <1>  -0.1790 
 25 H       -2.2780    -3.3790    -0.5700 H     1 <1>   0.3700 
 26 H        1.5950     1.4930     0.1930 H     1 <1>   0.0800 
 27 H        0.8400     2.1210    -2.3500 H     1 <1>   0.0800 
 28 H        1.6590     3.2640    -1.3060 H     1 <1>   0.0800 
 29 H       -2.9110    -5.0570     2.2540 H     1 <1>   0.0800 
 30 H       -1.6440    -5.6940     1.2490 H     1 <1>   0.0800 
 31 H       -1.0950     4.2540     0.6140 H     1 <1>   0.0800 
 32 H       -1.9240     2.7970     0.0630 H     1 <1>   0.0800 
 33 H       -1.2110     3.2320    -2.0590 H     1 <1>   0.0800 
 34 H       -0.2290     4.5830    -1.5230 H     1 <1>   0.0800 
 35 H       -4.0620    -6.9920     0.7990 H     1 <1>   0.0800 
 36 H       -2.6750    -7.0150    -0.2490 H     1 <1>   0.0800 
 37 H       -4.3630    -3.3970     0.9120 H     1 <1>   0.0800 
 38 H       -5.2510    -4.8790     1.1210 H     1 <1>   0.0800 
 39 H       -4.4380    -7.8470    -1.5410 H     1 <1>   0.0800 
 40 H       -4.1580    -6.2430    -2.1390 H     1 <1>   0.0800 
 41 H       -4.6070    -3.8780    -1.6560 H     1 <1>   0.0800 
 42 H       -5.8520    -3.0930    -0.7610 H     1 <1>   0.0800 
 43 H       -6.5480    -4.9900    -2.3560 H     1 <1>   0.0800 
 44 H       -7.2820    -4.8630    -0.7860 H     1 <1>   0.0800 
 45 H       -8.6630    -6.8160    -1.1290 H     1 <1>   0.0800 
 46 H       -8.3520    -6.4540     0.5640 H     1 <1>   0.0800 
 47 H       -8.7040    -8.0880     0.0630 H     1 <1>   0.0800 
@<TRIPOS>BOND
  1   1   2  1   
  2   1   3  1   
  3   2   4  2   
  4   2   5  1   
  5   3   6  2   
  6   3   7  1   
  7   4   6  1   
  8   5   8  am  
  9   5  25  1   
 10   7   9  1   
 11   7  10  1   
 12   7  26  1   
 13   8  11  2   
 14   8  12  1   
 15   9  13  1   
 16  10  14  1   
 17  10  27  1   
 18  10  28  1   
 19  12  15  1   
 20  12  29  1   
 21  12  30  1   
 22  13  14  1   
 23  13  31  1   
 24  13  32  1   
 25  14  33  1   
 26  14  34  1   
 27  15  16  1   
 28  15  17  1   
 29  16  18  1   
 30  16  35  1   
 31  16  36  1   
 32  17  19  1   
 33  17  37  1   
 34  17  38  1   
 35  18  20  1   
 36  18  39  1   
 37  18  40  1   
 38  19  21  1   
 39  19  41  1   
 40  19  42  1   
 41  20  21  1   
 42  20  22  am  
 43  21  43  1   
 44  21  44  1   
 45  22  23  2   
 46  22  24  1   
 47  24  45  1   
 48  24  46  1   
 49  24  47  1   
@<TRIPOS>SUBSTRUCTURE
  1 ****   5 GROUP 4 **** **** 0

# MOE 2024.06 (io_trps.svl 2023.06)
