@<TRIPOS>MOLECULE
NONAME
48 50 1 0 0 
SMALL
USER_CHARGES


@<TRIPOS>ATOM
  1 S        0.6000     0.3680    -0.6000 S.o2  1 <1>   1.3330 
  2 O       -0.6090     1.1510    -0.4780 O.2   1 <1>  -0.6500 
  3 O        0.6210    -0.7780    -1.4820 O.2   1 <1>  -0.6500 
  4 N        1.0060    -0.1710     0.9600 N.am  1 <1>  -0.8490 
  5 C        1.9590     1.4470    -1.0580 C.3   1 <1>  -0.0550 
  6 C        0.3310    -1.4280     1.2970 C.3   1 <1>   0.1160 
  7 C        0.7480     0.8260     2.0060 C.3   1 <1>   0.1160 
  8 C        3.3050     0.7210    -1.2750 C.3   1 <1>  -0.0800 
  9 C        4.4250     1.6080    -1.7930 C.3   1 <1>   0.2200 
 10 C        3.9210     0.1100    -0.0120 C.3   1 <1>   0.1200 
 11 N        4.4140     2.9130    -1.0930 N.am  1 <1>  -0.7300 
 12 C        5.6500     0.8140    -1.3570 C.3   1 <1>   0.1200 
 13 O        5.3090     0.2130    -0.1420 O.3   1 <1>  -0.5600 
 14 C        4.5830     4.1390    -1.6650 C.2   1 <1>   0.5440 
 15 O        4.6600     4.1900    -2.8760 O.2   1 <1>  -0.5700 
 16 C        4.6450     5.3590    -0.8710 C.ar  1 <1>   0.0860 
 17 C        5.2390     5.4480     0.4020 C.ar  1 <1>  -0.0230 
 18 C        4.0880     6.5260    -1.3990 C.ar  1 <1>  -0.1500 
 19 N        5.8600     4.3310     1.0050 N.pl3 1 <1>   0.5930 
 20 C        5.2360     6.6560     1.0930 C.ar  1 <1>  -0.1500 
 21 C        4.0950     7.7220    -0.7100 C.ar  1 <1>  -0.1500 
 22 N        5.1690     3.3750     1.6800 N.2   1 <1>  -0.7070 
 23 C        7.1670     3.9860     0.9250 C.2   1 <1>  -0.3020 
 24 C        4.6690     7.7880     0.5450 C.ar  1 <1>  -0.1500 
 25 C        6.0460     2.4720     1.9930 C.2   1 <1>   0.1390 
 26 C        7.3200     2.8000     1.5470 C.2   1 <1>  -0.1500 
 27 H        1.7000     1.9400    -1.9750 H     1 <1>   0.0800 
 28 H        2.0700     2.2070    -0.3110 H     1 <1>   0.0800 
 29 H        0.6190    -1.7550     2.2810 H     1 <1>   0.0800 
 30 H        0.6080    -2.1960     0.5930 H     1 <1>   0.0800 
 31 H       -0.7380    -1.2990     1.2630 H     1 <1>   0.0800 
 32 H        1.0900     0.4580     2.9580 H     1 <1>   0.0800 
 33 H       -0.3070     1.0400     2.0720 H     1 <1>   0.0800 
 34 H        1.2730     1.7400     1.7900 H     1 <1>   0.0800 
 35 H        3.1570    -0.0760    -1.9830 H     1 <1>   0.0800 
 36 H        4.3890     1.7430    -2.8620 H     1 <1>   0.0800 
 37 H        3.6530    -0.9260     0.1080 H     1 <1>   0.0800 
 38 H        3.6420     0.6620     0.8690 H     1 <1>   0.0800 
 39 H        4.4970     2.8270    -0.0680 H     1 <1>   0.3700 
 40 H        6.5190     1.4340    -1.2250 H     1 <1>   0.0800 
 41 H        5.8610     0.0290    -2.0620 H     1 <1>   0.0800 
 42 H        3.6380     6.4880    -2.3780 H     1 <1>   0.1500 
 43 H        5.6830     6.7110     2.0730 H     1 <1>   0.1500 
 44 H        3.6540     8.6020    -1.1480 H     1 <1>   0.1500 
 45 H        7.8920     4.6020     0.4270 H     1 <1>   0.1500 
 46 H        4.6730     8.7180     1.0890 H     1 <1>   0.1500 
 47 H        5.8100     1.5660     2.5310 H     1 <1>   0.1500 
 48 H        8.2090     2.2090     1.6840 H     1 <1>   0.1500 
@<TRIPOS>BOND
  1   1   2  2   
  2   1   3  2   
  3   1   4  am  
  4   1   5  1   
  5   4   6  1   
  6   4   7  1   
  7   5   8  1   
  8   5  27  1   
  9   5  28  1   
 10   6  29  1   
 11   6  30  1   
 12   6  31  1   
 13   7  32  1   
 14   7  33  1   
 15   7  34  1   
 16   8   9  1   
 17   8  10  1   
 18   8  35  1   
 19   9  11  1   
 20   9  12  1   
 21   9  36  1   
 22  10  13  1   
 23  10  37  1   
 24  10  38  1   
 25  11  14  am  
 26  11  39  1   
 27  12  13  1   
 28  12  40  1   
 29  12  41  1   
 30  14  15  2   
 31  14  16  1   
 32  16  17  ar  
 33  16  18  ar  
 34  17  19  1   
 35  17  20  ar  
 36  18  21  ar  
 37  18  42  1   
 38  19  22  1   
 39  19  23  1   
 40  20  24  ar  
 41  20  43  1   
 42  21  24  ar  
 43  21  44  1   
 44  22  25  2   
 45  23  26  2   
 46  23  45  1   
 47  24  46  1   
 48  25  26  1   
 49  25  47  1   
 50  26  48  1   
@<TRIPOS>SUBSTRUCTURE
  1 ****  11 GROUP 4 **** **** 0

# MOE 2024.06 (io_trps.svl 2023.06)
