@<TRIPOS>MOLECULE
NONAME
56 59 1 0 0 
SMALL
USER_CHARGES


@<TRIPOS>ATOM
  1 O        0.2460    -0.3990     0.3450 O.2   1 <1>  -0.5700 
  2 C        1.3170    -0.9360     0.1230 C.2   1 <1>   0.7150 
  3 N        2.4640    -0.1720     0.2080 N.am  1 <1>  -0.6600 
  4 C        1.3360    -2.3410    -0.2330 C.2   1 <1>   0.0550 
  5 C        2.4060     1.3230     0.3050 C.3   1 <1>   0.1400 
  6 C        3.8380    -0.7080     0.4340 C.3   1 <1>   0.1400 
  7 O        0.4610    -3.1730     0.3220 O.3   1 <1>  -0.2800 
  8 C        2.0940    -3.0570    -1.1100 C.2   1 <1>  -0.1500 
  9 C        3.5160     1.9850    -0.5370 C.3   1 <1>   0.3440 
 10 C        4.8530     0.0400    -0.4460 C.3   1 <1>   0.1200 
 11 C        0.6200    -4.3770    -0.1750 C.2   1 <1>  -0.0400 
 12 C        1.6320    -4.3750    -1.0700 C.2   1 <1>  -0.1500 
 13 O        4.7650     1.4190    -0.2270 O.3   1 <1>  -0.5600 
 14 C        3.5610     3.4890    -0.2850 C.ar  1 <1>  -0.1430 
 15 C       -0.3030    -5.4890     0.2930 C.3   1 <1>   0.5230 
 16 C        4.2730     4.0190     0.7820 C.ar  1 <1>  -0.1500 
 17 C        2.8680     4.3490    -1.1250 C.ar  1 <1>  -0.1500 
 18 N       -1.7100    -5.1530    -0.0740 N.4   1 <1>  -0.9590 
 19 C        4.2920     5.3850     1.0070 C.ar  1 <1>  -0.1500 
 20 C        2.8860     5.7150    -0.9030 C.ar  1 <1>  -0.1500 
 21 C       -2.3060    -4.1550     0.8680 C.3   1 <1>   0.3430 
 22 C       -2.5530    -6.3730    -0.2020 C.3   1 <1>   0.3430 
 23 C        3.5980     6.2340     0.1640 C.ar  1 <1>  -0.1500 
 24 C       -3.6900    -3.7390     0.3690 C.3   1 <1>  -0.1600 
 25 C       -3.9390    -5.9910    -0.7240 C.3   1 <1>  -0.1600 
 26 C       -4.6160    -4.9490     0.1780 C.3   1 <1>  -0.0800 
 27 C       -5.9590    -4.5120    -0.4140 C.3   1 <1>  -0.2400 
 28 H        2.5220     1.6170     1.3330 H     1 <1>   0.0800 
 29 H        1.4520     1.6870    -0.0340 H     1 <1>   0.0800 
 30 H        3.8890    -1.7610     0.2300 H     1 <1>   0.0800 
 31 H        4.1040    -0.5640     1.4670 H     1 <1>   0.0800 
 32 H        2.8880    -2.6970    -1.7410 H     1 <1>   0.1500 
 33 H        3.3270     1.8070    -1.5810 H     1 <1>   0.0800 
 34 H        4.6780    -0.1570    -1.4890 H     1 <1>   0.0800 
 35 H        5.8540    -0.2650    -0.1990 H     1 <1>   0.0800 
 36 H        2.0290    -5.1860    -1.6580 H     1 <1>   0.1500 
 37 H       -0.2130    -5.6170     1.3590 H     1 <1>   0.0800 
 38 H       -0.0070    -6.4060    -0.1890 H     1 <1>   0.0800 
 39 H        4.8190     3.3660     1.4410 H     1 <1>   0.1500 
 40 H        2.3090     3.9620    -1.9590 H     1 <1>   0.1500 
 41 H       -1.6650    -4.6890    -0.9900 H     1 <1>   0.4500 
 42 H        4.8490     5.7850     1.8360 H     1 <1>   0.1500 
 43 H        2.3470     6.3750    -1.5590 H     1 <1>   0.1500 
 44 H       -1.6840    -3.2780     0.9370 H     1 <1>   0.0800 
 45 H       -2.3930    -4.5850     1.8530 H     1 <1>   0.0800 
 46 H       -2.6530    -6.8520     0.7590 H     1 <1>   0.0800 
 47 H       -2.0960    -7.0710    -0.8860 H     1 <1>   0.0800 
 48 H        3.6120     7.2960     0.3380 H     1 <1>   0.1500 
 49 H       -3.5830    -3.1990    -0.5560 H     1 <1>   0.0800 
 50 H       -4.1260    -3.0630     1.0850 H     1 <1>   0.0800 
 51 H       -4.5500    -6.8760    -0.7680 H     1 <1>   0.0800 
 52 H       -3.8480    -5.6120    -1.7270 H     1 <1>   0.0800 
 53 H       -4.8030    -5.3950     1.1420 H     1 <1>   0.0800 
 54 H       -5.8260    -4.0560    -1.3800 H     1 <1>   0.0800 
 55 H       -6.4410    -3.8010     0.2340 H     1 <1>   0.0800 
 56 H       -6.6140    -5.3590    -0.5250 H     1 <1>   0.0800 
@<TRIPOS>BOND
  1   1   2  2   
  2   2   3  am  
  3   2   4  1   
  4   3   5  1   
  5   3   6  1   
  6   4   7  1   
  7   4   8  2   
  8   5   9  1   
  9   5  28  1   
 10   5  29  1   
 11   6  10  1   
 12   6  30  1   
 13   6  31  1   
 14   7  11  1   
 15   8  12  1   
 16   8  32  1   
 17   9  13  1   
 18   9  14  1   
 19   9  33  1   
 20  10  13  1   
 21  10  34  1   
 22  10  35  1   
 23  11  12  2   
 24  11  15  1   
 25  12  36  1   
 26  14  16  ar  
 27  14  17  ar  
 28  15  18  1   
 29  15  37  1   
 30  15  38  1   
 31  16  19  ar  
 32  16  39  1   
 33  17  20  ar  
 34  17  40  1   
 35  18  21  1   
 36  18  22  1   
 37  18  41  1   
 38  19  23  ar  
 39  19  42  1   
 40  20  23  ar  
 41  20  43  1   
 42  21  24  1   
 43  21  44  1   
 44  21  45  1   
 45  22  25  1   
 46  22  46  1   
 47  22  47  1   
 48  23  48  1   
 49  24  26  1   
 50  24  49  1   
 51  24  50  1   
 52  25  26  1   
 53  25  51  1   
 54  25  52  1   
 55  26  27  1   
 56  26  53  1   
 57  27  54  1   
 58  27  55  1   
 59  27  56  1   
@<TRIPOS>SUBSTRUCTURE
  1 ****   2 GROUP 4 **** **** 0

# MOE 2024.06 (io_trps.svl 2023.06)
