@<TRIPOS>MOLECULE
NONAME
39 41 1 0 0 
SMALL
USER_CHARGES


@<TRIPOS>ATOM
  1 O       -0.5410     0.2430     0.2840 O.2   1 <1>  -0.5700 
  2 C       -1.5600     0.8470    -0.0160 C.2   1 <1>   0.7150 
  3 N       -2.7310     0.1120    -0.0110 N.am  1 <1>  -0.6600 
  4 C       -1.5080     2.2700    -0.3450 C.2   1 <1>   0.1010 
  5 C       -4.1060     0.6450    -0.1880 C.3   1 <1>   0.1400 
  6 C       -2.7660    -1.3640     0.1280 C.3   1 <1>   0.1400 
  7 N       -2.4440     2.9610    -0.9690 N.2   1 <1>  -0.5650 
  8 N       -0.4350     3.0690    -0.0370 N.pl3 1 <1>   0.0480 
  9 C       -5.0170    -0.4870     0.2850 C.3   1 <1>   0.2000 
 10 C       -4.2340    -1.7520    -0.0820 C.3   1 <1>  -0.0800 
 11 C       -1.9620     4.2040    -1.0560 C.2   1 <1>   0.0770 
 12 C       -0.7400     4.2910    -0.4930 C.2   1 <1>  -0.3020 
 13 C        0.8240     2.7310     0.6600 C.3   1 <1>   0.0160 
 14 O       -5.1350    -0.3990     1.6640 O.3   1 <1>  -0.6800 
 15 C       -4.6550    -3.0300     0.6670 C.3   1 <1>  -0.0170 
 16 C       -3.8620    -4.2310     0.1770 C.ar  1 <1>  -0.1440 
 17 C       -2.7610    -4.7100     0.8580 C.ar  1 <1>  -0.1500 
 18 C       -4.2030    -4.9030    -0.9790 C.ar  1 <1>  -0.1500 
 19 C       -2.0710    -5.8030     0.3600 C.ar  1 <1>   0.1600 
 20 C       -3.4460    -5.9870    -1.3900 C.ar  1 <1>   0.1600 
 21 N       -2.3860    -6.4530    -0.7490 N.ar  1 <1>  -0.6200 
 22 H       -4.2650     1.5480     0.3770 H     1 <1>   0.0800 
 23 H       -4.2720     0.8430    -1.2330 H     1 <1>   0.0800 
 24 H       -2.1260    -1.8340    -0.6000 H     1 <1>   0.0800 
 25 H       -2.4330    -1.6300     1.1170 H     1 <1>   0.0800 
 26 H       -6.0020    -0.4480    -0.1480 H     1 <1>   0.0800 
 27 H       -4.3690    -1.9210    -1.1360 H     1 <1>   0.0800 
 28 H       -2.5230     4.9950    -1.5270 H     1 <1>   0.1500 
 29 H       -0.0920     5.1430    -0.4020 H     1 <1>   0.1500 
 30 H        1.4020     3.6230     0.8220 H     1 <1>   0.0800 
 31 H        1.3890     2.0430     0.0570 H     1 <1>   0.0800 
 32 H        0.5980     2.2740     1.6060 H     1 <1>   0.0800 
 33 H       -4.2490    -0.2250     2.0410 H     1 <1>   0.4000 
 34 H       -5.7050    -3.2070     0.5100 H     1 <1>   0.0800 
 35 H       -4.5060    -2.9110     1.7260 H     1 <1>   0.0800 
 36 H       -2.4310    -4.2460     1.7690 H     1 <1>   0.1500 
 37 H       -5.0490    -4.5940    -1.5650 H     1 <1>   0.1500 
 38 H       -1.2140    -6.1630     0.9040 H     1 <1>   0.1500 
 39 H       -3.7260    -6.4990    -2.2950 H     1 <1>   0.1500 
@<TRIPOS>BOND
  1   1   2  2   
  2   2   3  am  
  3   2   4  1   
  4   3   5  1   
  5   3   6  1   
  6   4   7  2   
  7   4   8  1   
  8   5   9  1   
  9   5  22  1   
 10   5  23  1   
 11   6  10  1   
 12   6  24  1   
 13   6  25  1   
 14   7  11  1   
 15   8  12  1   
 16   8  13  1   
 17   9  10  1   
 18   9  14  1   
 19   9  26  1   
 20  10  15  1   
 21  10  27  1   
 22  11  12  2   
 23  11  28  1   
 24  12  29  1   
 25  13  30  1   
 26  13  31  1   
 27  13  32  1   
 28  14  33  1   
 29  15  16  1   
 30  15  34  1   
 31  15  35  1   
 32  16  17  ar  
 33  16  18  ar  
 34  17  19  ar  
 35  17  36  1   
 36  18  20  ar  
 37  18  37  1   
 38  19  21  ar  
 39  19  38  1   
 40  20  21  ar  
 41  20  39  1   
@<TRIPOS>SUBSTRUCTURE
  1 ****   6 GROUP 4 **** **** 0

# MOE 2024.06 (io_trps.svl 2023.06)
