@<TRIPOS>MOLECULE
NONAME
53 56 1 0 0 
SMALL
USER_CHARGES


@<TRIPOS>ATOM
  1 O       -2.4900     0.7430    -2.0300 O.2   1 <1>  -0.5700 
  2 C       -2.3180     1.1880    -0.9110 C.2   1 <1>   0.5440 
  3 N       -2.5080     0.3200     0.1420 N.am  1 <1>  -0.6600 
  4 C       -2.0230     2.5920    -0.6980 C.ar  1 <1>   0.0860 
  5 C       -3.4730     0.6670     1.2270 C.3   1 <1>   0.1400 
  6 C       -2.3810    -1.1480    -0.0880 C.3   1 <1>   0.1400 
  7 C       -2.5350     3.5740    -1.5450 C.ar  1 <1>  -0.1500 
  8 C       -1.2350     3.0250     0.3690 C.ar  1 <1>  -0.1500 
  9 C       -4.8660     0.0450     0.9550 C.3   1 <1>   0.4230 
 10 C       -3.7610    -1.7440    -0.4170 C.3   1 <1>   0.3430 
 11 C       -2.2950     4.9160    -1.3190 C.ar  1 <1>  -0.1500 
 12 C       -0.9940     4.3680     0.5920 C.ar  1 <1>  -0.1500 
 13 N       -4.7830    -1.4470     0.6620 N.4   1 <1>  -0.9590 
 14 C       -5.5950     0.7920    -0.1870 C.3   1 <1>   0.1200 
 15 C       -1.5220     5.3510    -0.2440 C.ar  1 <1>   0.0540 
 16 C       -6.1590    -1.9670     0.3370 C.3   1 <1>   0.4230 
 17 O       -6.8570     0.2290    -0.4020 O.3   1 <1>  -0.5600 
 18 C       -1.2890     6.7620    -0.0160 C.2   1 <1>   0.2350 
 19 C       -6.8400    -1.1220    -0.7680 C.3   1 <1>   0.1200 
 20 C       -6.1080    -3.4660    -0.0030 C.3   1 <1>  -0.1600 
 21 N       -2.1090     7.7100    -0.4030 N.2   1 <1>  -0.7070 
 22 C       -0.1800     7.3120     0.6360 C.2   1 <1>  -0.1500 
 23 C       -7.4960    -4.1240     0.0380 C.3   1 <1>  -0.1600 
 24 N       -1.5410     8.8590    -0.0030 N.pl3 1 <1>   0.3000 
 25 C       -0.3730     8.6450     0.6290 C.2   1 <1>  -0.3020 
 26 C       -7.3940    -5.6290    -0.2230 C.3   1 <1>  -0.2400 
 27 H       -3.0930     0.3050     2.1660 H     1 <1>   0.0800 
 28 H       -3.5720     1.7360     1.3120 H     1 <1>   0.0800 
 29 H       -1.7070    -1.3320    -0.9090 H     1 <1>   0.0800 
 30 H       -1.9670    -1.6200     0.7850 H     1 <1>   0.0800 
 31 H       -3.1300     3.2790    -2.3920 H     1 <1>   0.1500 
 32 H       -0.8020     2.2960     1.0320 H     1 <1>   0.1500 
 33 H       -5.4610     0.1910     1.8420 H     1 <1>   0.0800 
 34 H       -3.6560    -2.8080    -0.5460 H     1 <1>   0.0800 
 35 H       -4.0870    -1.3280    -1.3570 H     1 <1>   0.0800 
 36 H       -2.7090     5.6540    -1.9860 H     1 <1>   0.1500 
 37 H       -0.3890     4.6620     1.4310 H     1 <1>   0.1500 
 38 H       -4.4730    -1.9150     1.5200 H     1 <1>   0.4500 
 39 H       -5.0390     0.7530    -1.1090 H     1 <1>   0.0800 
 40 H       -5.7420     1.8250     0.0760 H     1 <1>   0.0800 
 41 H       -6.7700    -1.8650     1.2200 H     1 <1>   0.0800 
 42 H       -7.8630    -1.4270    -0.8970 H     1 <1>   0.0800 
 43 H       -6.3330    -1.2210    -1.7120 H     1 <1>   0.0800 
 44 H       -5.6910    -3.6120    -0.9840 H     1 <1>   0.0800 
 45 H       -5.4830    -3.9680     0.7150 H     1 <1>   0.0800 
 46 H        0.6480     6.7630     1.0460 H     1 <1>   0.1500 
 47 H       -7.9510    -3.9700     1.0030 H     1 <1>   0.0800 
 48 H       -8.1430    -3.6930    -0.7070 H     1 <1>   0.0800 
 49 H       -1.9750     9.7750    -0.1760 H     1 <1>   0.2700 
 50 H        0.2380     9.4370     1.0240 H     1 <1>   0.1500 
 51 H       -6.7840    -6.1070     0.5230 H     1 <1>   0.0800 
 52 H       -6.9690    -5.8200    -1.1930 H     1 <1>   0.0800 
 53 H       -8.3730    -6.0740    -0.1920 H     1 <1>   0.0800 
@<TRIPOS>BOND
  1   1   2  2   
  2   2   3  am  
  3   2   4  1   
  4   3   5  1   
  5   3   6  1   
  6   4   7  ar  
  7   4   8  ar  
  8   5   9  1   
  9   5  27  1   
 10   5  28  1   
 11   6  10  1   
 12   6  29  1   
 13   6  30  1   
 14   7  11  ar  
 15   7  31  1   
 16   8  12  ar  
 17   8  32  1   
 18   9  13  1   
 19   9  14  1   
 20   9  33  1   
 21  10  13  1   
 22  10  34  1   
 23  10  35  1   
 24  11  15  ar  
 25  11  36  1   
 26  12  15  ar  
 27  12  37  1   
 28  13  16  1   
 29  13  38  1   
 30  14  17  1   
 31  14  39  1   
 32  14  40  1   
 33  15  18  1   
 34  16  19  1   
 35  16  20  1   
 36  16  41  1   
 37  17  19  1   
 38  18  21  2   
 39  18  22  1   
 40  19  42  1   
 41  19  43  1   
 42  20  23  1   
 43  20  44  1   
 44  20  45  1   
 45  21  24  1   
 46  22  25  2   
 47  22  46  1   
 48  23  26  1   
 49  23  47  1   
 50  23  48  1   
 51  24  25  1   
 52  24  49  1   
 53  25  50  1   
 54  26  51  1   
 55  26  52  1   
 56  26  53  1   
@<TRIPOS>SUBSTRUCTURE
  1 ****   2 GROUP 4 **** **** 0

# MOE 2024.06 (io_trps.svl 2023.06)
