@<TRIPOS>MOLECULE
NONAME
52 55 1 0 0 
SMALL
USER_CHARGES


@<TRIPOS>ATOM
  1 CL      -2.1820    -2.3390    -3.1230 Cl    1 <1>  -0.1770 
  2 C       -3.2880    -2.4250    -1.7730 C.ar  1 <1>   0.1770 
  3 C       -4.4780    -1.7410    -1.8260 C.ar  1 <1>  -0.1500 
  4 C       -2.9240    -3.1980    -0.6650 C.ar  1 <1>  -0.1500 
  5 C       -5.3370    -1.8310    -0.7340 C.ar  1 <1>   0.2270 
  6 C       -3.7710    -3.2890     0.4180 C.ar  1 <1>  -0.1500 
  7 N       -6.5580    -1.2580    -0.5450 N.2   1 <1>  -0.5650 
  8 C       -4.9820    -2.5930     0.3670 C.ar  1 <1>  -0.1520 
  9 C       -6.9190    -1.6590     0.6240 C.2   1 <1>   0.0060 
 10 N       -6.0170    -2.4690     1.2350 N.pl3 1 <1>   0.0330 
 11 C       -8.2300    -1.2920     1.2880 C.3   1 <1>   0.0810 
 12 C       -8.9480    -2.5450     1.7580 C.2   1 <1>   0.5690 
 13 O       -8.7420    -2.8930     2.8980 O.2   1 <1>  -0.5700 
 14 N       -9.7630    -3.2640     0.9210 N.am  1 <1>  -0.6600 
 15 C      -10.4710    -4.4970     1.3910 C.3   1 <1>   0.1400 
 16 C       -9.9350    -2.9880    -0.5360 C.3   1 <1>   0.1400 
 17 C      -11.9890    -4.2930     1.5360 C.3   1 <1>   0.1400 
 18 C      -11.1270    -2.0600    -0.8040 C.3   1 <1>  -0.1600 
 19 N      -12.6170    -3.7350     0.2940 N.am  1 <1>  -0.6600 
 20 C      -12.3500    -2.2840     0.0940 C.3   1 <1>   0.1400 
 21 C      -13.3620    -4.4340    -0.6260 C.2   1 <1>   0.5690 
 22 O      -13.7560    -3.8940    -1.6350 O.2   1 <1>  -0.5700 
 23 C      -13.7090    -5.9160    -0.4100 C.3   1 <1>  -0.0190 
 24 C      -12.5420    -6.8750    -0.6780 C.3   1 <1>  -0.1600 
 25 C      -14.8230    -6.4700    -1.3060 C.3   1 <1>  -0.1600 
 26 C      -13.1720    -8.2340    -1.0050 C.3   1 <1>  -0.1600 
 27 C      -14.6690    -7.9850    -1.2120 C.3   1 <1>  -0.1600 
 28 H       -4.7580    -1.1480    -2.6760 H     1 <1>   0.1500 
 29 H       -1.9800    -3.7130    -0.6780 H     1 <1>   0.1500 
 30 H       -3.5150    -3.8760     1.2830 H     1 <1>   0.1500 
 31 H       -6.1210    -2.9180     2.1510 H     1 <1>   0.2700 
 32 H       -8.8460    -0.7340     0.6110 H     1 <1>   0.0800 
 33 H       -8.0300    -0.6640     2.1360 H     1 <1>   0.0800 
 34 H      -10.0770    -4.8090     2.3430 H     1 <1>   0.0800 
 35 H      -10.2830    -5.2970     0.6970 H     1 <1>   0.0800 
 36 H      -10.1050    -3.9200    -1.0490 H     1 <1>   0.0800 
 37 H       -9.0380    -2.5630    -0.9510 H     1 <1>   0.0800 
 38 H      -12.1690    -3.6200     2.3560 H     1 <1>   0.0800 
 39 H      -12.4390    -5.2310     1.8020 H     1 <1>   0.0800 
 40 H      -11.4290    -2.1890    -1.8280 H     1 <1>   0.0800 
 41 H      -10.8140    -1.0370    -0.7050 H     1 <1>   0.0800 
 42 H      -13.2120    -1.8150    -0.3500 H     1 <1>   0.0800 
 43 H      -12.1840    -1.8160     1.0490 H     1 <1>   0.0800 
 44 H      -14.0400    -6.0440     0.6040 H     1 <1>   0.0800 
 45 H      -11.8770    -6.9460     0.1630 H     1 <1>   0.0800 
 46 H      -11.9890    -6.5260    -1.5340 H     1 <1>   0.0800 
 47 H      -14.6600    -6.1640    -2.3260 H     1 <1>   0.0800 
 48 H      -15.7970    -6.1360    -0.9920 H     1 <1>   0.0800 
 49 H      -13.0210    -8.9310    -0.1990 H     1 <1>   0.0800 
 50 H      -12.7290    -8.6390    -1.9000 H     1 <1>   0.0800 
 51 H      -15.0390    -8.4760    -2.0960 H     1 <1>   0.0800 
 52 H      -15.2140    -8.3480    -0.3570 H     1 <1>   0.0800 
@<TRIPOS>BOND
  1   1   2  1   
  2   2   3  ar  
  3   2   4  ar  
  4   3   5  ar  
  5   3  28  1   
  6   4   6  ar  
  7   4  29  1   
  8   5   7  1   
  9   5   8  ar  
 10   6   8  ar  
 11   6  30  1   
 12   7   9  2   
 13   8  10  1   
 14   9  10  1   
 15   9  11  1   
 16  10  31  1   
 17  11  12  1   
 18  11  32  1   
 19  11  33  1   
 20  12  13  2   
 21  12  14  am  
 22  14  15  1   
 23  14  16  1   
 24  15  17  1   
 25  15  34  1   
 26  15  35  1   
 27  16  18  1   
 28  16  36  1   
 29  16  37  1   
 30  17  19  1   
 31  17  38  1   
 32  17  39  1   
 33  18  20  1   
 34  18  40  1   
 35  18  41  1   
 36  19  20  1   
 37  19  21  am  
 38  20  42  1   
 39  20  43  1   
 40  21  22  2   
 41  21  23  1   
 42  23  24  1   
 43  23  25  1   
 44  23  44  1   
 45  24  26  1   
 46  24  45  1   
 47  24  46  1   
 48  25  27  1   
 49  25  47  1   
 50  25  48  1   
 51  26  27  1   
 52  26  49  1   
 53  26  50  1   
 54  27  51  1   
 55  27  52  1   
@<TRIPOS>SUBSTRUCTURE
  1 ****  16 GROUP 4 **** **** 0

# MOE 2024.06 (io_trps.svl 2023.06)
