@<TRIPOS>MOLECULE
NONAME
48 49 1 0 0 
SMALL
USER_CHARGES


@<TRIPOS>ATOM
  1 O       -0.6070     2.1420     0.9240 O.3   1 <1>  -0.5600 
  2 C       -1.4300     1.5040    -0.0340 C.3   1 <1>   0.2000 
  3 C       -0.6230     1.4930     2.1740 C.3   1 <1>   0.1200 
  4 C       -0.9890     0.0340    -0.1920 C.3   1 <1>   0.1200 
  5 C       -1.3570     2.2560    -1.3830 C.3   1 <1>   0.3430 
  6 C       -0.2180     0.0160     2.0220 C.3   1 <1>   0.1200 
  7 O       -1.0100    -0.5970     1.0490 O.3   1 <1>  -0.5600 
  8 N       -0.0310     2.9510    -1.5740 N.4   1 <1>  -0.9590 
  9 C       -0.0720     4.3120    -0.9230 C.3   1 <1>   0.3430 
 10 C        0.3590     2.9910    -3.0220 C.3   1 <1>   0.2630 
 11 C        1.3130     4.8060    -0.4230 C.3   1 <1>   0.3430 
 12 N        1.2520     6.0180     0.4800 N.4   1 <1>  -0.9590 
 13 C        2.6150     6.5760     0.7530 C.3   1 <1>   0.4230 
 14 C        0.5610     5.6920     1.7780 C.3   1 <1>   0.2630 
 15 C        2.5400     7.9060     1.5190 C.3   1 <1>  -0.1600 
 16 C        3.3670     6.8970    -0.5430 C.3   1 <1>  -0.1600 
 17 C        3.3430     8.9370     0.7200 C.3   1 <1>  -0.1600 
 18 C        4.2180     8.1200    -0.2200 C.3   1 <1>  -0.1600 
 19 H       -2.4470     1.5170     0.3210 H     1 <1>   0.0800 
 20 H       -1.6140     1.5620     2.5910 H     1 <1>   0.0800 
 21 H        0.0620     1.9990     2.8300 H     1 <1>   0.0800 
 22 H        0.0060    -0.0420    -0.5960 H     1 <1>   0.0800 
 23 H       -1.6670    -0.5010    -0.8340 H     1 <1>   0.0800 
 24 H       -2.1580     2.9750    -1.4300 H     1 <1>   0.0800 
 25 H       -1.5240     1.5450    -2.1760 H     1 <1>   0.0800 
 26 H       -0.3690    -0.5120     2.9480 H     1 <1>   0.0800 
 27 H        0.8160    -0.0770     1.7390 H     1 <1>   0.0800 
 28 H        0.6300     2.3580    -1.0430 H     1 <1>   0.4500 
 29 H       -0.7250     4.2560    -0.0680 H     1 <1>   0.0800 
 30 H       -0.4870     5.0290    -1.6110 H     1 <1>   0.0800 
 31 H       -0.3520     3.5710    -3.5890 H     1 <1>   0.0800 
 32 H        0.3860     1.9930    -3.4300 H     1 <1>   0.0800 
 33 H        1.3360     3.4300    -3.1410 H     1 <1>   0.0800 
 34 H        1.9180     5.0290    -1.2850 H     1 <1>   0.0800 
 35 H        1.7870     4.0030     0.1180 H     1 <1>   0.0800 
 36 H        0.7450     6.7890     0.0170 H     1 <1>   0.4500 
 37 H        3.1990     5.8770     1.3320 H     1 <1>   0.0800 
 38 H        1.1030     4.9260     2.3090 H     1 <1>   0.0800 
 39 H       -0.4430     5.3430     1.6020 H     1 <1>   0.0800 
 40 H        0.5060     6.5650     2.4090 H     1 <1>   0.0800 
 41 H        3.0020     7.7770     2.4830 H     1 <1>   0.0800 
 42 H        1.5370     8.2680     1.6600 H     1 <1>   0.0800 
 43 H        2.6830     7.1690    -1.3280 H     1 <1>   0.0800 
 44 H        3.9890     6.0790    -0.8620 H     1 <1>   0.0800 
 45 H        3.9310     9.5770     1.3580 H     1 <1>   0.0800 
 46 H        2.6740     9.5520     0.1410 H     1 <1>   0.0800 
 47 H        4.4900     8.6760    -1.1030 H     1 <1>   0.0800 
 48 H        5.1170     7.8190     0.2930 H     1 <1>   0.0800 
@<TRIPOS>BOND
  1   1   2  1   
  2   1   3  1   
  3   2   4  1   
  4   2   5  1   
  5   2  19  1   
  6   3   6  1   
  7   3  20  1   
  8   3  21  1   
  9   4   7  1   
 10   4  22  1   
 11   4  23  1   
 12   5   8  1   
 13   5  24  1   
 14   5  25  1   
 15   6   7  1   
 16   6  26  1   
 17   6  27  1   
 18   8   9  1   
 19   8  10  1   
 20   8  28  1   
 21   9  11  1   
 22   9  29  1   
 23   9  30  1   
 24  10  31  1   
 25  10  32  1   
 26  10  33  1   
 27  11  12  1   
 28  11  34  1   
 29  11  35  1   
 30  12  13  1   
 31  12  14  1   
 32  12  36  1   
 33  13  15  1   
 34  13  16  1   
 35  13  37  1   
 36  14  38  1   
 37  14  39  1   
 38  14  40  1   
 39  15  17  1   
 40  15  41  1   
 41  15  42  1   
 42  16  18  1   
 43  16  43  1   
 44  16  44  1   
 45  17  18  1   
 46  17  45  1   
 47  17  46  1   
 48  18  47  1   
 49  18  48  1   
@<TRIPOS>SUBSTRUCTURE
  1 ****  11 GROUP 4 **** **** 0

# MOE 2024.06 (io_trps.svl 2023.06)
