@<TRIPOS>MOLECULE
NONAME
41 43 1 0 0 
SMALL
USER_CHARGES


@<TRIPOS>ATOM
  1 O       -1.4120     0.4690     2.5090 O.2   1 <1>  -0.5700 
  2 C       -1.8020     1.0440     1.5050 C.2   1 <1>   0.5440 
  3 N       -2.5230     0.2800     0.6030 N.am  1 <1>  -0.6600 
  4 C       -1.5100     2.4760     1.3310 C.ar  1 <1>   0.3960 
  5 C       -3.1960     0.7600    -0.6310 C.3   1 <1>   0.1400 
  6 C       -2.6920    -1.1870     0.7430 C.3   1 <1>   0.1400 
  7 N       -1.4370     3.0200     0.1010 N.ar  1 <1>  -0.6200 
  8 C       -1.3010     3.2590     2.4690 C.ar  1 <1>  -0.1500 
  9 C       -4.1330    -0.3810    -1.0220 C.3   1 <1>   0.2000 
 10 C       -3.3900    -1.6340    -0.5470 C.3   1 <1>  -0.0800 
 11 C       -1.1660     4.3070     0.0130 C.ar  1 <1>   0.1660 
 12 C       -1.0200     4.6030     2.3720 C.ar  1 <1>  -0.1500 
 13 O       -5.3100    -0.2390    -0.3010 O.3   1 <1>  -0.6800 
 14 C       -4.2710    -2.8870    -0.3780 C.3   1 <1>   0.0200 
 15 C       -0.9520     5.1320     1.1040 C.ar  1 <1>  -0.1500 
 16 C       -1.0920     4.8720    -1.3900 C.3   1 <1>  -0.0970 
 17 C       -3.4720    -4.1370    -0.0500 C.2   1 <1>  -0.0400 
 18 O       -4.1180    -5.2350     0.2390 O.3   1 <1>  -0.0190 
 19 C       -2.1580    -4.4090     0.0160 C.2   1 <1>  -0.1500 
 20 N       -3.3110    -6.2230     0.4980 N.2   1 <1>  -0.4100 
 21 C       -2.1230    -5.7540     0.3720 C.2   1 <1>   0.1080 
 22 C       -0.8630    -6.5630     0.5850 C.3   1 <1>  -0.0590 
 23 H       -3.7320     1.6800    -0.4660 H     1 <1>   0.0800 
 24 H       -2.4550     0.9080    -1.3970 H     1 <1>   0.0800 
 25 H       -1.7360    -1.6650     0.8710 H     1 <1>   0.0800 
 26 H       -3.3050    -1.3870     1.6060 H     1 <1>   0.0800 
 27 H       -1.3600     2.7990     3.4390 H     1 <1>   0.1500 
 28 H       -4.3720    -0.3930    -2.0710 H     1 <1>   0.0800 
 29 H       -2.6270    -1.8490    -1.2740 H     1 <1>   0.0800 
 30 H       -0.8580     5.2110     3.2460 H     1 <1>   0.1500 
 31 H       -5.0810    -0.0400     0.6300 H     1 <1>   0.4000 
 32 H       -4.8190    -3.0620    -1.2870 H     1 <1>   0.0800 
 33 H       -4.9890    -2.7280     0.4070 H     1 <1>   0.0800 
 34 H       -0.7350     6.1760     0.9670 H     1 <1>   0.1500 
 35 H       -0.8590     5.9200    -1.3760 H     1 <1>   0.0800 
 36 H       -2.0360     4.7320    -1.8850 H     1 <1>   0.0800 
 37 H       -0.3310     4.3550    -1.9460 H     1 <1>   0.0800 
 38 H       -1.3050    -3.7800    -0.1550 H     1 <1>   0.1500 
 39 H       -0.2700    -6.5580    -0.3110 H     1 <1>   0.0800 
 40 H       -1.1160    -7.5790     0.8290 H     1 <1>   0.0800 
 41 H       -0.2920    -6.1430     1.3920 H     1 <1>   0.0800 
@<TRIPOS>BOND
  1   1   2  2   
  2   2   3  am  
  3   2   4  1   
  4   3   5  1   
  5   3   6  1   
  6   4   7  ar  
  7   4   8  ar  
  8   5   9  1   
  9   5  23  1   
 10   5  24  1   
 11   6  10  1   
 12   6  25  1   
 13   6  26  1   
 14   7  11  ar  
 15   8  12  ar  
 16   8  27  1   
 17   9  10  1   
 18   9  13  1   
 19   9  28  1   
 20  10  14  1   
 21  10  29  1   
 22  11  15  ar  
 23  11  16  1   
 24  12  15  ar  
 25  12  30  1   
 26  13  31  1   
 27  14  17  1   
 28  14  32  1   
 29  14  33  1   
 30  15  34  1   
 31  16  35  1   
 32  16  36  1   
 33  16  37  1   
 34  17  18  1   
 35  17  19  2   
 36  18  20  1   
 37  19  21  1   
 38  19  38  1   
 39  20  21  2   
 40  21  22  1   
 41  22  39  1   
 42  22  40  1   
 43  22  41  1   
@<TRIPOS>SUBSTRUCTURE
  1 ****   3 GROUP 4 **** **** 0

# MOE 2024.06 (io_trps.svl 2023.06)
