@<TRIPOS>MOLECULE
Untitled Document
29 31 1 0 0 
SMALL
USER_CHARGES


@<TRIPOS>ATOM
  1 O        0.1700     0.5300     0.7800 O.2   1 <1>  -0.5700 
  2 C        0.1670     1.6950     0.4560 C.2   1 <1>   0.5690 
  3 N        1.3270     2.3600     0.1490 N.am  1 <1>  -0.6600 
  4 C       -1.1860     2.4250     0.4100 C.3   1 <1>   0.1710 
  5 C        1.3230     3.7880    -0.3280 C.3   1 <1>   0.3640 
  6 C        2.6400     1.6670     0.3240 C.3   1 <1>   0.1400 
  7 N       -1.1990     3.6770    -0.3850 N.3   1 <1>  -0.9000 
  8 C        2.5510     4.5480     0.1990 C.ar  1 <1>  -0.1440 
  9 C       -0.0250     4.4910    -0.0230 C.3   1 <1>   0.1100 
 10 C        3.8100     2.4450    -0.2840 C.3   1 <1>  -0.0160 
 11 C        3.7720     3.8840     0.1980 C.ar  1 <1>  -0.1440 
 12 C        2.5080     5.8640     0.6480 C.ar  1 <1>  -0.1500 
 13 C        4.9230     4.5190     0.6350 C.ar  1 <1>  -0.1500 
 14 C        3.6580     6.4970     1.0880 C.ar  1 <1>  -0.1500 
 15 C        4.8660     5.8260     1.0810 C.ar  1 <1>  -0.1500 
 16 H       -1.4660     2.6540     1.4230 H     1 <1>   0.0800 
 17 H       -1.9250     1.7510     0.0150 H     1 <1>   0.0800 
 18 H        1.4200     3.7600    -1.3990 H     1 <1>   0.0800 
 19 H        2.8150     1.5460     1.3800 H     1 <1>   0.0800 
 20 H        2.5890     0.6860    -0.1170 H     1 <1>   0.0800 
 21 H       -1.1180     3.4160    -1.3770 H     1 <1>   0.3600 
 22 H       -0.0680     5.4180    -0.5680 H     1 <1>   0.0800 
 23 H       -0.0700     4.7270     1.0280 H     1 <1>   0.0800 
 24 H        4.7320     1.9740     0.0040 H     1 <1>   0.0800 
 25 H        3.7440     2.4180    -1.3570 H     1 <1>   0.0800 
 26 H        1.5920     6.4250     0.6650 H     1 <1>   0.1500 
 27 H        5.8660     4.0020     0.6330 H     1 <1>   0.1500 
 28 H        3.6120     7.5150     1.4350 H     1 <1>   0.1500 
 29 H        5.7590     6.3200     1.4220 H     1 <1>   0.1500 
@<TRIPOS>BOND
  1   1   2  2   
  2   2   3  am  
  3   2   4  1   
  4   3   5  1   
  5   3   6  1   
  6   4   7  1   
  7   4  16  1   
  8   4  17  1   
  9   5   8  1   
 10   5   9  1   
 11   5  18  1   
 12   6  10  1   
 13   6  19  1   
 14   6  20  1   
 15   7   9  1   
 16   7  21  1   
 17   8  11  ar  
 18   8  12  ar  
 19   9  22  1   
 20   9  23  1   
 21  10  11  1   
 22  10  24  1   
 23  10  25  1   
 24  11  13  ar  
 25  12  14  ar  
 26  12  26  1   
 27  13  15  ar  
 28  13  27  1   
 29  14  15  ar  
 30  14  28  1   
 31  15  29  1   
@<TRIPOS>SUBSTRUCTURE
  1 ****   5 GROUP 4 **** **** 0

# MOE 2024.06 (io_trps.svl 2023.06)
