@<TRIPOS>MOLECULE
NONAME
40 42 1 0 0 
SMALL
USER_CHARGES


@<TRIPOS>ATOM
  1 S       -0.0590     0.3510    -0.9410 S.o2  1 <1>   1.5000 
  2 O        0.8480    -0.4120    -1.7720 O.2   1 <1>  -0.6500 
  3 O       -0.9790     1.2860    -1.5550 O.2   1 <1>  -0.6500 
  4 N       -0.9820    -0.7270    -0.0140 N.am  1 <1>  -0.8490 
  5 C        0.9190     1.1770     0.3390 C.2   1 <1>  -0.0220 
  6 C       -1.5000    -1.8580    -0.8160 C.3   1 <1>   0.1960 
  7 C       -2.0750    -0.0530     0.6930 C.3   1 <1>   0.1960 
  8 S        1.1210     2.9260     0.2450 S.3   1 <1>  -0.0800 
  9 C        1.5850     0.7090     1.4160 C.2   1 <1>  -0.1500 
 10 C       -2.1230    -2.9400     0.0880 C.3   1 <1>  -0.1060 
 11 C       -2.7590    -1.0180     1.6600 C.3   1 <1>  -0.1600 
 12 C        2.1100     2.9530     1.6940 C.2   1 <1>  -0.1100 
 13 C        2.2580     1.7110     2.1860 C.2   1 <1>  -0.1500 
 14 C       -2.8130    -3.9910    -0.7770 C.2   1 <1>   0.9060 
 15 C       -3.2370    -2.2580     0.9070 C.3   1 <1>   0.2000 
 16 C       -1.0410    -3.6100     0.9870 C.3   1 <1>  -0.0650 
 17 O       -2.7300    -3.9350    -2.0090 O.co2 1 <1>  -0.9000 
 18 O       -3.4980    -4.8570    -0.2110 O.co2 1 <1>  -0.9000 
 19 O       -3.7730    -3.1440     1.8190 O.3   1 <1>  -0.6800 
 20 C        0.1050    -4.2750     0.2080 C.3   1 <1>  -0.1950 
 21 C        1.3900    -4.6070     0.8970 C.3   1 <1>  -0.2000 
 22 C        1.3510    -3.5230    -0.1410 C.3   1 <1>  -0.2000 
 23 H       -2.2370    -1.4960    -1.5150 H     1 <1>   0.0800 
 24 H       -0.7100    -2.3010    -1.3990 H     1 <1>   0.0800 
 25 H       -1.6890     0.7840     1.2500 H     1 <1>   0.0800 
 26 H       -2.7950     0.3190    -0.0190 H     1 <1>   0.0800 
 27 H        1.6260    -0.3290     1.7000 H     1 <1>   0.1500 
 28 H       -3.6040    -0.5300     2.1100 H     1 <1>   0.0800 
 29 H       -2.0710    -1.2920     2.4380 H     1 <1>   0.0800 
 30 H        2.4790     3.9080     2.0250 H     1 <1>   0.1500 
 31 H        2.8200     1.4500     3.0670 H     1 <1>   0.1500 
 32 H       -4.0350    -1.9790     0.2380 H     1 <1>   0.0800 
 33 H       -0.6250    -2.8860     1.6620 H     1 <1>   0.0800 
 34 H       -1.5090    -4.3720     1.5860 H     1 <1>   0.0800 
 35 H       -3.8880    -4.0020     1.3150 H     1 <1>   0.4000 
 36 H       -0.2540    -4.9940    -0.5110 H     1 <1>   0.1000 
 37 H        1.5110    -4.3310     1.9300 H     1 <1>   0.1000 
 38 H        1.8690    -5.5400     0.6580 H     1 <1>   0.1000 
 39 H        1.7810    -3.6940    -1.1130 H     1 <1>   0.1000 
 40 H        1.4320    -2.4950     0.1660 H     1 <1>   0.1000 
@<TRIPOS>BOND
  1   1   2  2   
  2   1   3  2   
  3   1   4  am  
  4   1   5  1   
  5   4   6  1   
  6   4   7  1   
  7   5   8  1   
  8   5   9  2   
  9   6  10  1   
 10   6  23  1   
 11   6  24  1   
 12   7  11  1   
 13   7  25  1   
 14   7  26  1   
 15   8  12  1   
 16   9  13  1   
 17   9  27  1   
 18  10  14  1   
 19  10  15  1   
 20  10  16  1   
 21  11  15  1   
 22  11  28  1   
 23  11  29  1   
 24  12  13  2   
 25  12  30  1   
 26  13  31  1   
 27  14  17  ar  
 28  14  18  ar  
 29  15  19  1   
 30  15  32  1   
 31  16  20  1   
 32  16  33  1   
 33  16  34  1   
 34  19  35  1   
 35  20  21  1   
 36  20  22  1   
 37  20  36  1   
 38  21  22  1   
 39  21  37  1   
 40  21  38  1   
 41  22  39  1   
 42  22  40  1   
@<TRIPOS>SUBSTRUCTURE
  1 ****   4 GROUP 4 **** **** 0

# MOE 2024.06 (io_trps.svl 2023.06)
