@<TRIPOS>MOLECULE
NONAME
46 48 1 0 0 
SMALL
USER_CHARGES


@<TRIPOS>ATOM
  1 O       -0.2550     1.0730     1.1790 O.2   1 <1>  -0.5700 
  2 C       -0.0700     2.2350     0.8550 C.2   1 <1>   0.5440 
  3 N       -1.1470     3.1010     0.8150 N.am  1 <1>  -0.6600 
  4 C        1.2650     2.6760     0.5190 C.ar  1 <1>   0.0860 
  5 C       -2.5120     2.6720     1.2450 C.3   1 <1>   0.1400 
  6 C       -1.0830     4.4100     0.0970 C.3   1 <1>   0.1400 
  7 C        1.9880     2.0680    -0.5220 C.ar  1 <1>   0.1000 
  8 C        1.8660     3.7200     1.2250 C.ar  1 <1>  -0.1500 
  9 C       -3.4850     2.5290     0.0410 C.3   1 <1>   0.0000 
 10 C       -2.4510     4.8220    -0.4690 C.3   1 <1>  -0.1600 
 11 N        1.4620     1.0040    -1.2350 N.pl3 1 <1>  -0.9000 
 12 C        3.2580     2.5330    -0.8470 C.ar  1 <1>  -0.1500 
 13 C        3.1310     4.1620     0.8930 C.ar  1 <1>   0.0830 
 14 C       -4.9300     2.5440     0.5940 C.3   1 <1>   0.2000 
 15 C       -3.1870     3.6050    -1.0450 C.3   1 <1>  -0.1600 
 16 C       -3.3790     1.1120    -0.5480 C.3   1 <1>  -0.1600 
 17 C        3.8300     3.5750    -0.1470 C.ar  1 <1>  -0.1500 
 18 O        3.7040     5.1690     1.5760 O.3   1 <1>  -0.5330 
 19 O       -5.8500     2.7250    -0.4460 O.3   1 <1>  -0.5600 
 20 C       -5.1380     1.1370     1.1650 C.3   1 <1>  -0.1600 
 21 C       -4.2340     0.2050     0.3460 C.3   1 <1>  -0.1600 
 22 C       -7.0760     3.2630    -0.0650 C.3   1 <1>   0.0400 
 23 H       -2.4580     1.7500     1.7980 H     1 <1>   0.0800 
 24 H       -2.8860     3.4190     1.9220 H     1 <1>   0.0800 
 25 H       -0.7230     5.1720     0.7660 H     1 <1>   0.0800 
 26 H       -0.3890     4.3240    -0.7220 H     1 <1>   0.0800 
 27 H        1.3250     4.1740     2.0340 H     1 <1>   0.1500 
 28 H       -3.0440     5.2770     0.3050 H     1 <1>   0.0800 
 29 H       -2.3050     5.5590    -1.2390 H     1 <1>   0.0800 
 30 H        0.6820     0.5220    -0.7590 H     1 <1>   0.4000 
 31 H        2.1220     0.3350    -1.6400 H     1 <1>   0.4000 
 32 H        3.7960     2.0720    -1.6540 H     1 <1>   0.1500 
 33 H       -5.0690     3.3210     1.3270 H     1 <1>   0.0800 
 34 H       -2.5520     3.1720    -1.7990 H     1 <1>   0.0800 
 35 H       -4.0830     3.9270    -1.5440 H     1 <1>   0.0800 
 36 H       -3.8030     1.1090    -1.5380 H     1 <1>   0.0800 
 37 H       -2.3590     0.7730    -0.6100 H     1 <1>   0.0800 
 38 H        4.8120     3.9360    -0.3950 H     1 <1>   0.1500 
 39 H        3.1670     5.4730     2.3290 H     1 <1>   0.4500 
 40 H       -4.8160     1.1220     2.1910 H     1 <1>   0.0800 
 41 H       -6.1670     0.8280     1.1260 H     1 <1>   0.0800 
 42 H       -3.6060    -0.3750     1.0010 H     1 <1>   0.0800 
 43 H       -4.8200    -0.4640    -0.2600 H     1 <1>   0.0800 
 44 H       -7.7000     3.3220    -0.9400 H     1 <1>   0.0800 
 45 H       -6.9200     4.2500     0.3340 H     1 <1>   0.0800 
 46 H       -7.5390     2.6260     0.6670 H     1 <1>   0.0800 
@<TRIPOS>BOND
  1   1   2  2   
  2   2   3  am  
  3   2   4  1   
  4   3   5  1   
  5   3   6  1   
  6   4   7  ar  
  7   4   8  ar  
  8   5   9  1   
  9   5  23  1   
 10   5  24  1   
 11   6  10  1   
 12   6  25  1   
 13   6  26  1   
 14   7  11  1   
 15   7  12  ar  
 16   8  13  ar  
 17   8  27  1   
 18   9  14  1   
 19   9  15  1   
 20   9  16  1   
 21  10  15  1   
 22  10  28  1   
 23  10  29  1   
 24  11  30  1   
 25  11  31  1   
 26  12  17  ar  
 27  12  32  1   
 28  13  17  ar  
 29  13  18  1   
 30  14  19  1   
 31  14  20  1   
 32  14  33  1   
 33  15  34  1   
 34  15  35  1   
 35  16  21  1   
 36  16  36  1   
 37  16  37  1   
 38  17  38  1   
 39  18  39  1   
 40  19  22  1   
 41  20  21  1   
 42  20  40  1   
 43  20  41  1   
 44  21  42  1   
 45  21  43  1   
 46  22  44  1   
 47  22  45  1   
 48  22  46  1   
@<TRIPOS>SUBSTRUCTURE
  1 ****   3 GROUP 4 **** **** 0

# MOE 2024.06 (io_trps.svl 2023.06)
