@<TRIPOS>MOLECULE
NONAME
56 58 1 0 0 
SMALL
USER_CHARGES


@<TRIPOS>ATOM
  1 S        0.0830     0.3970     1.8520 S.o2  1 <1>   1.4470 
  2 O       -0.3210    -0.6570     2.7580 O.2   1 <1>  -0.6500 
  3 O        0.1910     1.7520     2.3500 O.2   1 <1>  -0.6500 
  4 N       -1.0540     0.4320     0.5950 N.am  1 <1>  -0.8490 
  5 C        1.6140    -0.0900     1.0090 C.ar  1 <1>  -0.0090 
  6 C       -2.4270     0.4830     1.1220 C.3   1 <1>   0.1960 
  7 C       -0.8220     1.5440    -0.3310 C.3   1 <1>   0.1960 
  8 C        1.6590    -1.2300     0.2160 C.ar  1 <1>  -0.1500 
  9 C        2.7780     0.6600     1.1310 C.ar  1 <1>  -0.1500 
 10 C       -3.4810     0.3330    -0.0040 C.3   1 <1>   0.0000 
 11 C       -1.7810     1.4520    -1.5220 C.3   1 <1>  -0.1600 
 12 C        2.8190    -1.6060    -0.4380 C.ar  1 <1>  -0.1500 
 13 C        3.9420     0.2900     0.4800 C.ar  1 <1>  -0.1500 
 14 C       -4.9240     0.3710     0.5380 C.3   1 <1>   0.2000 
 15 C       -3.2470     1.4300    -1.0630 C.3   1 <1>  -0.1600 
 16 C       -3.4160    -1.0810    -0.6090 C.3   1 <1>  -0.1600 
 17 C        3.9690    -0.8460    -0.3120 C.ar  1 <1>  -0.1430 
 18 O       -5.0900     1.2640     1.5830 O.3   1 <1>  -0.6800 
 19 C       -5.2640    -1.0480     0.9970 C.3   1 <1>  -0.1600 
 20 C       -4.2300    -1.9690     0.3360 C.3   1 <1>  -0.1600 
 21 C        5.2470    -1.2560    -1.0270 C.3   1 <1>  -0.0170 
 22 C        6.0860    -2.1830    -0.1410 C.3   1 <1>  -0.1600 
 23 C        7.3820    -2.6120    -0.8420 C.3   1 <1>  -0.1600 
 24 C        8.2130    -3.5380     0.0530 C.3   1 <1>  -0.1600 
 25 C        9.5060    -3.9670    -0.6460 C.3   1 <1>  -0.2400 
 26 H       -2.5680    -0.3070     1.8400 H     1 <1>   0.0800 
 27 H       -2.5670     1.4210     1.6350 H     1 <1>   0.0800 
 28 H       -0.9650     2.4840     0.1790 H     1 <1>   0.0800 
 29 H        0.1910     1.5110    -0.6960 H     1 <1>   0.0800 
 30 H        0.7700    -1.8290     0.1100 H     1 <1>   0.1500 
 31 H        2.7740     1.5460     1.7440 H     1 <1>   0.1500 
 32 H       -1.6210     2.2950    -2.1700 H     1 <1>   0.0800 
 33 H       -1.5560     0.5620    -2.0820 H     1 <1>   0.0800 
 34 H        2.8240    -2.4960    -1.0450 H     1 <1>   0.1500 
 35 H        4.8290     0.8890     0.5940 H     1 <1>   0.1500 
 36 H       -5.5970     0.6620    -0.2510 H     1 <1>   0.0800 
 37 H       -3.8940     1.2830    -1.9100 H     1 <1>   0.0800 
 38 H       -3.4910     2.3860    -0.6300 H     1 <1>   0.0800 
 39 H       -3.8880    -1.0830    -1.5760 H     1 <1>   0.0800 
 40 H       -2.4080    -1.4420    -0.7230 H     1 <1>   0.0800 
 41 H       -4.6960     0.9050     2.4000 H     1 <1>   0.4000 
 42 H       -5.2070    -1.1470     2.0670 H     1 <1>   0.0800 
 43 H       -6.2570    -1.3040     0.6700 H     1 <1>   0.0800 
 44 H       -3.5800    -2.3820     1.0890 H     1 <1>   0.0800 
 45 H       -4.6980    -2.7790    -0.1960 H     1 <1>   0.0800 
 46 H        4.9990    -1.7570    -1.9470 H     1 <1>   0.0800 
 47 H        5.8160    -0.3780    -1.2780 H     1 <1>   0.0800 
 48 H        6.3240    -1.6730     0.7760 H     1 <1>   0.0800 
 49 H        5.5050    -3.0550     0.1060 H     1 <1>   0.0800 
 50 H        7.1430    -3.1240    -1.7590 H     1 <1>   0.0800 
 51 H        7.9640    -1.7390    -1.0880 H     1 <1>   0.0800 
 52 H        8.4590    -3.0310     0.9710 H     1 <1>   0.0800 
 53 H        7.6380    -4.4150     0.3010 H     1 <1>   0.0800 
 54 H       10.1080    -3.1070    -0.8830 H     1 <1>   0.0800 
 55 H        9.2840    -4.4960    -1.5560 H     1 <1>   0.0800 
 56 H       10.0740    -4.6150    -0.0030 H     1 <1>   0.0800 
@<TRIPOS>BOND
  1   1   2  2   
  2   1   3  2   
  3   1   4  am  
  4   1   5  1   
  5   4   6  1   
  6   4   7  1   
  7   5   8  ar  
  8   5   9  ar  
  9   6  10  1   
 10   6  26  1   
 11   6  27  1   
 12   7  11  1   
 13   7  28  1   
 14   7  29  1   
 15   8  12  ar  
 16   8  30  1   
 17   9  13  ar  
 18   9  31  1   
 19  10  14  1   
 20  10  15  1   
 21  10  16  1   
 22  11  15  1   
 23  11  32  1   
 24  11  33  1   
 25  12  17  ar  
 26  12  34  1   
 27  13  17  ar  
 28  13  35  1   
 29  14  18  1   
 30  14  19  1   
 31  14  36  1   
 32  15  37  1   
 33  15  38  1   
 34  16  20  1   
 35  16  39  1   
 36  16  40  1   
 37  17  21  1   
 38  18  41  1   
 39  19  20  1   
 40  19  42  1   
 41  19  43  1   
 42  20  44  1   
 43  20  45  1   
 44  21  22  1   
 45  21  46  1   
 46  21  47  1   
 47  22  23  1   
 48  22  48  1   
 49  22  49  1   
 50  23  24  1   
 51  23  50  1   
 52  23  51  1   
 53  24  25  1   
 54  24  52  1   
 55  24  53  1   
 56  25  54  1   
 57  25  55  1   
 58  25  56  1   
@<TRIPOS>SUBSTRUCTURE
  1 ****   5 GROUP 4 **** **** 0

# MOE 2024.06 (io_trps.svl 2023.06)
