@<TRIPOS>MOLECULE
NONAME
58 60 1 0 0 
SMALL
USER_CHARGES


@<TRIPOS>ATOM
  1 F        0.8080    -1.6890     1.1860 F     1 <1>  -0.1900 
  2 C        0.1230    -2.7540     0.8650 C.ar  1 <1>   0.1900 
  3 C       -0.4220    -2.8390    -0.4020 C.ar  1 <1>  -0.1500 
  4 C       -0.0310    -3.7560     1.8030 C.ar  1 <1>  -0.1500 
  5 C       -1.1460    -3.9700    -0.7360 C.ar  1 <1>  -0.1500 
  6 C       -0.7580    -4.8830     1.4560 C.ar  1 <1>  -0.1500 
  7 C       -1.3170    -4.9930     0.1890 C.ar  1 <1>  -0.1440 
  8 C       -2.1110    -6.2320    -0.1930 C.3   1 <1>  -0.0160 
  9 C       -1.2210    -7.2240    -0.9410 C.3   1 <1>   0.1400 
 10 N       -1.9950    -8.4400    -1.2690 N.am  1 <1>  -0.7300 
 11 C       -2.5600    -8.7290    -2.4690 C.2   1 <1>   0.5690 
 12 O       -2.4870    -7.9820    -3.4150 O.2   1 <1>  -0.5700 
 13 C       -3.3200   -10.0530    -2.6010 C.3   1 <1>   0.1710 
 14 N       -3.8780   -10.5650    -1.3120 N.3   1 <1>  -0.8100 
 15 C       -4.2180   -11.9980    -1.4280 C.3   1 <1>   0.1100 
 16 C       -5.0490    -9.7750    -0.9010 C.3   1 <1>   0.1100 
 17 C       -4.6090   -12.5930    -0.0560 C.3   1 <1>   0.0000 
 18 C       -5.5350   -10.2420     0.4720 C.3   1 <1>  -0.1600 
 19 C       -5.8060   -11.7500     0.4570 C.3   1 <1>   0.2000 
 20 C       -5.1110   -14.0450    -0.2450 C.3   1 <1>   0.1200 
 21 C       -3.4100   -12.5440     0.9420 C.3   1 <1>  -0.0170 
 22 O       -6.1860   -12.1330     1.7320 O.3   1 <1>  -0.6800 
 23 O       -4.2330   -14.7950    -1.0150 O.3   1 <1>  -0.6800 
 24 C       -2.1830   -13.3570     0.5400 C.ar  1 <1>  -0.1440 
 25 C       -1.2290   -12.8130    -0.3060 C.ar  1 <1>  -0.1500 
 26 C       -2.0040   -14.6450     1.0240 C.ar  1 <1>  -0.1500 
 27 C       -0.1190   -13.5510    -0.6780 C.ar  1 <1>  -0.1500 
 28 C       -0.8950   -15.3840     0.6530 C.ar  1 <1>  -0.1500 
 29 C        0.0480   -14.8390    -0.2000 C.ar  1 <1>  -0.1500 
 30 H       -0.2800    -2.0380    -1.1050 H     1 <1>   0.1500 
 31 H        0.4090    -3.6520     2.7780 H     1 <1>   0.1500 
 32 H       -1.5770    -4.0530    -1.7200 H     1 <1>   0.1500 
 33 H       -0.8850    -5.6710     2.1780 H     1 <1>   0.1500 
 34 H       -2.9340    -5.9480    -0.8250 H     1 <1>   0.0800 
 35 H       -2.5080    -6.6960     0.6920 H     1 <1>   0.0800 
 36 H       -0.3730    -7.4920    -0.3340 H     1 <1>   0.0800 
 37 H       -0.8580    -6.7700    -1.8480 H     1 <1>   0.0800 
 38 H       -2.1920    -9.1050    -0.5150 H     1 <1>   0.3700 
 39 H       -2.6220   -10.7690    -2.9960 H     1 <1>   0.0800 
 40 H       -4.1080    -9.9320    -3.3230 H     1 <1>   0.0800 
 41 H       -5.0330   -12.1210    -2.1220 H     1 <1>   0.0800 
 42 H       -3.3760   -12.5370    -1.8280 H     1 <1>   0.0800 
 43 H       -4.7890    -8.7300    -0.8460 H     1 <1>   0.0800 
 44 H       -5.8390    -9.8870    -1.6270 H     1 <1>   0.0800 
 45 H       -6.4420    -9.7200     0.7140 H     1 <1>   0.0800 
 46 H       -4.7930    -9.9890     1.2060 H     1 <1>   0.0800 
 47 H       -6.6530   -11.9300    -0.1840 H     1 <1>   0.0800 
 48 H       -6.0610   -14.0570    -0.7520 H     1 <1>   0.0800 
 49 H       -5.2300   -14.5340     0.7070 H     1 <1>   0.0800 
 50 H       -3.0930   -11.5260     1.0780 H     1 <1>   0.0800 
 51 H       -3.7330   -12.8950     1.9050 H     1 <1>   0.0800 
 52 H       -5.5400   -11.8090     2.3870 H     1 <1>   0.4000 
 53 H       -3.3220   -14.7260    -0.6450 H     1 <1>   0.4000 
 54 H       -1.3480   -11.8110    -0.6800 H     1 <1>   0.1500 
 55 H       -2.7270   -15.0810     1.6920 H     1 <1>   0.1500 
 56 H        0.6150   -13.1230    -1.3380 H     1 <1>   0.1500 
 57 H       -0.7640   -16.3840     1.0290 H     1 <1>   0.1500 
 58 H        0.9100   -15.4140    -0.4900 H     1 <1>   0.1500 
@<TRIPOS>BOND
  1   1   2  1   
  2   2   3  ar  
  3   2   4  ar  
  4   3   5  ar  
  5   3  30  1   
  6   4   6  ar  
  7   4  31  1   
  8   5   7  ar  
  9   5  32  1   
 10   6   7  ar  
 11   6  33  1   
 12   7   8  1   
 13   8   9  1   
 14   8  34  1   
 15   8  35  1   
 16   9  10  1   
 17   9  36  1   
 18   9  37  1   
 19  10  11  am  
 20  10  38  1   
 21  11  12  2   
 22  11  13  1   
 23  13  14  1   
 24  13  39  1   
 25  13  40  1   
 26  14  15  1   
 27  14  16  1   
 28  15  17  1   
 29  15  41  1   
 30  15  42  1   
 31  16  18  1   
 32  16  43  1   
 33  16  44  1   
 34  17  19  1   
 35  17  20  1   
 36  17  21  1   
 37  18  19  1   
 38  18  45  1   
 39  18  46  1   
 40  19  22  1   
 41  19  47  1   
 42  20  23  1   
 43  20  48  1   
 44  20  49  1   
 45  21  24  1   
 46  21  50  1   
 47  21  51  1   
 48  22  52  1   
 49  23  53  1   
 50  24  25  ar  
 51  24  26  ar  
 52  25  27  ar  
 53  25  54  1   
 54  26  28  ar  
 55  26  55  1   
 56  27  29  ar  
 57  27  56  1   
 58  28  29  ar  
 59  28  57  1   
 60  29  58  1   
@<TRIPOS>SUBSTRUCTURE
  1 ****  10 GROUP 4 **** **** 0

# MOE 2024.06 (io_trps.svl 2023.06)
