@<TRIPOS>MOLECULE
NONAME
51 53 1 0 0 
SMALL
USER_CHARGES


@<TRIPOS>ATOM
  1 O        3.4370    -2.0690    -2.8900 O.2   1 <1>  -0.5700 
  2 C        3.2380    -2.1980    -1.7060 C.2   1 <1>   0.5690 
  3 N        3.6120    -1.2440    -0.8180 N.am  1 <1>  -0.7300 
  4 C        2.5240    -3.4570    -1.1940 C.3   1 <1>   0.1710 
  5 C        3.8170     0.1670    -1.1720 C.3   1 <1>   0.2840 
  6 N        1.1090    -3.2340    -0.7660 N.3   1 <1>  -0.8100 
  7 C        3.0040     0.9840    -0.1780 C.ar  1 <1>  -0.1430 
  8 C        0.3040    -4.4650    -0.8890 C.3   1 <1>   0.1100 
  9 C        0.9700    -2.6220     0.5680 C.3   1 <1>   0.1100 
 10 C        1.6330     1.1860    -0.3330 C.ar  1 <1>  -0.1430 
 11 C        3.6520     1.5180     0.9270 C.ar  1 <1>  -0.1500 
 12 C       -1.1280    -4.2780    -0.3510 C.3   1 <1>  -0.1600 
 13 C       -0.4750    -2.1520     0.8100 C.3   1 <1>  -0.1600 
 14 C        0.9400     1.9150     0.6210 C.ar  1 <1>  -0.1500 
 15 C        0.8640     0.6280    -1.5250 C.3   1 <1>  -0.0970 
 16 C        2.9520     2.2460     1.8720 C.ar  1 <1>  -0.1500 
 17 C       -1.5090    -2.8100    -0.1170 C.3   1 <1>   0.4240 
 18 C        1.5940     2.4440     1.7190 C.ar  1 <1>  -0.1500 
 19 O       -1.3730    -2.1870    -1.3380 O.3   1 <1>  -0.6800 
 20 C       -2.9460    -2.6490     0.4140 C.ar  1 <1>  -0.1430 
 21 C       -3.3150    -3.2620     1.6080 C.ar  1 <1>  -0.1500 
 22 C       -3.9090    -1.9020    -0.2600 C.ar  1 <1>  -0.1500 
 23 C       -4.5980    -3.1360     2.1120 C.ar  1 <1>  -0.1500 
 24 C       -5.1940    -1.7740     0.2410 C.ar  1 <1>  -0.1500 
 25 C       -5.5400    -2.3910     1.4280 C.ar  1 <1>  -0.1500 
 26 H        3.3560    -1.3600     0.1610 H     1 <1>   0.3700 
 27 H        3.0890    -3.8820    -0.3850 H     1 <1>   0.0800 
 28 H        2.5360    -4.1640    -2.0050 H     1 <1>   0.0800 
 29 H        3.4940     0.3570    -2.1820 H     1 <1>   0.0800 
 30 H        4.8630     0.4080    -1.0990 H     1 <1>   0.0800 
 31 H        0.7820    -5.2740    -0.3630 H     1 <1>   0.0800 
 32 H        0.2490    -4.7320    -1.9320 H     1 <1>   0.0800 
 33 H        1.6160    -1.7690     0.6660 H     1 <1>   0.0800 
 34 H        1.2490    -3.3430     1.3190 H     1 <1>   0.0800 
 35 H        4.7090     1.3690     1.0590 H     1 <1>   0.1500 
 36 H       -1.2050    -4.8110     0.5770 H     1 <1>   0.0800 
 37 H       -1.8350    -4.7280    -1.0240 H     1 <1>   0.0800 
 38 H       -0.5360    -1.0830     0.7040 H     1 <1>   0.0800 
 39 H       -0.7170    -2.3670     1.8330 H     1 <1>   0.0800 
 40 H       -0.1180     2.0780     0.5130 H     1 <1>   0.1500 
 41 H        1.0190    -0.4300    -1.6150 H     1 <1>   0.0800 
 42 H        1.1910     1.1040    -2.4310 H     1 <1>   0.0800 
 43 H       -0.1930     0.7950    -1.4180 H     1 <1>   0.0800 
 44 H        3.4640     2.6580     2.7250 H     1 <1>   0.1500 
 45 H        1.0440     3.0090     2.4520 H     1 <1>   0.1500 
 46 H       -0.4260    -2.3340    -1.5720 H     1 <1>   0.4000 
 47 H       -2.6030    -3.8450     2.1630 H     1 <1>   0.1500 
 48 H       -3.6680    -1.4110    -1.1860 H     1 <1>   0.1500 
 49 H       -4.8640    -3.6170     3.0360 H     1 <1>   0.1500 
 50 H       -5.9210    -1.1930    -0.2980 H     1 <1>   0.1500 
 51 H       -6.5380    -2.2910     1.8160 H     1 <1>   0.1500 
@<TRIPOS>BOND
  1   1   2  2   
  2   2   3  am  
  3   2   4  1   
  4   3   5  1   
  5   3  26  1   
  6   4   6  1   
  7   4  27  1   
  8   4  28  1   
  9   5   7  1   
 10   5  29  1   
 11   5  30  1   
 12   6   8  1   
 13   6   9  1   
 14   7  10  ar  
 15   7  11  ar  
 16   8  12  1   
 17   8  31  1   
 18   8  32  1   
 19   9  13  1   
 20   9  33  1   
 21   9  34  1   
 22  10  14  ar  
 23  10  15  1   
 24  11  16  ar  
 25  11  35  1   
 26  12  17  1   
 27  12  36  1   
 28  12  37  1   
 29  13  17  1   
 30  13  38  1   
 31  13  39  1   
 32  14  18  ar  
 33  14  40  1   
 34  15  41  1   
 35  15  42  1   
 36  15  43  1   
 37  16  18  ar  
 38  16  44  1   
 39  17  19  1   
 40  17  20  1   
 41  18  45  1   
 42  19  46  1   
 43  20  21  ar  
 44  20  22  ar  
 45  21  23  ar  
 46  21  47  1   
 47  22  24  ar  
 48  22  48  1   
 49  23  25  ar  
 50  23  49  1   
 51  24  25  ar  
 52  24  50  1   
 53  25  51  1   
@<TRIPOS>SUBSTRUCTURE
  1 ****  13 GROUP 4 **** **** 0

# MOE 2024.06 (io_trps.svl 2023.06)
