@<TRIPOS>MOLECULE
NONAME
55 59 1 0 0 
SMALL
USER_CHARGES


@<TRIPOS>ATOM
  1 N        0.7610     0.2760     0.4380 N.ar  1 <1>  -0.6200 
  2 C       -0.0940     0.9830     1.1840 C.ar  1 <1>   0.7200 
  3 C        1.4000     0.9690    -0.4690 C.ar  1 <1>   0.1660 
  4 N       -0.3310     2.2940     1.0830 N.ar  1 <1>  -0.6200 
  5 N       -0.7880     0.2910     2.1550 N.pl3 1 <1>  -0.8380 
  6 C        1.2310     2.3060    -0.6550 C.ar  1 <1>  -0.1430 
  7 C        2.4260     0.3920    -1.4110 C.3   1 <1>   0.1430 
  8 C        0.3330     2.9480     0.1590 C.ar  1 <1>   0.1600 
  9 C       -1.4930     0.9980     3.2600 C.3   1 <1>   0.1290 
 10 C       -1.0820    -1.1630     2.0400 C.3   1 <1>   0.1290 
 11 C        2.1110     2.8300    -1.7630 C.3   1 <1>  -0.0160 
 12 C        3.4070    -0.4490    -0.5800 C.3   1 <1>   0.3430 
 13 C        1.7420    -0.4830    -2.4840 C.3   1 <1>  -0.1600 
 14 C        3.0840     1.6620    -2.0160 C.3   1 <1>  -0.1600 
 15 N        4.3820    -1.1830    -1.4510 N.4   1 <1>  -0.9590 
 16 C        2.7620    -1.2950    -3.3040 C.3   1 <1>  -0.1600 
 17 C        3.7170    -2.0970    -2.4150 C.3   1 <1>   0.3430 
 18 C        5.4490    -1.8210    -0.6380 C.3   1 <1>   0.5230 
 19 C        6.4740    -0.7440    -0.3220 C.2   1 <1>   0.0060 
 20 N        6.5530     0.3860    -0.9630 N.2   1 <1>  -0.5650 
 21 N        7.3940    -0.8860     0.6620 N.pl3 1 <1>   0.2940 
 22 C        7.5810     1.0160    -0.3600 C.2   1 <1>   0.0770 
 23 C        8.0990     0.2570     0.6290 C.2   1 <1>  -0.3020 
 24 C        7.5860    -2.0190     1.5970 C.3   1 <1>  -0.0910 
 25 C        8.9490    -2.6240     1.7450 C.3   1 <1>  -0.2000 
 26 C        7.8630    -3.3950     1.0640 C.3   1 <1>  -0.2000 
 27 H        0.1580     4.0050     0.0550 H     1 <1>   0.1500 
 28 H       -0.9700     1.9020     3.5220 H     1 <1>   0.0800 
 29 H       -1.5400     0.3680     4.1310 H     1 <1>   0.0800 
 30 H       -2.4910     1.2510     2.9470 H     1 <1>   0.0800 
 31 H       -0.9170    -1.5090     1.0350 H     1 <1>   0.0800 
 32 H       -2.1100    -1.3510     2.2960 H     1 <1>   0.0800 
 33 H       -0.4440    -1.7120     2.7110 H     1 <1>   0.0800 
 34 H        2.6310     3.7260    -1.4680 H     1 <1>   0.0800 
 35 H        1.5120     3.0270    -2.6360 H     1 <1>   0.0800 
 36 H        2.8400    -1.1540     0.0060 H     1 <1>   0.0800 
 37 H        3.9320     0.2020     0.1000 H     1 <1>   0.0800 
 38 H        1.1460     0.1330    -3.1360 H     1 <1>   0.0800 
 39 H        1.0700    -1.1680    -1.9940 H     1 <1>   0.0800 
 40 H        3.3040     1.5640    -3.0640 H     1 <1>   0.0800 
 41 H        4.0030     1.8780    -1.4970 H     1 <1>   0.0800 
 42 H        4.9070    -0.4510    -1.9650 H     1 <1>   0.4500 
 43 H        3.3350    -0.6420    -3.9400 H     1 <1>   0.0800 
 44 H        2.2320    -1.9750    -3.9480 H     1 <1>   0.0800 
 45 H        3.1600    -2.8500    -1.8800 H     1 <1>   0.0800 
 46 H        4.4540    -2.5890    -3.0310 H     1 <1>   0.0800 
 47 H        5.9310    -2.6020    -1.2010 H     1 <1>   0.0800 
 48 H        5.0410    -2.2380     0.2670 H     1 <1>   0.0800 
 49 H        7.9040     1.9980    -0.6720 H     1 <1>   0.1500 
 50 H        8.9150     0.4600     1.2990 H     1 <1>   0.1500 
 51 H        6.9960    -1.9060     2.4910 H     1 <1>   0.1000 
 52 H        9.2720    -2.9610     2.7160 H     1 <1>   0.1000 
 53 H        9.7640    -2.2460     1.1510 H     1 <1>   0.1000 
 54 H        7.9910    -3.5720     0.0090 H     1 <1>   0.1000 
 55 H        7.4800    -4.2580     1.5820 H     1 <1>   0.1000 
@<TRIPOS>BOND
  1   1   2  ar  
  2   1   3  ar  
  3   2   4  ar  
  4   2   5  1   
  5   3   6  ar  
  6   3   7  1   
  7   4   8  ar  
  8   5   9  1   
  9   5  10  1   
 10   6   8  ar  
 11   6  11  1   
 12   7  12  1   
 13   7  13  1   
 14   7  14  1   
 15   8  27  1   
 16   9  28  1   
 17   9  29  1   
 18   9  30  1   
 19  10  31  1   
 20  10  32  1   
 21  10  33  1   
 22  11  14  1   
 23  11  34  1   
 24  11  35  1   
 25  12  15  1   
 26  12  36  1   
 27  12  37  1   
 28  13  16  1   
 29  13  38  1   
 30  13  39  1   
 31  14  40  1   
 32  14  41  1   
 33  15  17  1   
 34  15  18  1   
 35  15  42  1   
 36  16  17  1   
 37  16  43  1   
 38  16  44  1   
 39  17  45  1   
 40  17  46  1   
 41  18  19  1   
 42  18  47  1   
 43  18  48  1   
 44  19  20  2   
 45  19  21  1   
 46  20  22  1   
 47  21  23  1   
 48  21  24  1   
 49  22  23  2   
 50  22  49  1   
 51  23  50  1   
 52  24  25  1   
 53  24  26  1   
 54  24  51  1   
 55  25  26  1   
 56  25  52  1   
 57  25  53  1   
 58  26  54  1   
 59  26  55  1   
@<TRIPOS>SUBSTRUCTURE
  1 ****  12 GROUP 4 **** **** 0

# MOE 2024.06 (io_trps.svl 2023.06)
