@<TRIPOS>MOLECULE
NONAME
51 53 1 0 0 
SMALL
USER_CHARGES


@<TRIPOS>ATOM
  1 S        0.0590     0.6020    -1.1690 S.o2  1 <1>   1.5760 
  2 O        0.0950    -0.5250    -2.0740 O.2   1 <1>  -0.6500 
  3 O        0.4710     1.9150    -1.6140 O.2   1 <1>  -0.6500 
  4 N       -1.4930     0.7280    -0.5170 N.am  1 <1>  -0.8490 
  5 N        0.9270     0.1860     0.2170 N.am  1 <1>  -0.8490 
  6 C       -2.5030     0.7580    -1.5760 C.3   1 <1>   0.1960 
  7 C       -1.6190     1.9120     0.3380 C.3   1 <1>   0.1960 
  8 C        2.3480    -0.0260    -0.0430 C.3   1 <1>   0.2760 
  9 C        0.4600    -1.0610     0.8050 C.3   1 <1>   0.1960 
 10 C       -3.9010     0.7070    -0.9580 C.3   1 <1>  -0.1600 
 11 C       -2.9780     1.8970     1.0370 C.3   1 <1>  -0.1600 
 12 C        2.8310    -0.8310     1.1680 C.3   1 <1>  -0.1600 
 13 C        3.1270     1.2900    -0.2260 C.3   1 <1>   0.1200 
 14 C        1.5810    -1.5000     1.7340 C.3   1 <1>  -0.1600 
 15 C       -4.1190     1.8650     0.0160 C.3   1 <1>   0.4180 
 16 O        4.5020     1.0330    -0.2400 O.3   1 <1>  -0.5600 
 17 O       -4.0860     3.0380    -0.7610 O.3   1 <1>  -0.5600 
 18 C       -5.4740     1.7180     0.7030 C.2   1 <1>  -0.2880 
 19 C        5.2800     2.1700    -0.4270 C.3   1 <1>   0.0400 
 20 C       -4.6680     4.1890    -0.2160 C.3   1 <1>   0.1200 
 21 C       -6.4230     2.6570     0.6980 C.2   1 <1>  -0.2760 
 22 C       -6.1730     3.9830     0.0030 C.3   1 <1>  -0.0220 
 23 C       -7.7890     2.5060     1.3440 C.3   1 <1>  -0.1020 
 24 H       -2.3800    -0.0950    -2.2230 H     1 <1>   0.0800 
 25 H       -2.3890     1.6510    -2.1710 H     1 <1>   0.0800 
 26 H       -1.5150     2.8100    -0.2510 H     1 <1>   0.0800 
 27 H       -0.8410     1.9080     1.0830 H     1 <1>   0.0800 
 28 H        2.4620    -0.6290    -0.9300 H     1 <1>   0.0800 
 29 H        0.3170    -1.8070     0.0410 H     1 <1>   0.0800 
 30 H       -0.4660    -0.9160     1.3360 H     1 <1>   0.0800 
 31 H       -4.0140    -0.2280    -0.4420 H     1 <1>   0.0800 
 32 H       -4.6470     0.7500    -1.7300 H     1 <1>   0.0800 
 33 H       -3.0750     2.7510     1.6800 H     1 <1>   0.0800 
 34 H       -3.0320     1.0220     1.6580 H     1 <1>   0.0800 
 35 H        3.2640    -0.1770     1.9040 H     1 <1>   0.0800 
 36 H        3.5740    -1.5470     0.8650 H     1 <1>   0.0800 
 37 H        2.9130     1.9570     0.5910 H     1 <1>   0.0800 
 38 H        2.8670     1.7550    -1.1600 H     1 <1>   0.0800 
 39 H        1.6660    -2.5720     1.7540 H     1 <1>   0.0800 
 40 H        1.3860    -1.1420     2.7300 H     1 <1>   0.0800 
 41 H       -5.5920     0.7670     1.1900 H     1 <1>   0.1500 
 42 H        6.3140     1.8730    -0.4230 H     1 <1>   0.0800 
 43 H        5.0970     2.8620     0.3770 H     1 <1>   0.0800 
 44 H        5.0340     2.6170    -1.3750 H     1 <1>   0.0800 
 45 H       -4.4980     5.0000    -0.9030 H     1 <1>   0.0800 
 46 H       -4.1790     4.4160     0.7140 H     1 <1>   0.0800 
 47 H       -6.6830     4.0000    -0.9430 H     1 <1>   0.0800 
 48 H       -6.5450     4.7940     0.6020 H     1 <1>   0.0800 
 49 H       -8.5620     2.6150     0.6040 H     1 <1>   0.0800 
 50 H       -7.9260     3.2540     2.1040 H     1 <1>   0.0800 
 51 H       -7.8870     1.5360     1.7970 H     1 <1>   0.0800 
@<TRIPOS>BOND
  1   1   2  2   
  2   1   3  2   
  3   1   4  am  
  4   1   5  am  
  5   4   6  1   
  6   4   7  1   
  7   5   8  1   
  8   5   9  1   
  9   6  10  1   
 10   6  24  1   
 11   6  25  1   
 12   7  11  1   
 13   7  26  1   
 14   7  27  1   
 15   8  12  1   
 16   8  13  1   
 17   8  28  1   
 18   9  14  1   
 19   9  29  1   
 20   9  30  1   
 21  10  15  1   
 22  10  31  1   
 23  10  32  1   
 24  11  15  1   
 25  11  33  1   
 26  11  34  1   
 27  12  14  1   
 28  12  35  1   
 29  12  36  1   
 30  13  16  1   
 31  13  37  1   
 32  13  38  1   
 33  14  39  1   
 34  14  40  1   
 35  15  17  1   
 36  15  18  1   
 37  16  19  1   
 38  17  20  1   
 39  18  21  2   
 40  18  41  1   
 41  19  42  1   
 42  19  43  1   
 43  19  44  1   
 44  20  22  1   
 45  20  45  1   
 46  20  46  1   
 47  21  22  1   
 48  21  23  1   
 49  22  47  1   
 50  22  48  1   
 51  23  49  1   
 52  23  50  1   
 53  23  51  1   
@<TRIPOS>SUBSTRUCTURE
  1 ****   4 GROUP 4 **** **** 0

# MOE 2024.06 (io_trps.svl 2023.06)
