@<TRIPOS>MOLECULE
NONAME
38 40 1 0 0 
SMALL
USER_CHARGES


@<TRIPOS>ATOM
  1 O       -2.6290    -1.5940    -1.5220 O.2   1 <1>  -0.5700 
  2 C       -2.4230    -0.5460    -0.9270 C.2   1 <1>   0.7670 
  3 N       -1.9190     0.4990    -1.6640 N.2   1 <1>  -0.6610 
  4 C       -2.7010    -0.3960     0.4650 C.2   1 <1>   0.0290 
  5 C       -1.6670     1.5990    -1.0610 C.2   1 <1>   0.4400 
  6 C       -3.2460    -1.5000     1.1890 C.2   1 <1>   0.6160 
  7 C       -2.3990     0.7990     1.0490 C.2   1 <1>  -0.0500 
  8 N       -1.8820     1.7950     0.2750 N.pl3 1 <1>  -0.5500 
  9 O       -2.6060    -1.9730     2.1100 O.2   1 <1>  -0.5700 
 10 N       -4.4940    -2.0210     0.9310 N.am  1 <1>  -0.6600 
 11 C       -5.4870    -1.4900    -0.0460 C.3   1 <1>   0.1400 
 12 C       -4.8500    -3.4100     1.3140 C.3   1 <1>   0.1400 
 13 C       -6.5890    -2.5500    -0.1040 C.3   1 <1>   0.2000 
 14 C       -5.8810    -3.8540     0.2690 C.3   1 <1>  -0.0800 
 15 O       -7.5250    -2.2660     0.8770 O.3   1 <1>  -0.6800 
 16 C       -5.1970    -4.4770    -0.9650 C.3   1 <1>   0.0200 
 17 C       -4.4330    -5.7350    -0.6040 C.2   1 <1>  -0.0400 
 18 O       -5.0630    -6.7880    -0.1540 O.3   1 <1>  -0.0190 
 19 C       -3.1240    -6.0210    -0.6450 C.2   1 <1>  -0.1500 
 20 N       -4.2430    -7.7640     0.1110 N.2   1 <1>  -0.4100 
 21 C       -3.0670    -7.3300    -0.1750 C.2   1 <1>   0.1080 
 22 C       -1.7980    -8.1360    -0.0160 C.3   1 <1>  -0.0590 
 23 H       -1.2630     2.4310    -1.6140 H     1 <1>   0.0600 
 24 H       -2.5530     0.9750     2.1030 H     1 <1>   0.1500 
 25 H       -1.6330     2.7050     0.6780 H     1 <1>   0.4000 
 26 H       -5.8720    -0.5320     0.2600 H     1 <1>   0.0800 
 27 H       -5.0360    -1.4010    -1.0180 H     1 <1>   0.0800 
 28 H       -3.9790    -4.0430     1.3350 H     1 <1>   0.0800 
 29 H       -5.2910    -3.4000     2.2960 H     1 <1>   0.0800 
 30 H       -7.0950    -2.5840    -1.0540 H     1 <1>   0.0800 
 31 H       -6.5700    -4.5710     0.6820 H     1 <1>   0.0800 
 32 H       -7.0680    -2.1530     1.7350 H     1 <1>   0.4000 
 33 H       -4.5100    -3.7760    -1.4080 H     1 <1>   0.0800 
 34 H       -5.9390    -4.7270    -1.7030 H     1 <1>   0.0800 
 35 H       -2.2970    -5.4080    -0.9540 H     1 <1>   0.1500 
 36 H       -1.3010    -8.2240    -0.9650 H     1 <1>   0.0800 
 37 H       -2.0310    -9.1200     0.3490 H     1 <1>   0.0800 
 38 H       -1.1440    -7.6500     0.6840 H     1 <1>   0.0800 
@<TRIPOS>BOND
  1   1   2  2   
  2   2   3  1   
  3   2   4  1   
  4   3   5  2   
  5   4   6  1   
  6   4   7  2   
  7   5   8  1   
  8   5  23  1   
  9   6   9  2   
 10   6  10  am  
 11   7   8  1   
 12   7  24  1   
 13   8  25  1   
 14  10  11  1   
 15  10  12  1   
 16  11  13  1   
 17  11  26  1   
 18  11  27  1   
 19  12  14  1   
 20  12  28  1   
 21  12  29  1   
 22  13  14  1   
 23  13  15  1   
 24  13  30  1   
 25  14  16  1   
 26  14  31  1   
 27  15  32  1   
 28  16  17  1   
 29  16  33  1   
 30  16  34  1   
 31  17  18  1   
 32  17  19  2   
 33  18  20  1   
 34  19  21  1   
 35  19  35  1   
 36  20  21  2   
 37  21  22  1   
 38  22  36  1   
 39  22  37  1   
 40  22  38  1   
@<TRIPOS>SUBSTRUCTURE
  1 ****  10 GROUP 4 **** **** 0

# MOE 2024.06 (io_trps.svl 2023.06)
