@<TRIPOS>MOLECULE
NONAME
51 52 1 0 0 
SMALL
USER_CHARGES


@<TRIPOS>ATOM
  1 O        0.3810     0.1880     0.4100 O.co2 1 <1>  -0.9000 
  2 C        1.5580    -0.1170     0.6030 C.2   1 <1>   0.9060 
  3 O        1.8890    -1.2590     0.9520 O.co2 1 <1>  -0.9000 
  4 C        2.6890     0.8740     0.2740 C.3   1 <1>  -0.1060 
  5 C        3.3250     0.3400    -1.0330 C.3   1 <1>   0.2000 
  6 C        3.7790     0.8710     1.3890 C.3   1 <1>  -0.1600 
  7 C        2.1580     2.3280     0.0310 C.3   1 <1>  -0.1600 
  8 O        3.7540    -0.9750    -0.8430 O.3   1 <1>  -0.6800 
  9 C        4.5800     1.1420    -1.4020 C.3   1 <1>   0.3430 
 10 C        5.0610     1.5900     0.9660 C.3   1 <1>   0.3430 
 11 C        1.5340     3.0210     1.2560 C.3   1 <1>  -0.1600 
 12 N        5.5760     0.9860    -0.2990 N.4   1 <1>  -0.9590 
 13 C        0.9280     4.3730     0.8670 C.3   1 <1>  -0.2400 
 14 C        6.9430     1.4580    -0.6500 C.3   1 <1>   0.4860 
 15 C        6.9360     2.9380    -1.0030 C.ar  1 <1>  -0.1430 
 16 C        7.1390     3.8890    -0.0100 C.ar  1 <1>   0.0820 
 17 C        6.7390     3.3370    -2.3180 C.ar  1 <1>  -0.1500 
 18 O        7.3900     3.4020     1.2420 O.3   1 <1>  -0.3620 
 19 C        7.0770     5.2560    -0.3260 C.ar  1 <1>   0.0820 
 20 C        6.7130     4.6810    -2.6390 C.ar  1 <1>  -0.1500 
 21 C        8.3290     4.0370     2.0880 C.3   1 <1>   0.0400 
 22 O        7.1910     6.1820     0.6690 O.3   1 <1>  -0.3630 
 23 C        6.8740     5.6350    -1.6510 C.ar  1 <1>  -0.1500 
 24 C        7.1400     7.5710     0.4180 C.3   1 <1>   0.0400 
 25 H        2.6030     0.3440    -1.8330 H     1 <1>   0.0800 
 26 H        4.0370    -0.1420     1.6470 H     1 <1>   0.0800 
 27 H        3.3960     1.3090     2.2910 H     1 <1>   0.0800 
 28 H        2.9360     2.9700    -0.3350 H     1 <1>   0.0800 
 29 H        1.4020     2.2780    -0.7370 H     1 <1>   0.0800 
 30 H        3.0780    -1.4090    -0.2300 H     1 <1>   0.4000 
 31 H        4.3380     2.1800    -1.5480 H     1 <1>   0.0800 
 32 H        4.9770     0.7500    -2.3230 H     1 <1>   0.0800 
 33 H        5.7990     1.4960     1.7460 H     1 <1>   0.0800 
 34 H        4.8630     2.6390     0.8170 H     1 <1>   0.0800 
 35 H        0.7570     2.4000     1.6710 H     1 <1>   0.0800 
 36 H        2.2720     3.1880     2.0190 H     1 <1>   0.0800 
 37 H        5.5750    -0.0370    -0.1430 H     1 <1>   0.4500 
 38 H        0.1530     4.2340     0.1340 H     1 <1>   0.0800 
 39 H        1.6810     5.0260     0.4630 H     1 <1>   0.0800 
 40 H        0.4940     4.8410     1.7330 H     1 <1>   0.0800 
 41 H        7.6070     1.2940     0.1830 H     1 <1>   0.0800 
 42 H        7.3160     0.8950    -1.4880 H     1 <1>   0.0800 
 43 H        6.6090     2.6120    -3.1030 H     1 <1>   0.1500 
 44 H        6.5650     4.9900    -3.6610 H     1 <1>   0.1500 
 45 H        8.6960     3.3130     2.7920 H     1 <1>   0.0800 
 46 H        7.8380     4.8350     2.6160 H     1 <1>   0.0800 
 47 H        9.1410     4.4200     1.4950 H     1 <1>   0.0800 
 48 H        6.8360     6.6680    -1.9400 H     1 <1>   0.1500 
 49 H        7.2580     8.0840     1.3550 H     1 <1>   0.0800 
 50 H        6.1860     7.8160    -0.0130 H     1 <1>   0.0800 
 51 H        7.9450     7.8370    -0.2450 H     1 <1>   0.0800 
@<TRIPOS>BOND
  1   1   2  ar  
  2   2   3  ar  
  3   2   4  1   
  4   4   5  1   
  5   4   6  1   
  6   4   7  1   
  7   5   8  1   
  8   5   9  1   
  9   5  25  1   
 10   6  10  1   
 11   6  26  1   
 12   6  27  1   
 13   7  11  1   
 14   7  28  1   
 15   7  29  1   
 16   8  30  1   
 17   9  12  1   
 18   9  31  1   
 19   9  32  1   
 20  10  12  1   
 21  10  33  1   
 22  10  34  1   
 23  11  13  1   
 24  11  35  1   
 25  11  36  1   
 26  12  14  1   
 27  12  37  1   
 28  13  38  1   
 29  13  39  1   
 30  13  40  1   
 31  14  15  1   
 32  14  41  1   
 33  14  42  1   
 34  15  16  ar  
 35  15  17  ar  
 36  16  18  1   
 37  16  19  ar  
 38  17  20  ar  
 39  17  43  1   
 40  18  21  1   
 41  19  22  1   
 42  19  23  ar  
 43  20  23  ar  
 44  20  44  1   
 45  21  45  1   
 46  21  46  1   
 47  21  47  1   
 48  22  24  1   
 49  23  48  1   
 50  24  49  1   
 51  24  50  1   
 52  24  51  1   
@<TRIPOS>SUBSTRUCTURE
  1 ****  10 GROUP 4 **** **** 0

# MOE 2024.06 (io_trps.svl 2023.06)
