@<TRIPOS>MOLECULE
NONAME
42 43 1 0 0 
SMALL
USER_CHARGES


@<TRIPOS>ATOM
  1 F        1.3500    -2.2110     1.0050 F     1 <1>  -0.1900 
  2 C        0.5830    -3.0640     0.3730 C.ar  1 <1>   0.1900 
  3 C        0.3010    -4.3310     0.8950 C.ar  1 <1>   0.0820 
  4 C        0.0630    -2.6410    -0.8360 C.ar  1 <1>  -0.1500 
  5 O        0.7500    -4.8590     2.0670 O.3   1 <1>  -0.3630 
  6 C       -0.5300    -5.1590     0.1570 C.ar  1 <1>  -0.1500 
  7 C       -0.7690    -3.4850    -1.5520 C.ar  1 <1>  -0.1500 
  8 C        1.7180    -4.2230     2.8730 C.3   1 <1>   0.0400 
  9 C       -1.0730    -4.7460    -1.0530 C.ar  1 <1>  -0.1430 
 10 C       -2.0000    -5.6790    -1.8090 C.3   1 <1>   0.4870 
 11 N       -3.2640    -5.7910    -1.0400 N.4   1 <1>  -0.9590 
 12 C       -4.0640    -6.9700    -1.4770 C.3   1 <1>   0.5240 
 13 C       -4.0420    -4.5160    -0.9470 C.3   1 <1>   0.3430 
 14 C       -3.5760    -8.1870    -0.6990 C.2   1 <1>   0.0460 
 15 C       -4.8600    -4.4120     0.3570 C.3   1 <1>   0.1200 
 16 N       -2.2580    -8.4130    -0.5070 N.2   1 <1>  -0.5650 
 17 C       -4.3140    -9.1450    -0.0970 C.2   1 <1>  -0.3020 
 18 O       -5.6660    -5.5330     0.5300 O.3   1 <1>  -0.6800 
 19 C       -2.2230    -9.4970     0.1960 C.2   1 <1>   0.0060 
 20 N       -3.4450    -9.9960     0.4790 N.pl3 1 <1>   0.0330 
 21 C       -0.9430   -10.1560     0.6670 C.3   1 <1>  -0.0600 
 22 H        0.3100    -1.6610    -1.2070 H     1 <1>   0.1500 
 23 H       -0.7400    -6.1420     0.5480 H     1 <1>   0.1500 
 24 H       -1.1670    -3.1490    -2.4950 H     1 <1>   0.1500 
 25 H        1.9570    -4.8800     3.6910 H     1 <1>   0.0800 
 26 H        1.3100    -3.3040     3.2540 H     1 <1>   0.0800 
 27 H        2.6000    -4.0390     2.2850 H     1 <1>   0.0800 
 28 H       -1.5270    -6.6440    -1.8990 H     1 <1>   0.0800 
 29 H       -2.1920    -5.2980    -2.7990 H     1 <1>   0.0800 
 30 H       -2.9720    -6.0650    -0.0900 H     1 <1>   0.4500 
 31 H       -3.9420    -7.1380    -2.5330 H     1 <1>   0.0800 
 32 H       -5.1100    -6.8220    -1.2690 H     1 <1>   0.0800 
 33 H       -4.7040    -4.4250    -1.7920 H     1 <1>   0.0800 
 34 H       -3.3650    -3.6790    -0.9730 H     1 <1>   0.0800 
 35 H       -5.4950    -3.5420     0.3260 H     1 <1>   0.0800 
 36 H       -4.2020    -4.3320     1.2050 H     1 <1>   0.0800 
 37 H       -5.3820    -9.2710    -0.0400 H     1 <1>   0.1500 
 38 H       -6.1980    -5.4600     1.3520 H     1 <1>   0.4000 
 39 H       -3.6560   -10.8410     1.0190 H     1 <1>   0.2700 
 40 H       -0.0930    -9.5920     0.3280 H     1 <1>   0.0800 
 41 H       -0.8730   -11.1530     0.2710 H     1 <1>   0.0800 
 42 H       -0.9200   -10.1980     1.7400 H     1 <1>   0.0800 
@<TRIPOS>BOND
  1   1   2  1   
  2   2   3  ar  
  3   2   4  ar  
  4   3   5  1   
  5   3   6  ar  
  6   4   7  ar  
  7   4  22  1   
  8   5   8  1   
  9   6   9  ar  
 10   6  23  1   
 11   7   9  ar  
 12   7  24  1   
 13   8  25  1   
 14   8  26  1   
 15   8  27  1   
 16   9  10  1   
 17  10  11  1   
 18  10  28  1   
 19  10  29  1   
 20  11  12  1   
 21  11  13  1   
 22  11  30  1   
 23  12  14  1   
 24  12  31  1   
 25  12  32  1   
 26  13  15  1   
 27  13  33  1   
 28  13  34  1   
 29  14  16  1   
 30  14  17  2   
 31  15  18  1   
 32  15  35  1   
 33  15  36  1   
 34  16  19  2   
 35  17  20  1   
 36  17  37  1   
 37  18  38  1   
 38  19  20  1   
 39  19  21  1   
 40  20  39  1   
 41  21  40  1   
 42  21  41  1   
 43  21  42  1   
@<TRIPOS>SUBSTRUCTURE
  1 ****   6 GROUP 4 **** **** 0

# MOE 2024.06 (io_trps.svl 2023.06)
