@<TRIPOS>MOLECULE
NONAME
53 55 1 0 0 
SMALL
USER_CHARGES


@<TRIPOS>ATOM
  1 O        2.1480     0.8730     2.3270 O.co2 1 <1>  -0.9000 
  2 C        1.7890     0.2110     1.3470 C.2   1 <1>   0.9060 
  3 O        1.3700    -0.9450     1.4420 O.co2 1 <1>  -0.9000 
  4 C        2.0800     0.7600    -0.0470 C.3   1 <1>  -0.1060 
  5 C        3.3950     0.0190    -0.4040 C.3   1 <1>   0.2000 
  6 C        2.3220     2.3010    -0.0090 C.3   1 <1>  -0.1600 
  7 C        0.9030     0.4630    -1.0260 C.3   1 <1>  -0.0160 
  8 O        3.1440    -1.1230    -1.1430 O.3   1 <1>  -0.6800 
  9 C        4.3800     0.9130    -1.1630 C.3   1 <1>   0.3430 
 10 C        3.6990     2.6280     0.5650 C.3   1 <1>   0.3430 
 11 C       -0.3090     1.3710    -0.8370 C.ar  1 <1>  -0.1440 
 12 N        4.7820     2.1200    -0.3510 N.4   1 <1>  -0.9590 
 13 C       -1.1160     1.2320     0.2810 C.ar  1 <1>  -0.1500 
 14 C       -0.6200     2.3410    -1.7800 C.ar  1 <1>  -0.1500 
 15 C        5.3120     3.1930    -1.2250 C.3   1 <1>   0.4860 
 16 C       -2.2120     2.0580     0.4630 C.ar  1 <1>  -0.1500 
 17 C       -1.7170     3.1670    -1.6010 C.ar  1 <1>  -0.1500 
 18 C        6.0610     4.1940    -0.3710 C.ar  1 <1>  -0.1430 
 19 C       -2.5120     3.0270    -0.4780 C.ar  1 <1>  -0.1500 
 20 C        5.4910     5.4230    -0.0730 C.ar  1 <1>  -0.1500 
 21 C        7.3210     3.8870     0.1210 C.ar  1 <1>  -0.1500 
 22 C        6.1660     6.3350     0.7200 C.ar  1 <1>  -0.1430 
 23 C        8.0050     4.7950     0.9110 C.ar  1 <1>  -0.1430 
 24 C        7.4220     6.0150     1.2080 C.ar  1 <1>  -0.1500 
 25 C        5.5380     7.6780     1.0480 C.3   1 <1>  -0.0970 
 26 C        9.3850     4.4670     1.4540 C.3   1 <1>  -0.0970 
 27 H        3.8950    -0.3120     0.4930 H     1 <1>   0.0800 
 28 H        1.5740     2.7600     0.6150 H     1 <1>   0.0800 
 29 H        2.2300     2.7370    -0.9870 H     1 <1>   0.0800 
 30 H        1.2530     0.5640    -2.0370 H     1 <1>   0.0800 
 31 H        0.5750    -0.5570    -0.9160 H     1 <1>   0.0800 
 32 H        2.5280    -1.6830    -0.6080 H     1 <1>   0.4000 
 33 H        3.8930     1.2340    -2.0680 H     1 <1>   0.0800 
 34 H        5.2520     0.3370    -1.4230 H     1 <1>   0.0800 
 35 H        3.7880     2.1530     1.5310 H     1 <1>   0.0800 
 36 H        3.7940     3.6900     0.7190 H     1 <1>   0.0800 
 37 H        5.5480     1.8510     0.2780 H     1 <1>   0.4500 
 38 H       -0.8930     0.4780     1.0190 H     1 <1>   0.1500 
 39 H       -0.0130     2.4570    -2.6590 H     1 <1>   0.1500 
 40 H        5.9890     2.7780    -1.9530 H     1 <1>   0.0800 
 41 H        4.5040     3.6800    -1.7470 H     1 <1>   0.0800 
 42 H       -2.8260     1.9410     1.3380 H     1 <1>   0.1500 
 43 H       -1.9530     3.9170    -2.3350 H     1 <1>   0.1500 
 44 H       -3.3650     3.6680    -0.3350 H     1 <1>   0.1500 
 45 H        4.5180     5.6830    -0.4540 H     1 <1>   0.1500 
 46 H        7.7830     2.9420    -0.1080 H     1 <1>   0.1500 
 47 H        7.9510     6.7220     1.8230 H     1 <1>   0.1500 
 48 H        5.9320     8.0640     1.9700 H     1 <1>   0.0800 
 49 H        4.4720     7.5810     1.1520 H     1 <1>   0.0800 
 50 H        5.7490     8.3800     0.2620 H     1 <1>   0.0800 
 51 H       10.0140     5.3380     1.4190 H     1 <1>   0.0800 
 52 H        9.8520     3.6910     0.8740 H     1 <1>   0.0800 
 53 H        9.3070     4.1390     2.4750 H     1 <1>   0.0800 
@<TRIPOS>BOND
  1   1   2  ar  
  2   2   3  ar  
  3   2   4  1   
  4   4   5  1   
  5   4   6  1   
  6   4   7  1   
  7   5   8  1   
  8   5   9  1   
  9   5  27  1   
 10   6  10  1   
 11   6  28  1   
 12   6  29  1   
 13   7  11  1   
 14   7  30  1   
 15   7  31  1   
 16   8  32  1   
 17   9  12  1   
 18   9  33  1   
 19   9  34  1   
 20  10  12  1   
 21  10  35  1   
 22  10  36  1   
 23  11  13  ar  
 24  11  14  ar  
 25  12  15  1   
 26  12  37  1   
 27  13  16  ar  
 28  13  38  1   
 29  14  17  ar  
 30  14  39  1   
 31  15  18  1   
 32  15  40  1   
 33  15  41  1   
 34  16  19  ar  
 35  16  42  1   
 36  17  19  ar  
 37  17  43  1   
 38  18  20  ar  
 39  18  21  ar  
 40  19  44  1   
 41  20  22  ar  
 42  20  45  1   
 43  21  23  ar  
 44  21  46  1   
 45  22  24  ar  
 46  22  25  1   
 47  23  24  ar  
 48  23  26  1   
 49  24  47  1   
 50  25  48  1   
 51  25  49  1   
 52  25  50  1   
 53  26  51  1   
 54  26  52  1   
 55  26  53  1   
@<TRIPOS>SUBSTRUCTURE
  1 ****  10 GROUP 4 **** **** 0

# MOE 2024.06 (io_trps.svl 2023.06)
