@<TRIPOS>MOLECULE
NONAME
37 37 1 0 0 
SMALL
USER_CHARGES


@<TRIPOS>ATOM
  1 O       -3.8520    -2.7440    -1.1100 O.2   1 <1>  -0.5700 
  2 C       -3.9750    -2.0010    -0.1670 C.2   1 <1>   0.5690 
  3 N       -3.0290    -1.9290     0.8210 N.am  1 <1>  -0.7300 
  4 C       -5.2530    -1.1370    -0.0940 C.3   1 <1>   0.4040 
  5 C       -1.7550    -2.6870     0.8890 C.3   1 <1>   0.2200 
  6 N       -6.5460    -1.9010     0.1480 N.4   1 <1>  -0.9590 
  7 C       -0.8990    -2.3790    -0.3510 C.3   1 <1>  -0.1600 
  8 C       -2.0670    -4.1740     1.1290 C.3   1 <1>  -0.1600 
  9 C       -6.8390    -2.8360    -0.9890 C.3   1 <1>   0.2630 
 10 C       -7.6960    -0.9690     0.3620 C.3   1 <1>   0.2630 
 11 C        0.5330    -2.8880    -0.2030 C.3   1 <1>   0.3430 
 12 C       -0.8580    -5.1240     1.0830 C.3   1 <1>  -0.1600 
 13 N        0.7030    -4.2820    -0.7080 N.4   1 <1>  -0.9060 
 14 C       -0.3220    -5.3010    -0.3400 C.3   1 <1>   0.3430 
 15 H       -3.1670    -1.3040     1.6200 H     1 <1>   0.3700 
 16 H       -5.3310    -0.5980    -1.0220 H     1 <1>   0.0800 
 17 H       -5.1180    -0.4120     0.6900 H     1 <1>   0.0800 
 18 H       -1.2170    -2.3270     1.7520 H     1 <1>   0.0800 
 19 H       -6.4240    -2.4760     0.9960 H     1 <1>   0.4500 
 20 H       -0.8440    -1.3090    -0.4450 H     1 <1>   0.0800 
 21 H       -1.3410    -2.7630    -1.2520 H     1 <1>   0.0800 
 22 H       -2.7870    -4.5160     0.4050 H     1 <1>   0.0800 
 23 H       -2.5250    -4.2630     2.0990 H     1 <1>   0.0800 
 24 H       -6.9350    -2.2890    -1.9130 H     1 <1>   0.0800 
 25 H       -7.7570    -3.3710    -0.8080 H     1 <1>   0.0800 
 26 H       -6.0440    -3.5570    -1.1010 H     1 <1>   0.0800 
 27 H       -7.8550    -0.3600    -0.5140 H     1 <1>   0.0800 
 28 H       -7.5060    -0.3210     1.2030 H     1 <1>   0.0800 
 29 H       -8.5970    -1.5270     0.5580 H     1 <1>   0.0800 
 30 H        0.8220    -2.8360     0.8350 H     1 <1>   0.0800 
 31 H        1.1920    -2.2370    -0.7560 H     1 <1>   0.0800 
 32 H       -1.2060    -6.0890     1.4100 H     1 <1>   0.0800 
 33 H       -0.0840    -4.8250     1.7680 H     1 <1>   0.0800 
 34 H        1.6230    -4.6240    -0.4000 H     1 <1>   0.4500 
 35 H        0.7520    -4.2480    -1.7350 H     1 <1>   0.4500 
 36 H       -1.1520    -5.2480    -1.0290 H     1 <1>   0.0800 
 37 H        0.1120    -6.2850    -0.4330 H     1 <1>   0.0800 
@<TRIPOS>BOND
  1   1   2  2   
  2   2   3  am  
  3   2   4  1   
  4   3   5  1   
  5   3  15  1   
  6   4   6  1   
  7   4  16  1   
  8   4  17  1   
  9   5   7  1   
 10   5   8  1   
 11   5  18  1   
 12   6   9  1   
 13   6  10  1   
 14   6  19  1   
 15   7  11  1   
 16   7  20  1   
 17   7  21  1   
 18   8  12  1   
 19   8  22  1   
 20   8  23  1   
 21   9  24  1   
 22   9  25  1   
 23   9  26  1   
 24  10  27  1   
 25  10  28  1   
 26  10  29  1   
 27  11  13  1   
 28  11  30  1   
 29  11  31  1   
 30  12  14  1   
 31  12  32  1   
 32  12  33  1   
 33  13  14  1   
 34  13  34  1   
 35  13  35  1   
 36  14  36  1   
 37  14  37  1   
@<TRIPOS>SUBSTRUCTURE
  1 ****   3 GROUP 4 **** **** 0

# MOE 2024.06 (io_trps.svl 2023.06)
