@<TRIPOS>MOLECULE
NONAME
23 24 1 0 0 
SMALL
USER_CHARGES


@<TRIPOS>ATOM
  1 O       -0.0270    -0.6120    -0.0120 O.3   1 <1>  -0.6800 
  2 C        0.0400    -1.9780     0.1110 C.3   1 <1>   0.2800 
  3 C       -1.2310    -2.5030     0.7970 C.3   1 <1>  -0.1600 
  4 C        1.2670    -2.3660     0.9520 C.3   1 <1>  -0.1600 
  5 C        0.1610    -2.6160    -1.2810 C.3   1 <1>  -0.1600 
  6 C       -1.1540    -4.0440     0.9320 C.3   1 <1>  -0.1600 
  7 C        1.3420    -3.9070     1.0860 C.3   1 <1>  -0.1600 
  8 C        0.2370    -4.1570    -1.1480 C.3   1 <1>  -0.1600 
  9 C        0.1680    -4.5760     0.3370 C.3   1 <1>  -0.0800 
 10 H       -0.1030    -0.2140     0.8730 H     1 <1>   0.4000 
 11 H       -2.0920    -2.2370     0.2100 H     1 <1>   0.0800 
 12 H       -1.3300    -2.0640     1.7740 H     1 <1>   0.0800 
 13 H        1.1980    -1.9260     1.9300 H     1 <1>   0.0800 
 14 H        2.1600    -2.0040     0.4730 H     1 <1>   0.0800 
 15 H        1.0470    -2.2500    -1.7690 H     1 <1>   0.0800 
 16 H       -0.6920    -2.3450    -1.8770 H     1 <1>   0.0800 
 17 H       -1.9870    -4.4930     0.4180 H     1 <1>   0.0800 
 18 H       -1.2210    -4.3220     1.9690 H     1 <1>   0.0800 
 19 H        1.3120    -4.1830     2.1260 H     1 <1>   0.0800 
 20 H        2.2750    -4.2600     0.6820 H     1 <1>   0.0800 
 21 H        1.1560    -4.5120    -1.5820 H     1 <1>   0.0800 
 22 H       -0.5760    -4.6070    -1.6890 H     1 <1>   0.0800 
 23 H        0.2210    -5.6480     0.4300 H     1 <1>   0.0800 
@<TRIPOS>BOND
  1   1   2  1   
  2   1  10  1   
  3   2   3  1   
  4   2   4  1   
  5   2   5  1   
  6   3   6  1   
  7   3  11  1   
  8   3  12  1   
  9   4   7  1   
 10   4  13  1   
 11   4  14  1   
 12   5   8  1   
 13   5  15  1   
 14   5  16  1   
 15   6   9  1   
 16   6  17  1   
 17   6  18  1   
 18   7   9  1   
 19   7  19  1   
 20   7  20  1   
 21   8   9  1   
 22   8  21  1   
 23   8  22  1   
 24   9  23  1   
@<TRIPOS>SUBSTRUCTURE
  1 ****   2 GROUP 4 **** **** 0

# MOE 2024.06 (io_trps.svl 2023.06)
