@<TRIPOS>MOLECULE
NONAME
44 46 1 0 0 
SMALL
USER_CHARGES


@<TRIPOS>ATOM
  1 O        0.8860    -0.1370     1.1460 O.2   1 <1>  -0.5700 
  2 C        1.1030    -1.1080     0.4380 C.2   1 <1>   0.5440 
  3 N        2.1640    -1.0190    -0.4470 N.am  1 <1>  -0.6600 
  4 C        0.2680    -2.3010     0.5970 C.ar  1 <1>   0.3960 
  5 C        2.6860    -2.1270    -1.2850 C.3   1 <1>   0.1400 
  6 C        3.0560     0.1590    -0.5190 C.3   1 <1>   0.1400 
  7 N       -0.0290    -3.0870    -0.4510 N.ar  1 <1>  -0.6200 
  8 C       -0.2060    -2.5910     1.8800 C.ar  1 <1>   0.1600 
  9 C        3.9140    -1.5530    -1.9850 C.3   1 <1>  -0.1600 
 10 C        4.3500    -0.3750    -1.1190 C.3   1 <1>  -0.1600 
 11 C       -0.7560    -4.1390    -0.1380 C.ar  1 <1>   0.4100 
 12 N       -0.9510    -3.6350     2.2140 N.ar  1 <1>  -0.6200 
 13 N       -1.0220    -4.9350    -1.2210 N.pl3 1 <1>  -0.8690 
 14 C       -1.2060    -4.3970     1.1680 C.ar  1 <1>   0.1600 
 15 C       -0.6740    -6.3820    -1.2420 C.3   1 <1>   0.4330 
 16 C       -1.6750    -7.1610    -0.3700 C.ar  1 <1>  -0.1440 
 17 C        0.8040    -6.5100    -0.8950 C.3   1 <1>  -0.2660 
 18 C       -1.2930    -8.0710     0.6110 C.ar  1 <1>  -0.1500 
 19 C       -3.0340    -6.9460    -0.5710 C.ar  1 <1>  -0.1500 
 20 C        1.3110    -7.8200    -1.4010 C.2   1 <1>   0.9060 
 21 C       -2.2410    -8.7320     1.3730 C.ar  1 <1>  -0.1500 
 22 C       -3.9840    -7.6040     0.1900 C.ar  1 <1>  -0.1500 
 23 O        1.8030    -8.6150    -0.5990 O.co2 1 <1>  -0.9000 
 24 O        1.2360    -8.0390    -2.6120 O.co2 1 <1>  -0.9000 
 25 C       -3.5880    -8.4990     1.1660 C.ar  1 <1>  -0.1500 
 26 H        1.9500    -2.4450    -2.0040 H     1 <1>   0.0800 
 27 H        2.9580    -2.9560    -0.6530 H     1 <1>   0.0800 
 28 H        3.2170     0.5890     0.4550 H     1 <1>   0.0800 
 29 H        2.6100     0.8940    -1.1680 H     1 <1>   0.0800 
 30 H        0.0520    -1.9130     2.6750 H     1 <1>   0.1500 
 31 H        3.6240    -1.2010    -2.9600 H     1 <1>   0.0800 
 32 H        4.6880    -2.2910    -2.0970 H     1 <1>   0.0800 
 33 H        4.9850    -0.7220    -0.3220 H     1 <1>   0.0800 
 34 H        4.8720     0.3800    -1.6800 H     1 <1>   0.0800 
 35 H       -0.6470    -4.4970    -2.0630 H     1 <1>   0.4000 
 36 H       -1.8060    -5.2730     1.3300 H     1 <1>   0.1500 
 37 H       -0.8100    -6.7220    -2.2560 H     1 <1>   0.0800 
 38 H        0.9710    -6.4380     0.1610 H     1 <1>   0.0800 
 39 H        1.3710    -5.7510    -1.3960 H     1 <1>   0.0800 
 40 H       -0.2550    -8.2880     0.7950 H     1 <1>   0.1500 
 41 H       -3.3540    -6.2510    -1.3280 H     1 <1>   0.1500 
 42 H       -1.9200    -9.4330     2.1240 H     1 <1>   0.1500 
 43 H       -5.0300    -7.4210     0.0200 H     1 <1>   0.1500 
 44 H       -4.3210    -9.0140     1.7600 H     1 <1>   0.1500 
@<TRIPOS>BOND
  1   1   2  2   
  2   2   3  am  
  3   2   4  1   
  4   3   5  1   
  5   3   6  1   
  6   4   7  ar  
  7   4   8  ar  
  8   5   9  1   
  9   5  26  1   
 10   5  27  1   
 11   6  10  1   
 12   6  28  1   
 13   6  29  1   
 14   7  11  ar  
 15   8  12  ar  
 16   8  30  1   
 17   9  10  1   
 18   9  31  1   
 19   9  32  1   
 20  10  33  1   
 21  10  34  1   
 22  11  13  1   
 23  11  14  ar  
 24  12  14  ar  
 25  13  15  1   
 26  13  35  1   
 27  14  36  1   
 28  15  16  1   
 29  15  17  1   
 30  15  37  1   
 31  16  18  ar  
 32  16  19  ar  
 33  17  20  1   
 34  17  38  1   
 35  17  39  1   
 36  18  21  ar  
 37  18  40  1   
 38  19  22  ar  
 39  19  41  1   
 40  20  23  ar  
 41  20  24  ar  
 42  21  25  ar  
 43  21  42  1   
 44  22  25  ar  
 45  22  43  1   
 46  25  44  1   
@<TRIPOS>SUBSTRUCTURE
  1 ****  11 GROUP 4 **** **** 0

# MOE 2024.06 (io_trps.svl 2023.06)
