@<TRIPOS>MOLECULE
NONAME
46 47 1 0 0 
SMALL
USER_CHARGES


@<TRIPOS>ATOM
  1 O       -0.2030     0.8390    -1.8430 O.2   1 <1>  -0.5700 
  2 C        0.4920     0.1210    -1.1620 C.2   1 <1>   0.5690 
  3 N        1.4630     0.6380    -0.3570 N.am  1 <1>  -0.5100 
  4 C        0.2680    -1.3980    -1.2450 C.3   1 <1>   0.1710 
  5 C        2.1090     1.9850    -0.4060 C.3   1 <1>   0.2250 
  6 C        2.7120     0.0140     0.1840 C.3   1 <1>   0.2250 
  7 N        0.3740    -2.1550     0.0380 N.3   1 <1>  -0.8100 
  8 C        3.4800     1.2740    -0.2830 C.3   1 <1>   0.2580 
  9 C        0.2910    -3.6080    -0.2200 C.3   1 <1>   0.1100 
 10 C       -0.6650    -1.7130     0.9840 C.3   1 <1>   0.0300 
 11 O        4.2770     1.8070     0.7590 O.3   1 <1>  -0.3400 
 12 C        0.8230    -4.4230     0.9620 C.3   1 <1>   0.1200 
 13 C        4.9270     2.9890     0.6140 C.ar  1 <1>   0.0830 
 14 O        0.7910    -5.7720     0.6140 O.3   1 <1>  -0.5600 
 15 C        5.5530     3.4960     1.7400 C.ar  1 <1>  -0.1500 
 16 C        4.9920     3.6970    -0.5840 C.ar  1 <1>  -0.1500 
 17 C        1.2820    -6.6180     1.6030 C.3   1 <1>   0.0400 
 18 C        6.2380     4.6980     1.6900 C.ar  1 <1>   0.0830 
 19 C        5.6750     4.9000    -0.6390 C.ar  1 <1>  -0.1500 
 20 O        6.8190     5.1190     2.8420 O.3   1 <1>  -0.3630 
 21 C        6.2970     5.4030     0.4910 C.ar  1 <1>  -0.1500 
 22 C        7.5470     6.3250     2.8990 C.3   1 <1>   0.0400 
 23 H        0.9980    -1.7810    -1.9350 H     1 <1>   0.0800 
 24 H       -0.7030    -1.5670    -1.6750 H     1 <1>   0.0800 
 25 H        1.8370     2.5740     0.4520 H     1 <1>   0.0000 
 26 H        1.9520     2.4690    -1.3540 H     1 <1>   0.0000 
 27 H        2.9760    -0.8800    -0.3530 H     1 <1>   0.0000 
 28 H        2.6530    -0.1010     1.2520 H     1 <1>   0.0000 
 29 H        4.0320     1.1440    -1.1970 H     1 <1>   0.0000 
 30 H        0.8970    -3.8520    -1.0750 H     1 <1>   0.0800 
 31 H       -0.7260    -3.8910    -0.4290 H     1 <1>   0.0800 
 32 H       -0.5720    -0.6570     1.1730 H     1 <1>   0.0800 
 33 H       -0.5580    -2.2240     1.9240 H     1 <1>   0.0800 
 34 H       -1.6470    -1.9100     0.5870 H     1 <1>   0.0800 
 35 H        0.2080    -4.2820     1.8320 H     1 <1>   0.0800 
 36 H        1.8410    -4.1430     1.1710 H     1 <1>   0.0800 
 37 H        5.5080     2.9530     2.6650 H     1 <1>   0.1500 
 38 H        4.5250     3.3340    -1.4790 H     1 <1>   0.1500 
 39 H        1.2170    -7.6290     1.2400 H     1 <1>   0.0800 
 40 H        0.6850    -6.5110     2.4910 H     1 <1>   0.0800 
 41 H        2.3100    -6.3700     1.8040 H     1 <1>   0.0800 
 42 H        5.7240     5.4470    -1.5650 H     1 <1>   0.1500 
 43 H        6.8200     6.3380     0.4190 H     1 <1>   0.1500 
 44 H        7.9130     6.4460     3.9030 H     1 <1>   0.0800 
 45 H        6.8920     7.1400     2.6480 H     1 <1>   0.0800 
 46 H        8.3730     6.2660     2.2130 H     1 <1>   0.0800 
@<TRIPOS>BOND
  1   1   2  2   
  2   2   3  am  
  3   2   4  1   
  4   3   5  1   
  5   3   6  1   
  6   4   7  1   
  7   4  23  1   
  8   4  24  1   
  9   5   8  1   
 10   5  25  1   
 11   5  26  1   
 12   6   8  1   
 13   6  27  1   
 14   6  28  1   
 15   7   9  1   
 16   7  10  1   
 17   8  11  1   
 18   8  29  1   
 19   9  12  1   
 20   9  30  1   
 21   9  31  1   
 22  10  32  1   
 23  10  33  1   
 24  10  34  1   
 25  11  13  1   
 26  12  14  1   
 27  12  35  1   
 28  12  36  1   
 29  13  15  ar  
 30  13  16  ar  
 31  14  17  1   
 32  15  18  ar  
 33  15  37  1   
 34  16  19  ar  
 35  16  38  1   
 36  17  39  1   
 37  17  40  1   
 38  17  41  1   
 39  18  20  1   
 40  18  21  ar  
 41  19  21  ar  
 42  19  42  1   
 43  20  22  1   
 44  21  43  1   
 45  22  44  1   
 46  22  45  1   
 47  22  46  1   
@<TRIPOS>SUBSTRUCTURE
  1 ****   6 GROUP 4 **** **** 0

# MOE 2024.06 (io_trps.svl 2023.06)
