@<TRIPOS>MOLECULE
NONAME
46 49 1 0 0 
SMALL
USER_CHARGES


@<TRIPOS>ATOM
  1 S        0.3750     0.5320    -1.7200 S.3   1 <1>  -0.0800 
  2 C       -0.9400     1.2070    -0.7690 C.2   1 <1>  -0.1400 
  3 C       -0.6840    -0.7220    -2.3520 C.2   1 <1>  -0.1100 
  4 C       -2.0690     0.5110    -0.9610 C.2   1 <1>  -0.1810 
  5 C       -0.7660     2.4220     0.1350 C.3   1 <1>   0.4600 
  6 C       -1.9310    -0.5950    -1.8580 C.2   1 <1>  -0.1500 
  7 C       -3.3330     0.9320    -0.2480 C.3   1 <1>   0.0210 
  8 O       -1.9620     2.6120     0.8700 O.3   1 <1>  -0.5600 
  9 C        0.3410     2.1830     1.1670 C.3   1 <1>  -0.1600 
 10 C       -0.4730     3.6910    -0.6770 C.3   1 <1>  -0.1600 
 11 C       -3.1880     2.3960     0.2110 C.3   1 <1>   0.1200 
 12 C        0.5530     3.4070     2.0580 C.3   1 <1>   0.1400 
 13 C       -0.2570     4.9040     0.2300 C.3   1 <1>   0.1400 
 14 N        0.8270     4.5990     1.2050 N.am  1 <1>  -0.6600 
 15 C        2.0510     5.2380     1.2210 C.2   1 <1>   0.5440 
 16 O        2.9930     4.7000     1.7720 O.2   1 <1>  -0.5700 
 17 C        2.2510     6.5260     0.5890 C.ar  1 <1>   0.0860 
 18 C        1.4420     7.6240     0.8430 C.ar  1 <1>  -0.1500 
 19 C        3.2780     6.7510    -0.3130 C.ar  1 <1>  -0.1500 
 20 C        1.6700     8.8250     0.1980 C.ar  1 <1>   0.1670 
 21 C        3.4290     7.9890    -0.9090 C.ar  1 <1>   0.1670 
 22 N        2.6400     9.0220    -0.6750 N.ar  1 <1>  -0.6200 
 23 C        0.7830    10.0200     0.4750 C.3   1 <1>  -0.0970 
 24 C        4.5510     8.2280    -1.8960 C.3   1 <1>  -0.0970 
 25 H       -0.2540    -1.4310    -3.0360 H     1 <1>   0.1500 
 26 H       -2.7640    -1.2360    -2.0860 H     1 <1>   0.1500 
 27 H       -3.5000     0.2970     0.6030 H     1 <1>   0.0800 
 28 H       -4.1770     0.8470    -0.9090 H     1 <1>   0.0800 
 29 H        1.2660     1.9650     0.6660 H     1 <1>   0.0800 
 30 H        0.0870     1.3300     1.7690 H     1 <1>   0.0800 
 31 H       -1.2720     3.8810    -1.3680 H     1 <1>   0.0800 
 32 H        0.4180     3.5370    -1.2570 H     1 <1>   0.0800 
 33 H       -3.9770     2.6490     0.8970 H     1 <1>   0.0800 
 34 H       -3.2420     3.0590    -0.6350 H     1 <1>   0.0800 
 35 H        1.3700     3.2260     2.7360 H     1 <1>   0.0800 
 36 H       -0.3300     3.5920     2.6460 H     1 <1>   0.0800 
 37 H       -1.1620     5.1270     0.7690 H     1 <1>   0.0800 
 38 H       -0.0060     5.7540    -0.3780 H     1 <1>   0.0800 
 39 H        0.6380     7.5270     1.5490 H     1 <1>   0.1500 
 40 H        3.9540     5.9460    -0.5380 H     1 <1>   0.1500 
 41 H        0.0200     9.7830     1.1930 H     1 <1>   0.0800 
 42 H        0.3160    10.3390    -0.4390 H     1 <1>   0.0800 
 43 H        1.3810    10.8280     0.8560 H     1 <1>   0.0800 
 44 H        5.1440     7.3430    -2.0340 H     1 <1>   0.0800 
 45 H        5.1840     9.0170    -1.5330 H     1 <1>   0.0800 
 46 H        4.1390     8.5240    -2.8430 H     1 <1>   0.0800 
@<TRIPOS>BOND
  1   1   2  1   
  2   1   3  1   
  3   2   4  2   
  4   2   5  1   
  5   3   6  2   
  6   3  25  1   
  7   4   6  1   
  8   4   7  1   
  9   5   8  1   
 10   5   9  1   
 11   5  10  1   
 12   6  26  1   
 13   7  11  1   
 14   7  27  1   
 15   7  28  1   
 16   8  11  1   
 17   9  12  1   
 18   9  29  1   
 19   9  30  1   
 20  10  13  1   
 21  10  31  1   
 22  10  32  1   
 23  11  33  1   
 24  11  34  1   
 25  12  14  1   
 26  12  35  1   
 27  12  36  1   
 28  13  14  1   
 29  13  37  1   
 30  13  38  1   
 31  14  15  am  
 32  15  16  2   
 33  15  17  1   
 34  17  18  ar  
 35  17  19  ar  
 36  18  20  ar  
 37  18  39  1   
 38  19  21  ar  
 39  19  40  1   
 40  20  22  ar  
 41  20  23  1   
 42  21  22  ar  
 43  21  24  1   
 44  23  41  1   
 45  23  42  1   
 46  23  43  1   
 47  24  44  1   
 48  24  45  1   
 49  24  46  1   
@<TRIPOS>SUBSTRUCTURE
  1 ****  13 GROUP 4 **** **** 0

# MOE 2024.06 (io_trps.svl 2023.06)
