@<TRIPOS>MOLECULE
NONAME
50 51 1 0 0 
SMALL
USER_CHARGES


@<TRIPOS>ATOM
  1 O        1.3330    -0.4460    -1.4540 O.2   1 <1>  -0.5700 
  2 C        2.1980    -1.1210    -0.9350 C.2   1 <1>   0.5690 
  3 N        3.5130    -0.6980    -0.9830 N.am  1 <1>  -0.6600 
  4 C        1.8000    -2.4190    -0.1820 C.3   1 <1>   0.4050 
  5 C        4.6870    -1.4300    -0.4070 C.3   1 <1>   0.1400 
  6 C        3.8860     0.5500    -1.7020 C.3   1 <1>   0.1400 
  7 O        2.3500    -3.5600    -0.8150 O.3   1 <1>  -0.5600 
  8 C        0.2890    -2.6150     0.0070 C.ar  1 <1>  -0.1440 
  9 C        5.2200    -0.7620     0.8700 C.3   1 <1>   0.1400 
 10 C        3.7850     1.7710    -0.7790 C.3   1 <1>  -0.1600 
 11 C        2.2230    -4.7610    -0.1160 C.3   1 <1>   0.0400 
 12 C       -0.5260    -2.9130    -1.0770 C.ar  1 <1>  -0.1500 
 13 C       -0.2820    -2.5070     1.2680 C.ar  1 <1>  -0.1500 
 14 N        5.5250     0.6910     0.6700 N.am  1 <1>  -0.6600 
 15 C        4.3210     1.5690     0.6460 C.3   1 <1>   0.1400 
 16 C       -1.8860    -3.1060    -0.9040 C.ar  1 <1>  -0.1500 
 17 C       -1.6420    -2.7000     1.4430 C.ar  1 <1>  -0.1500 
 18 C        6.8150     1.1190     0.4850 C.2   1 <1>   0.5690 
 19 C       -2.4440    -3.0000     0.3570 C.ar  1 <1>  -0.1500 
 20 O        7.7350     0.3350     0.4430 O.2   1 <1>  -0.5700 
 21 C        7.1090     2.6010     0.3190 C.3   1 <1>  -0.0990 
 22 C        8.5920     2.8870     0.0990 C.3   1 <1>   0.1200 
 23 O        8.7410     4.2610    -0.0620 O.3   1 <1>  -0.5600 
 24 C       10.0570     4.6600    -0.2670 C.3   1 <1>   0.0400 
 25 H        2.2540    -2.3560     0.7890 H     1 <1>   0.0800 
 26 H        4.4330    -2.4490    -0.1860 H     1 <1>   0.0800 
 27 H        5.4780    -1.4610    -1.1370 H     1 <1>   0.0800 
 28 H        4.8940     0.4630    -2.0710 H     1 <1>   0.0800 
 29 H        3.2420     0.6880    -2.5550 H     1 <1>   0.0800 
 30 H        6.1090    -1.2820     1.1850 H     1 <1>   0.0800 
 31 H        4.4970    -0.8700     1.6580 H     1 <1>   0.0800 
 32 H        4.3050     2.5890    -1.2420 H     1 <1>   0.0800 
 33 H        2.7520     2.0630    -0.7140 H     1 <1>   0.0800 
 34 H        2.7630    -5.5190    -0.6560 H     1 <1>   0.0800 
 35 H        1.1840    -5.0380    -0.0600 H     1 <1>   0.0800 
 36 H        2.6390    -4.6520     0.8700 H     1 <1>   0.0800 
 37 H       -0.0940    -2.9920    -2.0600 H     1 <1>   0.1500 
 38 H        0.3260    -2.2730     2.1240 H     1 <1>   0.1500 
 39 H        3.5470     1.1140     1.2420 H     1 <1>   0.0800 
 40 H        4.5410     2.5230     1.0920 H     1 <1>   0.0800 
 41 H       -2.5060    -3.3340    -1.7530 H     1 <1>   0.1500 
 42 H       -2.0770    -2.6130     2.4230 H     1 <1>   0.1500 
 43 H       -3.5020    -3.1480     0.4910 H     1 <1>   0.1500 
 44 H        6.5620     2.9690    -0.5260 H     1 <1>   0.0800 
 45 H        6.7880     3.1160     1.2050 H     1 <1>   0.0800 
 46 H        8.9460     2.3910    -0.7900 H     1 <1>   0.0800 
 47 H        9.1700     2.5690     0.9500 H     1 <1>   0.0800 
 48 H       10.0690     5.7300    -0.3790 H     1 <1>   0.0800 
 49 H       10.4340     4.1960    -1.1620 H     1 <1>   0.0800 
 50 H       10.6500     4.3780     0.5860 H     1 <1>   0.0800 
@<TRIPOS>BOND
  1   1   2  2   
  2   2   3  am  
  3   2   4  1   
  4   3   5  1   
  5   3   6  1   
  6   4   7  1   
  7   4   8  1   
  8   4  25  1   
  9   5   9  1   
 10   5  26  1   
 11   5  27  1   
 12   6  10  1   
 13   6  28  1   
 14   6  29  1   
 15   7  11  1   
 16   8  12  ar  
 17   8  13  ar  
 18   9  14  1   
 19   9  30  1   
 20   9  31  1   
 21  10  15  1   
 22  10  32  1   
 23  10  33  1   
 24  11  34  1   
 25  11  35  1   
 26  11  36  1   
 27  12  16  ar  
 28  12  37  1   
 29  13  17  ar  
 30  13  38  1   
 31  14  15  1   
 32  14  18  am  
 33  15  39  1   
 34  15  40  1   
 35  16  19  ar  
 36  16  41  1   
 37  17  19  ar  
 38  17  42  1   
 39  18  20  2   
 40  18  21  1   
 41  19  43  1   
 42  21  22  1   
 43  21  44  1   
 44  21  45  1   
 45  22  23  1   
 46  22  46  1   
 47  22  47  1   
 48  23  24  1   
 49  24  48  1   
 50  24  49  1   
 51  24  50  1   
@<TRIPOS>SUBSTRUCTURE
  1 ****   3 GROUP 4 **** **** 0

# MOE 2024.06 (io_trps.svl 2023.06)
