@<TRIPOS>MOLECULE
NONAME
46 47 1 0 0 
SMALL
USER_CHARGES


@<TRIPOS>ATOM
  1 S        0.3650     0.1300    -1.2120 S.o2  1 <1>   1.5760 
  2 O        0.4170     1.0910    -2.2900 O.2   1 <1>  -0.6500 
  3 O        0.3370    -1.2890    -1.4900 O.2   1 <1>  -0.6500 
  4 N        1.6450     0.4580    -0.1610 N.am  1 <1>  -0.8490 
  5 N       -0.9400     0.5060    -0.2150 N.am  1 <1>  -0.8490 
  6 C        1.7280     1.8940     0.1370 C.3   1 <1>   0.1960 
  7 C        2.9020    -0.0500    -0.7100 C.3   1 <1>   0.1960 
  8 C       -1.0910    -0.3920     0.9160 C.3   1 <1>   0.1960 
  9 C       -2.2060     0.4620    -0.9160 C.3   1 <1>   0.1960 
 10 C        2.8300     2.1790     1.1650 C.3   1 <1>  -0.0190 
 11 C        4.0390     0.1490     0.2980 C.3   1 <1>  -0.1600 
 12 C       -2.5080    -0.1330     1.4110 C.3   1 <1>  -0.1600 
 13 C       -3.2520     0.4140     0.1920 C.3   1 <1>  -0.1600 
 14 C        2.8870     3.6640     1.5090 C.2   1 <1>   0.4480 
 15 C        4.1880     1.6240     0.6970 C.3   1 <1>  -0.1600 
 16 O        2.6780     4.0330     2.6250 O.2   1 <1>  -0.5700 
 17 C        3.2380     4.6670     0.4150 C.3   1 <1>  -0.0990 
 18 C        2.1970     5.7920     0.2570 C.3   1 <1>  -0.0800 
 19 C        0.8190     5.2500    -0.1480 C.3   1 <1>  -0.2400 
 20 C        2.6750     6.8100    -0.7850 C.3   1 <1>  -0.2400 
 21 H        0.7880     2.2320     0.5400 H     1 <1>   0.0800 
 22 H        1.9170     2.4390    -0.7730 H     1 <1>   0.0800 
 23 H        3.1300     0.4570    -1.6340 H     1 <1>   0.0800 
 24 H        2.8050    -1.1030    -0.9200 H     1 <1>   0.0800 
 25 H       -0.3520    -0.1880     1.6730 H     1 <1>   0.0800 
 26 H       -1.0020    -1.4180     0.5960 H     1 <1>   0.0800 
 27 H       -2.2660    -0.4340    -1.5140 H     1 <1>   0.0800 
 28 H       -2.3250     1.3260    -1.5500 H     1 <1>   0.0800 
 29 H        2.5540     1.6620     2.0680 H     1 <1>   0.0800 
 30 H        4.9600    -0.2060    -0.1300 H     1 <1>   0.0800 
 31 H        3.8330    -0.4460     1.1710 H     1 <1>   0.0800 
 32 H       -2.4850     0.6050     2.1940 H     1 <1>   0.0800 
 33 H       -2.9520    -1.0360     1.7900 H     1 <1>   0.0800 
 34 H       -4.0780    -0.2140    -0.0930 H     1 <1>   0.0800 
 35 H       -3.6160     1.4060     0.3900 H     1 <1>   0.0800 
 36 H        4.9130     1.7170     1.4880 H     1 <1>   0.0800 
 37 H        4.5460     2.1780    -0.1530 H     1 <1>   0.0800 
 38 H        3.3660     4.1700    -0.5280 H     1 <1>   0.0800 
 39 H        4.1840     5.1050     0.6790 H     1 <1>   0.0800 
 40 H        2.0970     6.3000     1.2030 H     1 <1>   0.0800 
 41 H        0.8760     4.6990    -1.0700 H     1 <1>   0.0800 
 42 H        0.1270     6.0630    -0.2810 H     1 <1>   0.0800 
 43 H        0.4230     4.6100     0.6210 H     1 <1>   0.0800 
 44 H        2.7800     6.3480    -1.7510 H     1 <1>   0.0800 
 45 H        3.6250     7.2250    -0.4950 H     1 <1>   0.0800 
 46 H        1.9700     7.6180    -0.8670 H     1 <1>   0.0800 
@<TRIPOS>BOND
  1   1   2  2   
  2   1   3  2   
  3   1   4  am  
  4   1   5  am  
  5   4   6  1   
  6   4   7  1   
  7   5   8  1   
  8   5   9  1   
  9   6  10  1   
 10   6  21  1   
 11   6  22  1   
 12   7  11  1   
 13   7  23  1   
 14   7  24  1   
 15   8  12  1   
 16   8  25  1   
 17   8  26  1   
 18   9  13  1   
 19   9  27  1   
 20   9  28  1   
 21  10  14  1   
 22  10  15  1   
 23  10  29  1   
 24  11  15  1   
 25  11  30  1   
 26  11  31  1   
 27  12  13  1   
 28  12  32  1   
 29  12  33  1   
 30  13  34  1   
 31  13  35  1   
 32  14  16  2   
 33  14  17  1   
 34  15  36  1   
 35  15  37  1   
 36  17  18  1   
 37  17  38  1   
 38  17  39  1   
 39  18  19  1   
 40  18  20  1   
 41  18  40  1   
 42  19  41  1   
 43  19  42  1   
 44  19  43  1   
 45  20  44  1   
 46  20  45  1   
 47  20  46  1   
@<TRIPOS>SUBSTRUCTURE
  1 ****   6 GROUP 4 **** **** 0

# MOE 2024.06 (io_trps.svl 2023.06)
