@<TRIPOS>MOLECULE
NONAME
47 50 1 0 0 
SMALL
USER_CHARGES


@<TRIPOS>ATOM
  1 O        1.2650     1.0320     0.4320 O.2   1 <1>  -0.5700 
  2 C        1.7380    -0.0660     0.1920 C.2   1 <1>   0.5650 
  3 N        2.5340    -0.3350    -0.9480 N.pl3 1 <1>   0.5610 
  4 C        1.4810    -1.1620     1.0740 C.2   1 <1>  -0.1360 
  5 N        2.9660     0.4160    -1.9850 N.2   1 <1>  -0.7070 
  6 C        3.0030    -1.5920    -1.1550 C.2   1 <1>   0.2700 
  7 C        1.9610    -2.4160     0.8480 C.2   1 <1>  -0.0380 
  8 C        3.6370    -0.4310    -2.6910 C.2   1 <1>   0.3660 
  9 N        3.6940    -1.6910    -2.2280 N.2   1 <1>  -0.5650 
 10 N        2.7390    -2.6340    -0.2760 N.pl3 1 <1>  -0.5840 
 11 C        1.6660    -3.5950     1.7760 C.3   1 <1>   0.4810 
 12 N        0.8320    -4.5910     1.0420 N.4   1 <1>  -0.9590 
 13 C       -0.5370    -4.0680     0.7530 C.3   1 <1>   0.3430 
 14 C        0.7900    -5.9020     1.7530 C.3   1 <1>   0.3430 
 15 C       -1.2840    -5.0560    -0.1360 C.3   1 <1>  -0.1600 
 16 C        0.0680    -6.9300     0.8890 C.3   1 <1>  -0.1600 
 17 C       -1.3350    -6.4440     0.5020 C.3   1 <1>   0.2000 
 18 O       -1.8710    -7.3170    -0.4620 O.3   1 <1>  -0.3630 
 19 C       -2.1360    -8.6080    -0.1410 C.ar  1 <1>   0.0830 
 20 C       -1.7140    -9.6080    -1.0130 C.ar  1 <1>  -0.1430 
 21 C       -2.8100    -8.9420     1.0290 C.ar  1 <1>  -0.1500 
 22 C       -1.9460   -10.9350    -0.6860 C.ar  1 <1>  -0.1500 
 23 C       -1.0050    -9.2640    -2.3140 C.3   1 <1>  -0.0970 
 24 C       -3.0360   -10.2700     1.3440 C.ar  1 <1>  -0.1500 
 25 C       -2.6000   -11.2660     0.4890 C.ar  1 <1>  -0.1500 
 26 H        0.8760    -0.9180     1.9300 H     1 <1>   0.1500 
 27 H        4.1350    -0.1630    -3.6120 H     1 <1>   0.1500 
 28 H        3.2550    -3.4980    -0.4960 H     1 <1>   0.4000 
 29 H        1.1470    -3.2540     2.6570 H     1 <1>   0.0800 
 30 H        2.5980    -4.0430     2.0810 H     1 <1>   0.0800 
 31 H        1.2830    -4.7400     0.1300 H     1 <1>   0.4500 
 32 H       -0.4740    -3.1170     0.2460 H     1 <1>   0.0800 
 33 H       -1.0810    -3.9270     1.6740 H     1 <1>   0.0800 
 34 H        0.2720    -5.7950     2.6930 H     1 <1>   0.0800 
 35 H        1.7910    -6.2500     1.9550 H     1 <1>   0.0800 
 36 H       -0.8000    -5.1100    -1.0950 H     1 <1>   0.0800 
 37 H       -2.2880    -4.7030    -0.2890 H     1 <1>   0.0800 
 38 H       -0.0100    -7.8500     1.4420 H     1 <1>   0.0800 
 39 H        0.6460    -7.1230     0.0030 H     1 <1>   0.0800 
 40 H       -1.9870    -6.4250     1.3580 H     1 <1>   0.0800 
 41 H       -3.1740    -8.1830     1.6920 H     1 <1>   0.1500 
 42 H       -1.6220   -11.7210    -1.3450 H     1 <1>   0.1500 
 43 H       -1.5910    -8.5560    -2.8720 H     1 <1>   0.0800 
 44 H       -0.8640   -10.1400    -2.9210 H     1 <1>   0.0800 
 45 H       -0.0440    -8.8320    -2.1040 H     1 <1>   0.0800 
 46 H       -3.5550   -10.5310     2.2500 H     1 <1>   0.1500 
 47 H       -2.7750   -12.2990     0.7330 H     1 <1>   0.1500 
@<TRIPOS>BOND
  1   1   2  2   
  2   2   3  1   
  3   2   4  1   
  4   3   5  1   
  5   3   6  1   
  6   4   7  2   
  7   4  26  1   
  8   5   8  2   
  9   6   9  2   
 10   6  10  1   
 11   7  10  1   
 12   7  11  1   
 13   8   9  1   
 14   8  27  1   
 15  10  28  1   
 16  11  12  1   
 17  11  29  1   
 18  11  30  1   
 19  12  13  1   
 20  12  14  1   
 21  12  31  1   
 22  13  15  1   
 23  13  32  1   
 24  13  33  1   
 25  14  16  1   
 26  14  34  1   
 27  14  35  1   
 28  15  17  1   
 29  15  36  1   
 30  15  37  1   
 31  16  17  1   
 32  16  38  1   
 33  16  39  1   
 34  17  18  1   
 35  17  40  1   
 36  18  19  1   
 37  19  20  ar  
 38  19  21  ar  
 39  20  22  ar  
 40  20  23  1   
 41  21  24  ar  
 42  21  41  1   
 43  22  25  ar  
 44  22  42  1   
 45  23  43  1   
 46  23  44  1   
 47  23  45  1   
 48  24  25  ar  
 49  24  46  1   
 50  25  47  1   
@<TRIPOS>SUBSTRUCTURE
  1 ****  12 GROUP 4 **** **** 0

# MOE 2024.06 (io_trps.svl 2023.06)
