@<TRIPOS>MOLECULE
NONAME
37 39 1 0 0 
SMALL
USER_CHARGES


@<TRIPOS>ATOM
  1 O        0.8850     1.4640     1.1330 O.3   1 <1>  -0.0190 
  2 N        1.7270     0.5670     1.5560 N.2   1 <1>  -0.4100 
  3 C        1.2330     1.9460    -0.0310 C.2   1 <1>  -0.0400 
  4 C        2.6290     0.4660     0.6460 C.2   1 <1>   0.1080 
  5 C        2.3650     1.3350    -0.4090 C.2   1 <1>  -0.1500 
  6 C        0.3900     3.0180    -0.6940 C.3   1 <1>   0.0200 
  7 C        3.8140    -0.4710     0.7230 C.3   1 <1>  -0.0590 
  8 C        0.3000     4.2740     0.1850 C.3   1 <1>  -0.0800 
  9 C       -0.4180     5.4260    -0.5030 C.3   1 <1>   0.2000 
 10 C        1.6620     4.8580     0.5610 C.3   1 <1>   0.2090 
 11 O       -1.7930     5.2860    -0.3630 O.3   1 <1>  -0.6800 
 12 C        0.1100     6.6810     0.1860 C.3   1 <1>   0.2090 
 13 N        1.4830     6.3350     0.6520 N.pl3 1 <1>  -0.8380 
 14 C        2.5040     7.0920     0.1250 C.ar  1 <1>   0.4100 
 15 N        2.6710     7.0500    -1.1910 N.ar  1 <1>  -0.6200 
 16 C        3.2960     7.8470     0.9760 C.ar  1 <1>  -0.1500 
 17 C        3.6570     7.7880    -1.6680 C.ar  1 <1>   0.1600 
 18 C        4.3250     8.6160     0.4760 C.ar  1 <1>   0.0730 
 19 C        4.4950     8.5710    -0.8980 C.ar  1 <1>  -0.1500 
 20 C        5.1660     9.4120     1.3220 C.1   1 <1>   0.4840 
 21 N        5.8400    10.0470     1.9880 N.1   1 <1>  -0.5570 
 22 H        2.9540     1.4590    -1.2990 H     1 <1>   0.1500 
 23 H        0.8250     3.2680    -1.6460 H     1 <1>   0.0800 
 24 H       -0.5980     2.6310    -0.8710 H     1 <1>   0.0800 
 25 H        3.7950    -1.1500    -0.1090 H     1 <1>   0.0800 
 26 H        3.7750    -1.0370     1.6360 H     1 <1>   0.0800 
 27 H        4.7270     0.0940     0.7020 H     1 <1>   0.0800 
 28 H       -0.2030     4.0330     1.1050 H     1 <1>   0.0800 
 29 H       -0.1810     5.4690    -1.5520 H     1 <1>   0.0800 
 30 H        2.3930     4.6240    -0.1970 H     1 <1>   0.0800 
 31 H        2.0020     4.4620     1.5030 H     1 <1>   0.0800 
 32 H       -2.0320     5.1870     0.5790 H     1 <1>   0.4000 
 33 H       -0.4930     6.9290     1.0420 H     1 <1>   0.0800 
 34 H        0.1250     7.5110    -0.5000 H     1 <1>   0.0800 
 35 H        3.0860     7.8160     2.0290 H     1 <1>   0.1500 
 36 H        3.8040     7.7660    -2.7350 H     1 <1>   0.1500 
 37 H        5.2760     9.1440    -1.3660 H     1 <1>   0.1500 
@<TRIPOS>BOND
  1   1   2  1   
  2   1   3  1   
  3   2   4  2   
  4   3   5  2   
  5   3   6  1   
  6   4   5  1   
  7   4   7  1   
  8   5  22  1   
  9   6   8  1   
 10   6  23  1   
 11   6  24  1   
 12   7  25  1   
 13   7  26  1   
 14   7  27  1   
 15   8   9  1   
 16   8  10  1   
 17   8  28  1   
 18   9  11  1   
 19   9  12  1   
 20   9  29  1   
 21  10  13  1   
 22  10  30  1   
 23  10  31  1   
 24  11  32  1   
 25  12  13  1   
 26  12  33  1   
 27  12  34  1   
 28  13  14  1   
 29  14  15  ar  
 30  14  16  ar  
 31  15  17  ar  
 32  16  18  ar  
 33  16  35  1   
 34  17  19  ar  
 35  17  36  1   
 36  18  19  ar  
 37  18  20  1   
 38  19  37  1   
 39  20  21  3   
@<TRIPOS>SUBSTRUCTURE
  1 ****  10 GROUP 4 **** **** 0

# MOE 2024.06 (io_trps.svl 2023.06)
