@<TRIPOS>MOLECULE
NONAME
61 64 1 0 0 
SMALL
USER_CHARGES


@<TRIPOS>ATOM
  1 O       -0.2930    -1.1350    -1.4240 O.3   1 <1>  -0.6800 
  2 C        0.6500    -2.1010    -1.1300 C.3   1 <1>   0.1200 
  3 C        1.2370    -1.8720     0.2990 C.3   1 <1>   0.0000 
  4 C        2.6400    -2.5260     0.4160 C.3   1 <1>   0.4230 
  5 C        1.4020    -0.3600     0.6150 C.3   1 <1>  -0.1600 
  6 C        0.2820    -2.4770     1.3650 C.3   1 <1>  -0.1600 
  7 N        2.6170    -4.0500     0.2510 N.4   1 <1>  -0.9590 
  8 C        3.6850    -1.7690    -0.4730 C.3   1 <1>   0.3430 
  9 C        2.3230     0.3460    -0.3750 C.3   1 <1>   0.3430 
 10 C        0.6900    -3.8850     1.8380 C.3   1 <1>  -0.1600 
 11 C        1.3430    -4.7010     0.7250 C.3   1 <1>   0.3430 
 12 C        2.9500    -4.5910    -1.1110 C.3   1 <1>   0.2630 
 13 N        3.6880    -0.2680    -0.2930 N.4   1 <1>  -0.9590 
 14 C        4.6210     0.4170    -1.2400 C.3   1 <1>   0.4860 
 15 C        4.7860     1.8510    -0.7820 C.ar  1 <1>  -0.1430 
 16 C        4.1500     2.8800    -1.4620 C.ar  1 <1>  -0.1500 
 17 C        5.5650     2.1500     0.3270 C.ar  1 <1>  -0.1500 
 18 C        4.2810     4.1860    -1.0260 C.ar  1 <1>  -0.1500 
 19 C        5.6880     3.4590     0.7560 C.ar  1 <1>  -0.1500 
 20 C        5.0470     4.4970     0.0900 C.ar  1 <1>   0.0000 
 21 C        5.1770     5.8630     0.5440 C.ar  1 <1>   0.0000 
 22 C        6.2310     6.6840     0.1360 C.ar  1 <1>  -0.1430 
 23 C        4.2260     6.3860     1.4150 C.ar  1 <1>  -0.1500 
 24 C        6.3150     7.9880     0.5990 C.ar  1 <1>  -0.1500 
 25 C        7.2950     6.1620    -0.8190 C.3   1 <1>  -0.0960 
 26 C        4.3130     7.6860     1.8740 C.ar  1 <1>  -0.1500 
 27 C        5.3600     8.4900     1.4650 C.ar  1 <1>  -0.1500 
 28 H       -0.8670    -1.3880    -2.1800 H     1 <1>   0.4000 
 29 H        0.1670    -3.0600    -1.2020 H     1 <1>   0.0800 
 30 H        1.4020    -2.0370    -1.8960 H     1 <1>   0.0800 
 31 H        2.9460    -2.3460     1.4340 H     1 <1>   0.0800 
 32 H        1.7850    -0.2150     1.6100 H     1 <1>   0.0800 
 33 H        0.4420     0.1310     0.5910 H     1 <1>   0.0800 
 34 H        0.2300    -1.8480     2.2400 H     1 <1>   0.0800 
 35 H       -0.7210    -2.5090     0.9700 H     1 <1>   0.0800 
 36 H        3.3370    -4.4170     0.8950 H     1 <1>   0.4500 
 37 H        3.4690    -1.9840    -1.5050 H     1 <1>   0.0800 
 38 H        4.6690    -2.1500    -0.2510 H     1 <1>   0.0800 
 39 H        2.3720     1.3970    -0.1300 H     1 <1>   0.0800 
 40 H        1.9230     0.2540    -1.3730 H     1 <1>   0.0800 
 41 H       -0.1870    -4.4030     2.1870 H     1 <1>   0.0800 
 42 H        1.3660    -3.8180     2.6730 H     1 <1>   0.0800 
 43 H        0.6440    -4.7820    -0.0920 H     1 <1>   0.0800 
 44 H        1.5490    -5.6990     1.0800 H     1 <1>   0.0800 
 45 H        2.2270    -4.2620    -1.8390 H     1 <1>   0.0800 
 46 H        2.9400    -5.6710    -1.0930 H     1 <1>   0.0800 
 47 H        3.9320    -4.2750    -1.4220 H     1 <1>   0.0800 
 48 H        4.0480    -0.0160     0.6400 H     1 <1>   0.4500 
 49 H        5.5860    -0.0650    -1.2350 H     1 <1>   0.0800 
 50 H        4.2290     0.3930    -2.2440 H     1 <1>   0.0800 
 51 H        3.5500     2.6880    -2.3360 H     1 <1>   0.1500 
 52 H        6.0910     1.3830     0.8690 H     1 <1>   0.1500 
 53 H        3.7880     4.9860    -1.5520 H     1 <1>   0.1500 
 54 H        6.2910     3.6940     1.6160 H     1 <1>   0.1500 
 55 H        3.4100     5.7640     1.7350 H     1 <1>   0.1500 
 56 H        7.1250     8.6240     0.2880 H     1 <1>   0.1500 
 57 H        8.0110     6.9280    -1.0580 H     1 <1>   0.0800 
 58 H        6.8380     5.8300    -1.7330 H     1 <1>   0.0800 
 59 H        7.8180     5.3370    -0.3710 H     1 <1>   0.0800 
 60 H        3.5690     8.0730     2.5480 H     1 <1>   0.1500 
 61 H        5.4340     9.5030     1.8200 H     1 <1>   0.1500 
@<TRIPOS>BOND
  1   1   2  1   
  2   1  28  1   
  3   2   3  1   
  4   2  29  1   
  5   2  30  1   
  6   3   4  1   
  7   3   5  1   
  8   3   6  1   
  9   4   7  1   
 10   4   8  1   
 11   4  31  1   
 12   5   9  1   
 13   5  32  1   
 14   5  33  1   
 15   6  10  1   
 16   6  34  1   
 17   6  35  1   
 18   7  11  1   
 19   7  12  1   
 20   7  36  1   
 21   8  13  1   
 22   8  37  1   
 23   8  38  1   
 24   9  13  1   
 25   9  39  1   
 26   9  40  1   
 27  10  11  1   
 28  10  41  1   
 29  10  42  1   
 30  11  43  1   
 31  11  44  1   
 32  12  45  1   
 33  12  46  1   
 34  12  47  1   
 35  13  14  1   
 36  13  48  1   
 37  14  15  1   
 38  14  49  1   
 39  14  50  1   
 40  15  16  ar  
 41  15  17  ar  
 42  16  18  ar  
 43  16  51  1   
 44  17  19  ar  
 45  17  52  1   
 46  18  20  ar  
 47  18  53  1   
 48  19  20  ar  
 49  19  54  1   
 50  20  21  1   
 51  21  22  ar  
 52  21  23  ar  
 53  22  24  ar  
 54  22  25  1   
 55  23  26  ar  
 56  23  55  1   
 57  24  27  ar  
 58  24  56  1   
 59  25  57  1   
 60  25  58  1   
 61  25  59  1   
 62  26  27  ar  
 63  26  60  1   
 64  27  61  1   
@<TRIPOS>SUBSTRUCTURE
  1 ****  15 GROUP 4 **** **** 0

# MOE 2024.06 (io_trps.svl 2023.06)
