@<TRIPOS>MOLECULE
NONAME
49 51 1 0 0 
SMALL
USER_CHARGES


@<TRIPOS>ATOM
  1 F        1.5250     0.8980     0.9430 F     1 <1>  -0.1900 
  2 C        2.2180    -0.1500     0.5840 C.ar  1 <1>   0.1900 
  3 C        3.1280    -0.0290    -0.4520 C.ar  1 <1>  -0.1440 
  4 C        2.0250    -1.3340     1.2660 C.ar  1 <1>  -0.1500 
  5 C        3.8640    -1.1500    -0.8080 C.ar  1 <1>  -0.1500 
  6 C        3.3030     1.2960    -1.1700 C.3   1 <1>   0.4870 
  7 C        2.7710    -2.4410     0.9000 C.ar  1 <1>  -0.1500 
  8 C        3.6980    -2.3630    -0.1390 C.ar  1 <1>  -0.1440 
  9 N        3.8350     2.3060    -0.2130 N.4   1 <1>  -0.9590 
 10 C        4.5420    -3.5820    -0.5580 C.3   1 <1>   1.1630 
 11 C        3.7310     3.6910    -0.7950 C.3   1 <1>   0.3430 
 12 C        5.2060     1.9450     0.2610 C.3   1 <1>   0.3430 
 13 F        5.8260    -3.3980    -0.2790 F     1 <1>  -0.3400 
 14 F        4.4730    -3.8050    -1.8630 F     1 <1>  -0.3400 
 15 F        4.1830    -4.7110     0.0390 F     1 <1>  -0.3400 
 16 C        4.2170     4.8280     0.1280 C.3   1 <1>   0.2090 
 17 C        5.4770     2.5780     1.6240 C.3   1 <1>  -0.1600 
 18 N        5.6920     4.7530     0.3770 N.pl3 1 <1>  -0.8380 
 19 C        6.1480     3.9500     1.5460 C.3   1 <1>   0.2090 
 20 C        6.5430     5.6680    -0.1600 C.ar  1 <1>   0.1000 
 21 C        6.5570     7.0290     0.2130 C.ar  1 <1>  -0.1430 
 22 C        7.4810     5.2560    -1.1140 C.ar  1 <1>  -0.1500 
 23 C        7.4590     7.8870    -0.3710 C.ar  1 <1>   0.2110 
 24 C        5.6020     7.5660     1.2770 C.3   1 <1>  -0.0970 
 25 C        8.3640     6.1440    -1.6700 C.ar  1 <1>   0.2110 
 26 N        8.3440     7.4470    -1.3000 N.ar  1 <1>  -0.1790 
 27 H        1.3070    -1.3900     2.0660 H     1 <1>   0.1500 
 28 H        4.5780    -1.0930    -1.6160 H     1 <1>   0.1500 
 29 H        2.3450     1.6160    -1.5470 H     1 <1>   0.0800 
 30 H        3.9760     1.1810    -2.0040 H     1 <1>   0.0800 
 31 H        2.6200    -3.3660     1.4350 H     1 <1>   0.1500 
 32 H        3.2100     2.2500     0.6050 H     1 <1>   0.4500 
 33 H        2.7010     3.8850    -1.0460 H     1 <1>   0.0800 
 34 H        4.3010     3.7410    -1.7070 H     1 <1>   0.0800 
 35 H        5.9520     2.2590    -0.4520 H     1 <1>   0.0800 
 36 H        5.2760     0.8750     0.3720 H     1 <1>   0.0800 
 37 H        3.6780     4.8140     1.0600 H     1 <1>   0.0800 
 38 H        3.9940     5.7610    -0.3600 H     1 <1>   0.0800 
 39 H        6.1430     1.9320     2.1680 H     1 <1>   0.0800 
 40 H        4.5730     2.6380     2.2040 H     1 <1>   0.0800 
 41 H        7.2150     3.8150     1.4730 H     1 <1>   0.0800 
 42 H        5.9570     4.4970     2.4550 H     1 <1>   0.0800 
 43 H        7.4960     4.2210    -1.4020 H     1 <1>   0.1500 
 44 H        7.4850     8.9310    -0.1000 H     1 <1>   0.1500 
 45 H        5.5830     6.9100     2.1300 H     1 <1>   0.0800 
 46 H        4.6060     7.6470     0.8820 H     1 <1>   0.0800 
 47 H        5.9050     8.5400     1.6210 H     1 <1>   0.0800 
 48 H        9.0860     5.8240    -2.4060 H     1 <1>   0.1500 
 49 H        9.0090     8.1070    -1.7200 H     1 <1>   0.4570 
@<TRIPOS>BOND
  1   1   2  1   
  2   2   3  ar  
  3   2   4  ar  
  4   3   5  ar  
  5   3   6  1   
  6   4   7  ar  
  7   4  27  1   
  8   5   8  ar  
  9   5  28  1   
 10   6   9  1   
 11   6  29  1   
 12   6  30  1   
 13   7   8  ar  
 14   7  31  1   
 15   8  10  1   
 16   9  11  1   
 17   9  12  1   
 18   9  32  1   
 19  10  13  1   
 20  10  14  1   
 21  10  15  1   
 22  11  16  1   
 23  11  33  1   
 24  11  34  1   
 25  12  17  1   
 26  12  35  1   
 27  12  36  1   
 28  16  18  1   
 29  16  37  1   
 30  16  38  1   
 31  17  19  1   
 32  17  39  1   
 33  17  40  1   
 34  18  19  1   
 35  18  20  1   
 36  19  41  1   
 37  19  42  1   
 38  20  21  ar  
 39  20  22  ar  
 40  21  23  ar  
 41  21  24  1   
 42  22  25  ar  
 43  22  43  1   
 44  23  26  ar  
 45  23  44  1   
 46  24  45  1   
 47  24  46  1   
 48  24  47  1   
 49  25  26  ar  
 50  25  48  1   
 51  26  49  1   
@<TRIPOS>SUBSTRUCTURE
  1 ****  12 GROUP 4 **** **** 0

# MOE 2024.06 (io_trps.svl 2023.06)
