@<TRIPOS>MOLECULE
NONAME
42 44 1 0 0 
SMALL
USER_CHARGES


@<TRIPOS>ATOM
  1 O       -0.0160    -1.0560    -1.7560 O.2   1 <1>  -0.5700 
  2 C        0.8040    -1.6510    -1.1000 C.2   1 <1>   0.5690 
  3 N        0.5840    -2.0650     0.1860 N.am  1 <1>  -0.6600 
  4 C        2.1560    -1.9620    -1.7120 C.3   1 <1>  -0.0990 
  5 C        1.6400    -2.7960     0.9280 C.3   1 <1>   0.1400 
  6 C       -0.6830    -1.7870     0.9130 C.3   1 <1>   0.0600 
  7 C        2.5620    -3.4200    -1.4230 C.3   1 <1>  -0.0800 
  8 C        2.2630    -3.8770     0.0250 C.3   1 <1>  -0.0800 
  9 C        4.0520    -3.6910    -1.6660 C.3   1 <1>  -0.1600 
 10 C        3.5840    -4.4260     0.5810 C.3   1 <1>  -0.1600 
 11 C        4.4050    -4.7770    -0.6520 C.3   1 <1>   0.2200 
 12 N        5.8580    -4.9540    -0.3490 N.am  1 <1>  -0.6600 
 13 C        6.8410    -4.0120    -0.5800 C.2   1 <1>   0.5440 
 14 C        6.2590    -6.3820    -0.2090 C.3   1 <1>   0.0600 
 15 O        7.8270    -4.3460    -1.2080 O.2   1 <1>  -0.5700 
 16 C        6.7520    -2.6560    -0.0860 C.ar  1 <1>   0.0860 
 17 C        7.0220    -1.5820    -0.9310 C.ar  1 <1>   0.1600 
 18 C        6.4090    -2.3560     1.2260 C.ar  1 <1>  -0.1500 
 19 N        6.9400    -0.3000    -0.6080 N.ar  1 <1>  -0.6200 
 20 C        6.3280    -1.0290     1.5890 C.ar  1 <1>  -0.1500 
 21 C        6.5950    -0.0520     0.6450 C.ar  1 <1>   0.1600 
 22 H        2.1190    -1.7910    -2.7720 H     1 <1>   0.0800 
 23 H        2.8670    -1.2780    -1.2870 H     1 <1>   0.0800 
 24 H        2.3910    -2.0860     1.2320 H     1 <1>   0.0800 
 25 H        1.2270    -3.2530     1.8110 H     1 <1>   0.0800 
 26 H       -0.4770    -1.2130     1.7990 H     1 <1>   0.0800 
 27 H       -1.1550    -2.7130     1.1880 H     1 <1>   0.0800 
 28 H       -1.3610    -1.2270     0.2900 H     1 <1>   0.0800 
 29 H        1.9900    -4.0550    -2.0810 H     1 <1>   0.0800 
 30 H        1.5610    -4.6920    -0.0310 H     1 <1>   0.0800 
 31 H        4.5980    -2.7900    -1.4760 H     1 <1>   0.0800 
 32 H        4.2380    -4.0160    -2.6740 H     1 <1>   0.0800 
 33 H        3.4250    -5.2860     1.2070 H     1 <1>   0.0800 
 34 H        4.0850    -3.6610     1.1420 H     1 <1>   0.0800 
 35 H        4.0230    -5.7050    -1.0470 H     1 <1>   0.0800 
 36 H        5.6430    -6.8680     0.5260 H     1 <1>   0.0800 
 37 H        7.2870    -6.4500     0.1030 H     1 <1>   0.0800 
 38 H        6.1530    -6.8830    -1.1560 H     1 <1>   0.0800 
 39 H        7.3180    -1.8100    -1.9420 H     1 <1>   0.1500 
 40 H        6.2210    -3.1460     1.9330 H     1 <1>   0.1500 
 41 H        6.0630    -0.7490     2.5920 H     1 <1>   0.1500 
 42 H        6.5270     0.9830     0.9350 H     1 <1>   0.1500 
@<TRIPOS>BOND
  1   1   2  2   
  2   2   3  am  
  3   2   4  1   
  4   3   5  1   
  5   3   6  1   
  6   4   7  1   
  7   4  22  1   
  8   4  23  1   
  9   5   8  1   
 10   5  24  1   
 11   5  25  1   
 12   6  26  1   
 13   6  27  1   
 14   6  28  1   
 15   7   8  1   
 16   7   9  1   
 17   7  29  1   
 18   8  10  1   
 19   8  30  1   
 20   9  11  1   
 21   9  31  1   
 22   9  32  1   
 23  10  11  1   
 24  10  33  1   
 25  10  34  1   
 26  11  12  1   
 27  11  35  1   
 28  12  13  am  
 29  12  14  1   
 30  13  15  2   
 31  13  16  1   
 32  14  36  1   
 33  14  37  1   
 34  14  38  1   
 35  16  17  ar  
 36  16  18  ar  
 37  17  19  ar  
 38  17  39  1   
 39  18  20  ar  
 40  18  40  1   
 41  19  21  ar  
 42  20  21  ar  
 43  20  41  1   
 44  21  42  1   
@<TRIPOS>SUBSTRUCTURE
  1 ****   9 GROUP 4 **** **** 0

# MOE 2024.06 (io_trps.svl 2023.06)
