@<TRIPOS>MOLECULE
NONAME
42 44 1 0 0 
SMALL
USER_CHARGES


@<TRIPOS>ATOM
  1 O        0.4420     0.5080    -0.8450 O.co2 1 <1>  -0.9000 
  2 C       -0.1940    -0.0250     0.0780 C.2   1 <1>   0.9060 
  3 O        0.0500    -1.1500     0.5170 O.co2 1 <1>  -0.9000 
  4 C       -1.3540     0.8020     0.6710 C.3   1 <1>   0.3170 
  5 N       -1.3140     2.2300     0.1760 N.4   1 <1>  -0.9590 
  6 C       -2.7290     0.2450     0.2660 C.3   1 <1>  -0.1600 
  7 C       -2.5020     2.4180    -0.6950 C.3   1 <1>   0.3430 
  8 C       -1.2290     3.1910     1.2990 C.3   1 <1>   0.4860 
  9 C       -3.5540     1.4520    -0.1480 C.3   1 <1>   0.2000 
 10 C       -1.1380     4.6160     0.7650 C.ar  1 <1>  -0.1430 
 11 O       -4.1310     1.9950     0.9970 O.3   1 <1>  -0.6800 
 12 C        0.0190     5.1020     0.1470 C.ar  1 <1>  -0.0230 
 13 C       -2.2420     5.4420     0.9030 C.ar  1 <1>  -0.1500 
 14 N        1.1630     4.2750    -0.0460 N.pl3 1 <1>   0.5930 
 15 C        0.0360     6.4180    -0.3090 C.ar  1 <1>  -0.1500 
 16 C       -2.2210     6.7460     0.4400 C.ar  1 <1>   0.0830 
 17 N        1.6850     3.4910     0.9290 N.2   1 <1>  -0.7070 
 18 C        1.7200     3.9640    -1.2390 C.2   1 <1>  -0.3020 
 19 C       -1.0700     7.2360    -0.1670 C.ar  1 <1>  -0.1500 
 20 O       -3.3530     7.4700     0.6160 O.3   1 <1>  -0.3630 
 21 C        2.5250     2.7050     0.3270 C.2   1 <1>   0.1390 
 22 C        2.5950     2.9590    -1.0360 C.2   1 <1>  -0.1500 
 23 C       -3.4180     8.8290     0.2430 C.3   1 <1>   0.0400 
 24 H       -1.2530     0.7790     1.7410 H     1 <1>   0.0800 
 25 H       -0.4300     2.2340    -0.3820 H     1 <1>   0.4500 
 26 H       -3.1740    -0.3300     1.0580 H     1 <1>   0.0800 
 27 H       -2.6000    -0.4040    -0.5840 H     1 <1>   0.0800 
 28 H       -2.8570     3.4350    -0.6950 H     1 <1>   0.0800 
 29 H       -2.2460     2.1270    -1.7000 H     1 <1>   0.0800 
 30 H       -2.1050     3.0960     1.9180 H     1 <1>   0.0800 
 31 H       -0.3670     2.9710     1.9070 H     1 <1>   0.0800 
 32 H       -4.3290     1.2280    -0.8610 H     1 <1>   0.0800 
 33 H       -4.8200     1.3960     1.3500 H     1 <1>   0.4000 
 34 H       -3.1430     5.0860     1.3740 H     1 <1>   0.1500 
 35 H        0.9230     6.8070    -0.7800 H     1 <1>   0.1500 
 36 H        1.4470     4.4570    -2.1520 H     1 <1>   0.1500 
 37 H       -1.0190     8.2450    -0.5320 H     1 <1>   0.1500 
 38 H        3.0940     1.9370     0.8260 H     1 <1>   0.1500 
 39 H        3.2100     2.4300    -1.7420 H     1 <1>   0.1500 
 40 H       -4.3950     9.1990     0.4990 H     1 <1>   0.0800 
 41 H       -3.2640     8.9100    -0.8180 H     1 <1>   0.0800 
 42 H       -2.6680     9.3780     0.7860 H     1 <1>   0.0800 
@<TRIPOS>BOND
  1   1   2  ar  
  2   2   3  ar  
  3   2   4  1   
  4   4   5  1   
  5   4   6  1   
  6   4  24  1   
  7   5   7  1   
  8   5   8  1   
  9   5  25  1   
 10   6   9  1   
 11   6  26  1   
 12   6  27  1   
 13   7   9  1   
 14   7  28  1   
 15   7  29  1   
 16   8  10  1   
 17   8  30  1   
 18   8  31  1   
 19   9  11  1   
 20   9  32  1   
 21  10  12  ar  
 22  10  13  ar  
 23  11  33  1   
 24  12  14  1   
 25  12  15  ar  
 26  13  16  ar  
 27  13  34  1   
 28  14  17  1   
 29  14  18  1   
 30  15  19  ar  
 31  15  35  1   
 32  16  19  ar  
 33  16  20  1   
 34  17  21  2   
 35  18  22  2   
 36  18  36  1   
 37  19  37  1   
 38  20  23  1   
 39  21  22  1   
 40  21  38  1   
 41  22  39  1   
 42  23  40  1   
 43  23  41  1   
 44  23  42  1   
@<TRIPOS>SUBSTRUCTURE
  1 ****   8 GROUP 4 **** **** 0

# MOE 2024.06 (io_trps.svl 2023.06)
