@<TRIPOS>MOLECULE
NONAME
50 52 1 0 0 
SMALL
USER_CHARGES


@<TRIPOS>ATOM
  1 O        1.2220     0.5150    -1.8190 O.2   1 <1>  -0.5700 
  2 C        1.8080    -0.3800    -1.2590 C.2   1 <1>   0.5690 
  3 N        2.8850    -0.0960    -0.4480 N.am  1 <1>  -0.6600 
  4 C        1.3120    -1.7970    -1.5140 C.3   1 <1>   0.0810 
  5 C        3.9020    -1.0820     0.0400 C.3   1 <1>   0.1400 
  6 C        2.9850     1.2580     0.1620 C.3   1 <1>   0.1400 
  7 C        0.7100    -2.4180    -0.2660 C.2   1 <1>  -0.0400 
  8 C        5.3190    -0.8260    -0.5220 C.3   1 <1>   0.3430 
  9 C        3.8620     2.1730    -0.6960 C.3   1 <1>  -0.1600 
 10 O        1.4800    -2.7880     0.7220 O.3   1 <1>  -0.0190 
 11 C       -0.5570    -2.6970     0.0770 C.2   1 <1>  -0.1500 
 12 N        5.7770     0.6060    -0.4540 N.4   1 <1>  -0.9590 
 13 C        5.0110     1.4660    -1.4100 C.3   1 <1>   0.3430 
 14 N        0.8020    -3.2920     1.7070 N.2   1 <1>  -0.4100 
 15 C       -0.4320    -3.2520     1.3480 C.2   1 <1>   0.1080 
 16 C        7.2460     0.7190    -0.6700 C.3   1 <1>   0.4860 
 17 C       -1.5840    -3.7420     2.1970 C.3   1 <1>  -0.0590 
 18 C        7.6870     2.1120    -0.2720 C.ar  1 <1>  -0.1430 
 19 C        8.0380     3.0320    -1.2460 C.ar  1 <1>   0.1600 
 20 C        7.7460     2.4950     1.0560 C.ar  1 <1>  -0.1500 
 21 N        8.4040     4.2750    -1.0100 N.ar  1 <1>  -0.6200 
 22 C        8.1400     3.7890     1.3180 C.ar  1 <1>  -0.1500 
 23 C        8.4550     4.6410     0.2610 C.ar  1 <1>   0.3930 
 24 O        8.8420     5.9190     0.4510 O.3   1 <1>  -0.3630 
 25 C        9.1080     6.4650     1.7240 C.3   1 <1>   0.0400 
 26 H        2.1090    -2.4100    -1.8860 H     1 <1>   0.0800 
 27 H        0.5530    -1.7580    -2.2750 H     1 <1>   0.0800 
 28 H        3.6220    -2.0800    -0.2390 H     1 <1>   0.0800 
 29 H        3.9280    -1.0570     1.1160 H     1 <1>   0.0800 
 30 H        3.3910     1.1760     1.1560 H     1 <1>   0.0800 
 31 H        2.0020     1.6920     0.2580 H     1 <1>   0.0800 
 32 H        5.3400    -1.1550    -1.5490 H     1 <1>   0.0800 
 33 H        6.0060    -1.4500     0.0260 H     1 <1>   0.0800 
 34 H        4.2420     2.9780    -0.0930 H     1 <1>   0.0800 
 35 H        3.2360     2.6220    -1.4480 H     1 <1>   0.0800 
 36 H       -1.4710    -2.5410    -0.4660 H     1 <1>   0.1500 
 37 H        5.5860     0.9740     0.4850 H     1 <1>   0.4500 
 38 H        5.6510     2.2140    -1.8490 H     1 <1>   0.0800 
 39 H        4.6110     0.8600    -2.2070 H     1 <1>   0.0800 
 40 H        7.4890     0.5300    -1.7030 H     1 <1>   0.0800 
 41 H        7.7680     0.0000    -0.0600 H     1 <1>   0.0800 
 42 H       -2.2710    -2.9370     2.3790 H     1 <1>   0.0800 
 43 H       -1.2170    -4.1070     3.1390 H     1 <1>   0.0800 
 44 H       -2.0970    -4.5390     1.6910 H     1 <1>   0.0800 
 45 H        8.0170     2.7450    -2.2850 H     1 <1>   0.1500 
 46 H        7.5040     1.8260     1.8660 H     1 <1>   0.1500 
 47 H        8.2000     4.1270     2.3340 H     1 <1>   0.1500 
 48 H        9.4530     7.4740     1.5870 H     1 <1>   0.0800 
 49 H        9.8730     5.8810     2.2040 H     1 <1>   0.0800 
 50 H        8.2010     6.4680     2.3020 H     1 <1>   0.0800 
@<TRIPOS>BOND
  1   1   2  2   
  2   2   3  am  
  3   2   4  1   
  4   3   5  1   
  5   3   6  1   
  6   4   7  1   
  7   4  26  1   
  8   4  27  1   
  9   5   8  1   
 10   5  28  1   
 11   5  29  1   
 12   6   9  1   
 13   6  30  1   
 14   6  31  1   
 15   7  10  1   
 16   7  11  2   
 17   8  12  1   
 18   8  32  1   
 19   8  33  1   
 20   9  13  1   
 21   9  34  1   
 22   9  35  1   
 23  10  14  1   
 24  11  15  1   
 25  11  36  1   
 26  12  13  1   
 27  12  16  1   
 28  12  37  1   
 29  13  38  1   
 30  13  39  1   
 31  14  15  2   
 32  15  17  1   
 33  16  18  1   
 34  16  40  1   
 35  16  41  1   
 36  17  42  1   
 37  17  43  1   
 38  17  44  1   
 39  18  19  ar  
 40  18  20  ar  
 41  19  21  ar  
 42  19  45  1   
 43  20  22  ar  
 44  20  46  1   
 45  21  23  ar  
 46  22  23  ar  
 47  22  47  1   
 48  23  24  1   
 49  24  25  1   
 50  25  48  1   
 51  25  49  1   
 52  25  50  1   
@<TRIPOS>SUBSTRUCTURE
  1 ****   6 GROUP 4 **** **** 0

# MOE 2024.06 (io_trps.svl 2023.06)
