@<TRIPOS>MOLECULE
NONAME
48 51 1 0 0 
SMALL
USER_CHARGES


@<TRIPOS>ATOM
  1 S       -0.0220     0.1720    -1.6590 S.3   1 <1>  -0.0800 
  2 C        0.2910    -1.1690    -0.5820 C.2   1 <1>  -0.1400 
  3 C       -1.6260    -0.4420    -1.9920 C.2   1 <1>  -0.1100 
  4 C       -0.7600    -2.0010    -0.5200 C.2   1 <1>  -0.1810 
  5 C        1.6160    -1.2840     0.1380 C.3   1 <1>   0.0200 
  6 C       -1.8910    -1.5900    -1.3190 C.2   1 <1>  -0.0860 
  7 C       -0.7260    -3.2560     0.3410 C.3   1 <1>   0.0210 
  8 C        1.4880    -2.3330     1.2570 C.3   1 <1>  -0.1600 
  9 C       -3.1450    -2.3170    -1.3700 C.2   1 <1>   0.7160 
 10 C        0.7140    -3.5830     0.7900 C.3   1 <1>  -0.1600 
 11 O       -3.1570    -3.4960    -1.6720 O.2   1 <1>  -0.5700 
 12 N       -4.3390    -1.6920    -1.0760 N.am  1 <1>  -0.6600 
 13 C       -5.6370    -2.3850    -1.3280 C.3   1 <1>   0.1400 
 14 C       -4.3940    -0.3620    -0.3980 C.3   1 <1>   0.1400 
 15 C       -6.7570    -1.3640    -1.5360 C.3   1 <1>  -0.1600 
 16 C       -5.6330    -0.2850     0.4910 C.3   1 <1>  -0.1600 
 17 C       -6.9210    -0.4050    -0.3420 C.3   1 <1>   0.4180 
 18 O       -7.2060     0.8490    -0.9130 O.3   1 <1>  -0.5600 
 19 C       -8.0800    -0.8720     0.5380 C.2   1 <1>  -0.2880 
 20 C       -7.8800     1.7930    -0.1270 C.3   1 <1>   0.1200 
 21 C       -9.1580    -0.1350     0.8170 C.2   1 <1>  -0.2760 
 22 C       -9.2680     1.2770     0.2740 C.3   1 <1>  -0.0220 
 23 C      -10.3330    -0.6070     1.6540 C.3   1 <1>  -0.1020 
 24 H       -2.2370     0.1230    -2.6730 H     1 <1>   0.1500 
 25 H        1.8950    -0.3330     0.5550 H     1 <1>   0.0800 
 26 H        2.3690    -1.5850    -0.5690 H     1 <1>   0.0800 
 27 H       -1.1150    -4.0940    -0.2100 H     1 <1>   0.0800 
 28 H       -1.3510    -3.1010     1.2020 H     1 <1>   0.0800 
 29 H        0.9630    -1.8920     2.0870 H     1 <1>   0.0800 
 30 H        2.4690    -2.6140     1.5980 H     1 <1>   0.0800 
 31 H        1.2400    -4.0230    -0.0400 H     1 <1>   0.0800 
 32 H        0.6830    -4.3120     1.5810 H     1 <1>   0.0800 
 33 H       -5.8650    -3.0190    -0.4890 H     1 <1>   0.0800 
 34 H       -5.5520    -3.0060    -2.2040 H     1 <1>   0.0800 
 35 H       -4.4320     0.4160    -1.1420 H     1 <1>   0.0800 
 36 H       -3.5130    -0.2170     0.2050 H     1 <1>   0.0800 
 37 H       -7.6810    -1.8810    -1.7150 H     1 <1>   0.0800 
 38 H       -6.5240    -0.8040    -2.4240 H     1 <1>   0.0800 
 39 H       -5.6270     0.6280     1.0520 H     1 <1>   0.0800 
 40 H       -5.5830    -1.0910     1.2010 H     1 <1>   0.0800 
 41 H       -7.9440    -1.8730     0.9050 H     1 <1>   0.1500 
 42 H       -7.9710     2.6960    -0.7040 H     1 <1>   0.0800 
 43 H       -7.2920     2.0000     0.7480 H     1 <1>   0.0800 
 44 H       -9.9240     1.2910    -0.5780 H     1 <1>   0.0800 
 45 H       -9.6730     1.9350     1.0220 H     1 <1>   0.0800 
 46 H      -10.4490     0.0190     2.5210 H     1 <1>   0.0800 
 47 H      -10.1790    -1.6190     1.9830 H     1 <1>   0.0800 
 48 H      -11.2380    -0.5710     1.0740 H     1 <1>   0.0800 
@<TRIPOS>BOND
  1   1   2  1   
  2   1   3  1   
  3   2   4  2   
  4   2   5  1   
  5   3   6  2   
  6   3  24  1   
  7   4   6  1   
  8   4   7  1   
  9   5   8  1   
 10   5  25  1   
 11   5  26  1   
 12   6   9  1   
 13   7  10  1   
 14   7  27  1   
 15   7  28  1   
 16   8  10  1   
 17   8  29  1   
 18   8  30  1   
 19   9  11  2   
 20   9  12  am  
 21  10  31  1   
 22  10  32  1   
 23  12  13  1   
 24  12  14  1   
 25  13  15  1   
 26  13  33  1   
 27  13  34  1   
 28  14  16  1   
 29  14  35  1   
 30  14  36  1   
 31  15  17  1   
 32  15  37  1   
 33  15  38  1   
 34  16  17  1   
 35  16  39  1   
 36  16  40  1   
 37  17  18  1   
 38  17  19  1   
 39  18  20  1   
 40  19  21  2   
 41  19  41  1   
 42  20  22  1   
 43  20  42  1   
 44  20  43  1   
 45  21  22  1   
 46  21  23  1   
 47  22  44  1   
 48  22  45  1   
 49  23  46  1   
 50  23  47  1   
 51  23  48  1   
@<TRIPOS>SUBSTRUCTURE
  1 ****  14 GROUP 4 **** **** 0

# MOE 2024.06 (io_trps.svl 2023.06)
