@<TRIPOS>MOLECULE
NONAME
44 45 1 0 0 
SMALL
USER_CHARGES


@<TRIPOS>ATOM
  1 CL      -1.0740    -1.3590     0.1700 Cl    1 <1>  -0.1770 
  2 C       -2.0450     0.0900     0.0340 C.ar  1 <1>   0.1770 
  3 C       -3.3910     0.0420    -0.3400 C.ar  1 <1>   0.0860 
  4 C       -1.4020     1.2830     0.3070 C.ar  1 <1>  -0.1500 
  5 C       -4.1180    -1.1830    -0.6190 C.2   1 <1>   0.5440 
  6 C       -4.0520     1.2690    -0.4410 C.ar  1 <1>  -0.1500 
  7 C       -2.0900     2.4780     0.2050 C.ar  1 <1>  -0.1500 
  8 O       -5.0010    -1.1950    -1.4550 O.2   1 <1>  -0.5700 
  9 N       -3.8890    -2.3340     0.0750 N.am  1 <1>  -0.7300 
 10 C       -3.4210     2.4730    -0.1740 C.ar  1 <1>  -0.1430 
 11 C       -4.5790    -3.6210    -0.1690 C.3   1 <1>   0.2200 
 12 C       -4.1780     3.7850    -0.2930 C.3   1 <1>  -0.0970 
 13 C       -5.8730    -3.6590     0.6460 C.3   1 <1>  -0.0800 
 14 C       -3.7720    -4.7870     0.3980 C.3   1 <1>   0.1200 
 15 C       -5.6640    -4.8280     1.6150 C.3   1 <1>   0.1200 
 16 C       -7.1460    -3.6880    -0.2310 C.3   1 <1>  -0.0550 
 17 O       -4.2870    -5.0020     1.6730 O.3   1 <1>  -0.5600 
 18 S       -7.4610    -5.1790    -1.1890 S.o2  1 <1>   1.3330 
 19 O       -6.2020    -5.7510    -1.6140 O.2   1 <1>  -0.6500 
 20 O       -8.4840    -4.9000    -2.1710 O.2   1 <1>  -0.6500 
 21 N       -8.1520    -6.2350    -0.0490 N.am  1 <1>  -0.8490 
 22 C       -7.8990    -7.6430    -0.3730 C.3   1 <1>   0.1160 
 23 C       -9.5910    -6.0240     0.1450 C.3   1 <1>   0.1160 
 24 H       -0.3660     1.2770     0.5940 H     1 <1>   0.1500 
 25 H       -5.0880     1.2680    -0.7380 H     1 <1>   0.1500 
 26 H       -1.5890     3.4060     0.4190 H     1 <1>   0.1500 
 27 H       -3.1810    -2.3580     0.8130 H     1 <1>   0.3700 
 28 H       -4.7340    -3.7500    -1.2270 H     1 <1>   0.0800 
 29 H       -3.5650     4.5240    -0.7770 H     1 <1>   0.0800 
 30 H       -4.4460     4.1410     0.6850 H     1 <1>   0.0800 
 31 H       -5.0750     3.6580    -0.8720 H     1 <1>   0.0800 
 32 H       -5.9330    -2.7680     1.2470 H     1 <1>   0.0800 
 33 H       -2.7180    -4.5820     0.4590 H     1 <1>   0.0800 
 34 H       -3.9420    -5.6790    -0.1810 H     1 <1>   0.0800 
 35 H       -6.0820    -5.7500     1.2580 H     1 <1>   0.0800 
 36 H       -6.0340    -4.6160     2.6030 H     1 <1>   0.0800 
 37 H       -7.0740    -2.8640    -0.9160 H     1 <1>   0.0800 
 38 H       -7.9950    -3.4950     0.3930 H     1 <1>   0.0800 
 39 H       -8.3420    -8.2830     0.3700 H     1 <1>   0.0800 
 40 H       -6.8380    -7.8330    -0.3890 H     1 <1>   0.0800 
 41 H       -8.3080    -7.8840    -1.3400 H     1 <1>   0.0800 
 42 H       -9.9520    -6.6500     0.9430 H     1 <1>   0.0800 
 43 H      -10.1320    -6.2610    -0.7580 H     1 <1>   0.0800 
 44 H       -9.7870    -4.9980     0.4030 H     1 <1>   0.0800 
@<TRIPOS>BOND
  1   1   2  1   
  2   2   3  ar  
  3   2   4  ar  
  4   3   5  1   
  5   3   6  ar  
  6   4   7  ar  
  7   4  24  1   
  8   5   8  2   
  9   5   9  am  
 10   6  10  ar  
 11   6  25  1   
 12   7  10  ar  
 13   7  26  1   
 14   9  11  1   
 15   9  27  1   
 16  10  12  1   
 17  11  13  1   
 18  11  14  1   
 19  11  28  1   
 20  12  29  1   
 21  12  30  1   
 22  12  31  1   
 23  13  15  1   
 24  13  16  1   
 25  13  32  1   
 26  14  17  1   
 27  14  33  1   
 28  14  34  1   
 29  15  17  1   
 30  15  35  1   
 31  15  36  1   
 32  16  18  1   
 33  16  37  1   
 34  16  38  1   
 35  18  19  2   
 36  18  20  2   
 37  18  21  am  
 38  21  22  1   
 39  21  23  1   
 40  22  39  1   
 41  22  40  1   
 42  22  41  1   
 43  23  42  1   
 44  23  43  1   
 45  23  44  1   
@<TRIPOS>SUBSTRUCTURE
  1 ****   9 GROUP 4 **** **** 0

# MOE 2024.06 (io_trps.svl 2023.06)
