@<TRIPOS>MOLECULE
NONAME
40 42 1 0 0 
SMALL
USER_CHARGES


@<TRIPOS>ATOM
  1 CL       0.3000     0.7320    -0.4610 Cl    1 <1>  -0.1770 
  2 C        1.9260     1.3840    -0.4170 C.ar  1 <1>   0.1770 
  3 C        2.7430     1.2400     0.6980 C.ar  1 <1>   0.1660 
  4 C        2.3810     2.0640    -1.5260 C.ar  1 <1>  -0.1500 
  5 N        3.9720     1.7350     0.7710 N.ar  1 <1>  -0.6200 
  6 C        2.2690     0.4960     1.9340 C.3   1 <1>  -0.0960 
  7 C        3.6590     2.5680    -1.4510 C.ar  1 <1>  -0.1500 
  8 C        4.4230     2.3810    -0.2990 C.ar  1 <1>   0.4100 
  9 N        5.7150     2.8840    -0.2310 N.pl3 1 <1>  -0.8380 
 10 C        6.3180     3.1010     1.1320 C.3   1 <1>   0.2090 
 11 C        6.6990     2.3760    -1.2310 C.3   1 <1>   0.2090 
 12 C        7.4020     4.2140     1.2020 C.3   1 <1>   0.4230 
 13 C        7.7310     3.4610    -1.6000 C.3   1 <1>  -0.0800 
 14 N        7.2710     5.3160     0.1610 N.4   1 <1>  -0.9590 
 15 C        8.8340     3.6360     1.2500 C.3   1 <1>   0.1200 
 16 C        9.1420     3.1760    -1.0620 C.3   1 <1>   0.1200 
 17 C        7.2300     4.8780    -1.2820 C.3   1 <1>   0.3430 
 18 C        6.0330     6.1060     0.4390 C.3   1 <1>   0.2630 
 19 O        9.0910     2.7080     0.2440 O.3   1 <1>  -0.5600 
 20 H        1.7590     2.1850    -2.3950 H     1 <1>   0.1500 
 21 H        1.5710    -0.2800     1.6790 H     1 <1>   0.0800 
 22 H        1.7990     1.1850     2.6110 H     1 <1>   0.0800 
 23 H        3.1060     0.0400     2.4310 H     1 <1>   0.0800 
 24 H        4.0740     3.1110    -2.2770 H     1 <1>   0.1500 
 25 H        5.5350     3.3790     1.8160 H     1 <1>   0.0800 
 26 H        6.7220     2.1700     1.4920 H     1 <1>   0.0800 
 27 H        7.1860     1.4960    -0.8420 H     1 <1>   0.0800 
 28 H        6.1760     2.0720    -2.1230 H     1 <1>   0.0800 
 29 H        7.2720     4.6800     2.1640 H     1 <1>   0.0800 
 30 H        7.8250     3.4230    -2.6700 H     1 <1>   0.0800 
 31 H        8.0840     5.9330     0.2720 H     1 <1>   0.4500 
 32 H        8.9610     3.1100     2.1810 H     1 <1>   0.0800 
 33 H        9.5750     4.4140     1.2080 H     1 <1>   0.0800 
 34 H        9.7830     4.0400    -1.1110 H     1 <1>   0.0800 
 35 H        9.5930     2.3910    -1.6460 H     1 <1>   0.0800 
 36 H        6.2090     4.9300    -1.6280 H     1 <1>   0.0800 
 37 H        7.7960     5.5820    -1.8700 H     1 <1>   0.0800 
 38 H        5.1630     5.4770     0.3220 H     1 <1>   0.0800 
 39 H        5.9530     6.9350    -0.2460 H     1 <1>   0.0800 
 40 H        6.0470     6.4910     1.4460 H     1 <1>   0.0800 
@<TRIPOS>BOND
  1   1   2  1   
  2   2   3  ar  
  3   2   4  ar  
  4   3   5  ar  
  5   3   6  1   
  6   4   7  ar  
  7   4  20  1   
  8   5   8  ar  
  9   6  21  1   
 10   6  22  1   
 11   6  23  1   
 12   7   8  ar  
 13   7  24  1   
 14   8   9  1   
 15   9  10  1   
 16   9  11  1   
 17  10  12  1   
 18  10  25  1   
 19  10  26  1   
 20  11  13  1   
 21  11  27  1   
 22  11  28  1   
 23  12  14  1   
 24  12  15  1   
 25  12  29  1   
 26  13  16  1   
 27  13  17  1   
 28  13  30  1   
 29  14  17  1   
 30  14  18  1   
 31  14  31  1   
 32  15  19  1   
 33  15  32  1   
 34  15  33  1   
 35  16  19  1   
 36  16  34  1   
 37  16  35  1   
 38  17  36  1   
 39  17  37  1   
 40  18  38  1   
 41  18  39  1   
 42  18  40  1   
@<TRIPOS>SUBSTRUCTURE
  1 ****   9 GROUP 4 **** **** 0

# MOE 2024.06 (io_trps.svl 2023.06)
