@<TRIPOS>MOLECULE
NONAME
42 44 1 0 0 
SMALL
USER_CHARGES


@<TRIPOS>ATOM
  1 S       -0.4880    -0.0130    -1.0780 S.3   1 <1>  -0.0800 
  2 C       -0.1770    -1.7230    -0.8340 C.2   1 <1>  -0.1100 
  3 C       -1.7060    -0.0140     0.1840 C.2   1 <1>  -0.1100 
  4 C       -0.9630    -2.2200     0.1390 C.2   1 <1>  -0.1810 
  5 C       -1.8340    -1.2410     0.7210 C.2   1 <1>  -0.1500 
  6 C       -0.9700    -3.6630     0.6140 C.3   1 <1>   0.0210 
  7 C       -2.2610    -4.3680     0.1750 C.3   1 <1>  -0.0990 
  8 C       -2.3100    -5.8370     0.5640 C.2   1 <1>   0.5690 
  9 O       -1.5010    -6.2700     1.3490 O.2   1 <1>  -0.5700 
 10 N       -3.2710    -6.6450     0.0260 N.am  1 <1>  -0.6600 
 11 C       -4.3640    -6.2470    -0.8980 C.3   1 <1>   0.1400 
 12 C       -3.3730    -8.0880     0.3550 C.3   1 <1>   0.1400 
 13 C       -5.3920    -7.3700    -0.7680 C.3   1 <1>   0.2000 
 14 C       -4.5380    -8.6130    -0.4940 C.3   1 <1>  -0.0800 
 15 O       -6.1860    -7.0990     0.3350 O.3   1 <1>  -0.6800 
 16 C       -5.2950    -9.7930     0.1440 C.3   1 <1>   0.0200 
 17 C       -4.4510   -11.0510     0.2650 C.2   1 <1>  -0.0400 
 18 O       -4.9460   -12.0770     0.9050 O.3   1 <1>  -0.0190 
 19 C       -3.2240   -11.3920    -0.1640 C.2   1 <1>  -0.1500 
 20 N       -4.1190   -13.0820     0.9310 N.2   1 <1>  -0.4100 
 21 C       -3.0720   -12.6980     0.2940 C.2   1 <1>   0.1080 
 22 C       -1.8450   -13.5550     0.0790 C.3   1 <1>  -0.0590 
 23 H        0.5720    -2.1800    -1.4560 H     1 <1>   0.1500 
 24 H       -2.2010     0.9180     0.3940 H     1 <1>   0.1500 
 25 H       -2.5110    -1.5010     1.5160 H     1 <1>   0.1500 
 26 H       -0.1220    -4.1810     0.2000 H     1 <1>   0.0800 
 27 H       -0.8790    -3.6880     1.6870 H     1 <1>   0.0800 
 28 H       -2.3430    -4.2900    -0.8930 H     1 <1>   0.0800 
 29 H       -3.1040    -3.8740     0.6170 H     1 <1>   0.0800 
 30 H       -4.7880    -5.2910    -0.6420 H     1 <1>   0.0800 
 31 H       -3.9800    -6.2170    -1.9030 H     1 <1>   0.0800 
 32 H       -2.4490    -8.5910     0.1270 H     1 <1>   0.0800 
 33 H       -3.5800    -8.1930     1.4070 H     1 <1>   0.0800 
 34 H       -6.0270    -7.4660    -1.6330 H     1 <1>   0.0800 
 35 H       -4.1340    -8.9400    -1.4370 H     1 <1>   0.0800 
 36 H       -5.6090    -6.8860     1.0970 H     1 <1>   0.4000 
 37 H       -6.1630   -10.0230    -0.4490 H     1 <1>   0.0800 
 38 H       -5.6380    -9.5220     1.1270 H     1 <1>   0.0800 
 39 H       -2.5000   -10.8360    -0.7270 H     1 <1>   0.1500 
 40 H       -0.9870   -13.0800     0.5170 H     1 <1>   0.0800 
 41 H       -1.6770   -13.6950    -0.9720 H     1 <1>   0.0800 
 42 H       -1.9840   -14.5160     0.5410 H     1 <1>   0.0800 
@<TRIPOS>BOND
  1   1   2  1   
  2   1   3  1   
  3   2   4  2   
  4   2  23  1   
  5   3   5  2   
  6   3  24  1   
  7   4   5  1   
  8   4   6  1   
  9   5  25  1   
 10   6   7  1   
 11   6  26  1   
 12   6  27  1   
 13   7   8  1   
 14   7  28  1   
 15   7  29  1   
 16   8   9  2   
 17   8  10  am  
 18  10  11  1   
 19  10  12  1   
 20  11  13  1   
 21  11  30  1   
 22  11  31  1   
 23  12  14  1   
 24  12  32  1   
 25  12  33  1   
 26  13  14  1   
 27  13  15  1   
 28  13  34  1   
 29  14  16  1   
 30  14  35  1   
 31  15  36  1   
 32  16  17  1   
 33  16  37  1   
 34  16  38  1   
 35  17  18  1   
 36  17  19  2   
 37  18  20  1   
 38  19  21  1   
 39  19  39  1   
 40  20  21  2   
 41  21  22  1   
 42  22  40  1   
 43  22  41  1   
 44  22  42  1   
@<TRIPOS>SUBSTRUCTURE
  1 ****  10 GROUP 4 **** **** 0

# MOE 2024.06 (io_trps.svl 2023.06)
