@<TRIPOS>MOLECULE
NONAME
48 50 1 0 0 
SMALL
USER_CHARGES


@<TRIPOS>ATOM
  1 O       -2.8310     1.0640    -1.3030 O.2   1 <1>  -0.5700 
  2 C       -2.2930     0.7810    -0.2550 C.2   1 <1>   0.5690 
  3 N       -2.1770    -0.5170     0.1320 N.am  1 <1>  -0.7300 
  4 C       -1.7380     1.9020     0.6740 C.3   1 <1>   0.3410 
  5 C       -2.6480    -1.7000    -0.6190 C.3   1 <1>   0.2200 
  6 O       -1.2610     1.2980     1.8680 O.3   1 <1>  -0.5600 
  7 C       -2.8640     2.8870     1.0370 C.3   1 <1>  -0.2400 
  8 C       -0.5800     2.6290    -0.0310 C.3   1 <1>  -0.2400 
  9 C       -3.9230    -2.2680    -0.0120 C.3   1 <1>  -0.0800 
 10 C       -1.6840    -2.8570    -0.3960 C.3   1 <1>   0.1200 
 11 C       -0.6390     2.0750     2.8530 C.3   1 <1>   0.0400 
 12 C       -3.3980    -3.1860     1.0970 C.3   1 <1>   0.1200 
 13 C       -4.9570    -1.2320     0.4710 C.3   1 <1>  -0.0170 
 14 O       -2.0440    -3.4160     0.8310 O.3   1 <1>  -0.5600 
 15 C       -6.2400    -1.9160     0.9330 C.ar  1 <1>  -0.1440 
 16 C       -7.2110    -2.3990     0.0240 C.ar  1 <1>   0.0000 
 17 C       -6.4820    -2.0890     2.2650 C.ar  1 <1>  -0.1500 
 18 C       -8.3520    -3.0440     0.5620 C.ar  1 <1>   0.3100 
 19 C       -7.1200    -2.2790    -1.3820 C.ar  1 <1>  -0.1500 
 20 C       -7.6490    -2.7340     2.6920 C.ar  1 <1>   0.1600 
 21 N       -8.5550    -3.2030     1.8940 N.ar  1 <1>  -0.6200 
 22 C       -9.3260    -3.5450    -0.3160 C.ar  1 <1>  -0.1500 
 23 C       -8.0890    -2.7770    -2.2100 C.ar  1 <1>  -0.1500 
 24 C       -9.2060    -3.4200    -1.6730 C.ar  1 <1>  -0.1500 
 25 H       -1.7390    -0.7000     1.0420 H     1 <1>   0.3700 
 26 H       -2.7600    -1.4600    -1.6630 H     1 <1>   0.0800 
 27 H       -3.3200     3.2590     0.1370 H     1 <1>   0.0800 
 28 H       -2.4910     3.7330     1.5830 H     1 <1>   0.0800 
 29 H       -3.6190     2.3840     1.6120 H     1 <1>   0.0800 
 30 H       -0.9080     2.9750    -0.9940 H     1 <1>   0.0800 
 31 H        0.2410     1.9510    -0.1810 H     1 <1>   0.0800 
 32 H       -0.2500     3.4850     0.5260 H     1 <1>   0.0800 
 33 H       -4.3840    -2.8960    -0.7520 H     1 <1>   0.0800 
 34 H       -0.6560    -2.5420    -0.3650 H     1 <1>   0.0800 
 35 H       -1.8160    -3.6120    -1.1510 H     1 <1>   0.0800 
 36 H       -0.3930     1.4260     3.6750 H     1 <1>   0.0800 
 37 H       -1.3080     2.8410     3.1990 H     1 <1>   0.0800 
 38 H        0.2680     2.5030     2.4650 H     1 <1>   0.0800 
 39 H       -3.9180    -4.1290     1.1130 H     1 <1>   0.0800 
 40 H       -3.4620    -2.7180     2.0630 H     1 <1>   0.0800 
 41 H       -5.1750    -0.5320    -0.3160 H     1 <1>   0.0800 
 42 H       -4.5470    -0.6620     1.2860 H     1 <1>   0.0800 
 43 H       -5.7930    -1.7420     3.0120 H     1 <1>   0.1500 
 44 H       -6.2730    -1.7830    -1.8170 H     1 <1>   0.1500 
 45 H       -7.8000    -2.8500     3.7520 H     1 <1>   0.1500 
 46 H      -10.1780    -4.0330     0.1200 H     1 <1>   0.1500 
 47 H       -8.0060    -2.6790    -3.2800 H     1 <1>   0.1500 
 48 H       -9.9610    -3.8090    -2.3340 H     1 <1>   0.1500 
@<TRIPOS>BOND
  1   1   2  2   
  2   2   3  am  
  3   2   4  1   
  4   3   5  1   
  5   3  25  1   
  6   4   6  1   
  7   4   7  1   
  8   4   8  1   
  9   5   9  1   
 10   5  10  1   
 11   5  26  1   
 12   6  11  1   
 13   7  27  1   
 14   7  28  1   
 15   7  29  1   
 16   8  30  1   
 17   8  31  1   
 18   8  32  1   
 19   9  12  1   
 20   9  13  1   
 21   9  33  1   
 22  10  14  1   
 23  10  34  1   
 24  10  35  1   
 25  11  36  1   
 26  11  37  1   
 27  11  38  1   
 28  12  14  1   
 29  12  39  1   
 30  12  40  1   
 31  13  15  1   
 32  13  41  1   
 33  13  42  1   
 34  15  16  ar  
 35  15  17  ar  
 36  16  18  ar  
 37  16  19  ar  
 38  17  20  ar  
 39  17  43  1   
 40  18  21  ar  
 41  18  22  ar  
 42  19  23  ar  
 43  19  44  1   
 44  20  21  ar  
 45  20  45  1   
 46  22  24  ar  
 47  22  46  1   
 48  23  24  ar  
 49  23  47  1   
 50  24  48  1   
@<TRIPOS>SUBSTRUCTURE
  1 ****  13 GROUP 4 **** **** 0

# MOE 2024.06 (io_trps.svl 2023.06)
