@<TRIPOS>MOLECULE
NONAME
58 60 1 0 0 
SMALL
USER_CHARGES


@<TRIPOS>ATOM
  1 CL      -2.5830     0.0960     3.0960 Cl    1 <1>  -0.1770 
  2 C       -2.7580     0.9520     1.5820 C.ar  1 <1>   0.1770 
  3 C       -2.9000     0.2370     0.4030 C.ar  1 <1>  -0.1440 
  4 C       -2.7540     2.3330     1.5970 C.ar  1 <1>  -0.1500 
  5 C       -3.0500     0.9370    -0.7870 C.ar  1 <1>  -0.1500 
  6 C       -2.8890    -1.2780     0.4140 C.3   1 <1>   0.4870 
  7 C       -2.8920     3.0280     0.4090 C.ar  1 <1>   0.0820 
  8 C       -3.0690     2.3230    -0.7890 C.ar  1 <1>   0.0820 
  9 N       -4.2780    -1.7760     0.2110 N.4   1 <1>  -0.9590 
 10 O       -2.8450     4.3810     0.4730 O.3   1 <1>  -0.3620 
 11 O       -3.2570     2.9250    -1.9870 O.3   1 <1>  -0.3620 
 12 C       -5.2390    -1.3790     1.3030 C.3   1 <1>   0.3430 
 13 C       -4.3490    -3.2600     0.0650 C.3   1 <1>   0.3430 
 14 C       -1.7690     5.0390    -0.1640 C.3   1 <1>   0.2000 
 15 C       -4.3980     3.7430    -2.1350 C.3   1 <1>   0.1200 
 16 C       -5.8490    -2.6780     1.8460 C.3   1 <1>   0.2000 
 17 C       -5.6770    -3.6680     0.6970 C.3   1 <1>  -0.0800 
 18 C       -0.5170     4.8920     0.7040 C.3   1 <1>  -0.2400 
 19 C       -2.1630     6.5050    -0.3240 C.3   1 <1>  -0.2400 
 20 C       -4.4510     4.2200    -3.5820 C.3   1 <1>  -0.2400 
 21 O       -5.1280    -3.0990     2.9580 O.3   1 <1>  -0.6800 
 22 C       -5.7650    -5.1660     1.0540 C.3   1 <1>   0.0200 
 23 C       -5.3020    -6.0110    -0.1180 C.2   1 <1>  -0.0400 
 24 O       -5.7140    -5.7290    -1.3250 O.3   1 <1>  -0.0190 
 25 C       -4.4710    -7.0610    -0.2000 C.2   1 <1>  -0.1500 
 26 N       -5.1860    -6.5170    -2.2120 N.2   1 <1>  -0.4100 
 27 C       -4.4420    -7.3410    -1.5630 C.2   1 <1>   0.1080 
 28 C       -3.6490    -8.4580    -2.2060 C.3   1 <1>  -0.0590 
 29 H       -2.6370     2.8710     2.5210 H     1 <1>   0.1500 
 30 H       -3.1550     0.4310    -1.7310 H     1 <1>   0.1500 
 31 H       -2.4930    -1.6440     1.3470 H     1 <1>   0.0800 
 32 H       -2.2520    -1.6310    -0.3820 H     1 <1>   0.0800 
 33 H       -4.6190    -1.3500    -0.6620 H     1 <1>   0.4500 
 34 H       -4.7590    -0.8310     2.0960 H     1 <1>   0.0800 
 35 H       -6.0210    -0.7670     0.8840 H     1 <1>   0.0800 
 36 H       -4.2970    -3.5650    -0.9690 H     1 <1>   0.0800 
 37 H       -3.5430    -3.7260     0.6090 H     1 <1>   0.0800 
 38 H       -1.6080     4.5970    -1.1330 H     1 <1>   0.0800 
 39 H       -5.2690     3.1600    -1.8910 H     1 <1>   0.0800 
 40 H       -4.3260     4.5800    -1.4660 H     1 <1>   0.0800 
 41 H       -6.8770    -2.5550     2.1450 H     1 <1>   0.0800 
 42 H       -6.4440    -3.4650    -0.0310 H     1 <1>   0.0800 
 43 H       -0.6950     5.2880     1.6880 H     1 <1>   0.0800 
 44 H        0.2990     5.4310     0.2590 H     1 <1>   0.0800 
 45 H       -0.2320     3.8590     0.7780 H     1 <1>   0.0800 
 46 H       -2.3520     6.9500     0.6360 H     1 <1>   0.0800 
 47 H       -3.0440     6.5850    -0.9340 H     1 <1>   0.0800 
 48 H       -1.3700     7.0480    -0.8050 H     1 <1>   0.0800 
 49 H       -4.5180     3.3790    -4.2500 H     1 <1>   0.0800 
 50 H       -3.5710     4.7930    -3.8140 H     1 <1>   0.0800 
 51 H       -5.3140     4.8440    -3.7280 H     1 <1>   0.0800 
 52 H       -4.1620    -3.1150     2.8170 H     1 <1>   0.4000 
 53 H       -6.7840    -5.4200     1.2920 H     1 <1>   0.0800 
 54 H       -5.1580    -5.4080     1.9090 H     1 <1>   0.0800 
 55 H       -3.9360    -7.5880     0.5690 H     1 <1>   0.1500 
 56 H       -2.6080    -8.3580    -1.9620 H     1 <1>   0.0800 
 57 H       -3.7620    -8.4220    -3.2740 H     1 <1>   0.0800 
 58 H       -4.0070    -9.4080    -1.8520 H     1 <1>   0.0800 
@<TRIPOS>BOND
  1   1   2  1   
  2   2   3  ar  
  3   2   4  ar  
  4   3   5  ar  
  5   3   6  1   
  6   4   7  ar  
  7   4  29  1   
  8   5   8  ar  
  9   5  30  1   
 10   6   9  1   
 11   6  31  1   
 12   6  32  1   
 13   7   8  ar  
 14   7  10  1   
 15   8  11  1   
 16   9  12  1   
 17   9  13  1   
 18   9  33  1   
 19  10  14  1   
 20  11  15  1   
 21  12  16  1   
 22  12  34  1   
 23  12  35  1   
 24  13  17  1   
 25  13  36  1   
 26  13  37  1   
 27  14  18  1   
 28  14  19  1   
 29  14  38  1   
 30  15  20  1   
 31  15  39  1   
 32  15  40  1   
 33  16  17  1   
 34  16  21  1   
 35  16  41  1   
 36  17  22  1   
 37  17  42  1   
 38  18  43  1   
 39  18  44  1   
 40  18  45  1   
 41  19  46  1   
 42  19  47  1   
 43  19  48  1   
 44  20  49  1   
 45  20  50  1   
 46  20  51  1   
 47  21  52  1   
 48  22  23  1   
 49  22  53  1   
 50  22  54  1   
 51  23  24  1   
 52  23  25  2   
 53  24  26  1   
 54  25  27  1   
 55  25  55  1   
 56  26  27  2   
 57  27  28  1   
 58  28  56  1   
 59  28  57  1   
 60  28  58  1   
@<TRIPOS>SUBSTRUCTURE
  1 ****   9 GROUP 4 **** **** 0

# MOE 2024.06 (io_trps.svl 2023.06)
