@<TRIPOS>MOLECULE
NONAME
53 55 1 0 0 
SMALL
USER_CHARGES


@<TRIPOS>ATOM
  1 O       -1.1450    -0.4230     1.5770 O.2   1 <1>  -0.5700 
  2 C       -1.5420     0.5250     0.9230 C.2   1 <1>   0.5440 
  3 N       -2.6890     0.3510     0.1790 N.am  1 <1>  -0.6600 
  4 C       -0.8600     1.8070     0.9850 C.ar  1 <1>   0.0860 
  5 C       -3.1310    -1.0140    -0.2000 C.3   1 <1>   0.1400 
  6 C       -3.8200     1.3100     0.3610 C.3   1 <1>   0.1400 
  7 C       -0.8430     2.6810    -0.1010 C.ar  1 <1>  -0.1500 
  8 C       -0.1910     2.2120     2.1410 C.ar  1 <1>  -0.1500 
  9 C       -4.4350    -1.2490     0.5880 C.3   1 <1>   0.4230 
 10 C       -5.1640     0.7490    -0.2090 C.3   1 <1>  -0.1600 
 11 C       -0.2120     3.9110    -0.0400 C.ar  1 <1>   0.0820 
 12 C        0.4470     3.4360     2.2160 C.ar  1 <1>  -0.1500 
 13 N       -4.3770    -2.4600     1.4830 N.4   1 <1>  -0.9590 
 14 C       -5.6680    -0.8020    -0.3180 C.3   1 <1>   0.0000 
 15 O       -0.2720     4.6800    -1.1540 O.3   1 <1>  -0.3620 
 16 C        0.4370     4.2920     1.1300 C.ar  1 <1>  -0.1500 
 17 C       -4.4890    -3.6850     0.7160 C.3   1 <1>   0.3430 
 18 C       -3.1810    -2.4570     2.3910 C.3   1 <1>   0.2630 
 19 C       -6.2170    -2.3140    -0.5430 C.3   1 <1>  -0.1600 
 20 C       -6.9220    -0.2680    -1.1800 C.3   1 <1>   0.1200 
 21 C        0.3930     5.9190    -1.2290 C.3   1 <1>   0.1200 
 22 C       -5.9040    -3.6110     0.2340 C.3   1 <1>  -0.1600 
 23 O       -7.9820    -0.0420    -0.3040 O.3   1 <1>  -0.6800 
 24 C        0.1540     6.5000    -2.6190 C.3   1 <1>  -0.2400 
 25 H       -3.3190    -1.0400    -1.2590 H     1 <1>   0.0800 
 26 H       -2.3720    -1.7430     0.0150 H     1 <1>   0.0800 
 27 H       -3.9340     1.5120     1.4140 H     1 <1>   0.0800 
 28 H       -3.5830     2.2450    -0.1190 H     1 <1>   0.0800 
 29 H       -1.3240     2.4010    -1.0200 H     1 <1>   0.1500 
 30 H       -0.1720     1.5520     2.9920 H     1 <1>   0.1500 
 31 H       -4.4280    -0.5060     1.3640 H     1 <1>   0.0800 
 32 H       -5.9250     1.3490     0.2690 H     1 <1>   0.0800 
 33 H       -5.0450     1.1260    -1.2130 H     1 <1>   0.0800 
 34 H        0.9540     3.7230     3.1220 H     1 <1>   0.1500 
 35 H       -5.2190    -2.4020     2.0720 H     1 <1>   0.4500 
 36 H        0.9370     5.2390     1.2120 H     1 <1>   0.1500 
 37 H       -3.7880    -3.7000    -0.1030 H     1 <1>   0.0800 
 38 H       -4.3450    -4.5520     1.3410 H     1 <1>   0.0800 
 39 H       -2.2720    -2.5920     1.8280 H     1 <1>   0.0800 
 40 H       -3.2560    -3.2510     3.1160 H     1 <1>   0.0800 
 41 H       -3.1100    -1.5170     2.9150 H     1 <1>   0.0800 
 42 H       -7.2960    -2.3710    -0.5080 H     1 <1>   0.0800 
 43 H       -5.9400    -2.5580    -1.5570 H     1 <1>   0.0800 
 44 H       -7.2750    -0.9380    -1.9510 H     1 <1>   0.0800 
 45 H       -6.8140     0.6460    -1.7390 H     1 <1>   0.0800 
 46 H       -0.0080     6.5690    -0.4710 H     1 <1>   0.0800 
 47 H        1.4440     5.7530    -1.0620 H     1 <1>   0.0800 
 48 H       -6.1040    -4.4620    -0.3950 H     1 <1>   0.0800 
 49 H       -6.5670    -3.6950     1.0800 H     1 <1>   0.0800 
 50 H       -8.7770     0.2730    -0.7820 H     1 <1>   0.4000 
 51 H       -0.8990     6.6480    -2.7810 H     1 <1>   0.0800 
 52 H        0.5430     5.8360    -3.3690 H     1 <1>   0.0800 
 53 H        0.6520     7.4490    -2.7090 H     1 <1>   0.0800 
@<TRIPOS>BOND
  1   1   2  2   
  2   2   3  am  
  3   2   4  1   
  4   3   5  1   
  5   3   6  1   
  6   4   7  ar  
  7   4   8  ar  
  8   5   9  1   
  9   5  25  1   
 10   5  26  1   
 11   6  10  1   
 12   6  27  1   
 13   6  28  1   
 14   7  11  ar  
 15   7  29  1   
 16   8  12  ar  
 17   8  30  1   
 18   9  13  1   
 19   9  14  1   
 20   9  31  1   
 21  10  14  1   
 22  10  32  1   
 23  10  33  1   
 24  11  15  1   
 25  11  16  ar  
 26  12  16  ar  
 27  12  34  1   
 28  13  17  1   
 29  13  18  1   
 30  13  35  1   
 31  14  19  1   
 32  14  20  1   
 33  15  21  1   
 34  16  36  1   
 35  17  22  1   
 36  17  37  1   
 37  17  38  1   
 38  18  39  1   
 39  18  40  1   
 40  18  41  1   
 41  19  22  1   
 42  19  42  1   
 43  19  43  1   
 44  20  23  1   
 45  20  44  1   
 46  20  45  1   
 47  21  24  1   
 48  21  46  1   
 49  21  47  1   
 50  22  48  1   
 51  22  49  1   
 52  23  50  1   
 53  24  51  1   
 54  24  52  1   
 55  24  53  1   
@<TRIPOS>SUBSTRUCTURE
  1 ****   3 GROUP 4 **** **** 0

# MOE 2024.06 (io_trps.svl 2023.06)
