@<TRIPOS>MOLECULE
NONAME
53 57 1 0 0 
SMALL
USER_CHARGES


@<TRIPOS>ATOM
  1 O       -1.4740     0.1740    -1.0950 O.2   1 <1>  -0.5700 
  2 C       -2.5520     0.2820    -0.5350 C.2   1 <1>   0.7150 
  3 N       -3.4170    -0.7960    -0.5650 N.am  1 <1>  -0.6600 
  4 C       -2.9060     1.5210     0.1260 C.2   1 <1>   0.0550 
  5 C       -4.5020    -1.0030     0.4450 C.3   1 <1>   0.1400 
  6 C       -3.2450    -1.8870    -1.5620 C.3   1 <1>   0.1400 
  7 O       -2.0220     2.1840     0.8670 O.3   1 <1>  -0.2800 
  8 C       -4.0800     2.2170     0.1430 C.2   1 <1>  -0.1500 
  9 C       -4.3420    -2.2990     1.2630 C.3   1 <1>   0.2090 
 10 C       -2.4790    -3.0540    -0.9330 C.3   1 <1>  -0.1600 
 11 C       -2.5910     3.2650     1.3480 C.2   1 <1>  -0.0100 
 12 C       -3.8740     3.3450     0.9370 C.2   1 <1>  -0.1500 
 13 N       -4.5390    -3.5400     0.4520 N.pl3 1 <1>  -0.8380 
 14 C       -3.3810    -4.1100    -0.2840 C.3   1 <1>   0.2090 
 15 C       -5.8110    -4.0370     0.2570 C.ar  1 <1>   0.4100 
 16 N       -6.7550    -3.1700    -0.0420 N.ar  1 <1>  -0.6200 
 17 C       -6.1180    -5.3810     0.3700 C.ar  1 <1>  -0.1430 
 18 C       -7.9860    -3.6410    -0.2500 C.ar  1 <1>   0.6200 
 19 C       -7.4010    -5.7550     0.1540 C.ar  1 <1>   0.1670 
 20 C       -5.2500    -6.5650     0.7290 C.3   1 <1>  -0.0160 
 21 N       -8.3610    -4.9210    -0.1620 N.ar  1 <1>  -0.6200 
 22 C       -9.0070    -2.6660    -0.6020 C.ar  1 <1>   0.0000 
 23 C       -7.5930    -7.2380     0.3270 C.3   1 <1>  -0.0170 
 24 C       -6.2640    -7.7030     0.9520 C.3   1 <1>  -0.1600 
 25 C      -10.3320    -2.8080    -0.1810 C.ar  1 <1>  -0.1500 
 26 C       -8.7060    -1.5410    -1.3750 C.ar  1 <1>  -0.1500 
 27 C      -11.3020    -1.8780    -0.5090 C.ar  1 <1>  -0.1500 
 28 C       -9.6710    -0.6070    -1.7070 C.ar  1 <1>  -0.1500 
 29 C      -10.9730    -0.7740    -1.2730 C.ar  1 <1>  -0.1500 
 30 H       -5.4540    -1.0020    -0.0540 H     1 <1>   0.0800 
 31 H       -4.5080    -0.1900     1.1460 H     1 <1>   0.0800 
 32 H       -2.6890    -1.5120    -2.4050 H     1 <1>   0.0800 
 33 H       -4.2070    -2.2120    -1.9220 H     1 <1>   0.0800 
 34 H       -4.9980     1.9640    -0.3580 H     1 <1>   0.1500 
 35 H       -5.0810    -2.2920     2.0460 H     1 <1>   0.0800 
 36 H       -3.3740    -2.3160     1.7320 H     1 <1>   0.0800 
 37 H       -1.7670    -2.6820    -0.2180 H     1 <1>   0.0800 
 38 H       -1.9150    -3.5440    -1.7040 H     1 <1>   0.0800 
 39 H       -2.0140     3.9240     1.9730 H     1 <1>   0.1500 
 40 H       -4.6020     4.1070     1.1550 H     1 <1>   0.1500 
 41 H       -2.7970    -4.7140     0.3890 H     1 <1>   0.0800 
 42 H       -3.7570    -4.7510    -1.0620 H     1 <1>   0.0800 
 43 H       -4.6720    -6.3700     1.6150 H     1 <1>   0.0800 
 44 H       -4.5970    -6.8000    -0.0920 H     1 <1>   0.0800 
 45 H       -7.7510    -7.6900    -0.6360 H     1 <1>   0.0800 
 46 H       -8.4290    -7.4450     0.9700 H     1 <1>   0.0800 
 47 H       -6.4070    -7.8390     2.0100 H     1 <1>   0.0800 
 48 H       -5.9260    -8.6290     0.5230 H     1 <1>   0.0800 
 49 H      -10.6030    -3.6630     0.4140 H     1 <1>   0.1500 
 50 H       -7.6980    -1.3990    -1.7220 H     1 <1>   0.1500 
 51 H      -12.3140    -2.0160    -0.1690 H     1 <1>   0.1500 
 52 H       -9.4090     0.2490    -2.3040 H     1 <1>   0.1500 
 53 H      -11.7260    -0.0500    -1.5290 H     1 <1>   0.1500 
@<TRIPOS>BOND
  1   1   2  2   
  2   2   3  am  
  3   2   4  1   
  4   3   5  1   
  5   3   6  1   
  6   4   7  1   
  7   4   8  2   
  8   5   9  1   
  9   5  30  1   
 10   5  31  1   
 11   6  10  1   
 12   6  32  1   
 13   6  33  1   
 14   7  11  1   
 15   8  12  1   
 16   8  34  1   
 17   9  13  1   
 18   9  35  1   
 19   9  36  1   
 20  10  14  1   
 21  10  37  1   
 22  10  38  1   
 23  11  12  2   
 24  11  39  1   
 25  12  40  1   
 26  13  14  1   
 27  13  15  1   
 28  14  41  1   
 29  14  42  1   
 30  15  16  ar  
 31  15  17  ar  
 32  16  18  ar  
 33  17  19  ar  
 34  17  20  1   
 35  18  21  ar  
 36  18  22  1   
 37  19  21  ar  
 38  19  23  1   
 39  20  24  1   
 40  20  43  1   
 41  20  44  1   
 42  22  25  ar  
 43  22  26  ar  
 44  23  24  1   
 45  23  45  1   
 46  23  46  1   
 47  24  47  1   
 48  24  48  1   
 49  25  27  ar  
 50  25  49  1   
 51  26  28  ar  
 52  26  50  1   
 53  27  29  ar  
 54  27  51  1   
 55  28  29  ar  
 56  28  52  1   
 57  29  53  1   
@<TRIPOS>SUBSTRUCTURE
  1 ****  16 GROUP 4 **** **** 0

# MOE 2024.06 (io_trps.svl 2023.06)
