@<TRIPOS>MOLECULE
NONAME
52 54 1 0 0 
SMALL
USER_CHARGES


@<TRIPOS>ATOM
  1 O       -0.3520     0.9770     1.5350 O.2   1 <1>  -0.5700 
  2 C       -0.2400     2.1160     1.1620 C.2   1 <1>   0.5690 
  3 N       -1.3100     2.9410     1.1410 N.am  1 <1>  -0.7300 
  4 C        1.1150     2.6360     0.6730 C.3   1 <1>   0.1810 
  5 C       -1.2350     4.3700     0.7480 C.3   1 <1>   0.3640 
  6 O        1.1960     4.0450     0.6560 O.3   1 <1>  -0.5600 
  7 C       -2.4230     4.6960    -0.1490 C.ar  1 <1>  -0.1440 
  8 C        0.1010     4.7000     0.0310 C.3   1 <1>   0.2610 
  9 C       -2.8090     3.8420    -1.1750 C.ar  1 <1>   0.1600 
 10 C       -3.1340     5.8670     0.0340 C.ar  1 <1>  -0.1500 
 11 C        0.3390     6.2190    -0.0500 C.2   1 <1>   0.5690 
 12 N       -3.8120     4.0600    -2.0100 N.ar  1 <1>  -0.6200 
 13 C       -4.1850     6.1070    -0.8240 C.ar  1 <1>  -0.1500 
 14 O       -0.2160     6.9360     0.7550 O.2   1 <1>  -0.5700 
 15 N        1.1460     6.7530    -1.0320 N.am  1 <1>  -0.6600 
 16 C       -4.4770     5.1860    -1.8140 C.ar  1 <1>   0.1600 
 17 C        1.2750     8.2270    -1.1910 C.3   1 <1>   0.1400 
 18 C        1.9760     5.9430    -1.9690 C.3   1 <1>   0.0600 
 19 C        2.4620     8.7380    -0.3710 C.3   1 <1>  -0.1600 
 20 C        2.6190    10.2590    -0.5140 C.3   1 <1>  -0.1600 
 21 C        3.7650    10.8110     0.3480 C.3   1 <1>  -0.0800 
 22 C        3.8950    12.3280     0.2480 C.3   1 <1>  -0.1600 
 23 C        5.1520    10.3100    -0.0550 C.3   1 <1>  -0.1600 
 24 C        5.3140    12.6310     0.7280 C.3   1 <1>  -0.1600 
 25 C        6.1320    11.3590     0.4770 C.3   1 <1>  -0.1600 
 26 H       -2.2000     2.5980     1.5090 H     1 <1>   0.3700 
 27 H        1.3000     2.2720    -0.3210 H     1 <1>   0.0800 
 28 H        1.8890     2.2730     1.3250 H     1 <1>   0.0800 
 29 H       -1.3020     4.9560     1.6490 H     1 <1>   0.0800 
 30 H        0.0400     4.3270    -0.9750 H     1 <1>   0.0800 
 31 H       -2.2640     2.9240    -1.3230 H     1 <1>   0.1500 
 32 H       -2.8790     6.5720     0.8080 H     1 <1>   0.1500 
 33 H       -4.7730     7.0020    -0.7290 H     1 <1>   0.1500 
 34 H       -5.3000     5.3850    -2.4790 H     1 <1>   0.1500 
 35 H        1.4080     8.4680    -2.2320 H     1 <1>   0.0800 
 36 H        0.3720     8.7080    -0.8540 H     1 <1>   0.0800 
 37 H        2.8810     6.4710    -2.2130 H     1 <1>   0.0800 
 38 H        1.4250     5.7600    -2.8750 H     1 <1>   0.0800 
 39 H        2.2520     5.0050    -1.5210 H     1 <1>   0.0800 
 40 H        2.2990     8.4940     0.6640 H     1 <1>   0.0800 
 41 H        3.3610     8.2490    -0.7010 H     1 <1>   0.0800 
 42 H        1.7030    10.7350    -0.2100 H     1 <1>   0.0800 
 43 H        2.7930    10.5080    -1.5470 H     1 <1>   0.0800 
 44 H        3.5940    10.5540     1.3810 H     1 <1>   0.0800 
 45 H        3.7970    12.6350    -0.7790 H     1 <1>   0.0800 
 46 H        3.1530    12.8350     0.8400 H     1 <1>   0.0800 
 47 H        5.3590     9.3340     0.3480 H     1 <1>   0.0800 
 48 H        5.2270    10.2720    -1.1280 H     1 <1>   0.0800 
 49 H        5.7270    13.4780     0.2070 H     1 <1>   0.0800 
 50 H        5.3000    12.8440     1.7830 H     1 <1>   0.0800 
 51 H        6.5670    11.0210     1.4020 H     1 <1>   0.0800 
 52 H        6.9200    11.5360    -0.2340 H     1 <1>   0.0800 
@<TRIPOS>BOND
  1   1   2  2   
  2   2   3  am  
  3   2   4  1   
  4   3   5  1   
  5   3  26  1   
  6   4   6  1   
  7   4  27  1   
  8   4  28  1   
  9   5   7  1   
 10   5   8  1   
 11   5  29  1   
 12   6   8  1   
 13   7   9  ar  
 14   7  10  ar  
 15   8  11  1   
 16   8  30  1   
 17   9  12  ar  
 18   9  31  1   
 19  10  13  ar  
 20  10  32  1   
 21  11  14  2   
 22  11  15  am  
 23  12  16  ar  
 24  13  16  ar  
 25  13  33  1   
 26  15  17  1   
 27  15  18  1   
 28  16  34  1   
 29  17  19  1   
 30  17  35  1   
 31  17  36  1   
 32  18  37  1   
 33  18  38  1   
 34  18  39  1   
 35  19  20  1   
 36  19  40  1   
 37  19  41  1   
 38  20  21  1   
 39  20  42  1   
 40  20  43  1   
 41  21  22  1   
 42  21  23  1   
 43  21  44  1   
 44  22  24  1   
 45  22  45  1   
 46  22  46  1   
 47  23  25  1   
 48  23  47  1   
 49  23  48  1   
 50  24  25  1   
 51  24  49  1   
 52  24  50  1   
 53  25  51  1   
 54  25  52  1   
@<TRIPOS>SUBSTRUCTURE
  1 ****  11 GROUP 4 **** **** 0

# MOE 2024.06 (io_trps.svl 2023.06)
