@<TRIPOS>MOLECULE
NONAME
48 50 1 0 0 
SMALL
USER_CHARGES


@<TRIPOS>ATOM
  1 S       -1.4940    -1.3760     1.5930 S.3   1 <1>  -0.0800 
  2 C       -0.9480    -1.8750    -0.0030 C.2   1 <1>  -0.1400 
  3 C       -1.6920     0.2810     1.0560 C.2   1 <1>  -0.1100 
  4 C       -0.9260    -0.8230    -0.8440 C.2   1 <1>  -0.1500 
  5 C       -0.5860    -3.3330    -0.1830 C.3   1 <1>   0.5230 
  6 C       -1.3550     0.4020    -0.2410 C.2   1 <1>  -0.1500 
  7 N       -1.7810    -4.0760    -0.7070 N.4   1 <1>  -0.9590 
  8 C       -2.9380    -3.9820     0.2670 C.3   1 <1>   0.3430 
  9 C       -1.3730    -5.4470    -1.1300 C.3   1 <1>   0.3430 
 10 C       -4.2210    -4.7940    -0.0730 C.3   1 <1>   0.3430 
 11 C       -2.4310    -6.0540    -2.0510 C.3   1 <1>  -0.1600 
 12 N       -4.0250    -6.2900    -0.0730 N.4   1 <1>  -0.9590 
 13 C       -3.5210    -6.8770    -1.3570 C.3   1 <1>   0.3430 
 14 C       -5.2970    -6.9830     0.3120 C.3   1 <1>   0.4860 
 15 C       -4.9650    -8.4250     0.6380 C.ar  1 <1>  -0.1430 
 16 C       -5.3020    -9.4390    -0.2490 C.ar  1 <1>  -0.1500 
 17 C       -4.3190    -8.7460     1.8260 C.ar  1 <1>  -0.1500 
 18 C       -4.9820   -10.7550     0.0460 C.ar  1 <1>   0.0830 
 19 C       -3.9910   -10.0610     2.1110 C.ar  1 <1>  -0.1500 
 20 O       -5.3070   -11.7300    -0.8270 O.3   1 <1>  -0.3620 
 21 C       -4.3150   -11.0660     1.2190 C.ar  1 <1>  -0.1500 
 22 C       -6.5310   -12.4120    -0.6200 C.3   1 <1>   1.3000 
 23 F       -6.7270   -13.2980    -1.5840 F     1 <1>  -0.3400 
 24 F       -6.5370   -13.0590     0.5390 F     1 <1>  -0.3400 
 25 F       -7.5540   -11.5640    -0.6320 F     1 <1>  -0.3400 
 26 H       -2.0410     1.0030     1.7750 H     1 <1>   0.1500 
 27 H       -0.6200    -0.8280    -1.8780 H     1 <1>   0.1500 
 28 H       -0.2530    -3.7460     0.7560 H     1 <1>   0.0800 
 29 H        0.2260    -3.4000    -0.8900 H     1 <1>   0.0800 
 30 H       -1.3840     1.3200    -0.8060 H     1 <1>   0.1500 
 31 H       -2.0380    -3.5450    -1.5530 H     1 <1>   0.4500 
 32 H       -3.2310    -2.9460     0.3440 H     1 <1>   0.0800 
 33 H       -2.6020    -4.2790     1.2470 H     1 <1>   0.0800 
 34 H       -1.1980    -6.0810    -0.2740 H     1 <1>   0.0800 
 35 H       -0.4480    -5.3800    -1.6840 H     1 <1>   0.0800 
 36 H       -4.6130    -4.4710    -1.0240 H     1 <1>   0.0800 
 37 H       -4.9580    -4.5420     0.6730 H     1 <1>   0.0800 
 38 H       -1.9270    -6.7290    -2.7210 H     1 <1>   0.0800 
 39 H       -2.8750    -5.2980    -2.6740 H     1 <1>   0.0800 
 40 H       -3.3720    -6.5660     0.6740 H     1 <1>   0.4500 
 41 H       -3.1350    -7.8660    -1.1550 H     1 <1>   0.0800 
 42 H       -4.3420    -6.9980    -2.0470 H     1 <1>   0.0800 
 43 H       -6.0150    -6.9380    -0.4920 H     1 <1>   0.0800 
 44 H       -5.7320    -6.5200     1.1840 H     1 <1>   0.0800 
 45 H       -5.8180    -9.2320    -1.1710 H     1 <1>   0.1500 
 46 H       -4.0670    -7.9900     2.5510 H     1 <1>   0.1500 
 47 H       -3.4880   -10.3090     3.0320 H     1 <1>   0.1500 
 48 H       -4.0560   -12.0880     1.4380 H     1 <1>   0.1500 
@<TRIPOS>BOND
  1   1   2  1   
  2   1   3  1   
  3   2   4  2   
  4   2   5  1   
  5   3   6  2   
  6   3  26  1   
  7   4   6  1   
  8   4  27  1   
  9   5   7  1   
 10   5  28  1   
 11   5  29  1   
 12   6  30  1   
 13   7   8  1   
 14   7   9  1   
 15   7  31  1   
 16   8  10  1   
 17   8  32  1   
 18   8  33  1   
 19   9  11  1   
 20   9  34  1   
 21   9  35  1   
 22  10  12  1   
 23  10  36  1   
 24  10  37  1   
 25  11  13  1   
 26  11  38  1   
 27  11  39  1   
 28  12  13  1   
 29  12  14  1   
 30  12  40  1   
 31  13  41  1   
 32  13  42  1   
 33  14  15  1   
 34  14  43  1   
 35  14  44  1   
 36  15  16  ar  
 37  15  17  ar  
 38  16  18  ar  
 39  16  45  1   
 40  17  19  ar  
 41  17  46  1   
 42  18  20  1   
 43  18  21  ar  
 44  19  21  ar  
 45  19  47  1   
 46  20  22  1   
 47  21  48  1   
 48  22  23  1   
 49  22  24  1   
 50  22  25  1   
@<TRIPOS>SUBSTRUCTURE
  1 ****  12 GROUP 4 **** **** 0

# MOE 2024.06 (io_trps.svl 2023.06)
