@<TRIPOS>MOLECULE
NONAME
55 59 1 0 0 
SMALL
USER_CHARGES


@<TRIPOS>ATOM
  1 N        0.6850    -0.0370     1.3840 N.ar  1 <1>  -0.6200 
  2 C       -0.6260    -0.0630     1.5890 C.ar  1 <1>   0.7200 
  3 C        1.0200    -0.1130     0.1200 C.ar  1 <1>   0.1660 
  4 N       -1.5990    -0.1640     0.6960 N.ar  1 <1>  -0.6200 
  5 N       -1.0170     0.0080     2.8610 N.pl3 1 <1>  -0.9000 
  6 C        0.1160    -0.2090    -0.8950 C.ar  1 <1>  -0.1430 
  7 C        2.4400    -0.0810    -0.3920 C.3   1 <1>   0.1430 
  8 C       -1.2160    -0.2360    -0.5590 C.ar  1 <1>   0.1600 
  9 C        0.7940    -0.2610    -2.2410 C.3   1 <1>  -0.0170 
 10 C        3.1830     1.0690     0.3120 C.3   1 <1>   0.3430 
 11 C        3.1440    -1.4240    -0.1060 C.3   1 <1>  -0.1600 
 12 C        2.2400     0.1610    -1.9130 C.3   1 <1>  -0.1600 
 13 N        4.6400     1.1080    -0.0450 N.4   1 <1>  -0.9590 
 14 C        4.6530    -1.3540    -0.3990 C.3   1 <1>  -0.1600 
 15 C        5.3310    -0.1770     0.3070 C.3   1 <1>   0.3430 
 16 C        5.3080     2.2910     0.5690 C.3   1 <1>   0.4860 
 17 C        6.6540     2.4600    -0.1020 C.ar  1 <1>  -0.1430 
 18 C        7.7450     1.7740     0.4010 C.ar  1 <1>  -0.1500 
 19 C        6.8080     3.2450    -1.2350 C.ar  1 <1>  -0.1500 
 20 C        8.9610     1.7890    -0.2570 C.ar  1 <1>  -0.1430 
 21 C        8.0370     3.3070    -1.8700 C.ar  1 <1>  -0.1500 
 22 C        9.1080     2.5710    -1.3910 C.ar  1 <1>  -0.1500 
 23 C       10.0860     0.9020     0.2650 C.3   1 <1>   0.2390 
 24 N        9.7550    -0.5330     0.0530 N.pl3 1 <1>   0.3140 
 25 N        8.6990    -1.1530     0.6400 N.2   1 <1>  -0.7070 
 26 C       10.4550    -1.3980    -0.7090 C.2   1 <1>  -0.3020 
 27 C        8.7750    -2.3870     0.2410 C.2   1 <1>   0.1390 
 28 C        9.8510    -2.6000    -0.6100 C.2   1 <1>  -0.1500 
 29 H       -1.9870    -0.2550     3.0220 H     1 <1>   0.4000 
 30 H       -0.3470    -0.3040     3.5570 H     1 <1>   0.4000 
 31 H       -1.9740    -0.3150    -1.3210 H     1 <1>   0.1500 
 32 H        0.3320     0.4070    -2.9480 H     1 <1>   0.0800 
 33 H        0.7650    -1.2690    -2.6200 H     1 <1>   0.0800 
 34 H        3.0780     0.9330     1.3770 H     1 <1>   0.0800 
 35 H        2.7080     2.0000     0.0520 H     1 <1>   0.0800 
 36 H        2.6900    -2.2110    -0.6840 H     1 <1>   0.0800 
 37 H        3.0060    -1.6740     0.9330 H     1 <1>   0.0800 
 38 H        2.9450    -0.3750    -2.5240 H     1 <1>   0.0800 
 39 H        2.3330     1.2110    -2.1290 H     1 <1>   0.0800 
 40 H        4.7400     1.2220    -1.0610 H     1 <1>   0.4500 
 41 H        4.8320    -1.2790    -1.4570 H     1 <1>   0.0800 
 42 H        5.1200    -2.2650    -0.0670 H     1 <1>   0.0800 
 43 H        5.2970    -0.3310     1.3740 H     1 <1>   0.0800 
 44 H        6.3660    -0.1460     0.0060 H     1 <1>   0.0800 
 45 H        5.4350     2.1440     1.6290 H     1 <1>   0.0800 
 46 H        4.7180     3.1790     0.4110 H     1 <1>   0.0800 
 47 H        7.6490     1.1850     1.2980 H     1 <1>   0.1500 
 48 H        5.9850     3.8100    -1.6380 H     1 <1>   0.1500 
 49 H        8.1610     3.9200    -2.7470 H     1 <1>   0.1500 
 50 H       10.0500     2.6090    -1.9130 H     1 <1>   0.1500 
 51 H       10.2240     1.0640     1.3180 H     1 <1>   0.0800 
 52 H       11.0070     1.1250    -0.2400 H     1 <1>   0.0800 
 53 H       11.3300    -1.1210    -1.2690 H     1 <1>   0.1500 
 54 H        8.0830    -3.1570     0.5400 H     1 <1>   0.1500 
 55 H       10.1220    -3.5340    -1.0720 H     1 <1>   0.1500 
@<TRIPOS>BOND
  1   1   2  ar  
  2   1   3  ar  
  3   2   4  ar  
  4   2   5  1   
  5   3   6  ar  
  6   3   7  1   
  7   4   8  ar  
  8   5  29  1   
  9   5  30  1   
 10   6   8  ar  
 11   6   9  1   
 12   7  10  1   
 13   7  11  1   
 14   7  12  1   
 15   8  31  1   
 16   9  12  1   
 17   9  32  1   
 18   9  33  1   
 19  10  13  1   
 20  10  34  1   
 21  10  35  1   
 22  11  14  1   
 23  11  36  1   
 24  11  37  1   
 25  12  38  1   
 26  12  39  1   
 27  13  15  1   
 28  13  16  1   
 29  13  40  1   
 30  14  15  1   
 31  14  41  1   
 32  14  42  1   
 33  15  43  1   
 34  15  44  1   
 35  16  17  1   
 36  16  45  1   
 37  16  46  1   
 38  17  18  ar  
 39  17  19  ar  
 40  18  20  ar  
 41  18  47  1   
 42  19  21  ar  
 43  19  48  1   
 44  20  22  ar  
 45  20  23  1   
 46  21  22  ar  
 47  21  49  1   
 48  22  50  1   
 49  23  24  1   
 50  23  51  1   
 51  23  52  1   
 52  24  25  1   
 53  24  26  1   
 54  25  27  2   
 55  26  28  2   
 56  26  53  1   
 57  27  28  1   
 58  27  54  1   
 59  28  55  1   
@<TRIPOS>SUBSTRUCTURE
  1 ****  13 GROUP 4 **** **** 0

# MOE 2024.06 (io_trps.svl 2023.06)
