@<TRIPOS>MOLECULE
NONAME
60 64 1 0 0 
SMALL
USER_CHARGES


@<TRIPOS>ATOM
  1 O       -3.2960     4.6550    -1.6400 O.2   1 <1>  -0.5700 
  2 C       -2.8630     4.0030    -0.7080 C.2   1 <1>   0.5440 
  3 N       -3.6600     3.0240    -0.1430 N.am  1 <1>  -0.6600 
  4 C       -1.5390     4.2980    -0.2070 C.ar  1 <1>   0.0860 
  5 C       -4.9180     2.6090    -0.8310 C.3   1 <1>   0.2200 
  6 C       -3.3500     2.4370     1.1980 C.3   1 <1>   0.0600 
  7 C       -0.4900     3.3460    -0.2190 C.ar  1 <1>   0.0000 
  8 C       -1.2470     5.5300     0.3150 C.ar  1 <1>  -0.1500 
  9 C       -6.1560     3.2590    -0.2200 C.3   1 <1>  -0.1600 
 10 C       -5.2120     1.1090    -0.7930 C.3   1 <1>  -0.1600 
 11 C        0.7430     3.7140     0.3630 C.ar  1 <1>   0.3100 
 12 C       -0.6030     2.0570    -0.7870 C.ar  1 <1>  -0.1500 
 13 C        0.0130     5.8050     0.8480 C.ar  1 <1>   0.2780 
 14 C       -7.3170     2.3790    -0.6990 C.3   1 <1>  -0.0800 
 15 C       -6.7170     1.0210    -1.0820 C.3   1 <1>  -0.0800 
 16 N        0.9740     4.9360     0.8950 N.ar  1 <1>  -0.6200 
 17 C        1.7860     2.7740     0.3880 C.ar  1 <1>  -0.1500 
 18 C        0.4350     1.1650    -0.7520 C.ar  1 <1>  -0.1500 
 19 C        0.2790     7.1870     1.4220 C.3   1 <1>  -0.0680 
 20 C       -8.3940     2.0780     0.3520 C.3   1 <1>  -0.1600 
 21 C       -7.4880    -0.0250    -0.2630 C.3   1 <1>  -0.1600 
 22 C        1.6440     1.5250    -0.1530 C.ar  1 <1>  -0.1500 
 23 C       -0.0890     8.4320     0.6680 C.3   1 <1>  -0.2000 
 24 C        1.3490     8.0520     0.8250 C.3   1 <1>  -0.2000 
 25 C       -8.8290     0.6340     0.0790 C.3   1 <1>   0.4230 
 26 N       -9.7620     0.5720    -1.0940 N.4   1 <1>  -0.9590 
 27 C      -11.0290     1.3400    -0.8690 C.3   1 <1>   0.2630 
 28 C      -10.1200    -0.8330    -1.4740 C.3   1 <1>   0.2630 
 29 H       -4.8720     2.8980    -1.8690 H     1 <1>   0.0800 
 30 H       -4.2500     2.3170     1.7740 H     1 <1>   0.0800 
 31 H       -2.6860     3.0770     1.7530 H     1 <1>   0.0800 
 32 H       -2.8810     1.4770     1.0750 H     1 <1>   0.0800 
 33 H       -1.9960     6.3000     0.3230 H     1 <1>   0.1500 
 34 H       -6.0820     3.2510     0.8520 H     1 <1>   0.0800 
 35 H       -6.2580     4.2740    -0.5610 H     1 <1>   0.0800 
 36 H       -4.6340     0.5840    -1.5330 H     1 <1>   0.0800 
 37 H       -4.9990     0.7040     0.1780 H     1 <1>   0.0800 
 38 H       -1.5260     1.7710    -1.2610 H     1 <1>   0.1500 
 39 H       -7.7630     2.8230    -1.5750 H     1 <1>   0.0800 
 40 H       -6.8680     0.8590    -2.1370 H     1 <1>   0.0800 
 41 H        2.7100     3.0740     0.8480 H     1 <1>   0.1500 
 42 H        0.3360     0.1840    -1.1850 H     1 <1>   0.1500 
 43 H        0.1910     7.2000     2.4940 H     1 <1>   0.1000 
 44 H       -9.1860     2.8020     0.3490 H     1 <1>   0.0800 
 45 H       -7.9510     2.0960     1.3330 H     1 <1>   0.0800 
 46 H       -6.9760    -0.2020     0.6670 H     1 <1>   0.0800 
 47 H       -7.5610    -0.9690    -0.7690 H     1 <1>   0.0800 
 48 H        2.4530     0.8150    -0.1270 H     1 <1>   0.1500 
 49 H       -0.5270     8.3490    -0.3120 H     1 <1>   0.1000 
 50 H       -0.4650     9.2770     1.2180 H     1 <1>   0.1000 
 51 H        1.9750     8.6210     1.4900 H     1 <1>   0.1000 
 52 H        1.8890     7.6720    -0.0250 H     1 <1>   0.1000 
 53 H       -9.2830     0.1850     0.9480 H     1 <1>   0.0800 
 54 H       -9.2550     1.0040    -1.8800 H     1 <1>   0.4500 
 55 H      -11.5370     0.9770     0.0090 H     1 <1>   0.0800 
 56 H      -11.6860     1.2310    -1.7170 H     1 <1>   0.0800 
 57 H      -10.8220     2.3900    -0.7410 H     1 <1>   0.0800 
 58 H      -10.5700    -1.3440    -0.6390 H     1 <1>   0.0800 
 59 H       -9.2460    -1.3800    -1.7850 H     1 <1>   0.0800 
 60 H      -10.8200    -0.8300    -2.2940 H     1 <1>   0.0800 
@<TRIPOS>BOND
  1   1   2  2   
  2   2   3  am  
  3   2   4  1   
  4   3   5  1   
  5   3   6  1   
  6   4   7  ar  
  7   4   8  ar  
  8   5   9  1   
  9   5  10  1   
 10   5  29  1   
 11   6  30  1   
 12   6  31  1   
 13   6  32  1   
 14   7  11  ar  
 15   7  12  ar  
 16   8  13  ar  
 17   8  33  1   
 18   9  14  1   
 19   9  34  1   
 20   9  35  1   
 21  10  15  1   
 22  10  36  1   
 23  10  37  1   
 24  11  16  ar  
 25  11  17  ar  
 26  12  18  ar  
 27  12  38  1   
 28  13  16  ar  
 29  13  19  1   
 30  14  15  1   
 31  14  20  1   
 32  14  39  1   
 33  15  21  1   
 34  15  40  1   
 35  17  22  ar  
 36  17  41  1   
 37  18  22  ar  
 38  18  42  1   
 39  19  23  1   
 40  19  24  1   
 41  19  43  1   
 42  20  25  1   
 43  20  44  1   
 44  20  45  1   
 45  21  25  1   
 46  21  46  1   
 47  21  47  1   
 48  22  48  1   
 49  23  24  1   
 50  23  49  1   
 51  23  50  1   
 52  24  51  1   
 53  24  52  1   
 54  25  26  1   
 55  25  53  1   
 56  26  27  1   
 57  26  28  1   
 58  26  54  1   
 59  27  55  1   
 60  27  56  1   
 61  27  57  1   
 62  28  58  1   
 63  28  59  1   
 64  28  60  1   
@<TRIPOS>SUBSTRUCTURE
  1 ****   3 GROUP 4 **** **** 0

# MOE 2024.06 (io_trps.svl 2023.06)
