@<TRIPOS>MOLECULE
NONAME
41 42 1 0 0 
SMALL
USER_CHARGES


@<TRIPOS>ATOM
  1 O       -0.4520    -0.5700    -0.5000 O.3   1 <1>  -0.5600 
  2 C        0.7890    -1.0570    -0.9400 C.3   1 <1>   0.1200 
  3 C       -0.7840    -0.9470     0.8090 C.3   1 <1>   0.1200 
  4 C        0.8630    -2.5980    -0.8240 C.3   1 <1>   0.3430 
  5 C       -0.8540    -2.4860     0.9430 C.3   1 <1>   0.3430 
  6 N       -0.4340    -3.1700    -0.3300 N.4   1 <1>  -0.9590 
  7 C       -0.3930    -4.6630    -0.2450 C.3   1 <1>   0.3430 
  8 C       -1.7840    -5.2830    -0.0390 C.3   1 <1>   0.1100 
  9 N       -1.6800    -6.7420    -0.1340 N.3   1 <1>  -0.8100 
 10 C       -2.9720    -7.3890    -0.5180 C.3   1 <1>   0.2910 
 11 C       -1.0740    -7.3730     1.0520 C.3   1 <1>   0.1100 
 12 C       -2.8450    -8.8610    -0.9170 C.2   1 <1>   0.3350 
 13 C        0.1670    -8.1380     0.6080 C.3   1 <1>  -0.2400 
 14 N       -2.5950    -9.2760    -2.0960 N.2   1 <1>  -0.4100 
 15 N       -3.0090    -9.8430    -0.0360 N.2   1 <1>  -0.5650 
 16 O       -2.5690   -10.5730    -2.0480 O.3   1 <1>  -0.0190 
 17 C       -2.8230   -10.8470    -0.7930 C.2   1 <1>   0.2980 
 18 C       -2.8740   -12.2940    -0.3610 C.3   1 <1>  -0.0600 
 19 H        1.5680    -0.5920    -0.3600 H     1 <1>   0.0800 
 20 H        0.9110    -0.7560    -1.9660 H     1 <1>   0.0800 
 21 H       -1.7380    -0.5080     1.0460 H     1 <1>   0.0800 
 22 H       -0.0500    -0.5370     1.4830 H     1 <1>   0.0800 
 23 H        1.6610    -2.8600    -0.1480 H     1 <1>   0.0800 
 24 H        1.1070    -3.0110    -1.7890 H     1 <1>   0.0800 
 25 H       -1.8630    -2.7670     1.1960 H     1 <1>   0.0800 
 26 H       -0.2180    -2.7950     1.7560 H     1 <1>   0.0800 
 27 H       -1.1280    -2.8840    -1.0380 H     1 <1>   0.4500 
 28 H        0.2530    -4.9680     0.5610 H     1 <1>   0.0800 
 29 H        0.0070    -5.0610    -1.1640 H     1 <1>   0.0800 
 30 H       -2.4320    -4.9260    -0.8210 H     1 <1>   0.0800 
 31 H       -2.2000    -5.0090     0.9160 H     1 <1>   0.0800 
 32 H       -3.3860    -6.8710    -1.3640 H     1 <1>   0.0800 
 33 H       -3.6750    -7.3110     0.2930 H     1 <1>   0.0800 
 34 H       -1.7650    -8.0510     1.5270 H     1 <1>   0.0800 
 35 H       -0.7920    -6.6350     1.7850 H     1 <1>   0.0800 
 36 H       -0.1020    -8.9030    -0.0990 H     1 <1>   0.0800 
 37 H        0.6240    -8.6120     1.4570 H     1 <1>   0.0800 
 38 H        0.8830    -7.4770     0.1560 H     1 <1>   0.0800 
 39 H       -3.0920   -12.3560     0.6900 H     1 <1>   0.0800 
 40 H       -1.9270   -12.7620    -0.5510 H     1 <1>   0.0800 
 41 H       -3.6410   -12.8090    -0.9090 H     1 <1>   0.0800 
@<TRIPOS>BOND
  1   1   2  1   
  2   1   3  1   
  3   2   4  1   
  4   2  19  1   
  5   2  20  1   
  6   3   5  1   
  7   3  21  1   
  8   3  22  1   
  9   4   6  1   
 10   4  23  1   
 11   4  24  1   
 12   5   6  1   
 13   5  25  1   
 14   5  26  1   
 15   6   7  1   
 16   6  27  1   
 17   7   8  1   
 18   7  28  1   
 19   7  29  1   
 20   8   9  1   
 21   8  30  1   
 22   8  31  1   
 23   9  10  1   
 24   9  11  1   
 25  10  12  1   
 26  10  32  1   
 27  10  33  1   
 28  11  13  1   
 29  11  34  1   
 30  11  35  1   
 31  12  14  2   
 32  12  15  1   
 33  13  36  1   
 34  13  37  1   
 35  13  38  1   
 36  14  16  1   
 37  15  17  2   
 38  16  17  1   
 39  17  18  1   
 40  18  39  1   
 41  18  40  1   
 42  18  41  1   
@<TRIPOS>SUBSTRUCTURE
  1 ****   9 GROUP 4 **** **** 0

# MOE 2024.06 (io_trps.svl 2023.06)
