@<TRIPOS>MOLECULE
NONAME
53 56 1 0 0 
SMALL
USER_CHARGES


@<TRIPOS>ATOM
  1 O       -0.0210     0.8050     0.1060 O.2   1 <1>  -0.5700 
  2 C        0.0090     1.9950     0.2860 C.2   1 <1>   0.5690 
  3 N       -1.0860     2.6490     0.7320 N.am  1 <1>  -0.7300 
  4 C        1.2820     2.7890    -0.0260 C.3   1 <1>   0.1810 
  5 C       -1.1260     4.1120     0.9790 C.3   1 <1>   0.3640 
  6 O        1.2900     4.0750     0.5560 O.3   1 <1>  -0.5600 
  7 C       -2.4180     4.6720     0.3910 C.ar  1 <1>  -0.1440 
  8 C        0.1050     4.8290     0.3620 C.3   1 <1>   0.2610 
  9 C       -3.1410     5.6250     1.0960 C.ar  1 <1>   0.1600 
 10 C       -2.8930     4.2660    -0.8440 C.ar  1 <1>  -0.1500 
 11 C        0.2670     6.2590     0.9120 C.2   1 <1>   0.5690 
 12 N       -4.2660     6.1860     0.6800 N.ar  1 <1>  -0.6200 
 13 C       -4.0640     4.8410    -1.2900 C.ar  1 <1>  -0.1500 
 14 O       -0.2690     6.5130     1.9700 O.2   1 <1>  -0.5700 
 15 N        0.9620     7.2320     0.2240 N.am  1 <1>  -0.6600 
 16 C       -4.7010     5.7810    -0.5010 C.ar  1 <1>   0.1600 
 17 C        0.8340     8.6580     0.6680 C.3   1 <1>   0.2200 
 18 C        1.7940     6.9440    -0.9890 C.3   1 <1>   0.2840 
 19 C       -0.3140     9.3630    -0.0510 C.3   1 <1>  -0.1600 
 20 C        2.0400     9.5710     0.4480 C.3   1 <1>  -0.1600 
 21 C        3.2890     6.9060    -0.6800 C.ar  1 <1>  -0.1430 
 22 C        0.0490    10.8550    -0.0730 C.3   1 <1>  -0.1600 
 23 C        1.4440    10.9720     0.5510 C.3   1 <1>  -0.1600 
 24 C        3.7780     6.3290     0.4850 C.ar  1 <1>  -0.1500 
 25 C        4.1870     7.4550    -1.5840 C.ar  1 <1>  -0.1500 
 26 C        5.1370     6.3060     0.7420 C.ar  1 <1>  -0.1500 
 27 C        5.5470     7.4350    -1.3280 C.ar  1 <1>  -0.1500 
 28 C        6.0240     6.8600    -0.1640 C.ar  1 <1>  -0.1500 
 29 H       -1.9240     2.1100     0.9580 H     1 <1>   0.3700 
 30 H        1.3840     2.8980    -1.0900 H     1 <1>   0.0800 
 31 H        2.1350     2.2550     0.3500 H     1 <1>   0.0800 
 32 H       -1.1250     4.2590     2.0460 H     1 <1>   0.0800 
 33 H       -0.0640     4.8980    -0.6960 H     1 <1>   0.0800 
 34 H       -2.7760     5.9530     2.0560 H     1 <1>   0.1500 
 35 H       -2.3810     3.5310    -1.4420 H     1 <1>   0.1500 
 36 H       -4.4840     4.5630    -2.2400 H     1 <1>   0.1500 
 37 H       -5.6160     6.2230    -0.8570 H     1 <1>   0.1500 
 38 H        0.6230     8.6850     1.7250 H     1 <1>   0.0800 
 39 H        1.5280     6.0030    -1.4280 H     1 <1>   0.0800 
 40 H        1.5960     7.6990    -1.7300 H     1 <1>   0.0800 
 41 H       -0.4040     9.0030    -1.0610 H     1 <1>   0.0800 
 42 H       -1.2400     9.1940     0.4710 H     1 <1>   0.0800 
 43 H        2.8070     9.4030     1.1830 H     1 <1>   0.0800 
 44 H        2.4480     9.4650    -0.5380 H     1 <1>   0.0800 
 45 H        0.0690    11.2080    -1.0900 H     1 <1>   0.0800 
 46 H       -0.6650    11.4380     0.4820 H     1 <1>   0.0800 
 47 H        1.3490    11.2420     1.5890 H     1 <1>   0.0800 
 48 H        2.0510    11.7070     0.0510 H     1 <1>   0.0800 
 49 H        3.1020     5.8950     1.2010 H     1 <1>   0.1500 
 50 H        3.8340     7.9060    -2.4950 H     1 <1>   0.1500 
 51 H        5.5030     5.8580     1.6490 H     1 <1>   0.1500 
 52 H        6.2360     7.8660    -2.0340 H     1 <1>   0.1500 
 53 H        7.0810     6.8450     0.0370 H     1 <1>   0.1500 
@<TRIPOS>BOND
  1   1   2  2   
  2   2   3  am  
  3   2   4  1   
  4   3   5  1   
  5   3  29  1   
  6   4   6  1   
  7   4  30  1   
  8   4  31  1   
  9   5   7  1   
 10   5   8  1   
 11   5  32  1   
 12   6   8  1   
 13   7   9  ar  
 14   7  10  ar  
 15   8  11  1   
 16   8  33  1   
 17   9  12  ar  
 18   9  34  1   
 19  10  13  ar  
 20  10  35  1   
 21  11  14  2   
 22  11  15  am  
 23  12  16  ar  
 24  13  16  ar  
 25  13  36  1   
 26  15  17  1   
 27  15  18  1   
 28  16  37  1   
 29  17  19  1   
 30  17  20  1   
 31  17  38  1   
 32  18  21  1   
 33  18  39  1   
 34  18  40  1   
 35  19  22  1   
 36  19  41  1   
 37  19  42  1   
 38  20  23  1   
 39  20  43  1   
 40  20  44  1   
 41  21  24  ar  
 42  21  25  ar  
 43  22  23  1   
 44  22  45  1   
 45  22  46  1   
 46  23  47  1   
 47  23  48  1   
 48  24  26  ar  
 49  24  49  1   
 50  25  27  ar  
 51  25  50  1   
 52  26  28  ar  
 53  26  51  1   
 54  27  28  ar  
 55  27  52  1   
 56  28  53  1   
@<TRIPOS>SUBSTRUCTURE
  1 ****  11 GROUP 4 **** **** 0

# MOE 2024.06 (io_trps.svl 2023.06)
