@<TRIPOS>MOLECULE
NONAME
49 51 1 0 0 
SMALL
USER_CHARGES


@<TRIPOS>ATOM
  1 O        1.8430    -0.8710    -2.4920 O.2   1 <1>  -0.5700 
  2 C        2.3450    -1.1530    -1.4210 C.2   1 <1>   0.5440 
  3 N        3.0730    -0.1800    -0.7600 N.am  1 <1>  -0.6600 
  4 C        2.1360    -2.4730    -0.8630 C.ar  1 <1>   0.0860 
  5 C        3.4640    -0.3280     0.6940 C.3   1 <1>   0.2200 
  6 C        3.3580     1.0980    -1.4860 C.3   1 <1>   0.1400 
  7 C        0.8670    -2.8810    -0.4620 C.ar  1 <1>  -0.1500 
  8 C        3.1920    -3.3630    -0.6880 C.ar  1 <1>  -0.1500 
  9 C        2.8660     0.7820     1.5730 C.3   1 <1>   0.1200 
 10 C        4.9920    -0.4320     0.8950 C.3   1 <1>   0.3430 
 11 C        4.2590     2.1060    -0.7530 C.3   1 <1>  -0.0800 
 12 C        0.6600    -4.1230     0.1280 C.ar  1 <1>   0.0830 
 13 C        2.9980    -4.5970    -0.0990 C.ar  1 <1>  -0.1500 
 14 O        3.6740     1.9210     1.5810 O.3   1 <1>  -0.5600 
 15 N        5.7890     0.1360    -0.2440 N.4   1 <1>  -0.9590 
 16 C        3.5680     2.7370     0.4640 C.3   1 <1>   0.1200 
 17 C        5.6800     1.6060    -0.4330 C.3   1 <1>   0.3430 
 18 O       -0.5660    -4.5450     0.5360 O.3   1 <1>  -0.3630 
 19 C        1.7360    -4.9840     0.3180 C.ar  1 <1>  -0.1430 
 20 C        7.2320    -0.3430    -0.1500 C.3   1 <1>   0.2370 
 21 C       -1.7410    -3.8450     0.1900 C.3   1 <1>   0.0400 
 22 C        1.5400    -6.3460     0.9670 C.3   1 <1>  -0.0970 
 23 C        7.3860    -1.8680    -0.1750 C.2   1 <1>   0.9060 
 24 O        8.3040    -2.3860     0.4560 O.co2 1 <1>  -0.9000 
 25 O        6.5100    -2.5110    -0.7660 O.co2 1 <1>  -0.9000 
 26 H        3.0440    -1.2400     1.0770 H     1 <1>   0.0800 
 27 H        3.8120     0.8490    -2.4310 H     1 <1>   0.0800 
 28 H        2.4160     1.5710    -1.7110 H     1 <1>   0.0800 
 29 H        0.0560    -2.1980    -0.6220 H     1 <1>   0.1500 
 30 H        4.1790    -3.0890    -1.0190 H     1 <1>   0.1500 
 31 H        2.8210     0.4350     2.5900 H     1 <1>   0.0800 
 32 H        1.8670     1.0370     1.2610 H     1 <1>   0.0800 
 33 H        5.2290    -1.4790     0.9950 H     1 <1>   0.0800 
 34 H        5.2690     0.0500     1.8170 H     1 <1>   0.0800 
 35 H        4.3870     2.9220    -1.4410 H     1 <1>   0.0800 
 36 H        3.8450    -5.2530     0.0250 H     1 <1>   0.1500 
 37 H        5.3990    -0.3630    -1.0660 H     1 <1>   0.4500 
 38 H        2.5280     2.9450     0.2720 H     1 <1>   0.0800 
 39 H        4.0530     3.6650     0.7150 H     1 <1>   0.0800 
 40 H        6.0390     2.1090     0.4510 H     1 <1>   0.0800 
 41 H        6.3230     1.8860    -1.2500 H     1 <1>   0.0800 
 42 H        7.7980     0.0410    -0.9780 H     1 <1>   0.0800 
 43 H        7.6800     0.0090     0.7600 H     1 <1>   0.0800 
 44 H       -2.5840    -4.4170     0.5340 H     1 <1>   0.0800 
 45 H       -1.7820    -3.7400    -0.8800 H     1 <1>   0.0800 
 46 H       -1.7300    -2.8840     0.6720 H     1 <1>   0.0800 
 47 H        2.4720    -6.8770     1.0470 H     1 <1>   0.0800 
 48 H        0.8590    -6.9340     0.3780 H     1 <1>   0.0800 
 49 H        1.1280    -6.2240     1.9520 H     1 <1>   0.0800 
@<TRIPOS>BOND
  1   1   2  2   
  2   2   3  am  
  3   2   4  1   
  4   3   5  1   
  5   3   6  1   
  6   4   7  ar  
  7   4   8  ar  
  8   5   9  1   
  9   5  10  1   
 10   5  26  1   
 11   6  11  1   
 12   6  27  1   
 13   6  28  1   
 14   7  12  ar  
 15   7  29  1   
 16   8  13  ar  
 17   8  30  1   
 18   9  14  1   
 19   9  31  1   
 20   9  32  1   
 21  10  15  1   
 22  10  33  1   
 23  10  34  1   
 24  11  16  1   
 25  11  17  1   
 26  11  35  1   
 27  12  18  1   
 28  12  19  ar  
 29  13  19  ar  
 30  13  36  1   
 31  14  16  1   
 32  15  17  1   
 33  15  20  1   
 34  15  37  1   
 35  16  38  1   
 36  16  39  1   
 37  17  40  1   
 38  17  41  1   
 39  18  21  1   
 40  19  22  1   
 41  20  23  1   
 42  20  42  1   
 43  20  43  1   
 44  21  44  1   
 45  21  45  1   
 46  21  46  1   
 47  22  47  1   
 48  22  48  1   
 49  22  49  1   
 50  23  24  ar  
 51  23  25  ar  
@<TRIPOS>SUBSTRUCTURE
  1 ****   5 GROUP 4 **** **** 0

# MOE 2024.06 (io_trps.svl 2023.06)
