@<TRIPOS>MOLECULE
NONAME
35 36 1 0 0 
SMALL
USER_CHARGES


@<TRIPOS>ATOM
  1 CL      -0.2970    -0.0370    -0.2830 Cl    1 <1>  -0.1770 
  2 C        1.1230    -1.0540    -0.1090 C.ar  1 <1>   0.1770 
  3 C        1.0290    -2.4380    -0.1850 C.ar  1 <1>   0.4100 
  4 C        2.3540    -0.4970     0.1070 C.ar  1 <1>   0.1600 
  5 N        2.1090    -3.1860    -0.0510 N.ar  1 <1>  -0.6200 
  6 N       -0.1720    -3.0810    -0.3930 N.pl3 1 <1>  -0.8690 
  7 N        3.4400    -1.2390     0.2430 N.ar  1 <1>  -0.6200 
  8 C        3.2460    -2.5460     0.1560 C.ar  1 <1>   0.4770 
  9 C       -0.3280    -4.5400    -0.6300 C.3   1 <1>   0.2090 
 10 C        4.4710    -3.4150     0.3070 C.3   1 <1>  -0.0970 
 11 C       -0.5140    -5.2660     0.6980 C.3   1 <1>  -0.0170 
 12 C       -0.7490    -6.7380     0.4420 C.ar  1 <1>   0.4770 
 13 N       -1.9860    -7.0860     0.1300 N.ar  1 <1>  -0.6200 
 14 N        0.3010    -7.5310     0.5450 N.ar  1 <1>  -0.6200 
 15 C       -2.2060    -8.3770    -0.1000 C.ar  1 <1>   0.1670 
 16 C        0.0880    -8.8030     0.3190 C.ar  1 <1>   0.1670 
 17 C       -1.1600    -9.2770    -0.0090 C.ar  1 <1>  -0.1500 
 18 C       -3.6350    -8.8660    -0.4680 C.3   1 <1>   1.1630 
 19 C        1.2810    -9.7270     0.4350 C.3   1 <1>  -0.0960 
 20 F       -4.5230    -8.6390     0.4950 F     1 <1>  -0.3400 
 21 F       -3.6910   -10.1750    -0.7060 F     1 <1>  -0.3400 
 22 F       -4.1140    -8.2820    -1.5630 F     1 <1>  -0.3400 
 23 H        2.4550     0.5710     0.1700 H     1 <1>   0.1500 
 24 H       -1.0120    -2.5060    -0.5160 H     1 <1>   0.4000 
 25 H        0.5430    -4.9270    -1.1330 H     1 <1>   0.0800 
 26 H       -1.1830    -4.7080    -1.2620 H     1 <1>   0.0800 
 27 H        4.2160    -4.3230     0.8200 H     1 <1>   0.0800 
 28 H        5.2280    -2.8990     0.8680 H     1 <1>   0.0800 
 29 H        4.8560    -3.6560    -0.6660 H     1 <1>   0.0800 
 30 H       -1.3570    -4.8580     1.2230 H     1 <1>   0.0800 
 31 H        0.3660    -5.1400     1.3020 H     1 <1>   0.0800 
 32 H       -1.3020   -10.3270    -0.1880 H     1 <1>   0.1500 
 33 H        1.6890    -9.6630     1.4270 H     1 <1>   0.0800 
 34 H        2.0370    -9.4280    -0.2680 H     1 <1>   0.0800 
 35 H        1.0050   -10.7470     0.2380 H     1 <1>   0.0800 
@<TRIPOS>BOND
  1   1   2  1   
  2   2   3  ar  
  3   2   4  ar  
  4   3   5  ar  
  5   3   6  1   
  6   4   7  ar  
  7   4  23  1   
  8   5   8  ar  
  9   6   9  1   
 10   6  24  1   
 11   7   8  ar  
 12   8  10  1   
 13   9  11  1   
 14   9  25  1   
 15   9  26  1   
 16  10  27  1   
 17  10  28  1   
 18  10  29  1   
 19  11  12  1   
 20  11  30  1   
 21  11  31  1   
 22  12  13  ar  
 23  12  14  ar  
 24  13  15  ar  
 25  14  16  ar  
 26  15  17  ar  
 27  15  18  1   
 28  16  17  ar  
 29  16  19  1   
 30  17  32  1   
 31  18  20  1   
 32  18  21  1   
 33  18  22  1   
 34  19  33  1   
 35  19  34  1   
 36  19  35  1   
@<TRIPOS>SUBSTRUCTURE
  1 ****  11 GROUP 4 **** **** 0

# MOE 2024.06 (io_trps.svl 2023.06)
