@<TRIPOS>MOLECULE
NONAME
53 56 1 0 0 
SMALL
USER_CHARGES


@<TRIPOS>ATOM
  1 O       -2.9320     1.2620    -2.1050 O.2   1 <1>  -0.5700 
  2 C       -2.1530     1.6600    -1.2540 C.2   1 <1>   0.5440 
  3 N       -1.6810     0.7320    -0.3370 N.am  1 <1>  -0.6600 
  4 C       -1.7950     3.0790    -1.2440 C.ar  1 <1>   0.3960 
  5 C       -1.8360    -0.7420    -0.5410 C.3   1 <1>   0.1400 
  6 C       -0.9870     1.0770     0.9420 C.3   1 <1>   0.1400 
  7 N       -0.5620     3.4770    -0.8910 N.ar  1 <1>  -0.6200 
  8 C       -2.7750     4.0000    -1.6220 C.ar  1 <1>   0.1600 
  9 C       -2.3870    -1.4160     0.7240 C.3   1 <1>   0.1200 
 10 C       -1.5730     0.2800     2.1210 C.3   1 <1>   0.1200 
 11 C       -0.3840     4.7870    -0.9250 C.ar  1 <1>   0.4100 
 12 N       -2.6250     5.3160    -1.6650 N.ar  1 <1>  -0.6200 
 13 O       -1.6040    -1.0890     1.8370 O.3   1 <1>  -0.5600 
 14 N        0.8750     5.2320    -0.5490 N.pl3 1 <1>  -0.8380 
 15 C       -1.4060     5.6700    -1.3130 C.ar  1 <1>   0.1600 
 16 C        1.1410     6.5960     0.0110 C.3   1 <1>   0.2090 
 17 C        2.1170     4.5440    -1.0310 C.3   1 <1>   0.2090 
 18 C        2.2510     6.5690     1.0850 C.3   1 <1>   0.2090 
 19 C        3.2030     4.5030     0.0610 C.3   1 <1>   0.2090 
 20 N        3.4860     5.8620     0.6190 N.pl3 1 <1>  -0.8380 
 21 C        4.5020     6.5910     0.0400 C.ar  1 <1>   0.4100 
 22 N        4.1360     7.5030    -0.8390 N.ar  1 <1>  -0.6200 
 23 C        5.8430     6.3670     0.3440 C.ar  1 <1>  -0.1430 
 24 C        5.1190     8.1640    -1.4110 C.ar  1 <1>   0.4700 
 25 C        6.7720     7.1200    -0.3410 C.ar  1 <1>   0.1670 
 26 C        6.2480     5.3360     1.4000 C.3   1 <1>  -0.0970 
 27 N        6.4170     8.0310    -1.2240 N.ar  1 <1>  -0.6200 
 28 C        8.2700     6.9720    -0.1400 C.3   1 <1>  -0.0970 
 29 H       -0.8750    -1.1650    -0.7750 H     1 <1>   0.0800 
 30 H       -2.4950    -0.9490    -1.3660 H     1 <1>   0.0800 
 31 H       -1.0880     2.1240     1.1620 H     1 <1>   0.0800 
 32 H        0.0610     0.8560     0.8460 H     1 <1>   0.0800 
 33 H       -3.7410     3.6170    -1.9060 H     1 <1>   0.1500 
 34 H       -2.3690    -2.4850     0.6120 H     1 <1>   0.0800 
 35 H       -3.4010    -1.1040     0.9080 H     1 <1>   0.0800 
 36 H       -2.5750     0.6090     2.3370 H     1 <1>   0.0800 
 37 H       -0.9680     0.4190     2.9990 H     1 <1>   0.0800 
 38 H       -1.1810     6.7190    -1.3340 H     1 <1>   0.1500 
 39 H        0.2460     6.9950     0.4540 H     1 <1>   0.0800 
 40 H        1.4460     7.2520    -0.7860 H     1 <1>   0.0800 
 41 H        2.5040     5.0780    -1.8810 H     1 <1>   0.0800 
 42 H        1.8970     3.5390    -1.3460 H     1 <1>   0.0800 
 43 H        1.8760     6.0720     1.9620 H     1 <1>   0.0800 
 44 H        2.5000     7.5790     1.3600 H     1 <1>   0.0800 
 45 H        4.1040     4.0890    -0.3570 H     1 <1>   0.0800 
 46 H        2.8760     3.8560     0.8550 H     1 <1>   0.0800 
 47 H        4.8250     8.9110    -2.1290 H     1 <1>   0.1500 
 48 H        5.4620     5.1930     2.1190 H     1 <1>   0.0800 
 49 H        7.1160     5.6610     1.9430 H     1 <1>   0.0800 
 50 H        6.4590     4.3940     0.9290 H     1 <1>   0.0800 
 51 H        8.5370     5.9500     0.0500 H     1 <1>   0.0800 
 52 H        8.5840     7.5850     0.6850 H     1 <1>   0.0800 
 53 H        8.7930     7.2930    -1.0230 H     1 <1>   0.0800 
@<TRIPOS>BOND
  1   1   2  2   
  2   2   3  am  
  3   2   4  1   
  4   3   5  1   
  5   3   6  1   
  6   4   7  ar  
  7   4   8  ar  
  8   5   9  1   
  9   5  29  1   
 10   5  30  1   
 11   6  10  1   
 12   6  31  1   
 13   6  32  1   
 14   7  11  ar  
 15   8  12  ar  
 16   8  33  1   
 17   9  13  1   
 18   9  34  1   
 19   9  35  1   
 20  10  13  1   
 21  10  36  1   
 22  10  37  1   
 23  11  14  1   
 24  11  15  ar  
 25  12  15  ar  
 26  14  16  1   
 27  14  17  1   
 28  15  38  1   
 29  16  18  1   
 30  16  39  1   
 31  16  40  1   
 32  17  19  1   
 33  17  41  1   
 34  17  42  1   
 35  18  20  1   
 36  18  43  1   
 37  18  44  1   
 38  19  20  1   
 39  19  45  1   
 40  19  46  1   
 41  20  21  1   
 42  21  22  ar  
 43  21  23  ar  
 44  22  24  ar  
 45  23  25  ar  
 46  23  26  1   
 47  24  27  ar  
 48  24  47  1   
 49  25  27  ar  
 50  25  28  1   
 51  26  48  1   
 52  26  49  1   
 53  26  50  1   
 54  28  51  1   
 55  28  52  1   
 56  28  53  1   
@<TRIPOS>SUBSTRUCTURE
  1 ****  14 GROUP 4 **** **** 0

# MOE 2024.06 (io_trps.svl 2023.06)
