@<TRIPOS>MOLECULE
NONAME
49 51 1 0 0 
SMALL
USER_CHARGES


@<TRIPOS>ATOM
  1 O       -1.3610     0.3720    -2.8240 O.2   1 <1>  -0.5700 
  2 C       -1.6140     0.9980    -1.8230 C.2   1 <1>   0.5690 
  3 N       -2.1460     0.3970    -0.7150 N.am  1 <1>  -0.6600 
  4 C       -1.3170     2.4840    -1.8170 C.3   1 <1>  -0.0990 
  5 C       -2.4940     1.0580     0.5690 C.3   1 <1>   0.1400 
  6 C       -2.3970    -1.0600    -0.6440 C.3   1 <1>   0.1400 
  7 C        0.0470     2.7720    -1.1790 C.3   1 <1>  -0.0160 
  8 C       -3.1460    -0.0390     1.4080 C.3   1 <1>   0.2000 
  9 C       -2.6150    -1.3540     0.8410 C.3   1 <1>  -0.0800 
 10 C        0.1930     4.2590    -0.8830 C.ar  1 <1>  -0.1440 
 11 O       -2.8120     0.0760     2.7480 O.3   1 <1>  -0.6800 
 12 C       -3.5500    -2.5440     1.1030 C.3   1 <1>   0.0200 
 13 C       -0.3750     4.8250     0.2570 C.ar  1 <1>   0.0830 
 14 C        0.9000     5.0590    -1.7670 C.ar  1 <1>  -0.1500 
 15 C       -3.0120    -3.8080     0.4600 C.2   1 <1>  -0.0400 
 16 O       -1.0690     4.0080     1.0970 O.3   1 <1>  -0.3630 
 17 C       -0.2200     6.1900     0.4960 C.ar  1 <1>  -0.1500 
 18 C        1.0490     6.4130    -1.5240 C.ar  1 <1>  -0.1500 
 19 O       -1.8660    -4.3000     0.8470 O.3   1 <1>  -0.0190 
 20 C       -3.4950    -4.5980    -0.5100 C.2   1 <1>  -0.1500 
 21 C       -1.6500     4.4890     2.2890 C.3   1 <1>   0.0400 
 22 C        0.4900     6.9780    -0.3930 C.ar  1 <1>  -0.1500 
 23 N       -1.5530    -5.3760     0.1850 N.2   1 <1>  -0.4100 
 24 C       -2.5170    -5.5800    -0.6400 C.2   1 <1>   0.1080 
 25 C       -2.5690    -6.7330    -1.6170 C.3   1 <1>  -0.0590 
 26 H       -1.3190     2.8470    -2.8280 H     1 <1>   0.0800 
 27 H       -2.0930     3.0040    -1.2890 H     1 <1>   0.0800 
 28 H       -1.5950     1.4140     1.0410 H     1 <1>   0.0800 
 29 H       -3.1780     1.8710     0.4070 H     1 <1>   0.0800 
 30 H       -3.2780    -1.2880    -1.2200 H     1 <1>   0.0800 
 31 H       -1.5610    -1.6140    -1.0390 H     1 <1>   0.0800 
 32 H        0.8260     2.4410    -1.8420 H     1 <1>   0.0800 
 33 H        0.1560     2.2180    -0.2640 H     1 <1>   0.0800 
 34 H       -4.2170     0.0250     1.3180 H     1 <1>   0.0800 
 35 H       -1.6470    -1.5610     1.2650 H     1 <1>   0.0800 
 36 H       -1.8490    -0.0380     2.8670 H     1 <1>   0.4000 
 37 H       -4.5290    -2.3360     0.7090 H     1 <1>   0.0800 
 38 H       -3.6430    -2.7030     2.1630 H     1 <1>   0.0800 
 39 H        1.3390     4.6320    -2.6520 H     1 <1>   0.1500 
 40 H       -0.6430     6.6580     1.3630 H     1 <1>   0.1500 
 41 H        1.6000     7.0260    -2.2160 H     1 <1>   0.1500 
 42 H       -4.4050    -4.5240    -1.0750 H     1 <1>   0.1500 
 43 H       -2.1280     3.6640     2.7870 H     1 <1>   0.0800 
 44 H       -2.3800     5.2400     2.0440 H     1 <1>   0.0800 
 45 H       -0.8750     4.8940     2.9160 H     1 <1>   0.0800 
 46 H        0.6070     8.0310    -0.2050 H     1 <1>   0.1500 
 47 H       -3.4540    -7.3180    -1.4450 H     1 <1>   0.0800 
 48 H       -1.7060    -7.3610    -1.4900 H     1 <1>   0.0800 
 49 H       -2.5800    -6.3570    -2.6230 H     1 <1>   0.0800 
@<TRIPOS>BOND
  1   1   2  2   
  2   2   3  am  
  3   2   4  1   
  4   3   5  1   
  5   3   6  1   
  6   4   7  1   
  7   4  26  1   
  8   4  27  1   
  9   5   8  1   
 10   5  28  1   
 11   5  29  1   
 12   6   9  1   
 13   6  30  1   
 14   6  31  1   
 15   7  10  1   
 16   7  32  1   
 17   7  33  1   
 18   8   9  1   
 19   8  11  1   
 20   8  34  1   
 21   9  12  1   
 22   9  35  1   
 23  10  13  ar  
 24  10  14  ar  
 25  11  36  1   
 26  12  15  1   
 27  12  37  1   
 28  12  38  1   
 29  13  16  1   
 30  13  17  ar  
 31  14  18  ar  
 32  14  39  1   
 33  15  19  1   
 34  15  20  2   
 35  16  21  1   
 36  17  22  ar  
 37  17  40  1   
 38  18  22  ar  
 39  18  41  1   
 40  19  23  1   
 41  20  24  1   
 42  20  42  1   
 43  21  43  1   
 44  21  44  1   
 45  21  45  1   
 46  22  46  1   
 47  23  24  2   
 48  24  25  1   
 49  25  47  1   
 50  25  48  1   
 51  25  49  1   
@<TRIPOS>SUBSTRUCTURE
  1 ****   3 GROUP 4 **** **** 0

# MOE 2024.06 (io_trps.svl 2023.06)
