@<TRIPOS>MOLECULE
NONAME
43 44 1 0 0 
SMALL
USER_CHARGES


@<TRIPOS>ATOM
  1 CL      -1.4870    -1.3610     1.2860 Cl    1 <1>  -0.1770 
  2 C       -1.8690     0.1440     0.4760 C.ar  1 <1>   0.1770 
  3 C       -1.3710     1.3320     0.9860 C.ar  1 <1>   0.1770 
  4 C       -2.6660     0.1360    -0.6680 C.ar  1 <1>   0.0860 
  5 CL      -0.3840     1.3370     2.4280 Cl    1 <1>  -0.1770 
  6 C       -1.6440     2.5390     0.3710 C.ar  1 <1>  -0.1500 
  7 C       -3.2020    -1.0850    -1.2270 C.2   1 <1>   0.5440 
  8 C       -2.9260     1.3640    -1.2800 C.ar  1 <1>  -0.1500 
  9 C       -2.4260     2.5510    -0.7710 C.ar  1 <1>  -0.1500 
 10 O       -2.8090    -1.4310    -2.3230 O.2   1 <1>  -0.5700 
 11 N       -4.1580    -1.8460    -0.5820 N.am  1 <1>  -0.6600 
 12 C       -4.5740    -3.1840    -1.1190 C.3   1 <1>   0.1400 
 13 C       -4.8230    -1.4350     0.6880 C.3   1 <1>   0.1400 
 14 C       -6.1050    -3.2880    -1.2220 C.3   1 <1>   0.2000 
 15 C       -6.3470    -1.5250     0.5350 C.3   1 <1>  -0.1600 
 16 O       -6.4460    -4.5670    -1.6540 O.3   1 <1>  -0.6800 
 17 C       -6.8380    -2.9330     0.1050 C.3   1 <1>   0.0000 
 18 C       -6.4870    -3.9870     1.1940 C.3   1 <1>   0.1200 
 19 C       -8.3850    -2.9280    -0.0830 C.3   1 <1>  -0.1600 
 20 O       -7.0590    -3.6770     2.4200 O.3   1 <1>  -0.6800 
 21 C       -8.9480    -2.0430    -1.2120 C.3   1 <1>  -0.1600 
 22 C      -10.4780    -2.1120    -1.2400 C.3   1 <1>  -0.2400 
 23 H       -1.2460     3.4530     0.7790 H     1 <1>   0.1500 
 24 H       -3.5260     1.3760    -2.1750 H     1 <1>   0.1500 
 25 H       -2.6430     3.4840    -1.2660 H     1 <1>   0.1500 
 26 H       -4.1590    -3.3410    -2.0990 H     1 <1>   0.0800 
 27 H       -4.1860    -3.9470    -0.4700 H     1 <1>   0.0800 
 28 H       -4.4810    -2.0700     1.4870 H     1 <1>   0.0800 
 29 H       -4.5640    -0.4220     0.9420 H     1 <1>   0.0800 
 30 H       -6.4110    -2.6110    -1.9980 H     1 <1>   0.0800 
 31 H       -6.8140    -1.2310     1.4570 H     1 <1>   0.0800 
 32 H       -6.6320    -0.7970    -0.2020 H     1 <1>   0.0800 
 33 H       -6.1960    -5.2420    -0.9970 H     1 <1>   0.4000 
 34 H       -5.4260    -4.0700     1.3460 H     1 <1>   0.0800 
 35 H       -6.8630    -4.9560     0.9120 H     1 <1>   0.0800 
 36 H       -8.7080    -3.9380    -0.2670 H     1 <1>   0.0800 
 37 H       -8.8450    -2.6220     0.8410 H     1 <1>   0.0800 
 38 H       -6.7940    -2.7860     2.7150 H     1 <1>   0.4000 
 39 H       -8.6570    -1.0180    -1.0760 H     1 <1>   0.0800 
 40 H       -8.5790    -2.3780    -2.1660 H     1 <1>   0.0800 
 41 H      -10.8890    -1.7610    -0.3100 H     1 <1>   0.0800 
 42 H      -10.8050    -3.1240    -1.4050 H     1 <1>   0.0800 
 43 H      -10.8590    -1.4970    -2.0360 H     1 <1>   0.0800 
@<TRIPOS>BOND
  1   1   2  1   
  2   2   3  ar  
  3   2   4  ar  
  4   3   5  1   
  5   3   6  ar  
  6   4   7  1   
  7   4   8  ar  
  8   6   9  ar  
  9   6  23  1   
 10   7  10  2   
 11   7  11  am  
 12   8   9  ar  
 13   8  24  1   
 14   9  25  1   
 15  11  12  1   
 16  11  13  1   
 17  12  14  1   
 18  12  26  1   
 19  12  27  1   
 20  13  15  1   
 21  13  28  1   
 22  13  29  1   
 23  14  16  1   
 24  14  17  1   
 25  14  30  1   
 26  15  17  1   
 27  15  31  1   
 28  15  32  1   
 29  16  33  1   
 30  17  18  1   
 31  17  19  1   
 32  18  20  1   
 33  18  34  1   
 34  18  35  1   
 35  19  21  1   
 36  19  36  1   
 37  19  37  1   
 38  20  38  1   
 39  21  22  1   
 40  21  39  1   
 41  21  40  1   
 42  22  41  1   
 43  22  42  1   
 44  22  43  1   
@<TRIPOS>SUBSTRUCTURE
  1 ****  11 GROUP 4 **** **** 0

# MOE 2024.06 (io_trps.svl 2023.06)
