@<TRIPOS>MOLECULE
NONAME
55 57 1 0 0 
SMALL
USER_CHARGES


@<TRIPOS>ATOM
  1 O        3.0070    -1.5250    -2.3260 O.2   1 <1>  -0.5700 
  2 C        2.1910    -1.7070    -1.4360 C.2   1 <1>   0.5440 
  3 N        2.2590    -0.8590    -0.3450 N.am  1 <1>  -0.6600 
  4 C        1.1980    -2.7740    -1.5920 C.ar  1 <1>   0.3960 
  5 C        3.3000     0.1830    -0.2040 C.3   1 <1>   0.1400 
  6 C        1.3030    -0.8060     0.7840 C.3   1 <1>   0.1400 
  7 N        0.6670    -3.3950    -0.5250 N.ar  1 <1>  -0.6200 
  8 C        0.8270    -3.1290    -2.8930 C.ar  1 <1>   0.1600 
  9 C        3.0940     0.7580     1.1920 C.3   1 <1>  -0.1600 
 10 C        1.6230     0.5000     1.5030 C.3   1 <1>  -0.1600 
 11 C       -0.2130    -4.3360    -0.8270 C.ar  1 <1>   0.4100 
 12 N       -0.0580    -4.0600    -3.2230 N.ar  1 <1>  -0.6200 
 13 N       -0.7780    -5.0280     0.2360 N.pl3 1 <1>  -0.8380 
 14 C       -0.5610    -4.6400    -2.1530 C.ar  1 <1>   0.1600 
 15 C       -0.6230    -6.5040     0.2810 C.3   1 <1>   0.2090 
 16 C       -0.8910    -4.3700     1.5700 C.3   1 <1>   0.1290 
 17 C       -2.0010    -7.1580     0.2160 C.3   1 <1>  -0.1600 
 18 C       -1.8810    -8.6810     0.2140 C.3   1 <1>   0.1200 
 19 O       -3.1790    -9.2190     0.1420 O.3   1 <1>  -0.3630 
 20 C       -3.3990   -10.5610     0.1050 C.ar  1 <1>   0.0830 
 21 C       -4.7180   -10.9920     0.0070 C.ar  1 <1>  -0.1430 
 22 C       -2.3700   -11.4990     0.1590 C.ar  1 <1>  -0.1500 
 23 C       -4.9920   -12.3500    -0.0360 C.ar  1 <1>  -0.1500 
 24 C       -5.8600    -9.9880    -0.0540 C.3   1 <1>  -0.0970 
 25 C       -2.6490   -12.8550     0.1170 C.ar  1 <1>  -0.1430 
 26 C       -3.9650   -13.2750     0.0180 C.ar  1 <1>  -0.1500 
 27 C       -1.5290   -13.8780     0.1750 C.3   1 <1>  -0.0970 
 28 H        3.1430     0.9380    -0.9550 H     1 <1>   0.0800 
 29 H        4.2830    -0.2420    -0.3210 H     1 <1>   0.0800 
 30 H        1.4820    -1.6460     1.4330 H     1 <1>   0.0800 
 31 H        0.2850    -0.8260     0.4330 H     1 <1>   0.0800 
 32 H        1.2940    -2.6040    -3.7100 H     1 <1>   0.1500 
 33 H        3.3470     1.8030     1.2340 H     1 <1>   0.0800 
 34 H        3.7150     0.2180     1.8860 H     1 <1>   0.0800 
 35 H        1.4310     0.4320     2.5590 H     1 <1>   0.0800 
 36 H        1.0180     1.2850     1.0850 H     1 <1>   0.0800 
 37 H       -1.2980    -5.4050    -2.3050 H     1 <1>   0.1500 
 38 H       -0.1180    -6.7880     1.1890 H     1 <1>   0.0800 
 39 H       -0.0210    -6.8330    -0.5500 H     1 <1>   0.0800 
 40 H       -1.1310    -3.3280     1.4450 H     1 <1>   0.0800 
 41 H        0.0440    -4.4510     2.0970 H     1 <1>   0.0800 
 42 H       -1.6700    -4.8350     2.1480 H     1 <1>   0.0800 
 43 H       -2.5010    -6.8460    -0.6830 H     1 <1>   0.0800 
 44 H       -2.5820    -6.8540     1.0670 H     1 <1>   0.0800 
 45 H       -1.4200    -9.0320     1.1210 H     1 <1>   0.0800 
 46 H       -1.3280    -9.0210    -0.6450 H     1 <1>   0.0800 
 47 H       -1.3460   -11.1910     0.2330 H     1 <1>   0.1500 
 48 H       -6.0070   -12.6960    -0.1130 H     1 <1>   0.1500 
 49 H       -5.7370    -9.3500    -0.9100 H     1 <1>   0.0800 
 50 H       -5.8550    -9.3790     0.8330 H     1 <1>   0.0800 
 51 H       -6.8110   -10.4830    -0.1260 H     1 <1>   0.0800 
 52 H       -4.1960   -14.3250    -0.0190 H     1 <1>   0.1500 
 53 H       -0.6670   -13.4690     0.6700 H     1 <1>   0.0800 
 54 H       -1.2520   -14.1700    -0.8220 H     1 <1>   0.0800 
 55 H       -1.8470   -14.7500     0.7170 H     1 <1>   0.0800 
@<TRIPOS>BOND
  1   1   2  2   
  2   2   3  am  
  3   2   4  1   
  4   3   5  1   
  5   3   6  1   
  6   4   7  ar  
  7   4   8  ar  
  8   5   9  1   
  9   5  28  1   
 10   5  29  1   
 11   6  10  1   
 12   6  30  1   
 13   6  31  1   
 14   7  11  ar  
 15   8  12  ar  
 16   8  32  1   
 17   9  10  1   
 18   9  33  1   
 19   9  34  1   
 20  10  35  1   
 21  10  36  1   
 22  11  13  1   
 23  11  14  ar  
 24  12  14  ar  
 25  13  15  1   
 26  13  16  1   
 27  14  37  1   
 28  15  17  1   
 29  15  38  1   
 30  15  39  1   
 31  16  40  1   
 32  16  41  1   
 33  16  42  1   
 34  17  18  1   
 35  17  43  1   
 36  17  44  1   
 37  18  19  1   
 38  18  45  1   
 39  18  46  1   
 40  19  20  1   
 41  20  21  ar  
 42  20  22  ar  
 43  21  23  ar  
 44  21  24  1   
 45  22  25  ar  
 46  22  47  1   
 47  23  26  ar  
 48  23  48  1   
 49  24  49  1   
 50  24  50  1   
 51  24  51  1   
 52  25  26  ar  
 53  25  27  1   
 54  26  52  1   
 55  27  53  1   
 56  27  54  1   
 57  27  55  1   
@<TRIPOS>SUBSTRUCTURE
  1 ****  15 GROUP 4 **** **** 0

# MOE 2024.06 (io_trps.svl 2023.06)
