@<TRIPOS>MOLECULE
NONAME
53 55 1 0 0 
SMALL
USER_CHARGES


@<TRIPOS>ATOM
  1 S        0.2440    -0.0880     1.8890 S.o2  1 <1>   1.4470 
  2 O       -0.4870     0.8720     2.6900 O.2   1 <1>  -0.6500 
  3 O        1.0710    -1.0390     2.6020 O.2   1 <1>  -0.6500 
  4 N       -0.9490    -1.0030     1.1100 N.am  1 <1>  -0.8490 
  5 C        1.1840     0.6610     0.4950 C.ar  1 <1>  -0.0090 
  6 C       -1.9360    -0.2130     0.3600 C.3   1 <1>   0.1960 
  7 C       -1.6770    -1.8780     2.0230 C.3   1 <1>   0.1960 
  8 C        1.2180     2.0460     0.2600 C.ar  1 <1>  -0.1440 
  9 C        1.8950    -0.1550    -0.3990 C.ar  1 <1>  -0.1430 
 10 C       -3.3180    -0.7130     0.7920 C.3   1 <1>  -0.0800 
 11 C       -3.0290    -2.1070     1.3550 C.3   1 <1>  -0.0800 
 12 C        1.9180     2.5690    -0.8170 C.ar  1 <1>  -0.1500 
 13 C        0.5090     3.0620     1.1500 C.3   1 <1>  -0.0970 
 14 C        2.5900     0.3890    -1.4680 C.ar  1 <1>  -0.1500 
 15 C        1.9570    -1.6740    -0.2550 C.3   1 <1>  -0.0970 
 16 C       -4.4230    -0.6620    -0.2910 C.3   1 <1>   0.2800 
 17 C       -2.9220    -3.1940     0.2630 C.3   1 <1>  -0.1600 
 18 C        2.6040     1.7500    -1.6870 C.ar  1 <1>  -0.1430 
 19 O       -4.3110     0.5390    -0.9580 O.3   1 <1>  -0.6800 
 20 C       -4.2320    -1.7670    -1.3460 C.3   1 <1>  -0.1600 
 21 C       -5.8480    -0.7270     0.3140 C.3   1 <1>  -0.1600 
 22 C       -4.1010    -3.1610    -0.7130 C.3   1 <1>  -0.1600 
 23 C        3.3680     2.3340    -2.8620 C.3   1 <1>  -0.0970 
 24 C       -6.2880     0.4830     1.1610 C.3   1 <1>  -0.2400 
 25 H       -1.8510     0.8440     0.5530 H     1 <1>   0.0800 
 26 H       -1.7800    -0.3780    -0.6920 H     1 <1>   0.0800 
 27 H       -1.1360    -2.7940     2.1890 H     1 <1>   0.0800 
 28 H       -1.8260    -1.3810     2.9680 H     1 <1>   0.0800 
 29 H       -3.6120    -0.0840     1.6110 H     1 <1>   0.0800 
 30 H       -3.7720    -2.3910     2.0800 H     1 <1>   0.0800 
 31 H        1.9340     3.6310    -0.9850 H     1 <1>   0.1500 
 32 H        0.6950     4.0700     0.8250 H     1 <1>   0.0800 
 33 H        0.8590     2.9790     2.1630 H     1 <1>   0.0800 
 34 H       -0.5540     2.9040     1.1260 H     1 <1>   0.0800 
 35 H        3.1310    -0.2510    -2.1430 H     1 <1>   0.1500 
 36 H        2.5140    -2.1200    -1.0580 H     1 <1>   0.0800 
 37 H        0.9710    -2.1010    -0.2720 H     1 <1>   0.0800 
 38 H        2.4430    -1.9440     0.6650 H     1 <1>   0.0800 
 39 H       -2.0140    -3.0560    -0.3010 H     1 <1>   0.0800 
 40 H       -2.8640    -4.1640     0.7280 H     1 <1>   0.0800 
 41 H       -5.0660     0.6400    -1.5640 H     1 <1>   0.4000 
 42 H       -5.0590    -1.7710    -2.0330 H     1 <1>   0.0800 
 43 H       -3.3370    -1.5690    -1.9100 H     1 <1>   0.0800 
 44 H       -6.5590    -0.8490    -0.4850 H     1 <1>   0.0800 
 45 H       -5.9260    -1.6050     0.9280 H     1 <1>   0.0800 
 46 H       -5.0080    -3.4280    -0.2000 H     1 <1>   0.0800 
 47 H       -3.9390    -3.8900    -1.4880 H     1 <1>   0.0800 
 48 H        2.9270     3.2630    -3.1750 H     1 <1>   0.0800 
 49 H        3.3510     1.6540    -3.6950 H     1 <1>   0.0800 
 50 H        4.3900     2.5110    -2.5780 H     1 <1>   0.0800 
 51 H       -6.2300     1.3940     0.5920 H     1 <1>   0.0800 
 52 H       -5.6780     0.5890     2.0390 H     1 <1>   0.0800 
 53 H       -7.3070     0.3520     1.4800 H     1 <1>   0.0800 
@<TRIPOS>BOND
  1   1   2  2   
  2   1   3  2   
  3   1   4  am  
  4   1   5  1   
  5   4   6  1   
  6   4   7  1   
  7   5   8  ar  
  8   5   9  ar  
  9   6  10  1   
 10   6  25  1   
 11   6  26  1   
 12   7  11  1   
 13   7  27  1   
 14   7  28  1   
 15   8  12  ar  
 16   8  13  1   
 17   9  14  ar  
 18   9  15  1   
 19  10  11  1   
 20  10  16  1   
 21  10  29  1   
 22  11  17  1   
 23  11  30  1   
 24  12  18  ar  
 25  12  31  1   
 26  13  32  1   
 27  13  33  1   
 28  13  34  1   
 29  14  18  ar  
 30  14  35  1   
 31  15  36  1   
 32  15  37  1   
 33  15  38  1   
 34  16  19  1   
 35  16  20  1   
 36  16  21  1   
 37  17  22  1   
 38  17  39  1   
 39  17  40  1   
 40  18  23  1   
 41  19  41  1   
 42  20  22  1   
 43  20  42  1   
 44  20  43  1   
 45  21  24  1   
 46  21  44  1   
 47  21  45  1   
 48  22  46  1   
 49  22  47  1   
 50  23  48  1   
 51  23  49  1   
 52  23  50  1   
 53  24  51  1   
 54  24  52  1   
 55  24  53  1   
@<TRIPOS>SUBSTRUCTURE
  1 ****   6 GROUP 4 **** **** 0

# MOE 2024.06 (io_trps.svl 2023.06)
