@<TRIPOS>MOLECULE
NONAME
50 52 1 0 0 
SMALL
USER_CHARGES


@<TRIPOS>ATOM
  1 O        0.1150     1.1160     0.2610 O.2   1 <1>  -0.5700 
  2 C       -0.0910     2.3030     0.1660 C.2   1 <1>   0.5690 
  3 N       -1.1360     2.9210     0.7970 N.am  1 <1>  -0.6600 
  4 C        0.8400     3.1280    -0.7200 C.3   1 <1>   0.1810 
  5 C       -1.4060     4.3860     0.6120 C.3   1 <1>   0.3640 
  6 C       -2.0540     2.1950     1.7220 C.3   1 <1>   0.0600 
  7 O        0.8780     4.4810    -0.3420 O.3   1 <1>  -0.5600 
  8 C       -2.8580     4.6120     0.1530 C.ar  1 <1>  -0.1440 
  9 C       -0.3910     5.1250    -0.3060 C.3   1 <1>   0.2610 
 10 C       -3.4570     3.9900    -0.9490 C.ar  1 <1>  -0.1440 
 11 C       -3.6150     5.5030     0.9060 C.ar  1 <1>  -0.1500 
 12 C       -0.2160     6.5770     0.1610 C.2   1 <1>   0.5690 
 13 C       -4.7820     4.2700    -1.2560 C.ar  1 <1>  -0.1500 
 14 C       -2.7410     2.9930    -1.8530 C.3   1 <1>  -0.0970 
 15 C       -4.9320     5.7760     0.5900 C.ar  1 <1>  -0.1500 
 16 O       -1.1730     7.3080     0.2510 O.2   1 <1>  -0.5700 
 17 N        1.0280     7.0210     0.4740 N.am  1 <1>  -0.7300 
 18 C       -5.5190     5.1560    -0.4940 C.ar  1 <1>  -0.1500 
 19 C        1.3900     8.4020     0.8110 C.3   1 <1>   0.3200 
 20 C        2.6720     8.7690     0.0880 C.2   1 <1>  -0.3320 
 21 N        3.3680     9.9030     0.3250 N.pl3 1 <1>   0.0480 
 22 C        3.3460     8.1100    -0.8830 C.2   1 <1>   0.0770 
 23 C        4.4220     9.8420    -0.5190 C.2   1 <1>   0.0360 
 24 C        3.0740    10.9930     1.2810 C.3   1 <1>   0.0960 
 25 N        4.4470     8.7830    -1.2590 N.2   1 <1>  -0.5650 
 26 C        2.0750    11.9860     0.6780 C.3   1 <1>  -0.2400 
 27 H        0.5250     3.0640    -1.7440 H     1 <1>   0.0800 
 28 H        1.8390     2.7390    -0.6390 H     1 <1>   0.0800 
 29 H       -1.3010     4.8280     1.5880 H     1 <1>   0.0800 
 30 H       -2.1030     2.7070     2.6670 H     1 <1>   0.0800 
 31 H       -1.7060     1.1910     1.8930 H     1 <1>   0.0800 
 32 H       -3.0410     2.1480     1.2960 H     1 <1>   0.0800 
 33 H       -0.7680     5.1550    -1.3110 H     1 <1>   0.0800 
 34 H       -3.1810     6.0090     1.7510 H     1 <1>   0.1500 
 35 H       -5.2570     3.7970    -2.0960 H     1 <1>   0.1500 
 36 H       -3.3210     2.7870    -2.7340 H     1 <1>   0.0800 
 37 H       -2.5920     2.0640    -1.3330 H     1 <1>   0.0800 
 38 H       -1.7930     3.3760    -2.1740 H     1 <1>   0.0800 
 39 H       -5.4970     6.4720     1.1850 H     1 <1>   0.1500 
 40 H        1.8090     6.3660     0.3770 H     1 <1>   0.3700 
 41 H       -6.5440     5.3640    -0.7460 H     1 <1>   0.1500 
 42 H        0.5980     9.0720     0.5220 H     1 <1>   0.0800 
 43 H        1.5320     8.4720     1.8750 H     1 <1>   0.0800 
 44 H        3.0920     7.1700    -1.3450 H     1 <1>   0.1500 
 45 H        5.1640    10.6190    -0.5600 H     1 <1>   0.1500 
 46 H        2.6800    10.5690     2.1860 H     1 <1>   0.0800 
 47 H        3.9940    11.4990     1.5180 H     1 <1>   0.0800 
 48 H        1.1450    11.4960     0.4500 H     1 <1>   0.0800 
 49 H        2.4760    12.4180    -0.2220 H     1 <1>   0.0800 
 50 H        1.8800    12.7780     1.3790 H     1 <1>   0.0800 
@<TRIPOS>BOND
  1   1   2  2   
  2   2   3  am  
  3   2   4  1   
  4   3   5  1   
  5   3   6  1   
  6   4   7  1   
  7   4  27  1   
  8   4  28  1   
  9   5   8  1   
 10   5   9  1   
 11   5  29  1   
 12   6  30  1   
 13   6  31  1   
 14   6  32  1   
 15   7   9  1   
 16   8  10  ar  
 17   8  11  ar  
 18   9  12  1   
 19   9  33  1   
 20  10  13  ar  
 21  10  14  1   
 22  11  15  ar  
 23  11  34  1   
 24  12  16  2   
 25  12  17  am  
 26  13  18  ar  
 27  13  35  1   
 28  14  36  1   
 29  14  37  1   
 30  14  38  1   
 31  15  18  ar  
 32  15  39  1   
 33  17  19  1   
 34  17  40  1   
 35  18  41  1   
 36  19  20  1   
 37  19  42  1   
 38  19  43  1   
 39  20  21  1   
 40  20  22  2   
 41  21  23  1   
 42  21  24  1   
 43  22  25  1   
 44  22  44  1   
 45  23  25  2   
 46  23  45  1   
 47  24  26  1   
 48  24  46  1   
 49  24  47  1   
 50  26  48  1   
 51  26  49  1   
 52  26  50  1   
@<TRIPOS>SUBSTRUCTURE
  1 ****  12 GROUP 4 **** **** 0

# MOE 2024.06 (io_trps.svl 2023.06)
