@<TRIPOS>MOLECULE
NONAME
41 43 1 0 0 
SMALL
USER_CHARGES


@<TRIPOS>ATOM
  1 O       -0.4650     0.2950     0.6660 O.2   1 <1>  -0.5700 
  2 C       -1.5150     0.9070     0.5840 C.2   1 <1>   0.7150 
  3 N       -2.6830     0.1900     0.4670 N.am  1 <1>  -0.6600 
  4 C       -1.5170     2.3470     0.5890 C.2   1 <1>  -0.2370 
  5 C       -3.9690     0.7480    -0.0270 C.3   1 <1>   0.1400 
  6 C       -2.7010    -1.2930     0.3590 C.3   1 <1>   0.1400 
  7 N       -0.6230     3.1070    -0.1240 N.pl3 1 <1>   0.0480 
  8 C       -2.3420     3.2130     1.2650 C.2   1 <1>  -0.1500 
  9 C       -4.9380    -0.4320     0.0140 C.3   1 <1>   0.2000 
 10 C       -4.0440    -1.6350    -0.2940 C.3   1 <1>  -0.0800 
 11 C       -0.9060     4.4130     0.0980 C.2   1 <1>  -0.3020 
 12 C        0.4710     2.6100    -0.9800 C.3   1 <1>   0.0160 
 13 C       -1.9590     4.5130     0.9490 C.2   1 <1>  -0.1500 
 14 O       -5.4260    -0.5370     1.3090 O.3   1 <1>  -0.6800 
 15 C       -4.6060    -3.0070     0.1200 C.3   1 <1>   0.0210 
 16 C       -3.6310    -4.1160    -0.2230 C.2   1 <1>   0.1080 
 17 N       -3.2320    -4.3540    -1.4350 N.2   1 <1>  -0.7070 
 18 C       -3.0530    -4.9820     0.6990 C.2   1 <1>  -0.1500 
 19 N       -2.3810    -5.3900    -1.3150 N.pl3 1 <1>   0.3000 
 20 C       -2.2550    -5.7880    -0.0320 C.2   1 <1>  -0.3320 
 21 C       -1.3660    -6.9300     0.4240 C.3   1 <1>  -0.0600 
 22 H       -4.3230     1.5620     0.5790 H     1 <1>   0.0800 
 23 H       -3.8390     1.0830    -1.0410 H     1 <1>   0.0800 
 24 H       -1.8790    -1.6520    -0.2390 H     1 <1>   0.0800 
 25 H       -2.6300    -1.7180     1.3450 H     1 <1>   0.0800 
 26 H       -3.1430     2.9570     1.9350 H     1 <1>   0.1500 
 27 H       -5.7690    -0.3280    -0.6620 H     1 <1>   0.0800 
 28 H       -3.8810    -1.6540    -1.3580 H     1 <1>   0.0800 
 29 H       -0.3450     5.2120    -0.3540 H     1 <1>   0.1500 
 30 H        0.9150     3.4290    -1.5150 H     1 <1>   0.0800 
 31 H        0.0800     1.8930    -1.6790 H     1 <1>   0.0800 
 32 H        1.2130     2.1370    -0.3630 H     1 <1>   0.0800 
 33 H       -2.4210     5.4110     1.3240 H     1 <1>   0.1500 
 34 H       -4.6700    -0.4680     1.9280 H     1 <1>   0.4000 
 35 H       -5.5300    -3.1880    -0.3990 H     1 <1>   0.0800 
 36 H       -4.8070    -3.0320     1.1750 H     1 <1>   0.0800 
 37 H       -3.2240    -4.9850     1.7610 H     1 <1>   0.1500 
 38 H       -1.9040    -5.8010    -2.1260 H     1 <1>   0.2700 
 39 H       -1.4370    -7.0510     1.4900 H     1 <1>   0.0800 
 40 H       -0.3400    -6.7270     0.1700 H     1 <1>   0.0800 
 41 H       -1.6700    -7.8480    -0.0460 H     1 <1>   0.0800 
@<TRIPOS>BOND
  1   1   2  2   
  2   2   3  am  
  3   2   4  1   
  4   3   5  1   
  5   3   6  1   
  6   4   7  1   
  7   4   8  2   
  8   5   9  1   
  9   5  22  1   
 10   5  23  1   
 11   6  10  1   
 12   6  24  1   
 13   6  25  1   
 14   7  11  1   
 15   7  12  1   
 16   8  13  1   
 17   8  26  1   
 18   9  10  1   
 19   9  14  1   
 20   9  27  1   
 21  10  15  1   
 22  10  28  1   
 23  11  13  2   
 24  11  29  1   
 25  12  30  1   
 26  12  31  1   
 27  12  32  1   
 28  13  33  1   
 29  14  34  1   
 30  15  16  1   
 31  15  35  1   
 32  15  36  1   
 33  16  17  2   
 34  16  18  1   
 35  17  19  1   
 36  18  20  2   
 37  18  37  1   
 38  19  20  1   
 39  19  38  1   
 40  20  21  1   
 41  21  39  1   
 42  21  40  1   
 43  21  41  1   
@<TRIPOS>SUBSTRUCTURE
  1 ****   6 GROUP 4 **** **** 0

# MOE 2024.06 (io_trps.svl 2023.06)
