@<TRIPOS>MOLECULE
NONAME
44 45 1 0 0 
SMALL
USER_CHARGES


@<TRIPOS>ATOM
  1 O       -2.7740     0.2450    -3.1810 O.2   1 <1>  -0.5700 
  2 C       -2.2310     0.4560    -2.1200 C.2   1 <1>   0.5690 
  3 N       -2.0800    -0.5510    -1.1880 N.am  1 <1>  -0.6600 
  4 C       -1.7550     1.8940    -1.8790 C.3   1 <1>   0.1810 
  5 C       -2.3480    -1.9610    -1.6010 C.3   1 <1>   0.3200 
  6 C       -1.2940    -0.4050     0.0840 C.3   1 <1>   0.1400 
  7 O       -0.3880     1.9720    -1.5360 O.3   1 <1>  -0.5600 
  8 C       -3.6700    -2.4680    -1.0540 C.2   1 <1>  -0.3320 
  9 C       -1.9620     0.5060     1.1280 C.3   1 <1>   0.1200 
 10 C        0.1160     3.2730    -1.4150 C.3   1 <1>   0.1200 
 11 N       -4.0990    -2.3110     0.2100 N.pl3 1 <1>   0.0330 
 12 C       -4.6390    -3.1630    -1.6910 C.2   1 <1>   0.0770 
 13 O       -3.3080     0.1940     1.2450 O.3   1 <1>  -0.6800 
 14 C       -0.0130     3.8070     0.0230 C.3   1 <1>   0.2000 
 15 C       -5.3000    -2.9240     0.2630 C.2   1 <1>   0.0060 
 16 N       -5.6570    -3.4560    -0.8590 N.2   1 <1>  -0.5650 
 17 O       -1.3460     3.9630     0.3920 O.3   1 <1>  -0.5600 
 18 C        0.5860     5.1920     0.2150 C.3   1 <1>  -0.1600 
 19 C       -6.1390    -2.9600     1.5210 C.3   1 <1>  -0.0600 
 20 C       -1.4630     4.8840     1.4300 C.3   1 <1>   0.1200 
 21 C       -0.1940     5.7340     1.4000 C.3   1 <1>  -0.1600 
 22 H       -2.3460     2.3380    -1.1020 H     1 <1>   0.0800 
 23 H       -1.9040     2.4550    -2.7840 H     1 <1>   0.0800 
 24 H       -1.5530    -2.5960    -1.2510 H     1 <1>   0.0800 
 25 H       -2.3600    -2.0430    -2.6750 H     1 <1>   0.0800 
 26 H       -0.3120    -0.0280    -0.1410 H     1 <1>   0.0800 
 27 H       -1.1560    -1.3720     0.5350 H     1 <1>   0.0800 
 28 H       -1.8770     1.5400     0.8520 H     1 <1>   0.0800 
 29 H       -1.5010     0.3750     2.0910 H     1 <1>   0.0800 
 30 H       -0.3760     3.9270    -2.1150 H     1 <1>   0.0800 
 31 H        1.1580     3.2270    -1.6750 H     1 <1>   0.0800 
 32 H       -3.6480    -1.7660     0.9580 H     1 <1>   0.2700 
 33 H       -4.6580    -3.4750    -2.7220 H     1 <1>   0.1500 
 34 H       -3.7230     0.2720     0.3560 H     1 <1>   0.4000 
 35 H        0.4400     3.1150     0.7130 H     1 <1>   0.0800 
 36 H        0.3980     5.7950    -0.6570 H     1 <1>   0.0800 
 37 H        1.6450     5.1510     0.3990 H     1 <1>   0.0800 
 38 H       -6.3730    -1.9600     1.8340 H     1 <1>   0.0800 
 39 H       -5.6050    -3.4640     2.3050 H     1 <1>   0.0800 
 40 H       -7.0560    -3.4880     1.3300 H     1 <1>   0.0800 
 41 H       -1.5530     4.3430     2.3560 H     1 <1>   0.0800 
 42 H       -2.3470     5.4740     1.2600 H     1 <1>   0.0800 
 43 H       -0.4240     6.7790     1.2860 H     1 <1>   0.0800 
 44 H        0.3520     5.5940     2.3160 H     1 <1>   0.0800 
@<TRIPOS>BOND
  1   1   2  2   
  2   2   3  am  
  3   2   4  1   
  4   3   5  1   
  5   3   6  1   
  6   4   7  1   
  7   4  22  1   
  8   4  23  1   
  9   5   8  1   
 10   5  24  1   
 11   5  25  1   
 12   6   9  1   
 13   6  26  1   
 14   6  27  1   
 15   7  10  1   
 16   8  11  1   
 17   8  12  2   
 18   9  13  1   
 19   9  28  1   
 20   9  29  1   
 21  10  14  1   
 22  10  30  1   
 23  10  31  1   
 24  11  15  1   
 25  11  32  1   
 26  12  16  1   
 27  12  33  1   
 28  13  34  1   
 29  14  17  1   
 30  14  18  1   
 31  14  35  1   
 32  15  16  2   
 33  15  19  1   
 34  17  20  1   
 35  18  21  1   
 36  18  36  1   
 37  18  37  1   
 38  19  38  1   
 39  19  39  1   
 40  19  40  1   
 41  20  21  1   
 42  20  41  1   
 43  20  42  1   
 44  21  43  1   
 45  21  44  1   
@<TRIPOS>SUBSTRUCTURE
  1 ****   3 GROUP 4 **** **** 0

# MOE 2024.06 (io_trps.svl 2023.06)
