@<TRIPOS>MOLECULE
NONAME
48 50 1 0 0 
SMALL
USER_CHARGES


@<TRIPOS>ATOM
  1 F       -0.0070    -1.3920    -1.7940 F     1 <1>  -0.3400 
  2 C       -0.1030    -1.8630    -0.5600 C.3   1 <1>   1.1640 
  3 F        0.9340    -1.3780     0.1120 F     1 <1>  -0.3400 
  4 F       -1.1860    -1.3200    -0.0250 F     1 <1>  -0.3400 
  5 C       -0.1540    -3.4040    -0.5310 C.ar  1 <1>  -0.1440 
  6 C        0.7860    -4.1740     0.1250 C.ar  1 <1>  -0.1500 
  7 C       -1.1950    -4.0640    -1.1960 C.ar  1 <1>  -0.1500 
  8 C        0.7150    -5.5750     0.1350 C.ar  1 <1>   0.3610 
  9 C       -1.2800    -5.4330    -1.1980 C.ar  1 <1>  -0.1500 
 10 N        1.6640    -6.3220     0.7980 N.ar  1 <1>  -0.1790 
 11 C       -0.3320    -6.2360    -0.5360 C.ar  1 <1>   0.0000 
 12 C        1.6280    -7.6650     0.8370 C.ar  1 <1>   0.2180 
 13 C       -0.3800    -7.6660    -0.5150 C.ar  1 <1>   0.1000 
 14 C        0.6200    -8.3360     0.1940 C.ar  1 <1>  -0.1500 
 15 C        2.7170    -8.4010     1.6000 C.3   1 <1>  -0.0970 
 16 N       -1.3610    -8.3350    -1.1620 N.pl3 1 <1>  -0.8690 
 17 C       -1.5240    -9.8080    -1.3370 C.3   1 <1>   0.2090 
 18 C       -2.4510   -10.3690    -0.2530 C.3   1 <1>   0.0200 
 19 C       -2.5180   -11.8890    -0.2990 C.2   1 <1>   0.0060 
 20 N       -1.6650   -12.6360    -0.9140 N.2   1 <1>  -0.3380 
 21 N       -3.4610   -12.6230     0.3030 N.pl3 1 <1>   0.0480 
 22 N       -2.0380   -13.9010    -0.7250 N.2   1 <1>  -0.3380 
 23 C       -3.1010   -13.8710    -0.0010 C.2   1 <1>   0.0360 
 24 C       -4.6320   -12.2030     1.0970 C.3   1 <1>   0.0960 
 25 C       -5.8540   -12.0780     0.1910 C.3   1 <1>   0.1200 
 26 O       -6.9100   -11.6250     0.9720 O.3   1 <1>  -0.5600 
 27 C       -8.1080   -11.4820     0.2780 C.3   1 <1>   0.0400 
 28 H        1.5980    -3.6940     0.6450 H     1 <1>   0.1500 
 29 H       -1.9420    -3.4830    -1.7170 H     1 <1>   0.1500 
 30 H       -2.0950    -5.8990    -1.7230 H     1 <1>   0.1500 
 31 H        2.4160    -5.8210     1.2750 H     1 <1>   0.4570 
 32 H        0.5990    -9.4090     0.2370 H     1 <1>   0.1500 
 33 H        2.7080    -8.1170     2.6380 H     1 <1>   0.0800 
 34 H        3.6830    -8.1810     1.1830 H     1 <1>   0.0800 
 35 H        2.5660    -9.4650     1.5450 H     1 <1>   0.0800 
 36 H       -2.0870    -7.8110    -1.6640 H     1 <1>   0.4000 
 37 H       -0.5660   -10.2960    -1.2950 H     1 <1>   0.0800 
 38 H       -1.9410   -10.0120    -2.3090 H     1 <1>   0.0800 
 39 H       -3.4340    -9.9590    -0.3930 H     1 <1>   0.0800 
 40 H       -2.0840   -10.0740     0.7130 H     1 <1>   0.0800 
 41 H       -3.6430   -14.7400     0.3240 H     1 <1>   0.1500 
 42 H       -4.4230   -11.2580     1.5630 H     1 <1>   0.0800 
 43 H       -4.8180   -12.9380     1.8590 H     1 <1>   0.0800 
 44 H       -6.1190   -13.0360    -0.2250 H     1 <1>   0.0800 
 45 H       -5.6780   -11.3630    -0.5940 H     1 <1>   0.0800 
 46 H       -8.8540   -11.1270     0.9690 H     1 <1>   0.0800 
 47 H       -8.4080   -12.4360    -0.1180 H     1 <1>   0.0800 
 48 H       -7.9800   -10.7640    -0.5140 H     1 <1>   0.0800 
@<TRIPOS>BOND
  1   1   2  1   
  2   2   3  1   
  3   2   4  1   
  4   2   5  1   
  5   5   6  ar  
  6   5   7  ar  
  7   6   8  ar  
  8   6  28  1   
  9   7   9  ar  
 10   7  29  1   
 11   8  10  ar  
 12   8  11  ar  
 13   9  11  ar  
 14   9  30  1   
 15  10  12  ar  
 16  10  31  1   
 17  11  13  ar  
 18  12  14  ar  
 19  12  15  1   
 20  13  14  ar  
 21  13  16  1   
 22  14  32  1   
 23  15  33  1   
 24  15  34  1   
 25  15  35  1   
 26  16  17  1   
 27  16  36  1   
 28  17  18  1   
 29  17  37  1   
 30  17  38  1   
 31  18  19  1   
 32  18  39  1   
 33  18  40  1   
 34  19  20  2   
 35  19  21  1   
 36  20  22  1   
 37  21  23  1   
 38  21  24  1   
 39  22  23  2   
 40  23  41  1   
 41  24  25  1   
 42  24  42  1   
 43  24  43  1   
 44  25  26  1   
 45  25  44  1   
 46  25  45  1   
 47  26  27  1   
 48  27  46  1   
 49  27  47  1   
 50  27  48  1   
@<TRIPOS>SUBSTRUCTURE
  1 ****  16 GROUP 4 **** **** 0

# MOE 2024.06 (io_trps.svl 2023.06)
