@<TRIPOS>MOLECULE
NONAME
59 61 1 0 0 
SMALL
USER_CHARGES


@<TRIPOS>ATOM
  1 O       -2.8890     0.5170     1.2770 O.2   1 <1>  -0.5700 
  2 C       -2.8520     1.1510     0.2390 C.2   1 <1>   0.5440 
  3 N       -3.3670     0.5260    -0.8650 N.am  1 <1>  -0.6600 
  4 C       -2.4190     2.5350     0.2130 C.ar  1 <1>   0.0860 
  5 C       -2.8680    -0.8310    -1.2470 C.3   1 <1>   0.3210 
  6 C       -4.5910     1.0460    -1.5550 C.3   1 <1>   0.1400 
  7 C       -2.3660     3.2950     1.3830 C.ar  1 <1>  -0.1500 
  8 C       -2.0540     3.1760    -0.9740 C.ar  1 <1>  -0.1500 
  9 C       -3.8000    -1.9640    -0.8180 C.2   1 <1>   0.0460 
 10 C       -5.8970     0.5590    -0.8880 C.3   1 <1>   0.3430 
 11 C       -2.0050     4.6270     1.3640 C.ar  1 <1>  -0.1500 
 12 C       -1.6910     4.5080    -0.9930 C.ar  1 <1>  -0.1500 
 13 N       -4.8890    -2.2920    -1.5490 N.2   1 <1>  -0.5650 
 14 C       -3.6700    -2.7990     0.2410 C.2   1 <1>  -0.3320 
 15 N       -5.7590     0.4480     0.6000 N.4   1 <1>  -0.9590 
 16 C       -1.6680     5.2640     0.1740 C.ar  1 <1>   0.1000 
 17 C       -5.3670    -3.3330    -0.9490 C.2   1 <1>   0.0360 
 18 N       -4.6740    -3.6900     0.1520 N.pl3 1 <1>   0.0330 
 19 C       -2.6300    -2.8480     1.3500 C.3   1 <1>  -0.0600 
 20 C       -6.6250    -0.6310     1.1440 C.3   1 <1>   0.2630 
 21 C       -5.9460     1.7450     1.3130 C.3   1 <1>   0.2630 
 22 N       -1.3180     6.6070     0.1620 N.pl3 1 <1>  -0.8380 
 23 C       -0.4150     7.1640     1.2130 C.3   1 <1>   0.2090 
 24 C       -1.7000     7.4990    -0.9720 C.3   1 <1>   0.2090 
 25 C        0.4570     8.2800     0.6300 C.3   1 <1>  -0.1600 
 26 C       -1.7390     8.9560    -0.5030 C.3   1 <1>  -0.1600 
 27 C       -0.3790     9.4320     0.0420 C.3   1 <1>  -0.1600 
 28 H       -1.9040    -0.9880    -0.7960 H     1 <1>   0.0800 
 29 H       -2.7340    -0.8760    -2.3130 H     1 <1>   0.0800 
 30 H       -4.5850     0.7410    -2.5870 H     1 <1>   0.0800 
 31 H       -4.5800     2.1220    -1.5370 H     1 <1>   0.0800 
 32 H       -2.6110     2.8320     2.3230 H     1 <1>   0.1500 
 33 H       -2.0470     2.6230    -1.8960 H     1 <1>   0.1500 
 34 H       -6.1360    -0.4070    -1.2940 H     1 <1>   0.0800 
 35 H       -6.7090     1.2180    -1.1440 H     1 <1>   0.0800 
 36 H       -1.9870     5.1900     2.2780 H     1 <1>   0.1500 
 37 H       -1.4080     4.9710    -1.9200 H     1 <1>   0.1500 
 38 H       -4.7670     0.1440     0.7470 H     1 <1>   0.4500 
 39 H       -6.2310    -3.8840    -1.2820 H     1 <1>   0.1500 
 40 H       -4.8520    -4.4930     0.7630 H     1 <1>   0.2700 
 41 H       -1.9250    -2.0420     1.2530 H     1 <1>   0.0800 
 42 H       -2.0900    -3.7770     1.3130 H     1 <1>   0.0800 
 43 H       -3.1050    -2.7600     2.3110 H     1 <1>   0.0800 
 44 H       -7.6640    -0.3890     0.9990 H     1 <1>   0.0800 
 45 H       -6.4380    -0.7610     2.1980 H     1 <1>   0.0800 
 46 H       -6.4090    -1.5600     0.6410 H     1 <1>   0.0800 
 47 H       -6.9560     2.0990     1.1910 H     1 <1>   0.0800 
 48 H       -5.2660     2.4850     0.9240 H     1 <1>   0.0800 
 49 H       -5.7440     1.6190     2.3640 H     1 <1>   0.0800 
 50 H        0.2120     6.3790     1.6000 H     1 <1>   0.0800 
 51 H       -1.0130     7.5540     2.0180 H     1 <1>   0.0800 
 52 H       -2.6680     7.2090    -1.3430 H     1 <1>   0.0800 
 53 H       -0.9800     7.3920    -1.7650 H     1 <1>   0.0800 
 54 H        1.0710     7.8500    -0.1420 H     1 <1>   0.0800 
 55 H        1.1140     8.6610     1.3910 H     1 <1>   0.0800 
 56 H       -2.4840     9.0340     0.2690 H     1 <1>   0.0800 
 57 H       -2.0450     9.5900    -1.3150 H     1 <1>   0.0800 
 58 H        0.1850     9.8980    -0.7470 H     1 <1>   0.0800 
 59 H       -0.5550    10.1760     0.8000 H     1 <1>   0.0800 
@<TRIPOS>BOND
  1   1   2  2   
  2   2   3  am  
  3   2   4  1   
  4   3   5  1   
  5   3   6  1   
  6   4   7  ar  
  7   4   8  ar  
  8   5   9  1   
  9   5  28  1   
 10   5  29  1   
 11   6  10  1   
 12   6  30  1   
 13   6  31  1   
 14   7  11  ar  
 15   7  32  1   
 16   8  12  ar  
 17   8  33  1   
 18   9  13  1   
 19   9  14  2   
 20  10  15  1   
 21  10  34  1   
 22  10  35  1   
 23  11  16  ar  
 24  11  36  1   
 25  12  16  ar  
 26  12  37  1   
 27  13  17  2   
 28  14  18  1   
 29  14  19  1   
 30  15  20  1   
 31  15  21  1   
 32  15  38  1   
 33  16  22  1   
 34  17  18  1   
 35  17  39  1   
 36  18  40  1   
 37  19  41  1   
 38  19  42  1   
 39  19  43  1   
 40  20  44  1   
 41  20  45  1   
 42  20  46  1   
 43  21  47  1   
 44  21  48  1   
 45  21  49  1   
 46  22  23  1   
 47  22  24  1   
 48  23  25  1   
 49  23  50  1   
 50  23  51  1   
 51  24  26  1   
 52  24  52  1   
 53  24  53  1   
 54  25  27  1   
 55  25  54  1   
 56  25  55  1   
 57  26  27  1   
 58  26  56  1   
 59  26  57  1   
 60  27  58  1   
 61  27  59  1   
@<TRIPOS>SUBSTRUCTURE
  1 ****   4 GROUP 4 **** **** 0

# MOE 2024.06 (io_trps.svl 2023.06)
