@<TRIPOS>MOLECULE
Untitled Document
61 63 1 0 0 
SMALL
USER_CHARGES


@<TRIPOS>ATOM
  1 O        0.5480     0.3960    -0.4270 O.3   1 <1>  -0.6800 
  2 C        0.2900     1.4610     0.4360 C.3   1 <1>   0.2000 
  3 C        1.1490     2.6970     0.0260 C.3   1 <1>   0.2890 
  4 C       -1.2250     1.6610     0.4640 C.3   1 <1>  -0.2400 
  5 N        2.5150     2.1980    -0.2660 N.pl3 1 <1>  -0.8690 
  6 C        0.6610     3.4500    -1.2300 C.3   1 <1>  -0.1600 
  7 C        3.6710     2.8380    -0.0440 C.ar  1 <1>   0.7710 
  8 C       -0.2920     4.6130    -0.9100 C.3   1 <1>  -0.2400 
  9 N        3.6370     4.0590     0.4810 N.ar  1 <1>  -0.6200 
 10 N        4.8160     2.2090    -0.3780 N.ar  1 <1>  -0.1260 
 11 C        4.7880     4.6890     0.6700 C.ar  1 <1>   0.4100 
 12 C        6.0210     2.8300    -0.1900 C.ar  1 <1>   0.1560 
 13 N        4.7550     5.9370     1.1850 N.pl3 1 <1>  -0.8690 
 14 C        6.0300     4.0870     0.3380 C.ar  1 <1>   0.2270 
 15 N        7.3010     2.4740    -0.4220 N.pl3 1 <1>   0.0480 
 16 C        3.5700     6.7580     1.5180 C.3   1 <1>   0.3530 
 17 N        7.3170     4.5290     0.4400 N.2   1 <1>  -0.5650 
 18 C        8.0270     3.5550    -0.0150 C.2   1 <1>   0.0360 
 19 C        7.8770     1.2240    -0.9860 C.3   1 <1>   0.1760 
 20 C        3.7580     8.1490     0.9390 C.ar  1 <1>  -0.1430 
 21 C        7.4020     1.0100    -2.4280 C.3   1 <1>  -0.2400 
 22 C        7.5340     0.0200    -0.1010 C.3   1 <1>  -0.2400 
 23 C        3.4680     8.4460    -0.3830 C.ar  1 <1>  -0.1430 
 24 C        4.2350     9.1600     1.7600 C.ar  1 <1>   0.1600 
 25 C        3.6800     9.7520    -0.7770 C.ar  1 <1>  -0.1500 
 26 C        2.9450     7.4150    -1.3720 C.3   1 <1>  -0.0970 
 27 N        4.4390    10.4130     1.3910 N.ar  1 <1>  -0.6200 
 28 C        4.1590    10.6840     0.1300 C.ar  1 <1>   0.1660 
 29 C        4.3940    12.1150    -0.3030 C.3   1 <1>  -0.0960 
 30 H       -0.1110    -0.3130    -0.2800 H     1 <1>   0.4000 
 31 H        0.6060     1.1520     1.4190 H     1 <1>   0.0800 
 32 H        1.1840     3.3850     0.8540 H     1 <1>   0.0800 
 33 H       -1.6080     1.8700    -0.5190 H     1 <1>   0.0800 
 34 H       -1.4730     2.4820     1.1130 H     1 <1>   0.0800 
 35 H       -1.7110     0.7820     0.8500 H     1 <1>   0.0800 
 36 H        2.4140     1.2520    -0.6590 H     1 <1>   0.4000 
 37 H        1.5060     3.8780    -1.7390 H     1 <1>   0.0800 
 38 H        0.1870     2.7650    -1.9110 H     1 <1>   0.0800 
 39 H        0.1810     5.3150    -0.2460 H     1 <1>   0.0800 
 40 H       -1.2030     4.2690    -0.4560 H     1 <1>   0.0800 
 41 H       -0.5500     5.1310    -1.8180 H     1 <1>   0.0800 
 42 H        4.7330     1.2790    -0.7740 H     1 <1>   0.4570 
 43 H        5.6430     6.4500     1.2600 H     1 <1>   0.4000 
 44 H        2.6730     6.3120     1.1260 H     1 <1>   0.0800 
 45 H        3.4700     6.8120     2.5890 H     1 <1>   0.0800 
 46 H        9.1040     3.5730    -0.0780 H     1 <1>   0.1500 
 47 H        8.9490     1.3360    -1.0000 H     1 <1>   0.0800 
 48 H        6.3430     0.8360    -2.4830 H     1 <1>   0.0800 
 49 H        7.9000     0.1530    -2.8480 H     1 <1>   0.0800 
 50 H        7.6560     1.8620    -3.0350 H     1 <1>   0.0800 
 51 H        6.4800    -0.1850    -0.0880 H     1 <1>   0.0800 
 52 H        7.8790     0.1870     0.9060 H     1 <1>   0.0800 
 53 H        8.0370    -0.8560    -0.4750 H     1 <1>   0.0800 
 54 H        4.4660     8.9290     2.7860 H     1 <1>   0.1500 
 55 H        3.4760    10.0490    -1.7890 H     1 <1>   0.1500 
 56 H        2.8770     7.8320    -2.3600 H     1 <1>   0.0800 
 57 H        1.9670     7.0820    -1.0760 H     1 <1>   0.0800 
 58 H        3.6070     6.5690    -1.4080 H     1 <1>   0.0800 
 59 H        4.1460    12.2550    -1.3380 H     1 <1>   0.0800 
 60 H        5.4280    12.3660    -0.1550 H     1 <1>   0.0800 
 61 H        3.7890    12.7720     0.2940 H     1 <1>   0.0800 
@<TRIPOS>BOND
  1   1   2  1   
  2   1  30  1   
  3   2   3  1   
  4   2   4  1   
  5   2  31  1   
  6   3   5  1   
  7   3   6  1   
  8   3  32  1   
  9   4  33  1   
 10   4  34  1   
 11   4  35  1   
 12   5   7  1   
 13   5  36  1   
 14   6   8  1   
 15   6  37  1   
 16   6  38  1   
 17   7   9  ar  
 18   7  10  ar  
 19   8  39  1   
 20   8  40  1   
 21   8  41  1   
 22   9  11  ar  
 23  10  12  ar  
 24  10  42  1   
 25  11  13  1   
 26  11  14  ar  
 27  12  14  ar  
 28  12  15  1   
 29  13  16  1   
 30  13  43  1   
 31  14  17  1   
 32  15  18  1   
 33  15  19  1   
 34  16  20  1   
 35  16  44  1   
 36  16  45  1   
 37  17  18  2   
 38  18  46  1   
 39  19  21  1   
 40  19  22  1   
 41  19  47  1   
 42  20  23  ar  
 43  20  24  ar  
 44  21  48  1   
 45  21  49  1   
 46  21  50  1   
 47  22  51  1   
 48  22  52  1   
 49  22  53  1   
 50  23  25  ar  
 51  23  26  1   
 52  24  27  ar  
 53  24  54  1   
 54  25  28  ar  
 55  25  55  1   
 56  26  56  1   
 57  26  57  1   
 58  26  58  1   
 59  27  28  ar  
 60  28  29  1   
 61  29  59  1   
 62  29  60  1   
 63  29  61  1   
@<TRIPOS>SUBSTRUCTURE
  1 ****   9 GROUP 4 **** **** 0

# MOE 2024.06 (io_trps.svl 2023.06)
