@<TRIPOS>MOLECULE
NONAME
50 53 1 0 0 
SMALL
USER_CHARGES


@<TRIPOS>ATOM
  1 F       -1.2290     1.3260    -2.2090 F     1 <1>  -0.1900 
  2 C       -1.9520     1.3160    -1.1150 C.ar  1 <1>   0.1900 
  3 C       -1.4400     1.8920     0.0390 C.ar  1 <1>   0.0830 
  4 C       -3.2030     0.7330    -1.1500 C.ar  1 <1>  -0.1500 
  5 O       -0.2180     2.4580     0.0560 O.3   1 <1>  -0.5330 
  6 C       -2.2100     1.8790     1.1890 C.ar  1 <1>  -0.1500 
  7 C       -3.9750     0.7240     0.0060 C.ar  1 <1>  -0.1440 
  8 C       -3.4690     1.2960     1.1690 C.ar  1 <1>  -0.1500 
  9 C       -5.3670     0.0950    -0.0130 C.3   1 <1>   0.0440 
 10 C       -5.3970    -1.4170    -0.2380 C.2   1 <1>   0.5690 
 11 O       -4.3670    -2.0410    -0.1320 O.2   1 <1>  -0.5700 
 12 N       -6.5780    -2.0460    -0.5520 N.am  1 <1>  -0.6600 
 13 C       -7.9370    -1.4160    -0.5780 C.3   1 <1>   0.1400 
 14 C       -6.6180    -3.5110    -0.8610 C.3   1 <1>   0.1400 
 15 C       -8.9270    -2.1950     0.3110 C.3   1 <1>   0.1900 
 16 C       -7.6460    -4.2380     0.0200 C.3   1 <1>   0.1100 
 17 N       -8.9870    -3.6210    -0.0900 N.3   1 <1>  -0.8100 
 18 C      -10.3290    -1.5570     0.2420 C.3   1 <1>   0.1200 
 19 C       -9.9920    -4.3370     0.7330 C.3   1 <1>   0.3330 
 20 O      -11.2250    -2.2590     1.0530 O.3   1 <1>  -0.5600 
 21 C      -10.1740    -5.7760     0.2510 C.ar  1 <1>  -0.1440 
 22 C      -11.3530    -3.6100     0.6920 C.3   1 <1>   0.1200 
 23 C      -10.3420    -6.0600    -1.0970 C.ar  1 <1>  -0.1500 
 24 C      -10.1780    -6.8200     1.1650 C.ar  1 <1>  -0.1500 
 25 C      -10.5140    -7.3650    -1.5260 C.ar  1 <1>  -0.1500 
 26 C      -10.3490    -8.1260     0.7380 C.ar  1 <1>  -0.1500 
 27 C      -10.5170    -8.3990    -0.6070 C.ar  1 <1>  -0.1500 
 28 H       -3.5600     0.2900    -2.0620 H     1 <1>   0.1500 
 29 H        0.2230     2.3780    -0.8120 H     1 <1>   0.4500 
 30 H       -1.8210     2.3200     2.0890 H     1 <1>   0.1500 
 31 H       -4.0520     1.2900     2.0730 H     1 <1>   0.1500 
 32 H       -5.9250     0.5670    -0.7990 H     1 <1>   0.0800 
 33 H       -5.8650     0.2990     0.9160 H     1 <1>   0.0800 
 34 H       -7.8960    -0.3990    -0.2380 H     1 <1>   0.0800 
 35 H       -8.3000    -1.4160    -1.5910 H     1 <1>   0.0800 
 36 H       -6.8850    -3.6450    -1.8940 H     1 <1>   0.0800 
 37 H       -5.6510    -3.9600    -0.7130 H     1 <1>   0.0800 
 38 H       -8.5840    -2.1240     1.3290 H     1 <1>   0.0800 
 39 H       -7.3110    -4.2180     1.0430 H     1 <1>   0.0800 
 40 H       -7.6900    -5.2670    -0.2940 H     1 <1>   0.0800 
 41 H      -10.7010    -1.5630    -0.7680 H     1 <1>   0.0800 
 42 H      -10.2980    -0.5420     0.5980 H     1 <1>   0.0800 
 43 H       -9.6580    -4.3520     1.7560 H     1 <1>   0.0800 
 44 H      -12.0360    -4.0720     1.3810 H     1 <1>   0.0800 
 45 H      -11.7740    -3.6620    -0.2960 H     1 <1>   0.0800 
 46 H      -10.3340    -5.2580    -1.8160 H     1 <1>   0.1500 
 47 H      -10.0490    -6.6240     2.2150 H     1 <1>   0.1500 
 48 H      -10.6430    -7.5730    -2.5730 H     1 <1>   0.1500 
 49 H      -10.3510    -8.9300     1.4530 H     1 <1>   0.1500 
 50 H      -10.6500    -9.4140    -0.9390 H     1 <1>   0.1500 
@<TRIPOS>BOND
  1   1   2  1   
  2   2   3  ar  
  3   2   4  ar  
  4   3   5  1   
  5   3   6  ar  
  6   4   7  ar  
  7   4  28  1   
  8   5  29  1   
  9   6   8  ar  
 10   6  30  1   
 11   7   8  ar  
 12   7   9  1   
 13   8  31  1   
 14   9  10  1   
 15   9  32  1   
 16   9  33  1   
 17  10  11  2   
 18  10  12  am  
 19  12  13  1   
 20  12  14  1   
 21  13  15  1   
 22  13  34  1   
 23  13  35  1   
 24  14  16  1   
 25  14  36  1   
 26  14  37  1   
 27  15  17  1   
 28  15  18  1   
 29  15  38  1   
 30  16  17  1   
 31  16  39  1   
 32  16  40  1   
 33  17  19  1   
 34  18  20  1   
 35  18  41  1   
 36  18  42  1   
 37  19  21  1   
 38  19  22  1   
 39  19  43  1   
 40  20  22  1   
 41  21  23  ar  
 42  21  24  ar  
 43  22  44  1   
 44  22  45  1   
 45  23  25  ar  
 46  23  46  1   
 47  24  26  ar  
 48  24  47  1   
 49  25  27  ar  
 50  25  48  1   
 51  26  27  ar  
 52  26  49  1   
 53  27  50  1   
@<TRIPOS>SUBSTRUCTURE
  1 ****  12 GROUP 4 **** **** 0

# MOE 2024.06 (io_trps.svl 2023.06)
