@<TRIPOS>MOLECULE
NONAME
51 54 1 0 0 
SMALL
USER_CHARGES


@<TRIPOS>ATOM
  1 S        0.5980     1.1050     1.6300 S.3   1 <1>  -0.0800 
  2 C       -0.6360     1.6290     0.4950 C.2   1 <1>  -0.1400 
  3 C       -0.4680    -0.1440     2.2610 C.2   1 <1>  -0.1100 
  4 C       -1.7490     0.8960     0.6330 C.2   1 <1>  -0.1810 
  5 C       -0.4190     2.7720    -0.4920 C.3   1 <1>   0.4600 
  6 C       -1.6600    -0.1220     1.6340 C.2   1 <1>  -0.1500 
  7 C       -2.9480     1.1910    -0.2380 C.3   1 <1>   0.0210 
  8 O       -1.5380     2.8380    -1.3570 O.3   1 <1>  -0.5600 
  9 C       -0.2660     4.1180     0.2300 C.3   1 <1>  -0.1600 
 10 C        0.7980     2.5020    -1.3820 C.3   1 <1>  -0.1600 
 11 C       -2.8170     2.6170    -0.8080 C.3   1 <1>   0.1200 
 12 C       -0.0040     5.2590    -0.7550 C.3   1 <1>   0.1400 
 13 C        1.0540     3.6570    -2.3510 C.3   1 <1>   0.1400 
 14 N        1.1900     4.9260    -1.5810 N.am  1 <1>  -0.6600 
 15 C        2.3780     5.6280    -1.5350 C.2   1 <1>   0.5440 
 16 O        3.3810     5.1320    -2.0140 O.2   1 <1>  -0.5700 
 17 C        2.4640     6.9410    -0.9290 C.ar  1 <1>   0.0860 
 18 C        3.2950     7.1770     0.1620 C.ar  1 <1>  -0.1500 
 19 C        1.7210     8.0140    -1.4150 C.ar  1 <1>  -0.1500 
 20 C        3.3830     8.4190     0.7630 C.ar  1 <1>   0.0820 
 21 C        1.7870     9.2630    -0.8270 C.ar  1 <1>  -0.1500 
 22 O        4.2400     8.4910     1.8190 O.3   1 <1>  -0.3630 
 23 C        2.6090     9.4860     0.2760 C.ar  1 <1>   0.0820 
 24 C        4.9850     9.6640     2.0640 C.3   1 <1>   0.3200 
 25 O        2.6610    10.6990     0.8910 O.3   1 <1>  -0.3630 
 26 C        6.1910     9.3020     2.8640 C.1   1 <1>  -0.2000 
 27 C        1.8510    11.7860     0.5000 C.3   1 <1>   0.0400 
 28 C        7.1530     9.0150     3.5020 C.1   1 <1>  -0.1770 
 29 H       -0.0820    -0.7710     3.0450 H     1 <1>   0.1500 
 30 H       -2.4850    -0.7830     1.8330 H     1 <1>   0.1500 
 31 H       -3.8520     1.1190     0.3390 H     1 <1>   0.0800 
 32 H       -2.9980     0.4780    -1.0420 H     1 <1>   0.0800 
 33 H        0.5640     4.0590     0.9100 H     1 <1>   0.0800 
 34 H       -1.1400     4.3260     0.8150 H     1 <1>   0.0800 
 35 H        0.6440     1.5900    -1.9290 H     1 <1>   0.0800 
 36 H        1.6740     2.3730    -0.7730 H     1 <1>   0.0800 
 37 H       -2.9870     3.3450    -0.0350 H     1 <1>   0.0800 
 38 H       -3.5400     2.7710    -1.5900 H     1 <1>   0.0800 
 39 H        0.1440     6.1710    -0.2070 H     1 <1>   0.0800 
 40 H       -0.8540     5.3880    -1.4040 H     1 <1>   0.0800 
 41 H        0.2310     3.7490    -3.0390 H     1 <1>   0.0800 
 42 H        1.9440     3.4590    -2.9250 H     1 <1>   0.0800 
 43 H        3.8910     6.3670     0.5440 H     1 <1>   0.1500 
 44 H        1.0860     7.8560    -2.2700 H     1 <1>   0.1500 
 45 H        1.1890    10.0500    -1.2450 H     1 <1>   0.1500 
 46 H        4.3680    10.3500     2.6150 H     1 <1>   0.0800 
 47 H        5.2760    10.0930     1.1220 H     1 <1>   0.0800 
 48 H        2.0580    12.6110     1.1580 H     1 <1>   0.0800 
 49 H        0.8170    11.5020     0.5870 H     1 <1>   0.0800 
 50 H        2.0940    12.0580    -0.5120 H     1 <1>   0.0800 
 51 H        8.0210     8.7460     4.0790 H     1 <1>   0.1770 
@<TRIPOS>BOND
  1   1   2  1   
  2   1   3  1   
  3   2   4  2   
  4   2   5  1   
  5   3   6  2   
  6   3  29  1   
  7   4   6  1   
  8   4   7  1   
  9   5   8  1   
 10   5   9  1   
 11   5  10  1   
 12   6  30  1   
 13   7  11  1   
 14   7  31  1   
 15   7  32  1   
 16   8  11  1   
 17   9  12  1   
 18   9  33  1   
 19   9  34  1   
 20  10  13  1   
 21  10  35  1   
 22  10  36  1   
 23  11  37  1   
 24  11  38  1   
 25  12  14  1   
 26  12  39  1   
 27  12  40  1   
 28  13  14  1   
 29  13  41  1   
 30  13  42  1   
 31  14  15  am  
 32  15  16  2   
 33  15  17  1   
 34  17  18  ar  
 35  17  19  ar  
 36  18  20  ar  
 37  18  43  1   
 38  19  21  ar  
 39  19  44  1   
 40  20  22  1   
 41  20  23  ar  
 42  21  23  ar  
 43  21  45  1   
 44  22  24  1   
 45  23  25  1   
 46  24  26  1   
 47  24  46  1   
 48  24  47  1   
 49  25  27  1   
 50  26  28  3   
 51  27  48  1   
 52  27  49  1   
 53  27  50  1   
 54  28  51  1   
@<TRIPOS>SUBSTRUCTURE
  1 ****  12 GROUP 4 **** **** 0

# MOE 2024.06 (io_trps.svl 2023.06)
