@<TRIPOS>MOLECULE
NONAME
52 56 1 0 0 
SMALL
USER_CHARGES


@<TRIPOS>ATOM
  1 F       -1.6240    -0.7500     1.5690 F     1 <1>  -0.1900 
  2 C       -2.5000     0.0990     1.1080 C.ar  1 <1>   0.1900 
  3 C       -3.5200    -0.3510     0.3170 C.ar  1 <1>  -0.1500 
  4 C       -2.3550     1.4420     1.4500 C.ar  1 <1>  -0.1500 
  5 C       -4.4900     0.5520    -0.1730 C.ar  1 <1>   0.0000 
  6 C       -3.2690     2.3350     0.9590 C.ar  1 <1>  -0.1500 
  7 C       -4.3360     1.9260     0.1360 C.ar  1 <1>   0.3100 
  8 C       -5.6020     0.1720    -0.9680 C.ar  1 <1>   0.0860 
  9 N       -5.1680     2.8810    -0.3340 N.ar  1 <1>  -0.6200 
 10 C       -5.9460    -1.2080    -1.2400 C.2   1 <1>   0.5440 
 11 C       -6.3820     1.1880    -1.4590 C.ar  1 <1>  -0.1500 
 12 C       -6.1320     2.5180    -1.1180 C.ar  1 <1>   0.1660 
 13 O       -6.2790    -1.5470    -2.3580 O.2   1 <1>  -0.5700 
 14 N       -6.0260    -2.1590    -0.2450 N.am  1 <1>  -0.6600 
 15 C       -7.0190     3.6160    -1.6670 C.3   1 <1>  -0.0970 
 16 C       -6.6210    -1.8450     1.0880 C.3   1 <1>   0.1400 
 17 C       -6.0910    -3.6080    -0.5950 C.3   1 <1>   0.1400 
 18 C       -8.0880    -2.3380     1.1640 C.3   1 <1>   0.4230 
 19 C       -7.5530    -4.0840    -0.5680 C.3   1 <1>   0.3430 
 20 N       -8.2240    -3.7980     0.7600 N.4   1 <1>  -0.9590 
 21 C       -9.0080    -1.4390     0.3040 C.3   1 <1>   0.1200 
 22 C       -9.6770    -4.1890     0.7700 C.3   1 <1>   0.5180 
 23 O      -10.3310    -1.8850     0.3820 O.3   1 <1>  -0.5600 
 24 C       -9.8130    -5.6660     0.3490 C.3   1 <1>  -0.1950 
 25 C      -10.5330    -3.2000    -0.0600 C.3   1 <1>   0.1200 
 26 C       -9.9560    -6.1440    -1.0680 C.3   1 <1>  -0.2000 
 27 C      -11.1090    -6.2630    -0.1120 C.3   1 <1>  -0.2000 
 28 H       -3.5640    -1.3950     0.0700 H     1 <1>   0.1500 
 29 H       -1.5360     1.7450     2.0790 H     1 <1>   0.1500 
 30 H       -3.1940     3.3830     1.1860 H     1 <1>   0.1500 
 31 H       -7.2080     0.9640    -2.1100 H     1 <1>   0.1500 
 32 H       -7.7690     3.2230    -2.3290 H     1 <1>   0.0800 
 33 H       -6.4180     4.3240    -2.2090 H     1 <1>   0.0800 
 34 H       -7.5030     4.1280    -0.8550 H     1 <1>   0.0800 
 35 H       -6.0380    -2.3240     1.8560 H     1 <1>   0.0800 
 36 H       -6.5880    -0.7860     1.2770 H     1 <1>   0.0800 
 37 H       -5.6790    -3.7730    -1.5770 H     1 <1>   0.0800 
 38 H       -5.5000    -4.1770     0.1020 H     1 <1>   0.0800 
 39 H       -8.4140    -2.2260     2.1850 H     1 <1>   0.0800 
 40 H       -7.5760    -5.1420    -0.7730 H     1 <1>   0.0800 
 41 H       -8.0810    -3.5830    -1.3620 H     1 <1>   0.0800 
 42 H       -7.7570    -4.3700     1.4710 H     1 <1>   0.4500 
 43 H       -8.7060    -1.4350    -0.7300 H     1 <1>   0.0800 
 44 H       -8.9870    -0.4270     0.6680 H     1 <1>   0.0800 
 45 H      -10.0380    -4.1200     1.7840 H     1 <1>   0.0800 
 46 H       -9.2600    -6.2980     1.0220 H     1 <1>   0.1000 
 47 H      -11.5780    -3.4200     0.0650 H     1 <1>   0.0800 
 48 H      -10.2970    -3.2510    -1.1080 H     1 <1>   0.0800 
 49 H      -10.0730    -5.4590    -1.8910 H     1 <1>   0.1000 
 50 H       -9.4650    -7.0550    -1.3710 H     1 <1>   0.1000 
 51 H      -11.3810    -7.2470     0.2340 H     1 <1>   0.1000 
 52 H      -11.9780    -5.6560    -0.3010 H     1 <1>   0.1000 
@<TRIPOS>BOND
  1   1   2  1   
  2   2   3  ar  
  3   2   4  ar  
  4   3   5  ar  
  5   3  28  1   
  6   4   6  ar  
  7   4  29  1   
  8   5   7  ar  
  9   5   8  ar  
 10   6   7  ar  
 11   6  30  1   
 12   7   9  ar  
 13   8  10  1   
 14   8  11  ar  
 15   9  12  ar  
 16  10  13  2   
 17  10  14  am  
 18  11  12  ar  
 19  11  31  1   
 20  12  15  1   
 21  14  16  1   
 22  14  17  1   
 23  15  32  1   
 24  15  33  1   
 25  15  34  1   
 26  16  18  1   
 27  16  35  1   
 28  16  36  1   
 29  17  19  1   
 30  17  37  1   
 31  17  38  1   
 32  18  20  1   
 33  18  21  1   
 34  18  39  1   
 35  19  20  1   
 36  19  40  1   
 37  19  41  1   
 38  20  22  1   
 39  20  42  1   
 40  21  23  1   
 41  21  43  1   
 42  21  44  1   
 43  22  24  1   
 44  22  25  1   
 45  22  45  1   
 46  23  25  1   
 47  24  26  1   
 48  24  27  1   
 49  24  46  1   
 50  25  47  1   
 51  25  48  1   
 52  26  27  1   
 53  26  49  1   
 54  26  50  1   
 55  27  51  1   
 56  27  52  1   
@<TRIPOS>SUBSTRUCTURE
  1 ****  14 GROUP 4 **** **** 0

# MOE 2024.06 (io_trps.svl 2023.06)
