@<TRIPOS>MOLECULE
NONAME
48 51 1 0 0 
SMALL
USER_CHARGES


@<TRIPOS>ATOM
  1 S        0.1600    -0.4910     1.5330 S.3   1 <1>  -0.0800 
  2 C       -0.5620    -1.7320     0.5180 C.2   1 <1>  -0.1400 
  3 C        1.6860    -0.6160     0.6830 C.2   1 <1>  -0.1100 
  4 C        0.3330    -2.1810    -0.3860 C.2   1 <1>  -0.1810 
  5 C       -2.0130    -2.0780     0.8110 C.3   1 <1>   0.3200 
  6 C        1.6120    -1.5430    -0.2890 C.2   1 <1>  -0.1500 
  7 C        0.1030    -3.2460    -1.4420 C.3   1 <1>  -0.0590 
  8 N       -2.8830    -1.8110    -0.3730 N.am  1 <1>  -0.5090 
  9 C       -3.5910    -2.7720    -1.0650 C.2   1 <1>   0.5690 
 10 C       -2.7540    -0.4320    -0.9060 C.3   1 <1>   0.0490 
 11 O       -3.9430    -2.5910    -2.2100 O.2   1 <1>  -0.5700 
 12 C       -4.0160    -4.1070    -0.4380 C.3   1 <1>   0.2610 
 13 C       -3.2230     0.7050    -0.0520 C.3   1 <1>  -0.2000 
 14 C       -3.9780     0.3390    -1.2900 C.3   1 <1>  -0.2000 
 15 O       -2.9080    -4.9190    -0.0800 O.3   1 <1>  -0.5600 
 16 C       -4.9480    -3.8640     0.7730 C.3   1 <1>   0.3640 
 17 C       -3.2610    -6.2140     0.3610 C.3   1 <1>   0.1810 
 18 N       -5.1270    -5.0960     1.5750 N.am  1 <1>  -0.7300 
 19 C       -6.3120    -3.3430     0.3400 C.ar  1 <1>  -0.1440 
 20 C       -4.3660    -6.2040     1.4240 C.2   1 <1>   0.5690 
 21 C       -7.2680    -4.1900    -0.2070 C.ar  1 <1>  -0.1500 
 22 C       -6.6090    -1.9940     0.4820 C.ar  1 <1>  -0.1500 
 23 O       -4.5650    -7.1820     2.0980 O.2   1 <1>  -0.5700 
 24 C       -8.4990    -3.6960    -0.6020 C.ar  1 <1>  -0.1500 
 25 C       -7.8390    -1.5000     0.0870 C.ar  1 <1>  -0.1500 
 26 C       -8.7860    -2.3510    -0.4550 C.ar  1 <1>  -0.1500 
 27 H        2.4880     0.0250     1.0040 H     1 <1>   0.1500 
 28 H       -2.3600    -1.4800     1.6350 H     1 <1>   0.0800 
 29 H       -2.0590    -3.1030     1.1170 H     1 <1>   0.0800 
 30 H        2.4140    -1.8080    -0.9550 H     1 <1>   0.1500 
 31 H        0.8250    -4.0350    -1.3320 H     1 <1>   0.0800 
 32 H        0.2020    -2.8150    -2.4220 H     1 <1>   0.0800 
 33 H       -0.8790    -3.6700    -1.3550 H     1 <1>   0.0800 
 34 H       -1.8650    -0.3010    -1.5030 H     1 <1>   0.1000 
 35 H       -4.5680    -4.6440    -1.1890 H     1 <1>   0.0800 
 36 H       -3.6820     0.5050     0.9000 H     1 <1>   0.1000 
 37 H       -2.6520     1.6170    -0.0540 H     1 <1>   0.1000 
 38 H       -3.9180     0.9920    -2.1430 H     1 <1>   0.1000 
 39 H       -4.9330    -0.1500    -1.2150 H     1 <1>   0.1000 
 40 H       -4.4960    -3.1290     1.4140 H     1 <1>   0.0800 
 41 H       -3.5880    -6.7840    -0.4900 H     1 <1>   0.0800 
 42 H       -2.3800    -6.6750     0.7670 H     1 <1>   0.0800 
 43 H       -5.8900    -5.1080     2.2540 H     1 <1>   0.3700 
 44 H       -7.0630    -5.2390    -0.3300 H     1 <1>   0.1500 
 45 H       -5.8860    -1.3130     0.8980 H     1 <1>   0.1500 
 46 H       -9.2350    -4.3580    -1.0240 H     1 <1>   0.1500 
 47 H       -8.0610    -0.4530     0.1980 H     1 <1>   0.1500 
 48 H       -9.7430    -1.9670    -0.7640 H     1 <1>   0.1500 
@<TRIPOS>BOND
  1   1   2  1   
  2   1   3  1   
  3   2   4  2   
  4   2   5  1   
  5   3   6  2   
  6   3  27  1   
  7   4   6  1   
  8   4   7  1   
  9   5   8  1   
 10   5  28  1   
 11   5  29  1   
 12   6  30  1   
 13   7  31  1   
 14   7  32  1   
 15   7  33  1   
 16   8   9  am  
 17   8  10  1   
 18   9  11  2   
 19   9  12  1   
 20  10  13  1   
 21  10  14  1   
 22  10  34  1   
 23  12  15  1   
 24  12  16  1   
 25  12  35  1   
 26  13  14  1   
 27  13  36  1   
 28  13  37  1   
 29  14  38  1   
 30  14  39  1   
 31  15  17  1   
 32  16  18  1   
 33  16  19  1   
 34  16  40  1   
 35  17  20  1   
 36  17  41  1   
 37  17  42  1   
 38  18  20  am  
 39  18  43  1   
 40  19  21  ar  
 41  19  22  ar  
 42  20  23  2   
 43  21  24  ar  
 44  21  44  1   
 45  22  25  ar  
 46  22  45  1   
 47  24  26  ar  
 48  24  46  1   
 49  25  26  ar  
 50  25  47  1   
 51  26  48  1   
@<TRIPOS>SUBSTRUCTURE
  1 ****   9 GROUP 4 **** **** 0

# MOE 2024.06 (io_trps.svl 2023.06)
