@<TRIPOS>MOLECULE
NONAME
22 22 1 0 0 
SMALL
USER_CHARGES


@<TRIPOS>ATOM
  1 F        1.9460     2.1680     0.0370 F     1 <1>  -0.3400 
  2 C        1.5820     0.9940    -0.4640 C.3   1 <1>   1.0200 
  3 F        0.6660     1.2540    -1.3840 F     1 <1>  -0.3400 
  4 F        0.9620     0.3460     0.5090 F     1 <1>  -0.3400 
  5 C        2.7600     0.2150    -1.0550 C.3   1 <1>  -0.1600 
  6 C        3.8360    -0.3120    -0.0700 C.3   1 <1>   0.0000 
  7 C        4.7840    -1.3320    -0.7740 C.3   1 <1>   0.0000 
  8 C        3.3690    -1.5000     0.8290 C.3   1 <1>   0.0000 
  9 C        4.6600     0.7710     0.6720 C.3   1 <1>   0.1200 
 10 C        4.7050    -2.2120     0.4990 C.3   1 <1>   0.0000 
 11 O        3.9330     1.3390     1.7040 O.3   1 <1>  -0.6800 
 12 H        3.2340     0.8440    -1.7850 H     1 <1>   0.0800 
 13 H        2.3380    -0.6190    -1.5850 H     1 <1>   0.0800 
 14 H        5.7720    -0.9570    -0.9780 H     1 <1>   0.0000 
 15 H        4.3390    -1.8210    -1.6240 H     1 <1>   0.0000 
 16 H        2.5230    -2.0300     0.4250 H     1 <1>   0.0000 
 17 H        3.2560    -1.2630     1.8720 H     1 <1>   0.0000 
 18 H        4.9660     1.5550     0.0000 H     1 <1>   0.0800 
 19 H        5.5420     0.3420     1.1160 H     1 <1>   0.0800 
 20 H        5.4820    -1.9930     1.2110 H     1 <1>   0.0000 
 21 H        4.5970    -3.2620     0.2940 H     1 <1>   0.0000 
 22 H        3.2000     1.8970     1.3630 H     1 <1>   0.4000 
@<TRIPOS>BOND
  1   1   2  1   
  2   2   3  1   
  3   2   4  1   
  4   2   5  1   
  5   5   6  1   
  6   5  12  1   
  7   5  13  1   
  8   6   7  1   
  9   6   8  1   
 10   6   9  1   
 11   7  10  1   
 12   7  14  1   
 13   7  15  1   
 14   8  10  1   
 15   8  16  1   
 16   8  17  1   
 17   9  11  1   
 18   9  18  1   
 19   9  19  1   
 20  10  20  1   
 21  10  21  1   
 22  11  22  1   
@<TRIPOS>SUBSTRUCTURE
  1 ****   6 GROUP 4 **** **** 0

# MOE 2024.06 (io_trps.svl 2023.06)
