@<TRIPOS>MOLECULE
NONAME
41 42 1 0 0 
SMALL
USER_CHARGES


@<TRIPOS>ATOM
  1 S       -0.4920     0.1510     0.8940 S.3   1 <1>  -0.0800 
  2 C        0.1890     1.5410     0.0690 C.2   1 <1>  -0.1400 
  3 C       -1.3630    -0.3390    -0.5460 C.2   1 <1>  -0.1400 
  4 C       -0.2370     1.5850    -1.2100 C.2   1 <1>  -0.1500 
  5 C        1.0960     2.4140     0.9070 C.3   1 <1>   0.5230 
  6 C       -1.1220     0.5150    -1.5560 C.2   1 <1>  -0.1500 
  7 C       -2.2120    -1.5910    -0.4520 C.3   1 <1>  -0.0600 
  8 N        0.9280     3.8290     0.4870 N.4   1 <1>  -0.9590 
  9 C        2.1930     4.5890     0.6430 C.3   1 <1>   0.5240 
 10 C       -0.2000     4.5320     1.1930 C.3   1 <1>   0.3430 
 11 C        2.0720     5.8470    -0.1820 C.2   1 <1>  -0.1810 
 12 C       -1.5980     3.9970     0.8460 C.3   1 <1>   0.1200 
 13 C        2.2800     5.9370    -1.5530 C.2   1 <1>   0.1390 
 14 C        1.7440     7.1030     0.1980 C.2   1 <1>  -0.3020 
 15 O       -2.5210     4.8140     1.4730 O.3   1 <1>  -0.6800 
 16 N        2.0820     7.1370    -1.9940 N.2   1 <1>  -0.7070 
 17 N        1.7590     7.8690    -0.9130 N.pl3 1 <1>   0.3140 
 18 C        1.4710     9.3160    -1.0050 C.3   1 <1>   0.0960 
 19 C        2.6360    10.1510    -0.4610 C.3   1 <1>  -0.2400 
 20 H        0.0200     2.3150    -1.9580 H     1 <1>   0.1500 
 21 H        2.1130     2.0880     0.7620 H     1 <1>   0.0800 
 22 H        0.8470     2.3050     1.9510 H     1 <1>   0.0800 
 23 H       -1.5340     0.4350    -2.5480 H     1 <1>   0.1500 
 24 H       -2.9680    -1.4680     0.3020 H     1 <1>   0.0800 
 25 H       -1.5970    -2.4340    -0.1950 H     1 <1>   0.0800 
 26 H       -2.6910    -1.7870    -1.3950 H     1 <1>   0.0800 
 27 H        0.7130     3.8300    -0.5160 H     1 <1>   0.4500 
 28 H        3.0310     4.0120     0.2860 H     1 <1>   0.0800 
 29 H        2.3580     4.8400     1.6790 H     1 <1>   0.0800 
 30 H       -0.1870     5.5760     0.9240 H     1 <1>   0.0800 
 31 H       -0.0620     4.4630     2.2590 H     1 <1>   0.0800 
 32 H       -1.7450     2.9950     1.2120 H     1 <1>   0.0800 
 33 H       -1.7800     4.0410    -0.2140 H     1 <1>   0.0800 
 34 H        2.5710     5.1260    -2.2010 H     1 <1>   0.1500 
 35 H        1.5070     7.5060     1.1660 H     1 <1>   0.1500 
 36 H       -3.4410     4.5290     1.2850 H     1 <1>   0.4000 
 37 H        0.5730     9.5230    -0.4530 H     1 <1>   0.0800 
 38 H        1.2990     9.5590    -2.0390 H     1 <1>   0.0800 
 39 H        2.8070     9.9340     0.5780 H     1 <1>   0.0800 
 40 H        2.4100    11.1970    -0.5590 H     1 <1>   0.0800 
 41 H        3.5320     9.9430    -1.0210 H     1 <1>   0.0800 
@<TRIPOS>BOND
  1   1   2  1   
  2   1   3  1   
  3   2   4  2   
  4   2   5  1   
  5   3   6  2   
  6   3   7  1   
  7   4   6  1   
  8   4  20  1   
  9   5   8  1   
 10   5  21  1   
 11   5  22  1   
 12   6  23  1   
 13   7  24  1   
 14   7  25  1   
 15   7  26  1   
 16   8   9  1   
 17   8  10  1   
 18   8  27  1   
 19   9  11  1   
 20   9  28  1   
 21   9  29  1   
 22  10  12  1   
 23  10  30  1   
 24  10  31  1   
 25  11  13  1   
 26  11  14  2   
 27  12  15  1   
 28  12  32  1   
 29  12  33  1   
 30  13  16  2   
 31  13  34  1   
 32  14  17  1   
 33  14  35  1   
 34  15  36  1   
 35  16  17  1   
 36  17  18  1   
 37  18  19  1   
 38  18  37  1   
 39  18  38  1   
 40  19  39  1   
 41  19  40  1   
 42  19  41  1   
@<TRIPOS>SUBSTRUCTURE
  1 ****   8 GROUP 4 **** **** 0

# MOE 2024.06 (io_trps.svl 2023.06)
