@<TRIPOS>MOLECULE
NONAME
49 52 1 0 0 
SMALL
USER_CHARGES


@<TRIPOS>ATOM
  1 O        4.4650    -2.7070     1.4730 O.2   1 <1>  -0.5700 
  2 C        3.4660    -2.3990     0.8520 C.2   1 <1>   0.5440 
  3 N        3.2830    -1.0650     0.5820 N.am  1 <1>  -0.6600 
  4 C        2.5490    -3.4130     0.3570 C.ar  1 <1>   0.0860 
  5 C        3.7710    -0.0440     1.5870 C.3   1 <1>   0.2200 
  6 C        3.0630    -0.6400    -0.8330 C.3   1 <1>   0.1400 
  7 C        1.1890    -3.1510     0.1970 C.ar  1 <1>  -0.1500 
  8 C        3.0000    -4.6890     0.0260 C.ar  1 <1>  -0.1500 
  9 C        2.9560     1.2570     1.5370 C.3   1 <1>   0.1200 
 10 C        5.2860     0.2430     1.4440 C.3   1 <1>   0.3430 
 11 C        3.8500     0.6150    -1.2550 C.3   1 <1>  -0.0800 
 12 C        0.2950    -4.0960    -0.2910 C.ar  1 <1>   0.0540 
 13 C        2.1340    -5.6490    -0.4620 C.ar  1 <1>  -0.1500 
 14 O        3.4790     2.1470     0.5980 O.3   1 <1>  -0.5600 
 15 N        5.8290    -0.2600     0.1410 N.4   1 <1>  -0.9590 
 16 C        3.1920     1.9050    -0.7370 C.3   1 <1>   0.1200 
 17 C        5.3770     0.5830    -1.0120 C.3   1 <1>   0.3430 
 18 C       -1.1080    -3.7780    -0.4440 C.2   1 <1>  -0.0540 
 19 C        0.7940    -5.3510    -0.6230 C.ar  1 <1>  -0.1500 
 20 C        7.3480    -0.2390     0.2120 C.3   1 <1>   0.2370 
 21 C       -2.1930    -4.6550    -0.3380 C.2   1 <1>   0.1390 
 22 C       -1.6990    -2.5850    -0.7140 C.2   1 <1>  -0.3020 
 23 C        7.9600     1.1580     0.3610 C.2   1 <1>   0.9060 
 24 N       -3.3370    -4.0750    -0.5260 N.2   1 <1>  -0.7070 
 25 N       -3.0270    -2.7890    -0.7600 N.pl3 1 <1>   0.3000 
 26 O        8.1060     1.6080     1.5000 O.co2 1 <1>  -0.9000 
 27 O        8.1560     1.8120    -0.6680 O.co2 1 <1>  -0.9000 
 28 H        3.6170    -0.4600     2.5680 H     1 <1>   0.0800 
 29 H        3.3450    -1.4510    -1.4850 H     1 <1>   0.0800 
 30 H        2.0110    -0.4660    -0.9800 H     1 <1>   0.0800 
 31 H        0.8110    -2.1830     0.4720 H     1 <1>   0.1500 
 32 H        4.0420    -4.9300     0.1560 H     1 <1>   0.1500 
 33 H        3.0310     1.7510     2.4910 H     1 <1>   0.0800 
 34 H        1.9160     1.0730     1.3320 H     1 <1>   0.0800 
 35 H        5.7990    -0.2540     2.2510 H     1 <1>   0.0800 
 36 H        5.4820     1.2990     1.5470 H     1 <1>   0.0800 
 37 H        3.7360     0.6770    -2.3220 H     1 <1>   0.0800 
 38 H        2.5020    -6.6290    -0.7170 H     1 <1>   0.1500 
 39 H        5.4780    -1.2260     0.0630 H     1 <1>   0.4500 
 40 H        2.1220     1.8840    -0.8620 H     1 <1>   0.0800 
 41 H        3.5750     2.7480    -1.2880 H     1 <1>   0.0800 
 42 H        5.7270     1.5950    -0.8700 H     1 <1>   0.0800 
 43 H        5.8550     0.2130    -1.9030 H     1 <1>   0.0800 
 44 H        0.1300    -6.1030    -1.0120 H     1 <1>   0.1500 
 45 H        7.6810    -0.8220     1.0510 H     1 <1>   0.0800 
 46 H        7.7590    -0.6680    -0.6830 H     1 <1>   0.0800 
 47 H       -2.0980    -5.7050    -0.1190 H     1 <1>   0.1500 
 48 H       -1.2500    -1.6240    -0.8780 H     1 <1>   0.1500 
 49 H       -3.7500    -2.0820    -0.9460 H     1 <1>   0.2700 
@<TRIPOS>BOND
  1   1   2  2   
  2   2   3  am  
  3   2   4  1   
  4   3   5  1   
  5   3   6  1   
  6   4   7  ar  
  7   4   8  ar  
  8   5   9  1   
  9   5  10  1   
 10   5  28  1   
 11   6  11  1   
 12   6  29  1   
 13   6  30  1   
 14   7  12  ar  
 15   7  31  1   
 16   8  13  ar  
 17   8  32  1   
 18   9  14  1   
 19   9  33  1   
 20   9  34  1   
 21  10  15  1   
 22  10  35  1   
 23  10  36  1   
 24  11  16  1   
 25  11  17  1   
 26  11  37  1   
 27  12  18  1   
 28  12  19  ar  
 29  13  19  ar  
 30  13  38  1   
 31  14  16  1   
 32  15  17  1   
 33  15  20  1   
 34  15  39  1   
 35  16  40  1   
 36  16  41  1   
 37  17  42  1   
 38  17  43  1   
 39  18  21  1   
 40  18  22  2   
 41  19  44  1   
 42  20  23  1   
 43  20  45  1   
 44  20  46  1   
 45  21  24  2   
 46  21  47  1   
 47  22  25  1   
 48  22  48  1   
 49  23  26  ar  
 50  23  27  ar  
 51  24  25  1   
 52  25  49  1   
@<TRIPOS>SUBSTRUCTURE
  1 ****   3 GROUP 4 **** **** 0

# MOE 2024.06 (io_trps.svl 2023.06)
