@<TRIPOS>MOLECULE
NONAME
46 48 1 0 0 
SMALL
USER_CHARGES


@<TRIPOS>ATOM
  1 O       -0.5120    -0.5080    -0.8810 O.2   1 <1>  -0.5700 
  2 C       -1.4000     0.2620    -0.5960 C.2   1 <1>   0.5690 
  3 N       -2.4940    -0.1400     0.1270 N.am  1 <1>  -0.6600 
  4 C       -1.2160     1.7030    -1.0360 C.3   1 <1>  -0.0990 
  5 C       -2.5130    -1.5110     0.7380 C.3   1 <1>   0.3210 
  6 C       -3.6880     0.7050     0.4580 C.3   1 <1>   0.1400 
  7 C       -0.6250     2.5640     0.0910 C.3   1 <1>   0.0630 
  8 C       -3.7570    -2.3040     0.3550 C.2   1 <1>   0.0460 
  9 C       -4.8160     0.6140    -0.5900 C.3   1 <1>   0.1200 
 10 C       -0.4400     4.0130    -0.3030 C.ar  1 <1>  -0.1440 
 11 C        0.7980     2.1300     0.5020 C.3   1 <1>  -0.1600 
 12 N       -4.8320    -2.3610     1.1720 N.2   1 <1>  -0.5650 
 13 C       -3.9730    -3.0160    -0.7760 C.2   1 <1>  -0.3320 
 14 O       -4.4850     1.2780    -1.7670 O.3   1 <1>  -0.6800 
 15 C        0.7830     4.4830     0.1120 C.ar  1 <1>  -0.1440 
 16 C       -1.3180     4.8460    -0.9760 C.ar  1 <1>  -0.1500 
 17 C        1.5720     3.4160     0.8270 C.3   1 <1>  -0.0170 
 18 C       -5.6690    -3.1080     0.5280 C.2   1 <1>   0.0360 
 19 N       -5.2070    -3.5390    -0.6640 N.pl3 1 <1>   0.0330 
 20 C       -3.0800    -3.2240    -1.9870 C.3   1 <1>  -0.0600 
 21 C        1.1640     5.7890    -0.1360 C.ar  1 <1>  -0.1500 
 22 C       -0.9450     6.1570    -1.2300 C.ar  1 <1>  -0.1500 
 23 C        0.2920     6.6260    -0.8120 C.ar  1 <1>  -0.1500 
 24 H       -2.1490     2.1090    -1.3600 H     1 <1>   0.0800 
 25 H       -0.5550     1.7230    -1.8830 H     1 <1>   0.0800 
 26 H       -2.4740    -1.4210     1.8080 H     1 <1>   0.0800 
 27 H       -1.6500    -2.0760     0.4340 H     1 <1>   0.0800 
 28 H       -3.4010     1.7320     0.5890 H     1 <1>   0.0800 
 29 H       -4.0860     0.3710     1.4010 H     1 <1>   0.0800 
 30 H       -1.2640     2.5350     0.9560 H     1 <1>   0.0800 
 31 H       -5.7150     1.0600    -0.2030 H     1 <1>   0.0800 
 32 H       -5.0270    -0.4100    -0.8370 H     1 <1>   0.0800 
 33 H        1.2820     1.6460    -0.3290 H     1 <1>   0.0800 
 34 H        0.7820     1.4470     1.3340 H     1 <1>   0.0800 
 35 H       -4.4950     2.2440    -1.6370 H     1 <1>   0.4000 
 36 H       -2.2770     4.4880    -1.3010 H     1 <1>   0.1500 
 37 H        2.5860     3.3670     0.4720 H     1 <1>   0.0800 
 38 H        1.5610     3.6110     1.8850 H     1 <1>   0.0800 
 39 H       -6.6470    -3.3730     0.8900 H     1 <1>   0.1500 
 40 H       -5.6960    -4.1330    -1.3400 H     1 <1>   0.2700 
 41 H       -2.1580    -2.6820    -1.8730 H     1 <1>   0.0800 
 42 H       -3.5710    -2.8640    -2.8740 H     1 <1>   0.0800 
 43 H       -2.8520    -4.2670    -2.1090 H     1 <1>   0.0800 
 44 H        2.1240     6.1480     0.1910 H     1 <1>   0.1500 
 45 H       -1.6160     6.8140    -1.7540 H     1 <1>   0.1500 
 46 H        0.5750     7.6440    -1.0130 H     1 <1>   0.1500 
@<TRIPOS>BOND
  1   1   2  2   
  2   2   3  am  
  3   2   4  1   
  4   3   5  1   
  5   3   6  1   
  6   4   7  1   
  7   4  24  1   
  8   4  25  1   
  9   5   8  1   
 10   5  26  1   
 11   5  27  1   
 12   6   9  1   
 13   6  28  1   
 14   6  29  1   
 15   7  10  1   
 16   7  11  1   
 17   7  30  1   
 18   8  12  1   
 19   8  13  2   
 20   9  14  1   
 21   9  31  1   
 22   9  32  1   
 23  10  15  ar  
 24  10  16  ar  
 25  11  17  1   
 26  11  33  1   
 27  11  34  1   
 28  12  18  2   
 29  13  19  1   
 30  13  20  1   
 31  14  35  1   
 32  15  17  1   
 33  15  21  ar  
 34  16  22  ar  
 35  16  36  1   
 36  17  37  1   
 37  17  38  1   
 38  18  19  1   
 39  18  39  1   
 40  19  40  1   
 41  20  41  1   
 42  20  42  1   
 43  20  43  1   
 44  21  23  ar  
 45  21  44  1   
 46  22  23  ar  
 47  22  45  1   
 48  23  46  1   
@<TRIPOS>SUBSTRUCTURE
  1 ****   2 GROUP 4 **** **** 0

# MOE 2024.06 (io_trps.svl 2023.06)
