@<TRIPOS>MOLECULE
NONAME
46 48 1 0 0 
SMALL
USER_CHARGES


@<TRIPOS>ATOM
  1 O       -1.9010     0.7350    -1.7110 O.2   1 <1>  -0.5700 
  2 C       -1.8490     0.8540    -0.5030 C.2   1 <1>   0.5440 
  3 N       -2.0260    -0.2630     0.2610 N.am  1 <1>  -0.7300 
  4 C       -1.6050     2.1470     0.1140 C.ar  1 <1>   0.0860 
  5 C       -2.2930    -1.6210    -0.2660 C.3   1 <1>   0.2200 
  6 C       -0.8840     3.1340    -0.5540 C.ar  1 <1>  -0.1500 
  7 C       -2.0770     2.4560     1.3930 C.ar  1 <1>  -0.1500 
  8 C       -3.7770    -1.9150    -0.1430 C.3   1 <1>  -0.0800 
  9 C       -1.6910    -2.6610     0.6720 C.3   1 <1>   0.1200 
 10 C       -0.6280     4.3680     0.0160 C.ar  1 <1>   0.0820 
 11 C       -1.8290     3.6850     1.9760 C.ar  1 <1>  -0.1500 
 12 C       -3.8930    -2.4100     1.3040 C.3   1 <1>   0.1200 
 13 C       -4.2280    -2.9770    -1.1640 C.3   1 <1>  -0.0160 
 14 O       -2.6200    -2.8350     1.7000 O.3   1 <1>  -0.5600 
 15 O        0.0880     5.2480    -0.7270 O.3   1 <1>  -0.3630 
 16 C       -1.1040     4.6440     1.2940 C.ar  1 <1>  -0.1500 
 17 C       -5.7230    -3.2400    -1.0650 C.ar  1 <1>  -0.1430 
 18 C        0.3790     6.5430    -0.2580 C.3   1 <1>   0.1200 
 19 C       -6.6490    -2.3380    -1.5490 C.ar  1 <1>  -0.1500 
 20 C       -6.2320    -4.3880    -0.4920 C.ar  1 <1>  -0.1500 
 21 C        1.1750     7.2680    -1.3390 C.3   1 <1>  -0.2400 
 22 C       -8.0010    -2.6160    -1.4330 C.ar  1 <1>   0.1600 
 23 C       -7.6040    -4.5690    -0.4260 C.ar  1 <1>   0.1600 
 24 N       -8.5010    -3.7100    -0.8810 N.ar  1 <1>  -0.6200 
 25 H       -1.9530    -0.2130     1.2780 H     1 <1>   0.3700 
 26 H       -1.9200    -1.7130    -1.2720 H     1 <1>   0.0800 
 27 H       -0.5130     2.9350    -1.5450 H     1 <1>   0.1500 
 28 H       -2.6530     1.7300     1.9370 H     1 <1>   0.1500 
 29 H       -4.3610    -1.0240    -0.2940 H     1 <1>   0.0800 
 30 H       -0.7460    -2.3530     1.0830 H     1 <1>   0.0800 
 31 H       -1.5790    -3.6050     0.1700 H     1 <1>   0.0800 
 32 H       -2.2030     3.8980     2.9630 H     1 <1>   0.1500 
 33 H       -4.5850    -3.2260     1.4180 H     1 <1>   0.0800 
 34 H       -4.1830    -1.6050     1.9560 H     1 <1>   0.0800 
 35 H       -3.6880    -3.8950    -1.0130 H     1 <1>   0.0800 
 36 H       -4.0070    -2.6290    -2.1590 H     1 <1>   0.0800 
 37 H       -0.9230     5.5900     1.7670 H     1 <1>   0.1500 
 38 H       -0.5500     7.0520    -0.0650 H     1 <1>   0.0800 
 39 H        0.9560     6.4580     0.6460 H     1 <1>   0.0800 
 40 H       -6.3320    -1.4220    -2.0140 H     1 <1>   0.1500 
 41 H       -5.5780    -5.1420    -0.0940 H     1 <1>   0.1500 
 42 H        0.5960     7.3310    -2.2430 H     1 <1>   0.0800 
 43 H        2.0920     6.7410    -1.5370 H     1 <1>   0.0800 
 44 H        1.4130     8.2630    -1.0120 H     1 <1>   0.0800 
 45 H       -8.7090    -1.9000    -1.8160 H     1 <1>   0.1500 
 46 H       -7.9830    -5.4700     0.0260 H     1 <1>   0.1500 
@<TRIPOS>BOND
  1   1   2  2   
  2   2   3  am  
  3   2   4  1   
  4   3   5  1   
  5   3  25  1   
  6   4   6  ar  
  7   4   7  ar  
  8   5   8  1   
  9   5   9  1   
 10   5  26  1   
 11   6  10  ar  
 12   6  27  1   
 13   7  11  ar  
 14   7  28  1   
 15   8  12  1   
 16   8  13  1   
 17   8  29  1   
 18   9  14  1   
 19   9  30  1   
 20   9  31  1   
 21  10  15  1   
 22  10  16  ar  
 23  11  16  ar  
 24  11  32  1   
 25  12  14  1   
 26  12  33  1   
 27  12  34  1   
 28  13  17  1   
 29  13  35  1   
 30  13  36  1   
 31  15  18  1   
 32  16  37  1   
 33  17  19  ar  
 34  17  20  ar  
 35  18  21  1   
 36  18  38  1   
 37  18  39  1   
 38  19  22  ar  
 39  19  40  1   
 40  20  23  ar  
 41  20  41  1   
 42  21  42  1   
 43  21  43  1   
 44  21  44  1   
 45  22  24  ar  
 46  22  45  1   
 47  23  24  ar  
 48  23  46  1   
@<TRIPOS>SUBSTRUCTURE
  1 ****   3 GROUP 4 **** **** 0

# MOE 2024.06 (io_trps.svl 2023.06)
