@<TRIPOS>MOLECULE
NONAME
49 51 1 0 0 
SMALL
USER_CHARGES


@<TRIPOS>ATOM
  1 O        4.5920    -1.6230     0.7240 O.2   1 <1>  -0.5700 
  2 C        3.4900    -1.4040     0.2750 C.2   1 <1>   0.5690 
  3 N        3.3550    -0.4910    -0.7360 N.am  1 <1>  -0.6600 
  4 C        2.2660    -2.0670     0.9010 C.3   1 <1>  -0.0190 
  5 C        4.4830    -0.2520    -1.6970 C.3   1 <1>   0.1400 
  6 C        2.3470     0.5960    -0.6760 C.3   1 <1>   0.1400 
  7 C        2.6050    -3.2110     1.8460 C.3   1 <1>   0.1200 
  8 C        1.3380    -2.7570    -0.0950 C.3   1 <1>  -0.1600 
  9 C        5.6480     0.5480    -1.0730 C.3   1 <1>   0.3430 
 10 C        2.8060     1.6670     0.3270 C.3   1 <1>  -0.1600 
 11 O        1.4420    -3.9660     1.9050 O.3   1 <1>  -0.5600 
 12 C        0.7920    -3.9580     0.6750 C.3   1 <1>   0.1200 
 13 N        5.2570     1.2040     0.2150 N.4   1 <1>  -0.9590 
 14 C        4.2040     2.2500     0.0760 C.3   1 <1>   0.3430 
 15 C        6.4500     1.6600     0.9880 C.3   1 <1>   0.5230 
 16 C        7.2130     2.7960     0.3180 C.2   1 <1>  -0.0400 
 17 O        8.2980     3.2050     0.9430 O.3   1 <1>  -0.2800 
 18 C        7.0340     3.5180    -0.8140 C.2   1 <1>  -0.1500 
 19 C        8.8380     4.1810     0.2430 C.2   1 <1>  -0.0400 
 20 C        8.0990     4.4240    -0.8600 C.2   1 <1>  -0.1500 
 21 C       10.1130     4.8170     0.7720 C.3   1 <1>   0.0200 
 22 C       10.6340     5.9370    -0.1350 C.3   1 <1>  -0.2400 
 23 H        1.7170    -1.3360     1.4650 H     1 <1>   0.0800 
 24 H        4.1170     0.2670    -2.5660 H     1 <1>   0.0800 
 25 H        4.8620    -1.2010    -2.0360 H     1 <1>   0.0800 
 26 H        1.3930     0.1990    -0.3720 H     1 <1>   0.0800 
 27 H        2.2180     1.0290    -1.6540 H     1 <1>   0.0800 
 28 H        2.8640    -2.8750     2.8340 H     1 <1>   0.0800 
 29 H        3.3870    -3.8360     1.4480 H     1 <1>   0.0800 
 30 H        1.8850    -3.1100    -0.9520 H     1 <1>   0.0800 
 31 H        0.5450    -2.1130    -0.4280 H     1 <1>   0.0800 
 32 H        6.0120     1.2750    -1.7790 H     1 <1>   0.0800 
 33 H        6.4510    -0.1450    -0.8810 H     1 <1>   0.0800 
 34 H        2.7560     1.2730     1.3260 H     1 <1>   0.0800 
 35 H        2.0990     2.4770     0.2840 H     1 <1>   0.0800 
 36 H        1.0090    -4.8850     0.1700 H     1 <1>   0.0800 
 37 H       -0.2660    -3.8770     0.8560 H     1 <1>   0.0800 
 38 H        4.8430     0.4150     0.7460 H     1 <1>   0.4500 
 39 H        4.3800     3.0340     0.7960 H     1 <1>   0.0800 
 40 H        4.2480     2.6910    -0.9060 H     1 <1>   0.0800 
 41 H        7.1260     0.8320     1.1240 H     1 <1>   0.0800 
 42 H        6.1420     1.9900     1.9660 H     1 <1>   0.0800 
 43 H        6.2680     3.4700    -1.5650 H     1 <1>   0.1500 
 44 H        8.2670     5.1540    -1.6330 H     1 <1>   0.1500 
 45 H       10.8660     4.0550     0.8650 H     1 <1>   0.0800 
 46 H        9.9200     5.2140     1.7530 H     1 <1>   0.0800 
 47 H       10.8540     5.5530    -1.1150 H     1 <1>   0.0800 
 48 H       11.5340     6.3550     0.2790 H     1 <1>   0.0800 
 49 H        9.9010     6.7200    -0.2210 H     1 <1>   0.0800 
@<TRIPOS>BOND
  1   1   2  2   
  2   2   3  am  
  3   2   4  1   
  4   3   5  1   
  5   3   6  1   
  6   4   7  1   
  7   4   8  1   
  8   4  23  1   
  9   5   9  1   
 10   5  24  1   
 11   5  25  1   
 12   6  10  1   
 13   6  26  1   
 14   6  27  1   
 15   7  11  1   
 16   7  28  1   
 17   7  29  1   
 18   8  12  1   
 19   8  30  1   
 20   8  31  1   
 21   9  13  1   
 22   9  32  1   
 23   9  33  1   
 24  10  14  1   
 25  10  34  1   
 26  10  35  1   
 27  11  12  1   
 28  12  36  1   
 29  12  37  1   
 30  13  14  1   
 31  13  15  1   
 32  13  38  1   
 33  14  39  1   
 34  14  40  1   
 35  15  16  1   
 36  15  41  1   
 37  15  42  1   
 38  16  17  1   
 39  16  18  2   
 40  17  19  1   
 41  18  20  1   
 42  18  43  1   
 43  19  20  2   
 44  19  21  1   
 45  20  44  1   
 46  21  22  1   
 47  21  45  1   
 48  21  46  1   
 49  22  47  1   
 50  22  48  1   
 51  22  49  1   
@<TRIPOS>SUBSTRUCTURE
  1 ****  13 GROUP 4 **** **** 0

# MOE 2024.06 (io_trps.svl 2023.06)
