@<TRIPOS>MOLECULE
NONAME
46 47 1 0 0 
SMALL
USER_CHARGES


@<TRIPOS>ATOM
  1 S        0.0130    -0.1040    -0.4480 S.o2  1 <1>   1.3330 
  2 O       -0.6050    -1.2080     0.2520 O.2   1 <1>  -0.6500 
  3 O        0.0890    -0.1270    -1.8920 O.2   1 <1>  -0.6500 
  4 N        1.5910     0.0600     0.1580 N.am  1 <1>  -0.8490 
  5 C       -0.7940     1.4240     0.0340 C.3   1 <1>  -0.0550 
  6 C        1.7090    -0.2710     1.5820 C.3   1 <1>   0.1160 
  7 C        2.5700    -0.7090    -0.6170 C.3   1 <1>   0.1160 
  8 C       -0.2270     2.6880    -0.6500 C.3   1 <1>  -0.0800 
  9 C       -1.0520     3.9540    -0.4010 C.3   1 <1>   0.2000 
 10 C        1.1940     3.0680    -0.2080 C.3   1 <1>   0.2090 
 11 O       -1.3730     4.0210     0.9470 O.3   1 <1>  -0.6800 
 12 C       -0.0710     5.0840    -0.7060 C.3   1 <1>   0.2090 
 13 N        1.2290     4.5510    -0.2350 N.pl3 1 <1>  -0.8380 
 14 C        2.3990     5.2680    -0.2890 C.ar  1 <1>   0.7200 
 15 N        3.5140     4.6170     0.0330 N.ar  1 <1>  -0.6200 
 16 N        2.3040     6.5450    -0.6500 N.ar  1 <1>  -0.6200 
 17 C        4.6200     5.3160    -0.0150 C.ar  1 <1>   0.1600 
 18 C        3.4290     7.2150    -0.6870 C.ar  1 <1>   0.1600 
 19 C        4.6410     6.6440    -0.3750 C.ar  1 <1>  -0.1440 
 20 C        5.9360     7.4390    -0.4210 C.3   1 <1>  -0.0170 
 21 C        6.2190     8.0830     0.9410 C.3   1 <1>  -0.1600 
 22 C        7.5210     8.8890     0.9220 C.3   1 <1>  -0.2400 
 23 H       -1.8330     1.3470    -0.2220 H     1 <1>   0.0800 
 24 H       -0.7400     1.5350     1.0990 H     1 <1>   0.0800 
 25 H        2.7050    -0.0570     1.9300 H     1 <1>   0.0800 
 26 H        1.4970    -1.3160     1.7450 H     1 <1>   0.0800 
 27 H        1.0150     0.3150     2.1590 H     1 <1>   0.0800 
 28 H        3.5590    -0.5660    -0.2170 H     1 <1>   0.0800 
 29 H        2.5710    -0.3770    -1.6420 H     1 <1>   0.0800 
 30 H        2.3240    -1.7580    -0.5930 H     1 <1>   0.0800 
 31 H       -0.1990     2.5220    -1.7130 H     1 <1>   0.0800 
 32 H       -1.9580     4.0040    -0.9800 H     1 <1>   0.0800 
 33 H        1.9340     2.6520    -0.8710 H     1 <1>   0.0800 
 34 H        1.3930     2.7370     0.7970 H     1 <1>   0.0800 
 35 H       -0.5540     4.2710     1.4270 H     1 <1>   0.4000 
 36 H       -0.3350     5.9970    -0.1990 H     1 <1>   0.0800 
 37 H       -0.0170     5.2610    -1.7660 H     1 <1>   0.0800 
 38 H        5.5380     4.8160     0.2430 H     1 <1>   0.1500 
 39 H        3.3830     8.2520    -0.9730 H     1 <1>   0.1500 
 40 H        6.7490     6.7870    -0.6910 H     1 <1>   0.0800 
 41 H        5.8650     8.2020    -1.1770 H     1 <1>   0.0800 
 42 H        5.4020     8.7330     1.2060 H     1 <1>   0.0800 
 43 H        6.2860     7.3160     1.6930 H     1 <1>   0.0800 
 44 H        7.4670     9.6790     0.1930 H     1 <1>   0.0800 
 45 H        8.3560     8.2530     0.6840 H     1 <1>   0.0800 
 46 H        7.6940     9.3290     1.8880 H     1 <1>   0.0800 
@<TRIPOS>BOND
  1   1   2  2   
  2   1   3  2   
  3   1   4  am  
  4   1   5  1   
  5   4   6  1   
  6   4   7  1   
  7   5   8  1   
  8   5  23  1   
  9   5  24  1   
 10   6  25  1   
 11   6  26  1   
 12   6  27  1   
 13   7  28  1   
 14   7  29  1   
 15   7  30  1   
 16   8   9  1   
 17   8  10  1   
 18   8  31  1   
 19   9  11  1   
 20   9  12  1   
 21   9  32  1   
 22  10  13  1   
 23  10  33  1   
 24  10  34  1   
 25  11  35  1   
 26  12  13  1   
 27  12  36  1   
 28  12  37  1   
 29  13  14  1   
 30  14  15  ar  
 31  14  16  ar  
 32  15  17  ar  
 33  16  18  ar  
 34  17  19  ar  
 35  17  38  1   
 36  18  19  ar  
 37  18  39  1   
 38  19  20  1   
 39  20  21  1   
 40  20  40  1   
 41  20  41  1   
 42  21  22  1   
 43  21  42  1   
 44  21  43  1   
 45  22  44  1   
 46  22  45  1   
 47  22  46  1   
@<TRIPOS>SUBSTRUCTURE
  1 ****  10 GROUP 4 **** **** 0

# MOE 2024.06 (io_trps.svl 2023.06)
