@<TRIPOS>MOLECULE
NONAME
24 23 1 0 0 
SMALL
USER_CHARGES


@<TRIPOS>ATOM
  1 O        7.8330     2.3220    -1.0070 O.2   1 <1>  -0.5700 
  2 C        8.2980     1.4040    -0.3730 C.2   1 <1>   0.7060 
  3 O        9.5630     1.4420     0.0390 O.3   1 <1>  -0.4300 
  4 C        7.5380     0.2300    -0.0270 C.2   1 <1>  -0.1360 
  5 C       10.4010     2.5480    -0.2450 C.3   1 <1>   0.0400 
  6 C        6.2460    -0.0090    -0.3460 C.2   1 <1>  -0.2880 
  7 C        5.3490    -1.1900    -0.0420 C.3   1 <1>   0.6410 
  8 N        6.0950    -2.1620     0.7150 N.4   1 <1>  -0.8530 
  9 C        4.8950    -1.8540    -1.3330 C.3   1 <1>  -0.2400 
 10 C        4.1640    -0.7500     0.8050 C.3   1 <1>  -0.2400 
 11 H        8.1340    -0.4630     0.5350 H     1 <1>   0.1500 
 12 H       11.3700     2.3620     0.1820 H     1 <1>   0.0800 
 13 H        9.9690     3.4340     0.1870 H     1 <1>   0.0800 
 14 H       10.4820     2.6590    -1.3130 H     1 <1>   0.0800 
 15 H        5.7050     0.7330    -0.9140 H     1 <1>   0.1500 
 16 H        5.5020    -2.9670     0.9280 H     1 <1>   0.4500 
 17 H        6.4130    -1.7330     1.5860 H     1 <1>   0.4500 
 18 H        6.8990    -2.4670     0.1640 H     1 <1>   0.4500 
 19 H        4.3220    -1.1550    -1.9180 H     1 <1>   0.0800 
 20 H        4.2680    -2.7070    -1.1380 H     1 <1>   0.0800 
 21 H        5.7380    -2.1580    -1.9280 H     1 <1>   0.0800 
 22 H        3.5780    -0.0300     0.2600 H     1 <1>   0.0800 
 23 H        4.4930    -0.2770     1.7130 H     1 <1>   0.0800 
 24 H        3.5220    -1.5790     1.0440 H     1 <1>   0.0800 
@<TRIPOS>BOND
  1   1   2  2   
  2   2   3  1   
  3   2   4  1   
  4   3   5  1   
  5   4   6  2   
  6   4  11  1   
  7   5  12  1   
  8   5  13  1   
  9   5  14  1   
 10   6   7  1   
 11   6  15  1   
 12   7   8  1   
 13   7   9  1   
 14   7  10  1   
 15   8  16  1   
 16   8  17  1   
 17   8  18  1   
 18   9  19  1   
 19   9  20  1   
 20   9  21  1   
 21  10  22  1   
 22  10  23  1   
 23  10  24  1   
@<TRIPOS>SUBSTRUCTURE
  1 ****   4 GROUP 4 **** **** 0

# MOE 2024.06 (io_trps.svl 2023.06)
