@<TRIPOS>MOLECULE
NONAME
53 55 1 0 0 
SMALL
USER_CHARGES


@<TRIPOS>ATOM
  1 O        1.4820    -0.1250    -2.7390 O.2   1 <1>  -0.5700 
  2 C        2.2840    -0.8790    -2.2320 C.2   1 <1>   0.5690 
  3 N        3.4600    -0.4260    -1.6970 N.am  1 <1>  -0.6600 
  4 C        1.8680    -2.3550    -2.1040 C.3   1 <1>   0.4040 
  5 C        3.4730     0.9560    -1.1380 C.3   1 <1>   0.3200 
  6 C        4.5800    -1.2910    -1.2250 C.3   1 <1>   0.0600 
  7 N        0.4600    -2.5310    -1.5780 N.4   1 <1>  -0.9590 
  8 C        2.4250     1.0440    -0.0320 C.2   1 <1>   0.0060 
  9 C        0.3030    -1.8740    -0.2410 C.3   1 <1>   0.3430 
 10 C        0.0340    -3.9570    -1.5760 C.3   1 <1>   0.3430 
 11 N        2.3420     0.2100     0.9520 N.2   1 <1>  -0.3380 
 12 N        1.4500     1.9600     0.0190 N.pl3 1 <1>   0.0480 
 13 C       -1.1510    -1.9560     0.2140 C.3   1 <1>  -0.1600 
 14 C       -1.4280    -4.0600    -1.1470 C.3   1 <1>  -0.1600 
 15 N        1.2840     0.5650     1.6800 N.2   1 <1>  -0.3380 
 16 C        0.7770     1.6060     1.1150 C.2   1 <1>   0.0360 
 17 C        1.1280     3.0670    -0.9090 C.3   1 <1>   0.0960 
 18 C       -1.6550    -3.4040     0.2220 C.3   1 <1>   0.0640 
 19 C        2.0410     4.2700    -0.6560 C.3   1 <1>  -0.2400 
 20 C       -3.1240    -3.4770     0.6270 C.ar  1 <1>  -0.1430 
 21 C       -4.1160    -2.8640    -0.1270 C.ar  1 <1>  -0.1500 
 22 C       -3.4860    -4.1700     1.7740 C.ar  1 <1>  -0.1500 
 23 C       -5.4440    -2.9450     0.2560 C.ar  1 <1>  -0.1500 
 24 C       -4.8130    -4.2510     2.1580 C.ar  1 <1>  -0.1500 
 25 C       -5.7940    -3.6390     1.3990 C.ar  1 <1>  -0.1500 
 26 H        2.5580    -2.8500    -1.4450 H     1 <1>   0.0800 
 27 H        1.9480    -2.8040    -3.0780 H     1 <1>   0.0800 
 28 H        3.2620     1.6570    -1.9260 H     1 <1>   0.0800 
 29 H        4.4410     1.1890    -0.7300 H     1 <1>   0.0800 
 30 H        4.5870    -2.2330    -1.7430 H     1 <1>   0.0800 
 31 H        4.4870    -1.4640    -0.1650 H     1 <1>   0.0800 
 32 H        5.5210    -0.8010    -1.4130 H     1 <1>   0.0800 
 33 H       -0.1450    -1.9980    -2.2210 H     1 <1>   0.4500 
 34 H        0.5830    -0.8360    -0.3080 H     1 <1>   0.0800 
 35 H        0.9420    -2.3460     0.4880 H     1 <1>   0.0800 
 36 H        0.6470    -4.5190    -0.8900 H     1 <1>   0.0800 
 37 H        0.1480    -4.3800    -2.5610 H     1 <1>   0.0800 
 38 H       -1.7560    -1.3450    -0.4310 H     1 <1>   0.0800 
 39 H       -1.2260    -1.5470     1.2070 H     1 <1>   0.0800 
 40 H       -1.7080    -5.0970    -1.0900 H     1 <1>   0.0800 
 41 H       -2.0490    -3.6000    -1.8940 H     1 <1>   0.0800 
 42 H       -0.0880     2.1380     1.4720 H     1 <1>   0.1500 
 43 H        0.1010     3.3530    -0.7630 H     1 <1>   0.0800 
 44 H        1.2360     2.7190    -1.9220 H     1 <1>   0.0800 
 45 H       -1.0750    -3.9480     0.9490 H     1 <1>   0.0800 
 46 H        1.9210     4.6270     0.3530 H     1 <1>   0.0800 
 47 H        1.7820     5.0690    -1.3290 H     1 <1>   0.0800 
 48 H        3.0710     4.0120    -0.8200 H     1 <1>   0.0800 
 49 H       -3.8720    -2.3170    -1.0190 H     1 <1>   0.1500 
 50 H       -2.7420    -4.6530     2.3820 H     1 <1>   0.1500 
 51 H       -6.2060    -2.4670    -0.3350 H     1 <1>   0.1500 
 52 H       -5.0840    -4.7910     3.0490 H     1 <1>   0.1500 
 53 H       -6.8260    -3.7030     1.6980 H     1 <1>   0.1500 
@<TRIPOS>BOND
  1   1   2  2   
  2   2   3  am  
  3   2   4  1   
  4   3   5  1   
  5   3   6  1   
  6   4   7  1   
  7   4  26  1   
  8   4  27  1   
  9   5   8  1   
 10   5  28  1   
 11   5  29  1   
 12   6  30  1   
 13   6  31  1   
 14   6  32  1   
 15   7   9  1   
 16   7  10  1   
 17   7  33  1   
 18   8  11  2   
 19   8  12  1   
 20   9  13  1   
 21   9  34  1   
 22   9  35  1   
 23  10  14  1   
 24  10  36  1   
 25  10  37  1   
 26  11  15  1   
 27  12  16  1   
 28  12  17  1   
 29  13  18  1   
 30  13  38  1   
 31  13  39  1   
 32  14  18  1   
 33  14  40  1   
 34  14  41  1   
 35  15  16  2   
 36  16  42  1   
 37  17  19  1   
 38  17  43  1   
 39  17  44  1   
 40  18  20  1   
 41  18  45  1   
 42  19  46  1   
 43  19  47  1   
 44  19  48  1   
 45  20  21  ar  
 46  20  22  ar  
 47  21  23  ar  
 48  21  49  1   
 49  22  24  ar  
 50  22  50  1   
 51  23  25  ar  
 52  23  51  1   
 53  24  25  ar  
 54  24  52  1   
 55  25  53  1   
@<TRIPOS>SUBSTRUCTURE
  1 ****   9 GROUP 4 **** **** 0

# MOE 2024.06 (io_trps.svl 2023.06)
