@<TRIPOS>MOLECULE
NONAME
47 48 1 0 0 
SMALL
USER_CHARGES


@<TRIPOS>ATOM
  1 O        0.3890     2.4550     3.2720 O.2   1 <1>  -0.5700 
  2 C        0.2920     3.3570     2.4810 C.2   1 <1>   0.5690 
  3 N       -0.8180     4.1250     2.4400 N.am  1 <1>  -0.7300 
  4 C        1.4170     3.6300     1.4810 C.3   1 <1>   0.1810 
  5 C       -1.0380     5.2100     1.4500 C.3   1 <1>   0.3640 
  6 O        1.3630     4.9380     0.9570 O.3   1 <1>  -0.5600 
  7 C       -2.3960     4.9900     0.7870 C.ar  1 <1>  -0.1440 
  8 C        0.1010     5.2990     0.4000 C.3   1 <1>   0.2610 
  9 C       -3.2390     6.0710     0.5720 C.ar  1 <1>  -0.1500 
 10 C       -2.8110     3.7250     0.3870 C.ar  1 <1>  -0.1500 
 11 C        0.1570     6.7240    -0.1560 C.2   1 <1>   0.5690 
 12 C       -4.4750     5.8930    -0.0260 C.ar  1 <1>  -0.1500 
 13 C       -4.0470     3.5460    -0.2100 C.ar  1 <1>  -0.1500 
 14 O       -0.6090     7.0550    -1.0290 O.2   1 <1>  -0.5700 
 15 N        1.0710     7.5890     0.3560 N.am  1 <1>  -0.7300 
 16 C       -4.8810     4.6300    -0.4160 C.ar  1 <1>  -0.1500 
 17 C        1.3060     8.9900    -0.0690 C.3   1 <1>   0.1400 
 18 C        2.6210     9.1400    -0.8690 C.3   1 <1>   0.0000 
 19 C        3.8170     8.5390    -0.0970 C.3   1 <1>   0.1200 
 20 C        2.4970     8.4320    -2.2310 C.3   1 <1>  -0.2400 
 21 C        2.8720    10.6360    -1.1300 C.3   1 <1>  -0.2400 
 22 O        3.8690     9.0570     1.1980 O.3   1 <1>  -0.5600 
 23 C        4.9430     8.5910     1.9480 C.3   1 <1>   0.0400 
 24 H       -1.5880     3.9150     3.0760 H     1 <1>   0.3700 
 25 H        1.3530     2.9320     0.6660 H     1 <1>   0.0800 
 26 H        2.3660     3.5100     1.9700 H     1 <1>   0.0800 
 27 H       -1.0670     6.1400     1.9920 H     1 <1>   0.0800 
 28 H       -0.1030     4.6280    -0.4150 H     1 <1>   0.0800 
 29 H       -2.9380     7.0640     0.8580 H     1 <1>   0.1500 
 30 H       -2.1780     2.8680     0.5370 H     1 <1>   0.1500 
 31 H       -5.1190     6.7390    -0.1910 H     1 <1>   0.1500 
 32 H       -4.3600     2.5620    -0.5150 H     1 <1>   0.1500 
 33 H        1.7560     7.2240     1.0270 H     1 <1>   0.3700 
 34 H       -5.8410     4.4920    -0.8810 H     1 <1>   0.1500 
 35 H        0.4770     9.3290    -0.6670 H     1 <1>   0.0800 
 36 H        1.3500     9.6080     0.8120 H     1 <1>   0.0800 
 37 H        4.7390     8.7760    -0.6000 H     1 <1>   0.0800 
 38 H        3.7200     7.4690    -0.0300 H     1 <1>   0.0800 
 39 H        1.6580     8.8200    -2.7820 H     1 <1>   0.0800 
 40 H        2.3450     7.3750    -2.0980 H     1 <1>   0.0800 
 41 H        3.3870     8.5750    -2.8180 H     1 <1>   0.0800 
 42 H        2.0550    11.0680    -1.6810 H     1 <1>   0.0800 
 43 H        3.7760    10.7770    -1.6950 H     1 <1>   0.0800 
 44 H        2.9720    11.1670    -0.1990 H     1 <1>   0.0800 
 45 H        4.8920     9.0440     2.9220 H     1 <1>   0.0800 
 46 H        5.8630     8.8740     1.4650 H     1 <1>   0.0800 
 47 H        4.8750     7.5210     2.0400 H     1 <1>   0.0800 
@<TRIPOS>BOND
  1   1   2  2   
  2   2   3  am  
  3   2   4  1   
  4   3   5  1   
  5   3  24  1   
  6   4   6  1   
  7   4  25  1   
  8   4  26  1   
  9   5   7  1   
 10   5   8  1   
 11   5  27  1   
 12   6   8  1   
 13   7   9  ar  
 14   7  10  ar  
 15   8  11  1   
 16   8  28  1   
 17   9  12  ar  
 18   9  29  1   
 19  10  13  ar  
 20  10  30  1   
 21  11  14  2   
 22  11  15  am  
 23  12  16  ar  
 24  12  31  1   
 25  13  16  ar  
 26  13  32  1   
 27  15  17  1   
 28  15  33  1   
 29  16  34  1   
 30  17  18  1   
 31  17  35  1   
 32  17  36  1   
 33  18  19  1   
 34  18  20  1   
 35  18  21  1   
 36  19  22  1   
 37  19  37  1   
 38  19  38  1   
 39  20  39  1   
 40  20  40  1   
 41  20  41  1   
 42  21  42  1   
 43  21  43  1   
 44  21  44  1   
 45  22  23  1   
 46  23  45  1   
 47  23  46  1   
 48  23  47  1   
@<TRIPOS>SUBSTRUCTURE
  1 ****  11 GROUP 4 **** **** 0

# MOE 2024.06 (io_trps.svl 2023.06)
