@<TRIPOS>MOLECULE
NONAME
56 59 1 0 0 
SMALL
USER_CHARGES


@<TRIPOS>ATOM
  1 O       -0.0150    -1.0110     0.5380 O.2   1 <1>  -0.5700 
  2 C        1.1610    -1.3390     0.5460 C.2   1 <1>   0.5440 
  3 N        1.5080    -2.4470     1.3070 N.am  1 <1>  -0.6600 
  4 C        2.1120    -0.5680    -0.2650 C.ar  1 <1>   0.3960 
  5 C        0.6170    -2.9700     2.3800 C.3   1 <1>   0.1400 
  6 C        2.7620    -3.2270     1.1240 C.3   1 <1>   0.1400 
  7 N        3.3590    -0.3250     0.1820 N.ar  1 <1>  -0.6200 
  8 C        1.6890    -0.0830    -1.5050 C.ar  1 <1>  -0.1500 
  9 C        0.2170    -4.4110     2.0560 C.3   1 <1>  -0.1600 
 10 C        2.4070    -4.6730     0.7710 C.3   1 <1>  -0.1600 
 11 C        4.1540     0.3850    -0.5970 C.ar  1 <1>   0.1600 
 12 C        2.5280     0.6520    -2.3120 C.ar  1 <1>  -0.1500 
 13 C        1.4560    -5.2960     1.8140 C.3   1 <1>  -0.0190 
 14 C        3.7970     0.8890    -1.8350 C.ar  1 <1>  -0.1500 
 15 C        1.0960    -6.7630     1.5500 C.2   1 <1>   0.5690 
 16 O        1.2960    -7.5360     2.4580 O.2   1 <1>  -0.5700 
 17 N        0.5660    -7.2170     0.3670 N.am  1 <1>  -0.6600 
 18 C        0.1290    -6.4520    -0.8310 C.3   1 <1>   0.1400 
 19 C        0.2310    -8.6550     0.1750 C.3   1 <1>   0.1400 
 20 C       -0.9700    -7.3130    -1.4460 C.3   1 <1>   0.2000 
 21 C       -0.4810    -8.7380    -1.1810 C.3   1 <1>  -0.0800 
 22 O       -2.1390    -7.0820    -0.7360 O.3   1 <1>  -0.6800 
 23 C       -1.5590    -9.8350    -1.2500 C.3   1 <1>   0.0210 
 24 C       -0.9550   -11.1980    -0.9780 C.2   1 <1>   0.1080 
 25 N       -0.0570   -11.7360    -1.7450 N.2   1 <1>  -0.7070 
 26 C       -1.2740   -12.0090     0.1060 C.2   1 <1>  -0.1500 
 27 N        0.2210   -12.9180    -1.1640 N.pl3 1 <1>   0.3000 
 28 C       -0.5020   -13.1060    -0.0400 C.2   1 <1>  -0.3320 
 29 C       -0.4090   -14.3400     0.8380 C.3   1 <1>  -0.0600 
 30 H        1.1460    -2.9370     3.3170 H     1 <1>   0.0800 
 31 H       -0.2650    -2.3610     2.4800 H     1 <1>   0.0800 
 32 H        3.3650    -2.8170     0.3340 H     1 <1>   0.0800 
 33 H        3.3340    -3.1920     2.0360 H     1 <1>   0.0800 
 34 H        0.6830    -0.2900    -1.8260 H     1 <1>   0.1500 
 35 H       -0.3500    -4.8100     2.8790 H     1 <1>   0.0800 
 36 H       -0.4260    -4.3950     1.1990 H     1 <1>   0.0800 
 37 H        1.9620    -4.6710    -0.2040 H     1 <1>   0.0800 
 38 H        3.3100    -5.2570     0.7180 H     1 <1>   0.0800 
 39 H        5.1480     0.5810    -0.2310 H     1 <1>   0.1500 
 40 H        2.2060     1.0280    -3.2690 H     1 <1>   0.1500 
 41 H        2.0030    -5.2990     2.7420 H     1 <1>   0.0800 
 42 H        4.5030     1.4590    -2.4120 H     1 <1>   0.1500 
 43 H       -0.2310    -5.4670    -0.6010 H     1 <1>   0.0800 
 44 H        0.9550    -6.3810    -1.5180 H     1 <1>   0.0800 
 45 H        1.1240    -9.2590     0.1820 H     1 <1>   0.0800 
 46 H       -0.4160    -8.9780     0.9730 H     1 <1>   0.0800 
 47 H       -1.1480    -7.1050    -2.4870 H     1 <1>   0.0800 
 48 H        0.2690    -8.9680    -1.9180 H     1 <1>   0.0800 
 49 H       -1.9300    -7.1300     0.2190 H     1 <1>   0.4000 
 50 H       -2.0000    -9.8430    -2.2300 H     1 <1>   0.0800 
 51 H       -2.3390    -9.6470    -0.5350 H     1 <1>   0.0800 
 52 H       -1.9860   -11.7830     0.8800 H     1 <1>   0.1500 
 53 H        0.9080   -13.5720    -1.5580 H     1 <1>   0.2700 
 54 H       -1.0820   -14.2510     1.6720 H     1 <1>   0.0800 
 55 H        0.5920   -14.4520     1.2170 H     1 <1>   0.0800 
 56 H       -0.6730   -15.2180     0.2760 H     1 <1>   0.0800 
@<TRIPOS>BOND
  1   1   2  2   
  2   2   3  am  
  3   2   4  1   
  4   3   5  1   
  5   3   6  1   
  6   4   7  ar  
  7   4   8  ar  
  8   5   9  1   
  9   5  30  1   
 10   5  31  1   
 11   6  10  1   
 12   6  32  1   
 13   6  33  1   
 14   7  11  ar  
 15   8  12  ar  
 16   8  34  1   
 17   9  13  1   
 18   9  35  1   
 19   9  36  1   
 20  10  13  1   
 21  10  37  1   
 22  10  38  1   
 23  11  14  ar  
 24  11  39  1   
 25  12  14  ar  
 26  12  40  1   
 27  13  15  1   
 28  13  41  1   
 29  14  42  1   
 30  15  16  2   
 31  15  17  am  
 32  17  18  1   
 33  17  19  1   
 34  18  20  1   
 35  18  43  1   
 36  18  44  1   
 37  19  21  1   
 38  19  45  1   
 39  19  46  1   
 40  20  21  1   
 41  20  22  1   
 42  20  47  1   
 43  21  23  1   
 44  21  48  1   
 45  22  49  1   
 46  23  24  1   
 47  23  50  1   
 48  23  51  1   
 49  24  25  2   
 50  24  26  1   
 51  25  27  1   
 52  26  28  2   
 53  26  52  1   
 54  27  28  1   
 55  27  53  1   
 56  28  29  1   
 57  29  54  1   
 58  29  55  1   
 59  29  56  1   
@<TRIPOS>SUBSTRUCTURE
  1 ****  18 GROUP 4 **** **** 0

# MOE 2024.06 (io_trps.svl 2023.06)
