@<TRIPOS>MOLECULE
NONAME
46 49 1 0 0 
SMALL
USER_CHARGES


@<TRIPOS>ATOM
  1 O        0.3290     0.9220    -2.0980 O.2   1 <1>  -0.5700 
  2 C       -0.1590     1.7920    -1.4140 C.2   1 <1>   0.5690 
  3 N       -1.3930     1.6380    -0.8270 N.am  1 <1>  -0.6600 
  4 C        0.6520     3.0650    -1.2530 C.3   1 <1>   0.0440 
  5 C       -2.0300     2.6140     0.1190 C.3   1 <1>   0.1400 
  6 C       -2.2100     0.4110    -1.0480 C.3   1 <1>   0.1400 
  7 C        1.2260     3.1990     0.1450 C.ar  1 <1>   0.1660 
  8 C       -3.4210     3.0460    -0.3820 C.3   1 <1>   0.1440 
  9 C       -3.5990     0.7970    -1.5710 C.3   1 <1>  -0.1600 
 10 N        0.9790     4.3400     0.7740 N.ar  1 <1>  -0.6200 
 11 C        1.9640     2.1580     0.6890 C.ar  1 <1>  -0.1500 
 12 C       -4.0280     3.9870     0.6430 C.ar  1 <1>   0.1660 
 13 C       -4.2990     1.8020    -0.6380 C.3   1 <1>  -0.1600 
 14 C       -3.3120     3.9550    -1.6360 C.3   1 <1>  -0.1600 
 15 C        1.4820     4.4420     1.9940 C.ar  1 <1>   0.1600 
 16 C        2.4820     2.2790     1.9610 C.ar  1 <1>  -0.1500 
 17 N       -4.5370     3.6320     1.8030 N.ar  1 <1>  -0.6200 
 18 C       -3.9720     5.2830     0.2260 C.ar  1 <1>  -0.1440 
 19 C       -3.3260     5.4090    -1.1310 C.3   1 <1>  -0.0170 
 20 C        2.2260     3.4600     2.6240 C.ar  1 <1>  -0.1500 
 21 C       -5.0010     4.6400     2.5280 C.ar  1 <1>   0.4770 
 22 C       -4.4810     6.2480     1.0600 C.ar  1 <1>   0.1600 
 23 N       -5.0060     5.9320     2.2260 N.ar  1 <1>  -0.6200 
 24 C       -5.6020     4.2800     3.8650 C.3   1 <1>  -0.0970 
 25 H        0.0320     3.9090    -1.4870 H     1 <1>   0.0800 
 26 H        1.4630     3.0570    -1.9560 H     1 <1>   0.0800 
 27 H       -1.4230     3.4870     0.2570 H     1 <1>   0.0800 
 28 H       -2.1350     2.1420     1.0810 H     1 <1>   0.0800 
 29 H       -2.3030    -0.1180    -0.1160 H     1 <1>   0.0800 
 30 H       -1.7310    -0.2450    -1.7560 H     1 <1>   0.0800 
 31 H       -4.2010    -0.0900    -1.6570 H     1 <1>   0.0800 
 32 H       -3.4960     1.2150    -2.5570 H     1 <1>   0.0800 
 33 H        2.1320     1.2570     0.1240 H     1 <1>   0.1500 
 34 H       -5.2480     2.0960    -1.0510 H     1 <1>   0.0800 
 35 H       -4.4950     1.3180     0.3030 H     1 <1>   0.0800 
 36 H       -4.1800     3.8110    -2.2550 H     1 <1>   0.0800 
 37 H       -2.4400     3.7450    -2.2280 H     1 <1>   0.0800 
 38 H        1.2900     5.3600     2.5230 H     1 <1>   0.1500 
 39 H        3.0570     1.4890     2.4120 H     1 <1>   0.1500 
 40 H       -3.8890     6.0510    -1.7860 H     1 <1>   0.0800 
 41 H       -2.3230     5.7830    -1.0200 H     1 <1>   0.0800 
 42 H        2.5990     3.6200     3.6190 H     1 <1>   0.1500 
 43 H       -4.4590     7.2850     0.7730 H     1 <1>   0.1500 
 44 H       -5.4010     3.2520     4.1040 H     1 <1>   0.0800 
 45 H       -6.6630     4.4330     3.8290 H     1 <1>   0.0800 
 46 H       -5.1800     4.9050     4.6290 H     1 <1>   0.0800 
@<TRIPOS>BOND
  1   1   2  2   
  2   2   3  am  
  3   2   4  1   
  4   3   5  1   
  5   3   6  1   
  6   4   7  1   
  7   4  25  1   
  8   4  26  1   
  9   5   8  1   
 10   5  27  1   
 11   5  28  1   
 12   6   9  1   
 13   6  29  1   
 14   6  30  1   
 15   7  10  ar  
 16   7  11  ar  
 17   8  12  1   
 18   8  13  1   
 19   8  14  1   
 20   9  13  1   
 21   9  31  1   
 22   9  32  1   
 23  10  15  ar  
 24  11  16  ar  
 25  11  33  1   
 26  12  17  ar  
 27  12  18  ar  
 28  13  34  1   
 29  13  35  1   
 30  14  19  1   
 31  14  36  1   
 32  14  37  1   
 33  15  20  ar  
 34  15  38  1   
 35  16  20  ar  
 36  16  39  1   
 37  17  21  ar  
 38  18  19  1   
 39  18  22  ar  
 40  19  40  1   
 41  19  41  1   
 42  20  42  1   
 43  21  23  ar  
 44  21  24  1   
 45  22  23  ar  
 46  22  43  1   
 47  24  44  1   
 48  24  45  1   
 49  24  46  1   
@<TRIPOS>SUBSTRUCTURE
  1 ****   5 GROUP 4 **** **** 0

# MOE 2024.06 (io_trps.svl 2023.06)
