@<TRIPOS>MOLECULE
Untitled Document
45 47 1 0 0 
SMALL
USER_CHARGES


@<TRIPOS>ATOM
  1 F        1.2220    -0.9190     2.4580 F     1 <1>  -0.3400 
  2 C        1.9910    -1.5530     1.5840 C.3   1 <1>   0.8800 
  3 F        2.4600    -2.6210     2.2220 F     1 <1>  -0.3400 
  4 O        3.0750    -0.7040     1.2710 O.3   1 <1>  -0.3630 
  5 C        4.1410    -1.1130     0.5310 C.ar  1 <1>   0.0830 
  6 C        4.1020    -2.1310    -0.4570 C.ar  1 <1>   0.0830 
  7 C        5.3250    -0.4700     0.7760 C.ar  1 <1>  -0.1500 
  8 O        2.9440    -2.7750    -0.7320 O.3   1 <1>  -0.3630 
  9 C        5.2430    -2.4420    -1.1540 C.ar  1 <1>  -0.1500 
 10 C        6.5090    -0.7850     0.0820 C.ar  1 <1>   0.0000 
 11 C        2.9560    -4.1840    -0.6570 C.3   1 <1>   0.8800 
 12 C        6.4660    -1.7920    -0.9010 C.ar  1 <1>   0.0000 
 13 C        7.7320    -0.1320     0.3350 C.ar  1 <1>  -0.1500 
 14 F        3.1520    -4.6660    -1.8760 F     1 <1>  -0.3400 
 15 F        1.7390    -4.5710    -0.3030 F     1 <1>  -0.3400 
 16 C        7.6520    -2.1050    -1.5890 C.ar  1 <1>  -0.1500 
 17 C        8.8850    -0.4320    -0.3550 C.ar  1 <1>  -0.1430 
 18 C        8.8230    -1.4510    -1.3240 C.ar  1 <1>  -0.1500 
 19 C       10.2400     0.2730    -0.1140 C.3   1 <1>   0.6040 
 20 O       10.0550     1.2980     0.8040 O.3   1 <1>  -0.6800 
 21 C       11.2310    -0.7530     0.4790 C.2   1 <1>   0.0460 
 22 C       10.7680     0.9590    -1.4210 C.3   1 <1>  -0.0800 
 23 N       11.0390    -1.2980     1.6940 N.2   1 <1>  -0.2270 
 24 C       12.3490    -1.2830    -0.0560 C.2   1 <1>  -0.3020 
 25 C       12.0320     1.8250    -1.2140 C.3   1 <1>  -0.2400 
 26 C        9.7120     1.8340    -2.1340 C.3   1 <1>  -0.2400 
 27 N       11.9960    -2.1290     1.9240 N.2   1 <1>  -0.4180 
 28 N       12.8060    -2.1290     0.8690 N.pl3 1 <1>   0.3000 
 29 H        1.4090    -1.8430     0.7290 H     1 <1>   0.0800 
 30 H        5.3620     0.3020     1.5240 H     1 <1>   0.1500 
 31 H        5.2320    -3.1860    -1.9300 H     1 <1>   0.1500 
 32 H        3.6870    -4.5730     0.0300 H     1 <1>   0.0800 
 33 H        7.7260     0.6130     1.1100 H     1 <1>   0.1500 
 34 H        7.6230    -2.8800    -2.3340 H     1 <1>   0.1500 
 35 H        9.7140    -1.7260    -1.8600 H     1 <1>   0.1500 
 36 H        9.4200     1.9210     0.4170 H     1 <1>   0.4000 
 37 H       11.0330     0.1730    -2.1060 H     1 <1>   0.0800 
 38 H       12.8320    -1.1210    -1.0000 H     1 <1>   0.1500 
 39 H       11.8090     2.6870    -0.6090 H     1 <1>   0.0800 
 40 H       12.4110     2.1670    -2.1610 H     1 <1>   0.0800 
 41 H       12.8120     1.2740    -0.7230 H     1 <1>   0.0800 
 42 H        9.4040     2.6540    -1.5100 H     1 <1>   0.0800 
 43 H        8.8420     1.2580    -2.3970 H     1 <1>   0.0800 
 44 H       10.1190     2.2390    -3.0440 H     1 <1>   0.0800 
 45 H       13.6460    -2.7150     0.8210 H     1 <1>   0.2700 
@<TRIPOS>BOND
  1   1   2  1   
  2   2   3  1   
  3   2   4  1   
  4   2  29  1   
  5   4   5  1   
  6   5   6  ar  
  7   5   7  ar  
  8   6   8  1   
  9   6   9  ar  
 10   7  10  ar  
 11   7  30  1   
 12   8  11  1   
 13   9  12  ar  
 14   9  31  1   
 15  10  12  ar  
 16  10  13  ar  
 17  11  14  1   
 18  11  15  1   
 19  11  32  1   
 20  12  16  ar  
 21  13  17  ar  
 22  13  33  1   
 23  16  18  ar  
 24  16  34  1   
 25  17  18  ar  
 26  17  19  1   
 27  18  35  1   
 28  19  20  1   
 29  19  21  1   
 30  19  22  1   
 31  20  36  1   
 32  21  23  1   
 33  21  24  2   
 34  22  25  1   
 35  22  26  1   
 36  22  37  1   
 37  23  27  2   
 38  24  28  1   
 39  24  38  1   
 40  25  39  1   
 41  25  40  1   
 42  25  41  1   
 43  26  42  1   
 44  26  43  1   
 45  26  44  1   
 46  27  28  1   
 47  28  45  1   
@<TRIPOS>SUBSTRUCTURE
  1 ****  10 GROUP 4 **** **** 0

# MOE 2024.06 (io_trps.svl 2023.06)
