@<TRIPOS>MOLECULE
NONAME
53 54 1 0 0 
SMALL
USER_CHARGES


@<TRIPOS>ATOM
  1 O        2.6930     2.2920     1.8600 O.co2 1 <1>  -0.9000 
  2 C        2.2730     1.1490     1.6230 C.2   1 <1>   0.9060 
  3 O        2.2240     0.2930     2.5040 O.co2 1 <1>  -0.9000 
  4 C        2.1180     0.6990     0.1570 C.3   1 <1>  -0.1060 
  5 C        3.2320    -0.3610    -0.0170 C.3   1 <1>   0.2000 
  6 C        2.4050     1.8660    -0.8460 C.3   1 <1>  -0.1600 
  7 C        0.7100     0.0890    -0.0910 C.3   1 <1>  -0.1600 
  8 O        3.2650    -0.7980    -1.3430 O.3   1 <1>  -0.6800 
  9 C        4.6170     0.2400     0.3450 C.3   1 <1>   0.3430 
 10 C        3.9030     2.1480    -1.0690 C.3   1 <1>   0.3430 
 11 C       -0.4410     1.0780     0.1560 C.3   1 <1>  -0.1600 
 12 N        4.6760     1.7330     0.1300 N.4   1 <1>  -0.9590 
 13 C       -1.7970     0.4080    -0.0800 C.3   1 <1>  -0.2400 
 14 C        6.0370     2.3060     0.2520 C.3   1 <1>   0.3430 
 15 C        5.9730     3.7650     0.7060 C.3   1 <1>   0.1200 
 16 O        7.2800     4.2870     0.6560 O.3   1 <1>  -0.3630 
 17 C        7.5330     5.6000     0.9050 C.ar  1 <1>   0.0830 
 18 C        8.8010     6.0970     0.5980 C.ar  1 <1>  -0.1430 
 19 C        6.5660     6.4460     1.4430 C.ar  1 <1>  -0.1500 
 20 C        9.0790     7.4460     0.8110 C.ar  1 <1>  -0.1430 
 21 C        9.8760     5.1720     0.0250 C.3   1 <1>  -0.0970 
 22 C        6.8540     7.7790     1.6590 C.ar  1 <1>  -0.1500 
 23 C        8.1030     8.2740     1.3420 C.ar  1 <1>  -0.1500 
 24 C       10.4340     8.0560     0.4750 C.3   1 <1>  -0.0970 
 25 H        3.0450    -1.2220     0.6050 H     1 <1>   0.0800 
 26 H        1.9280     2.7660    -0.4990 H     1 <1>   0.0800 
 27 H        1.9750     1.6410    -1.8050 H     1 <1>   0.0800 
 28 H        0.6390    -0.2770    -1.1000 H     1 <1>   0.0800 
 29 H        0.5810    -0.7510     0.5720 H     1 <1>   0.0800 
 30 H        2.4110    -1.2250    -1.5600 H     1 <1>   0.4000 
 31 H        5.3740    -0.2600    -0.2340 H     1 <1>   0.0800 
 32 H        4.7990     0.0440     1.3900 H     1 <1>   0.0800 
 33 H        4.0440     3.1970    -1.2690 H     1 <1>   0.0800 
 34 H        4.2480     1.5850    -1.9210 H     1 <1>   0.0800 
 35 H       -0.4020     1.4360     1.1720 H     1 <1>   0.0800 
 36 H       -0.3540     1.9280    -0.4980 H     1 <1>   0.0800 
 37 H        4.1010     2.1170     0.9290 H     1 <1>   0.4500 
 38 H       -1.9220    -0.4270     0.5870 H     1 <1>   0.0800 
 39 H       -1.8760     0.0590    -1.0950 H     1 <1>   0.0800 
 40 H       -2.5900     1.1120     0.1040 H     1 <1>   0.0800 
 41 H        6.5950     1.7500     0.9870 H     1 <1>   0.0800 
 42 H        6.5450     2.2410    -0.6960 H     1 <1>   0.0800 
 43 H        5.6160     3.8260     1.7190 H     1 <1>   0.0800 
 44 H        5.3560     4.3490     0.0470 H     1 <1>   0.0800 
 45 H        5.5870     6.0940     1.7050 H     1 <1>   0.1500 
 46 H       10.8380     5.3990     0.4450 H     1 <1>   0.0800 
 47 H        9.9240     5.2920    -1.0420 H     1 <1>   0.0800 
 48 H        9.6750     4.1400     0.2450 H     1 <1>   0.0800 
 49 H        6.1070     8.4330     2.0750 H     1 <1>   0.1500 
 50 H        8.3100     9.3160     1.5140 H     1 <1>   0.1500 
 51 H       10.4040     9.1280     0.5450 H     1 <1>   0.0800 
 52 H       10.7210     7.7970    -0.5280 H     1 <1>   0.0800 
 53 H       11.1790     7.6930     1.1600 H     1 <1>   0.0800 
@<TRIPOS>BOND
  1   1   2  ar  
  2   2   3  ar  
  3   2   4  1   
  4   4   5  1   
  5   4   6  1   
  6   4   7  1   
  7   5   8  1   
  8   5   9  1   
  9   5  25  1   
 10   6  10  1   
 11   6  26  1   
 12   6  27  1   
 13   7  11  1   
 14   7  28  1   
 15   7  29  1   
 16   8  30  1   
 17   9  12  1   
 18   9  31  1   
 19   9  32  1   
 20  10  12  1   
 21  10  33  1   
 22  10  34  1   
 23  11  13  1   
 24  11  35  1   
 25  11  36  1   
 26  12  14  1   
 27  12  37  1   
 28  13  38  1   
 29  13  39  1   
 30  13  40  1   
 31  14  15  1   
 32  14  41  1   
 33  14  42  1   
 34  15  16  1   
 35  15  43  1   
 36  15  44  1   
 37  16  17  1   
 38  17  18  ar  
 39  17  19  ar  
 40  18  20  ar  
 41  18  21  1   
 42  19  22  ar  
 43  19  45  1   
 44  20  23  ar  
 45  20  24  1   
 46  21  46  1   
 47  21  47  1   
 48  21  48  1   
 49  22  23  ar  
 50  22  49  1   
 51  23  50  1   
 52  24  51  1   
 53  24  52  1   
 54  24  53  1   
@<TRIPOS>SUBSTRUCTURE
  1 ****  15 GROUP 4 **** **** 0

# MOE 2024.06 (io_trps.svl 2023.06)
