@<TRIPOS>MOLECULE
NONAME
40 41 1 0 0 
SMALL
USER_CHARGES


@<TRIPOS>ATOM
  1 O       -2.2330    -2.8090     1.5120 O.2   1 <1>  -0.5700 
  2 C       -1.7610    -1.9370     0.8410 C.2   1 <1>   0.4480 
  3 C       -1.7560    -2.0660    -0.6790 C.3   1 <1>  -0.0190 
  4 C       -1.1350    -0.7000     1.4650 C.3   1 <1>  -0.0990 
  5 C       -3.0500    -2.7790    -1.1100 C.3   1 <1>   0.3430 
  6 C       -0.4870    -2.8220    -1.1540 C.3   1 <1>  -0.1600 
  7 C       -2.0360     0.5400     1.3580 C.3   1 <1>  -0.2400 
  8 N       -2.9130    -4.2280    -0.7870 N.4   1 <1>  -0.9590 
  9 C       -0.8140    -3.9510    -2.1490 C.3   1 <1>  -0.1600 
 10 C       -1.8810    -4.9270    -1.6220 C.3   1 <1>   0.3430 
 11 C       -4.2150    -4.9410    -0.7100 C.3   1 <1>   0.4860 
 12 C       -3.9870    -6.3320    -0.1700 C.ar  1 <1>  -0.1430 
 13 C       -4.1200    -7.4420    -0.9720 C.ar  1 <1>   0.1600 
 14 C       -3.6310    -6.5480     1.1420 C.ar  1 <1>   0.1600 
 15 N       -3.8960    -8.6540    -0.5250 N.ar  1 <1>  -0.6200 
 16 N       -3.4040    -7.7530     1.6090 N.ar  1 <1>  -0.6200 
 17 C       -3.5500    -8.7450     0.7480 C.ar  1 <1>   0.4770 
 18 C       -3.2990   -10.1360     1.2790 C.3   1 <1>  -0.0970 
 19 H       -1.7680    -1.0810    -1.1120 H     1 <1>   0.0800 
 20 H       -0.1850    -0.5040     1.0000 H     1 <1>   0.0800 
 21 H       -0.9490    -0.9030     2.5060 H     1 <1>   0.0800 
 22 H       -3.2100    -2.6520    -2.1690 H     1 <1>   0.0800 
 23 H       -3.8850    -2.3520    -0.5790 H     1 <1>   0.0800 
 24 H        0.0170    -3.2590    -0.3070 H     1 <1>   0.0800 
 25 H        0.2020    -2.1280    -1.6070 H     1 <1>   0.0800 
 26 H       -2.2040     0.8140     0.3320 H     1 <1>   0.0800 
 27 H       -1.5690     1.3730     1.8560 H     1 <1>   0.0800 
 28 H       -2.9840     0.3540     1.8320 H     1 <1>   0.0800 
 29 H       -2.5430    -4.2120     0.1860 H     1 <1>   0.4500 
 30 H        0.0810    -4.5030    -2.3800 H     1 <1>   0.0800 
 31 H       -1.1600    -3.5240    -3.0750 H     1 <1>   0.0800 
 32 H       -2.3490    -5.4160    -2.4610 H     1 <1>   0.0800 
 33 H       -1.4040    -5.6890    -1.0230 H     1 <1>   0.0800 
 34 H       -4.6660    -4.9940    -1.6880 H     1 <1>   0.0800 
 35 H       -4.8860    -4.4110    -0.0530 H     1 <1>   0.0800 
 36 H       -4.4110    -7.3500    -2.0060 H     1 <1>   0.1500 
 37 H       -3.5210    -5.7250     1.8310 H     1 <1>   0.1500 
 38 H       -2.9560   -10.7790     0.4900 H     1 <1>   0.0800 
 39 H       -4.2120   -10.5310     1.6830 H     1 <1>   0.0800 
 40 H       -2.5550   -10.1080     2.0540 H     1 <1>   0.0800 
@<TRIPOS>BOND
  1   1   2  2   
  2   2   3  1   
  3   2   4  1   
  4   3   5  1   
  5   3   6  1   
  6   3  19  1   
  7   4   7  1   
  8   4  20  1   
  9   4  21  1   
 10   5   8  1   
 11   5  22  1   
 12   5  23  1   
 13   6   9  1   
 14   6  24  1   
 15   6  25  1   
 16   7  26  1   
 17   7  27  1   
 18   7  28  1   
 19   8  10  1   
 20   8  11  1   
 21   8  29  1   
 22   9  10  1   
 23   9  30  1   
 24   9  31  1   
 25  10  32  1   
 26  10  33  1   
 27  11  12  1   
 28  11  34  1   
 29  11  35  1   
 30  12  13  ar  
 31  12  14  ar  
 32  13  15  ar  
 33  13  36  1   
 34  14  16  ar  
 35  14  37  1   
 36  15  17  ar  
 37  16  17  ar  
 38  17  18  1   
 39  18  38  1   
 40  18  39  1   
 41  18  40  1   
@<TRIPOS>SUBSTRUCTURE
  1 ****   8 GROUP 4 **** **** 0

# MOE 2024.06 (io_trps.svl 2023.06)
