@<TRIPOS>MOLECULE
NONAME
37 39 1 0 0 
SMALL
USER_CHARGES


@<TRIPOS>ATOM
  1 O       -0.3750    -0.3810    -0.6410 O.2   1 <1>  -0.5700 
  2 C       -1.0520    -1.3310    -0.2860 C.2   1 <1>   0.6900 
  3 N       -0.8660    -2.6150    -0.6390 N.am  1 <1>  -0.5390 
  4 N       -2.1170    -1.2670     0.5410 N.am  1 <1>  -0.5390 
  5 C       -1.8350    -3.4130    -0.0110 C.2   1 <1>   0.1230 
  6 C       -2.5920    -2.5510     0.7170 C.2   1 <1>  -0.0410 
  7 C       -1.8900    -4.8520    -0.1790 C.2   1 <1>   0.6160 
  8 O       -0.9190    -5.4360    -0.6290 O.2   1 <1>  -0.5700 
  9 N       -3.0040    -5.6010     0.1410 N.am  1 <1>  -0.6600 
 10 C       -4.4010    -5.0980     0.1100 C.3   1 <1>   0.1400 
 11 C       -2.9910    -7.0850     0.0540 C.3   1 <1>   0.1400 
 12 C       -5.2480    -6.3130    -0.2660 C.3   1 <1>   0.2000 
 13 C       -4.4480    -7.5210     0.2140 C.3   1 <1>  -0.0800 
 14 O       -6.4880    -6.2820     0.3500 O.3   1 <1>  -0.6800 
 15 C       -4.7910    -8.8120    -0.5440 C.3   1 <1>   0.0200 
 16 C       -3.9130    -9.9580    -0.0840 C.2   1 <1>  -0.0400 
 17 O       -3.9660   -10.3640     1.1570 O.3   1 <1>  -0.0190 
 18 C       -3.0060   -10.7100    -0.7250 C.2   1 <1>  -0.1500 
 19 N       -3.1400   -11.3430     1.3820 N.2   1 <1>  -0.4100 
 20 C       -2.5480   -11.5750     0.2650 C.2   1 <1>   0.1080 
 21 C       -1.4970   -12.6430     0.0650 C.3   1 <1>  -0.0590 
 22 H       -0.0860    -2.9530    -1.2030 H     1 <1>   0.3700 
 23 H       -2.4250    -0.3830     0.9450 H     1 <1>   0.3700 
 24 H       -3.4290    -2.7640     1.3590 H     1 <1>   0.1500 
 25 H       -4.6690    -4.7430     1.0890 H     1 <1>   0.0800 
 26 H       -4.5140    -4.3160    -0.6210 H     1 <1>   0.0800 
 27 H       -2.6060    -7.3780    -0.9090 H     1 <1>   0.0800 
 28 H       -2.3670    -7.5070     0.8250 H     1 <1>   0.0800 
 29 H       -5.3970    -6.3360    -1.3320 H     1 <1>   0.0800 
 30 H       -4.6190    -7.6700     1.2660 H     1 <1>   0.0800 
 31 H       -6.3980    -6.3990     1.3160 H     1 <1>   0.4000 
 32 H       -4.6560    -8.6660    -1.6020 H     1 <1>   0.0800 
 33 H       -5.8220    -9.0680    -0.3720 H     1 <1>   0.0800 
 34 H       -2.6820   -10.6800    -1.7490 H     1 <1>   0.1500 
 35 H       -1.8230   -13.3400    -0.6850 H     1 <1>   0.0800 
 36 H       -1.3330   -13.1730     0.9860 H     1 <1>   0.0800 
 37 H       -0.5730   -12.1920    -0.2460 H     1 <1>   0.0800 
@<TRIPOS>BOND
  1   1   2  2   
  2   2   3  am  
  3   2   4  am  
  4   3   5  1   
  5   3  22  1   
  6   4   6  1   
  7   4  23  1   
  8   5   6  2   
  9   5   7  1   
 10   6  24  1   
 11   7   8  2   
 12   7   9  am  
 13   9  10  1   
 14   9  11  1   
 15  10  12  1   
 16  10  25  1   
 17  10  26  1   
 18  11  13  1   
 19  11  27  1   
 20  11  28  1   
 21  12  13  1   
 22  12  14  1   
 23  12  29  1   
 24  13  15  1   
 25  13  30  1   
 26  14  31  1   
 27  15  16  1   
 28  15  32  1   
 29  15  33  1   
 30  16  17  1   
 31  16  18  2   
 32  17  19  1   
 33  18  20  1   
 34  18  34  1   
 35  19  20  2   
 36  20  21  1   
 37  21  35  1   
 38  21  36  1   
 39  21  37  1   
@<TRIPOS>SUBSTRUCTURE
  1 ****  11 GROUP 4 **** **** 0

# MOE 2024.06 (io_trps.svl 2023.06)
