@<TRIPOS>MOLECULE
NONAME
48 49 1 0 0 
SMALL
USER_CHARGES


@<TRIPOS>ATOM
  1 O       -0.7890    -1.3360     0.7610 O.2   1 <1>  -0.5700 
  2 C        0.3880    -1.2950     0.4630 C.2   1 <1>   0.5440 
  3 N        0.8980    -0.0510     0.3000 N.am  1 <1>  -0.8000 
  4 C        1.1930    -2.4870     0.2810 C.ar  1 <1>   0.0860 
  5 C        0.6260    -3.7270    -0.0720 C.ar  1 <1>   0.4100 
  6 C        2.5720    -2.4530     0.4430 C.ar  1 <1>  -0.1500 
  7 N        1.3230    -4.8440    -0.2680 N.ar  1 <1>  -0.6200 
  8 N       -0.7330    -3.8820    -0.2230 N.pl3 1 <1>  -0.8690 
  9 C        3.3040    -3.6010     0.2350 C.ar  1 <1>  -0.1430 
 10 C        2.6320    -4.7640    -0.1270 C.ar  1 <1>   0.1670 
 11 C       -1.3630    -4.8050    -1.2210 C.3   1 <1>   0.2090 
 12 C        4.8180    -3.5560     0.4120 C.3   1 <1>  -0.0970 
 13 C        3.3920    -6.0540    -0.3840 C.3   1 <1>  -0.0970 
 14 C       -1.8130    -6.1810    -0.6290 C.3   1 <1>   0.5030 
 15 N       -0.8890    -6.5690     0.5170 N.4   1 <1>  -0.9590 
 16 C       -1.8300    -7.2430    -1.7460 C.3   1 <1>  -0.1600 
 17 C       -3.2960    -6.1900    -0.2110 C.3   1 <1>  -0.1600 
 18 C       -0.4670    -7.9940     0.6590 C.3   1 <1>   0.2630 
 19 C       -1.2700    -6.0210     1.8560 C.3   1 <1>   0.2630 
 20 C       -2.8880    -8.2930    -1.3660 C.3   1 <1>  -0.1600 
 21 C       -3.7350    -7.6560    -0.2590 C.3   1 <1>  -0.1600 
 22 H        0.2790     0.7520     0.4250 H     1 <1>   0.3700 
 23 H        1.8260     0.1490    -0.0710 H     1 <1>   0.3700 
 24 H        3.0620    -1.5400     0.7330 H     1 <1>   0.1500 
 25 H       -1.2670    -3.0120    -0.0270 H     1 <1>   0.4000 
 26 H       -0.6480    -4.9880    -2.0050 H     1 <1>   0.0800 
 27 H       -2.2000    -4.3110    -1.6830 H     1 <1>   0.0800 
 28 H        5.1320    -2.6140     0.8250 H     1 <1>   0.0800 
 29 H        5.3050    -3.6850    -0.5380 H     1 <1>   0.0800 
 30 H        5.1420    -4.3340     1.0790 H     1 <1>   0.0800 
 31 H        2.7650    -6.7690    -0.8840 H     1 <1>   0.0800 
 32 H        3.7210    -6.4750     0.5480 H     1 <1>   0.0800 
 33 H        4.2460    -5.8690    -1.0100 H     1 <1>   0.0800 
 34 H       -0.0410    -6.0090     0.2680 H     1 <1>   0.4500 
 35 H       -0.8640    -7.6630    -1.9580 H     1 <1>   0.0800 
 36 H       -2.1700    -6.7740    -2.6540 H     1 <1>   0.0800 
 37 H       -3.8650    -5.6650    -0.9590 H     1 <1>   0.0800 
 38 H       -3.5110    -5.7150     0.7270 H     1 <1>   0.0800 
 39 H       -1.3210    -8.6160     0.8680 H     1 <1>   0.0800 
 40 H        0.2390    -8.0910     1.4680 H     1 <1>   0.0800 
 41 H        0.0070    -8.3400    -0.2440 H     1 <1>   0.0800 
 42 H       -2.1320    -6.5390     2.2420 H     1 <1>   0.0800 
 43 H       -1.5010    -4.9710     1.7770 H     1 <1>   0.0800 
 44 H       -0.4530    -6.1360     2.5490 H     1 <1>   0.0800 
 45 H       -2.4320    -9.2040    -1.0150 H     1 <1>   0.0800 
 46 H       -3.4990    -8.5320    -2.2210 H     1 <1>   0.0800 
 47 H       -4.7890    -7.7460    -0.4630 H     1 <1>   0.0800 
 48 H       -3.5270    -8.1330     0.6840 H     1 <1>   0.0800 
@<TRIPOS>BOND
  1   1   2  2   
  2   2   3  am  
  3   2   4  1   
  4   3  22  1   
  5   3  23  1   
  6   4   5  ar  
  7   4   6  ar  
  8   5   7  ar  
  9   5   8  1   
 10   6   9  ar  
 11   6  24  1   
 12   7  10  ar  
 13   8  11  1   
 14   8  25  1   
 15   9  10  ar  
 16   9  12  1   
 17  10  13  1   
 18  11  14  1   
 19  11  26  1   
 20  11  27  1   
 21  12  28  1   
 22  12  29  1   
 23  12  30  1   
 24  13  31  1   
 25  13  32  1   
 26  13  33  1   
 27  14  15  1   
 28  14  16  1   
 29  14  17  1   
 30  15  18  1   
 31  15  19  1   
 32  15  34  1   
 33  16  20  1   
 34  16  35  1   
 35  16  36  1   
 36  17  21  1   
 37  17  37  1   
 38  17  38  1   
 39  18  39  1   
 40  18  40  1   
 41  18  41  1   
 42  19  42  1   
 43  19  43  1   
 44  19  44  1   
 45  20  21  1   
 46  20  45  1   
 47  20  46  1   
 48  21  47  1   
 49  21  48  1   
@<TRIPOS>SUBSTRUCTURE
  1 ****   5 GROUP 4 **** **** 0

# MOE 2024.06 (io_trps.svl 2023.06)
