@<TRIPOS>MOLECULE
NONAME
45 47 1 0 0 
SMALL
USER_CHARGES


@<TRIPOS>ATOM
  1 O       -0.7810     0.2910     1.2580 O.2   1 <1>  -0.5700 
  2 C       -1.6940     0.9790     0.8430 C.2   1 <1>   0.5440 
  3 N       -2.8200     0.3620     0.3390 N.am  1 <1>  -0.6600 
  4 C       -1.5590     2.4240     0.8760 C.ar  1 <1>   0.0860 
  5 C       -3.0600    -1.1050     0.5000 C.3   1 <1>   0.1400 
  6 C       -3.7740     1.0090    -0.6120 C.3   1 <1>   0.1400 
  7 C       -0.4040     3.0470     0.4080 C.ar  1 <1>  -0.1500 
  8 C       -2.5670     3.2480     1.3750 C.ar  1 <1>  -0.1500 
  9 C       -3.1930    -1.7870    -0.8710 C.3   1 <1>   0.1200 
 10 C       -3.8690     0.2000    -1.9180 C.3   1 <1>   0.1200 
 11 C       -0.2680     4.4230     0.4210 C.ar  1 <1>  -0.1500 
 12 C       -2.4320     4.6230     1.3870 C.ar  1 <1>  -0.1500 
 13 O       -4.1620    -1.1410    -1.6500 O.3   1 <1>  -0.5600 
 14 C       -1.2800     5.2500     0.9120 C.ar  1 <1>   0.0860 
 15 C       -1.1560     6.6970     0.9330 C.2   1 <1>   0.5440 
 16 O       -2.1420     7.4030     0.8560 O.2   1 <1>  -0.5700 
 17 N        0.0690     7.2940     1.0450 N.am  1 <1>  -0.7300 
 18 C        0.2990     8.7570     1.1160 C.3   1 <1>   0.1400 
 19 C        0.5120     9.3390    -0.2890 C.3   1 <1>  -0.0800 
 20 C        1.7900     8.8180    -0.9310 C.3   1 <1>   0.1200 
 21 C        0.8070    10.8320    -0.2240 C.3   1 <1>  -0.1600 
 22 O        2.8000     9.6120    -0.4020 O.3   1 <1>  -0.5600 
 23 C        2.3330    10.9080    -0.1900 C.3   1 <1>   0.1200 
 24 H       -3.9680    -1.2550     1.0570 H     1 <1>   0.0800 
 25 H       -2.2590    -1.5680     1.0500 H     1 <1>   0.0800 
 26 H       -3.4600     2.0090    -0.8500 H     1 <1>   0.0800 
 27 H       -4.7470     1.0610    -0.1570 H     1 <1>   0.0800 
 28 H        0.3940     2.4300     0.0300 H     1 <1>   0.1500 
 29 H       -3.4650     2.7970     1.7610 H     1 <1>   0.1500 
 30 H       -3.4980    -2.8100    -0.7490 H     1 <1>   0.0800 
 31 H       -2.2540    -1.7650    -1.3960 H     1 <1>   0.0800 
 32 H       -2.9420     0.2490    -2.4620 H     1 <1>   0.0800 
 33 H       -4.6560     0.5900    -2.5390 H     1 <1>   0.0800 
 34 H        0.6360     4.8600     0.0360 H     1 <1>   0.1500 
 35 H       -3.2300     5.2350     1.7740 H     1 <1>   0.1500 
 36 H        0.8950     6.7180     1.2070 H     1 <1>   0.3700 
 37 H        1.1600     8.9520     1.7340 H     1 <1>   0.0800 
 38 H       -0.5550     9.2290     1.5730 H     1 <1>   0.0800 
 39 H       -0.3530     9.1350    -0.8950 H     1 <1>   0.0800 
 40 H        1.7740     8.9700    -1.9970 H     1 <1>   0.0800 
 41 H        1.9940     7.7860    -0.7120 H     1 <1>   0.0800 
 42 H        0.3620    11.3150     0.6280 H     1 <1>   0.0800 
 43 H        0.4530    11.3180    -1.1160 H     1 <1>   0.0800 
 44 H        2.6970    11.2400     0.7670 H     1 <1>   0.0800 
 45 H        2.7170    11.5420    -0.9700 H     1 <1>   0.0800 
@<TRIPOS>BOND
  1   1   2  2   
  2   2   3  am  
  3   2   4  1   
  4   3   5  1   
  5   3   6  1   
  6   4   7  ar  
  7   4   8  ar  
  8   5   9  1   
  9   5  24  1   
 10   5  25  1   
 11   6  10  1   
 12   6  26  1   
 13   6  27  1   
 14   7  11  ar  
 15   7  28  1   
 16   8  12  ar  
 17   8  29  1   
 18   9  13  1   
 19   9  30  1   
 20   9  31  1   
 21  10  13  1   
 22  10  32  1   
 23  10  33  1   
 24  11  14  ar  
 25  11  34  1   
 26  12  14  ar  
 27  12  35  1   
 28  14  15  1   
 29  15  16  2   
 30  15  17  am  
 31  17  18  1   
 32  17  36  1   
 33  18  19  1   
 34  18  37  1   
 35  18  38  1   
 36  19  20  1   
 37  19  21  1   
 38  19  39  1   
 39  20  22  1   
 40  20  40  1   
 41  20  41  1   
 42  21  23  1   
 43  21  42  1   
 44  21  43  1   
 45  22  23  1   
 46  23  44  1   
 47  23  45  1   
@<TRIPOS>SUBSTRUCTURE
  1 ****  11 GROUP 4 **** **** 0

# MOE 2024.06 (io_trps.svl 2023.06)
