@<TRIPOS>MOLECULE
NONAME
56 59 1 0 0 
SMALL
USER_CHARGES


@<TRIPOS>ATOM
  1 O       -0.8120     1.9310    -2.7560 O.2   1 <1>  -0.5700 
  2 C       -1.4720     2.6480    -2.0450 C.2   1 <1>   0.5690 
  3 N       -2.7860     2.5120    -1.7800 N.am  1 <1>  -0.6600 
  4 C       -0.9000     3.8240    -1.3080 C.3   1 <1>  -0.0990 
  5 C       -3.2750     3.5030    -0.8040 C.3   1 <1>   0.1400 
  6 C       -3.6380     1.3990    -2.2530 C.3   1 <1>   0.2840 
  7 C       -1.9860     4.1410    -0.2570 C.3   1 <1>  -0.0190 
  8 C       -3.8980     0.4460    -1.0990 C.ar  1 <1>  -0.1440 
  9 C       -2.1320     5.6190     0.0760 C.2   1 <1>   0.5690 
 10 C       -5.1300     0.3430    -0.4830 C.ar  1 <1>  -0.1500 
 11 C       -2.8970    -0.3640    -0.6030 C.ar  1 <1>  -0.1500 
 12 O       -3.2350     6.0690     0.2730 O.2   1 <1>  -0.5700 
 13 N       -0.9870     6.3580     0.1600 N.am  1 <1>  -0.4940 
 14 C       -5.2930    -0.5420     0.5700 C.ar  1 <1>   0.1600 
 15 C       -3.1660    -1.2150     0.4550 C.ar  1 <1>   0.1600 
 16 C       -0.6950     7.7150     0.4080 C.2   1 <1>  -0.0880 
 17 N       -4.3410    -1.3220     1.0550 N.ar  1 <1>  -0.6200 
 18 N       -1.4840     8.8100     0.2460 N.pl3 1 <1>   0.3140 
 19 C        0.5240     8.1600     0.8300 C.2   1 <1>  -0.0540 
 20 N       -0.8100     9.9450     0.5280 N.2   1 <1>  -0.7070 
 21 C       -2.8660     8.8980    -0.2410 C.3   1 <1>   0.0160 
 22 C        1.6940     7.3840     1.1920 C.ar  1 <1>   0.0540 
 23 C        0.3740     9.5520     0.8640 C.2   1 <1>   0.1080 
 24 C        2.2630     6.4030     0.3640 C.ar  1 <1>   0.0820 
 25 C        2.2890     7.6110     2.4310 C.ar  1 <1>  -0.1500 
 26 C        1.4530    10.5480     1.2320 C.3   1 <1>  -0.0590 
 27 O        1.6790     6.1460    -0.8390 O.3   1 <1>  -0.3620 
 28 C        3.3950     5.7050     0.7760 C.ar  1 <1>  -0.1500 
 29 C        3.4140     6.9180     2.8360 C.ar  1 <1>  -0.1500 
 30 C        2.4310     5.6300    -1.9180 C.3   1 <1>   0.0400 
 31 C        3.9700     5.9640     2.0060 C.ar  1 <1>  -0.1500 
 32 H       -0.7730     4.6290    -2.0090 H     1 <1>   0.0800 
 33 H        0.0410     3.5710    -0.8550 H     1 <1>   0.0800 
 34 H       -3.8390     3.0340    -0.0160 H     1 <1>   0.0800 
 35 H       -3.8900     4.2260    -1.3140 H     1 <1>   0.0800 
 36 H       -3.1370     0.8730    -3.0490 H     1 <1>   0.0800 
 37 H       -4.5620     1.7930    -2.6380 H     1 <1>   0.0800 
 38 H       -1.7400     3.6260     0.6540 H     1 <1>   0.0800 
 39 H       -5.9620     0.9390    -0.8090 H     1 <1>   0.1500 
 40 H       -1.9110    -0.3340    -1.0340 H     1 <1>   0.1500 
 41 H       -0.1230     5.8290     0.0060 H     1 <1>   0.3700 
 42 H       -6.2600    -0.6110     1.0400 H     1 <1>   0.1500 
 43 H       -2.3720    -1.8400     0.8280 H     1 <1>   0.1500 
 44 H       -2.9840     8.2560    -1.0930 H     1 <1>   0.0800 
 45 H       -3.0790     9.9120    -0.5230 H     1 <1>   0.0800 
 46 H       -3.5330     8.5950     0.5430 H     1 <1>   0.0800 
 47 H        1.8570     8.3420     3.0910 H     1 <1>   0.1500 
 48 H        2.4220    10.1640     0.9730 H     1 <1>   0.0800 
 49 H        1.4150    10.7470     2.2860 H     1 <1>   0.0800 
 50 H        1.2910    11.4670     0.6990 H     1 <1>   0.0800 
 51 H        3.8390     4.9500     0.1560 H     1 <1>   0.1500 
 52 H        3.8550     7.1180     3.7980 H     1 <1>   0.1500 
 53 H        1.8370     5.7140    -2.8100 H     1 <1>   0.0800 
 54 H        2.6570     4.5960    -1.7290 H     1 <1>   0.0800 
 55 H        3.3320     6.2080    -2.0250 H     1 <1>   0.0800 
 56 H        4.8460     5.4220     2.3190 H     1 <1>   0.1500 
@<TRIPOS>BOND
  1   1   2  2   
  2   2   3  am  
  3   2   4  1   
  4   3   5  1   
  5   3   6  1   
  6   4   7  1   
  7   4  32  1   
  8   4  33  1   
  9   5   7  1   
 10   5  34  1   
 11   5  35  1   
 12   6   8  1   
 13   6  36  1   
 14   6  37  1   
 15   7   9  1   
 16   7  38  1   
 17   8  10  ar  
 18   8  11  ar  
 19   9  12  2   
 20   9  13  am  
 21  10  14  ar  
 22  10  39  1   
 23  11  15  ar  
 24  11  40  1   
 25  13  16  1   
 26  13  41  1   
 27  14  17  ar  
 28  14  42  1   
 29  15  17  ar  
 30  15  43  1   
 31  16  18  1   
 32  16  19  2   
 33  18  20  1   
 34  18  21  1   
 35  19  22  1   
 36  19  23  1   
 37  20  23  2   
 38  21  44  1   
 39  21  45  1   
 40  21  46  1   
 41  22  24  ar  
 42  22  25  ar  
 43  23  26  1   
 44  24  27  1   
 45  24  28  ar  
 46  25  29  ar  
 47  25  47  1   
 48  26  48  1   
 49  26  49  1   
 50  26  50  1   
 51  27  30  1   
 52  28  31  ar  
 53  28  51  1   
 54  29  31  ar  
 55  29  52  1   
 56  30  53  1   
 57  30  54  1   
 58  30  55  1   
 59  31  56  1   
@<TRIPOS>SUBSTRUCTURE
  1 ****   7 GROUP 4 **** **** 0

# MOE 2024.06 (io_trps.svl 2023.06)
