@<TRIPOS>MOLECULE
NONAME
43 45 1 0 0 
SMALL
USER_CHARGES


@<TRIPOS>ATOM
  1 S       -0.8230     2.1890    -1.6650 S.3   1 <1>  -0.0800 
  2 C       -0.3200     2.8730    -0.1350 C.2   1 <1>   0.1980 
  3 C       -2.2430     1.5620    -0.8820 C.2   1 <1>  -0.1100 
  4 N       -1.1230     2.6570     0.8280 N.2   1 <1>  -0.5650 
  5 C        0.9850     3.6330    -0.1100 C.3   1 <1>  -0.0600 
  6 C       -2.2170     1.9120     0.4150 C.2   1 <1>   0.0460 
  7 C       -3.2560     1.5830     1.4740 C.3   1 <1>   0.0820 
  8 C       -4.5660     1.0880     0.8810 C.2   1 <1>   0.5690 
  9 O       -4.8300    -0.0830     1.0310 O.2   1 <1>  -0.5700 
 10 N       -5.4160     1.9380     0.2110 N.am  1 <1>  -0.6600 
 11 C       -5.1600     3.3820    -0.0620 C.3   1 <1>   0.1400 
 12 C       -6.7100     1.4570    -0.3530 C.3   1 <1>   0.1400 
 13 C       -6.2870     4.2140     0.5510 C.3   1 <1>  -0.1600 
 14 C       -7.8570     2.2750     0.2440 C.3   1 <1>  -0.1600 
 15 C       -7.6610     3.7780     0.0220 C.3   1 <1>   0.4180 
 16 O       -7.7090     3.9780    -1.3710 O.3   1 <1>  -0.5600 
 17 C       -8.7830     4.5500     0.7100 C.2   1 <1>  -0.2880 
 18 C       -7.9870     5.2710    -1.8290 C.3   1 <1>   0.1200 
 19 C       -9.5850     5.4190     0.0910 C.2   1 <1>  -0.2760 
 20 C       -9.3880     5.7130    -1.3850 C.3   1 <1>  -0.0220 
 21 C      -10.7300     6.1610     0.7580 C.3   1 <1>  -0.1020 
 22 H       -2.9440     1.0000    -1.4730 H     1 <1>   0.1500 
 23 H        0.9340     4.4660    -0.7860 H     1 <1>   0.0800 
 24 H        1.7890     2.9840    -0.4050 H     1 <1>   0.0800 
 25 H        1.1740     3.9960     0.8830 H     1 <1>   0.0800 
 26 H       -3.4520     2.4530     2.0710 H     1 <1>   0.0800 
 27 H       -2.8550     0.8290     2.1240 H     1 <1>   0.0800 
 28 H       -5.1310     3.5360    -1.1280 H     1 <1>   0.0800 
 29 H       -4.2170     3.7020     0.3420 H     1 <1>   0.0800 
 30 H       -6.8610     0.4140    -0.1350 H     1 <1>   0.0800 
 31 H       -6.6940     1.5750    -1.4230 H     1 <1>   0.0800 
 32 H       -6.1270     5.2560     0.3520 H     1 <1>   0.0800 
 33 H       -6.2650     4.0890     1.6180 H     1 <1>   0.0800 
 34 H       -7.9130     2.0680     1.2970 H     1 <1>   0.0800 
 35 H       -8.7890     1.9730    -0.1980 H     1 <1>   0.0800 
 36 H       -8.8700     4.3130     1.7550 H     1 <1>   0.1500 
 37 H       -7.9220     5.2610    -2.9020 H     1 <1>   0.0800 
 38 H       -7.2410     5.9420    -1.4440 H     1 <1>   0.0800 
 39 H      -10.1330     5.1960    -1.9620 H     1 <1>   0.0800 
 40 H       -9.4900     6.7670    -1.5720 H     1 <1>   0.0800 
 41 H      -11.6580     5.9220     0.2700 H     1 <1>   0.0800 
 42 H      -10.5690     7.2230     0.7010 H     1 <1>   0.0800 
 43 H      -10.8070     5.8820     1.7930 H     1 <1>   0.0800 
@<TRIPOS>BOND
  1   1   2  1   
  2   1   3  1   
  3   2   4  2   
  4   2   5  1   
  5   3   6  2   
  6   3  22  1   
  7   4   6  1   
  8   5  23  1   
  9   5  24  1   
 10   5  25  1   
 11   6   7  1   
 12   7   8  1   
 13   7  26  1   
 14   7  27  1   
 15   8   9  2   
 16   8  10  am  
 17  10  11  1   
 18  10  12  1   
 19  11  13  1   
 20  11  28  1   
 21  11  29  1   
 22  12  14  1   
 23  12  30  1   
 24  12  31  1   
 25  13  15  1   
 26  13  32  1   
 27  13  33  1   
 28  14  15  1   
 29  14  34  1   
 30  14  35  1   
 31  15  16  1   
 32  15  17  1   
 33  16  18  1   
 34  17  19  2   
 35  17  36  1   
 36  18  20  1   
 37  18  37  1   
 38  18  38  1   
 39  19  20  1   
 40  19  21  1   
 41  20  39  1   
 42  20  40  1   
 43  21  41  1   
 44  21  42  1   
 45  21  43  1   
@<TRIPOS>SUBSTRUCTURE
  1 ****  11 GROUP 4 **** **** 0

# MOE 2024.06 (io_trps.svl 2023.06)
