@<TRIPOS>MOLECULE
NONAME
52 55 1 0 0 
SMALL
USER_CHARGES


@<TRIPOS>ATOM
  1 O       -0.9150     2.6910     3.0800 O.2   1 <1>  -0.5700 
  2 C       -0.4950     2.4710     1.9710 C.2   1 <1>   0.5690 
  3 N       -1.3630     2.1270     0.9900 N.am  1 <1>  -0.7300 
  4 C        1.0040     2.5810     1.6900 C.3   1 <1>   0.2010 
  5 C       -1.0680     1.8150    -0.4240 C.3   1 <1>   0.1400 
  6 N        1.3110     3.5960     0.6260 N.am  1 <1>  -0.6600 
  7 C       -0.3730     2.9850    -1.1280 C.3   1 <1>  -0.1600 
  8 C        1.5740     4.9040     0.9700 C.2   1 <1>   0.7160 
  9 C        1.1120     3.1500    -0.7780 C.3   1 <1>   0.1400 
 10 O        1.8800     5.1620     2.1200 O.2   1 <1>  -0.5700 
 11 C        1.5080     5.9600     0.0140 C.2   1 <1>  -0.0860 
 12 C        0.3470     6.6190    -0.4050 C.2   1 <1>   0.3720 
 13 C        2.4910     6.5240    -0.7340 C.2   1 <1>   0.0870 
 14 N        0.6210     7.4720    -1.3320 N.2   1 <1>  -0.4100 
 15 N       -0.9530     6.3720     0.0670 N.pl3 1 <1>  -0.8210 
 16 O        1.9140     7.4060    -1.5100 O.3   1 <1>  -0.0190 
 17 C        3.9110     6.2950    -0.8120 C.ar  1 <1>   0.0530 
 18 C       -2.0630     7.1740    -0.5060 C.3   1 <1>   0.2090 
 19 C       -1.1530     6.2450     1.5390 C.3   1 <1>   0.2090 
 20 C        4.6590     5.9090     0.3020 C.ar  1 <1>  -0.1500 
 21 C        4.5930     6.4490    -2.0190 C.ar  1 <1>  -0.1500 
 22 C       -3.1730     7.1000     0.5310 C.3   1 <1>  -0.1600 
 23 C       -2.4300     7.0150     1.8570 C.3   1 <1>  -0.1600 
 24 C        6.0190     5.6740     0.2150 C.ar  1 <1>  -0.1500 
 25 C        5.9520     6.2160    -2.1130 C.ar  1 <1>  -0.1500 
 26 C        6.6780     5.8240    -1.0010 C.ar  1 <1>   0.0830 
 27 O        8.0030     5.6130    -1.1750 O.3   1 <1>  -0.3630 
 28 C        8.8370     5.2330    -0.1030 C.3   1 <1>   0.0400 
 29 H       -2.3480     2.1210     1.2620 H     1 <1>   0.3700 
 30 H        1.3720     1.6190     1.3870 H     1 <1>   0.0800 
 31 H        1.5010     2.8420     2.6070 H     1 <1>   0.0800 
 32 H       -1.9990     1.6100    -0.9250 H     1 <1>   0.0800 
 33 H       -0.4590     0.9280    -0.4790 H     1 <1>   0.0800 
 34 H       -0.9070     3.8990    -0.9430 H     1 <1>   0.0800 
 35 H       -0.4290     2.8020    -2.1860 H     1 <1>   0.0800 
 36 H        1.6290     2.2180    -0.9290 H     1 <1>   0.0800 
 37 H        1.5500     3.8660    -1.4520 H     1 <1>   0.0800 
 38 H       -2.3750     6.7690    -1.4540 H     1 <1>   0.0800 
 39 H       -1.7500     8.1970    -0.6350 H     1 <1>   0.0800 
 40 H       -0.3200     6.6490     2.0890 H     1 <1>   0.0800 
 41 H       -1.2750     5.2050     1.7880 H     1 <1>   0.0800 
 42 H        4.1750     5.8000     1.2560 H     1 <1>   0.1500 
 43 H        4.0490     6.7530    -2.8960 H     1 <1>   0.1500 
 44 H       -3.7420     6.2010     0.3690 H     1 <1>   0.0800 
 45 H       -3.8280     7.9510     0.4780 H     1 <1>   0.0800 
 46 H       -2.1640     8.0010     2.1940 H     1 <1>   0.0800 
 47 H       -3.0050     6.5250     2.6220 H     1 <1>   0.0800 
 48 H        6.5470     5.3770     1.1010 H     1 <1>   0.1500 
 49 H        6.4630     6.3380    -3.0520 H     1 <1>   0.1500 
 50 H        9.8390     5.1310    -0.4800 H     1 <1>   0.0800 
 51 H        8.4960     4.2910     0.2880 H     1 <1>   0.0800 
 52 H        8.8070     5.9990     0.6510 H     1 <1>   0.0800 
@<TRIPOS>BOND
  1   1   2  2   
  2   2   3  am  
  3   2   4  1   
  4   3   5  1   
  5   3  29  1   
  6   4   6  1   
  7   4  30  1   
  8   4  31  1   
  9   5   7  1   
 10   5  32  1   
 11   5  33  1   
 12   6   8  am  
 13   6   9  1   
 14   7   9  1   
 15   7  34  1   
 16   7  35  1   
 17   8  10  2   
 18   8  11  1   
 19   9  36  1   
 20   9  37  1   
 21  11  12  1   
 22  11  13  2   
 23  12  14  2   
 24  12  15  1   
 25  13  16  1   
 26  13  17  1   
 27  14  16  1   
 28  15  18  1   
 29  15  19  1   
 30  17  20  ar  
 31  17  21  ar  
 32  18  22  1   
 33  18  38  1   
 34  18  39  1   
 35  19  23  1   
 36  19  40  1   
 37  19  41  1   
 38  20  24  ar  
 39  20  42  1   
 40  21  25  ar  
 41  21  43  1   
 42  22  23  1   
 43  22  44  1   
 44  22  45  1   
 45  23  46  1   
 46  23  47  1   
 47  24  26  ar  
 48  24  48  1   
 49  25  26  ar  
 50  25  49  1   
 51  26  27  1   
 52  27  28  1   
 53  28  50  1   
 54  28  51  1   
 55  28  52  1   
@<TRIPOS>SUBSTRUCTURE
  1 ****  11 GROUP 4 **** **** 0

# MOE 2024.06 (io_trps.svl 2023.06)
