@<TRIPOS>MOLECULE
NONAME
38 40 1 0 0 
SMALL
USER_CHARGES


@<TRIPOS>ATOM
  1 O       -0.5300     0.0140     0.2710 O.3   1 <1>  -0.3400 
  2 C       -0.4340     1.3660     0.2580 C.ar  1 <1>   0.0830 
  3 C       -1.7890    -0.6320     0.2260 C.3   1 <1>   0.2580 
  4 C        0.8400     1.8990     0.1450 C.ar  1 <1>  -0.1500 
  5 C       -1.5280     2.2230     0.3500 C.ar  1 <1>  -0.1500 
  6 C       -1.6410    -2.1590     0.0490 C.3   1 <1>   0.2100 
  7 C       -2.4070    -0.6430    -1.1920 C.3   1 <1>   0.2100 
  8 C        1.0370     3.2690     0.1190 C.ar  1 <1>  -0.1440 
  9 C       -1.3340     3.5930     0.3230 C.ar  1 <1>  -0.1500 
 10 N       -2.6520    -2.1080    -1.0520 N.3   1 <1>  -0.6890 
 11 C       -0.0570     4.1140     0.2070 C.ar  1 <1>  -0.1500 
 12 C        2.4360     3.8460    -0.0090 C.3   1 <1>  -0.0970 
 13 C       -4.0130    -2.4060    -0.5860 C.3   1 <1>   0.2900 
 14 C       -4.1810    -3.8960    -0.3420 C.2   1 <1>  -0.3320 
 15 N       -5.2600    -4.4390     0.2650 N.pl3 1 <1>   0.3140 
 16 C       -3.3620    -4.9230    -0.6590 C.2   1 <1>  -0.1500 
 17 N       -5.1550    -5.7740     0.3540 N.2   1 <1>  -0.7070 
 18 C       -6.4430    -3.7440     0.7890 C.3   1 <1>   0.0160 
 19 C       -4.0180    -6.0580    -0.2020 C.2   1 <1>   0.1390 
 20 H       -2.4370    -0.3350     1.0310 H     1 <1>   0.0000 
 21 H        1.6760     1.2260     0.0750 H     1 <1>   0.1500 
 22 H       -2.5290     1.8500     0.4450 H     1 <1>   0.1500 
 23 H       -1.9750    -2.7340     0.8950 H     1 <1>   0.0000 
 24 H       -0.6790    -2.4540    -0.3310 H     1 <1>   0.0000 
 25 H       -1.6920    -0.4480    -1.9720 H     1 <1>   0.0000 
 26 H       -3.3200    -0.0800    -1.2820 H     1 <1>   0.0000 
 27 H       -2.1780     4.2580     0.3920 H     1 <1>   0.1500 
 28 H        0.0820     5.1810     0.1850 H     1 <1>   0.1500 
 29 H        3.1750     3.1150     0.2650 H     1 <1>   0.0800 
 30 H        2.5460     4.6990     0.6370 H     1 <1>   0.0800 
 31 H        2.6110     4.1520    -1.0240 H     1 <1>   0.0800 
 32 H       -4.7130    -2.0970    -1.3440 H     1 <1>   0.0800 
 33 H       -4.2260    -1.8620     0.3180 H     1 <1>   0.0800 
 34 H       -2.4090    -4.8930    -1.1570 H     1 <1>   0.1500 
 35 H       -6.8950    -3.1700     0.0030 H     1 <1>   0.0800 
 36 H       -6.1470    -3.1030     1.5970 H     1 <1>   0.0800 
 37 H       -7.1460    -4.4730     1.1490 H     1 <1>   0.0800 
 38 H       -3.6360    -7.0600    -0.2950 H     1 <1>   0.1500 
@<TRIPOS>BOND
  1   1   2  1   
  2   1   3  1   
  3   2   4  ar  
  4   2   5  ar  
  5   3   6  1   
  6   3   7  1   
  7   3  20  1   
  8   4   8  ar  
  9   4  21  1   
 10   5   9  ar  
 11   5  22  1   
 12   6  10  1   
 13   6  23  1   
 14   6  24  1   
 15   7  10  1   
 16   7  25  1   
 17   7  26  1   
 18   8  11  ar  
 19   8  12  1   
 20   9  11  ar  
 21   9  27  1   
 22  10  13  1   
 23  11  28  1   
 24  12  29  1   
 25  12  30  1   
 26  12  31  1   
 27  13  14  1   
 28  13  32  1   
 29  13  33  1   
 30  14  15  1   
 31  14  16  2   
 32  15  17  1   
 33  15  18  1   
 34  16  19  1   
 35  16  34  1   
 36  17  19  2   
 37  18  35  1   
 38  18  36  1   
 39  18  37  1   
 40  19  38  1   
@<TRIPOS>SUBSTRUCTURE
  1 ****   3 GROUP 4 **** **** 0

# MOE 2024.06 (io_trps.svl 2023.06)
