@<TRIPOS>MOLECULE
NONAME
43 45 1 0 0 
SMALL
USER_CHARGES


@<TRIPOS>ATOM
  1 O       -0.7260     0.3910     1.5010 O.2   1 <1>  -0.5700 
  2 C       -1.6700     0.9920     1.0240 C.2   1 <1>   0.5440 
  3 N       -2.7870     0.2720     0.6590 N.am  1 <1>  -0.6600 
  4 C       -1.5880     2.4260     0.8300 C.ar  1 <1>   0.0860 
  5 C       -3.8100     0.7400    -0.3150 C.3   1 <1>   0.1400 
  6 C       -2.8620    -1.2050     0.8060 C.3   1 <1>   0.1400 
  7 C       -0.4980     2.9920     0.1670 C.ar  1 <1>  -0.1500 
  8 C       -2.5800     3.2890     1.2980 C.ar  1 <1>  -0.1500 
  9 C       -4.7690    -0.4390    -0.4630 C.3   1 <1>   0.2000 
 10 C       -3.8740    -1.6640    -0.2510 C.3   1 <1>  -0.0800 
 11 C       -0.3960     4.3570    -0.0490 C.ar  1 <1>  -0.1440 
 12 C       -2.4980     4.6520     1.0910 C.ar  1 <1>  -0.1500 
 13 O       -5.7030    -0.3650     0.5600 O.3   1 <1>  -0.6800 
 14 C       -4.6220    -2.9600     0.1200 C.3   1 <1>   0.0200 
 15 C       -1.4120     5.1830     0.4170 C.ar  1 <1>   0.0830 
 16 C        0.8170     4.9160    -0.7820 C.3   1 <1>  -0.0970 
 17 C       -3.7130    -4.1760     0.1830 C.2   1 <1>  -0.0400 
 18 O       -1.3620     6.5070     0.2310 O.3   1 <1>  -0.5320 
 19 O       -4.2100    -5.3060     0.6100 O.3   1 <1>  -0.0190 
 20 C       -2.4220    -4.3890    -0.1200 C.2   1 <1>  -0.1500 
 21 N       -3.3240    -6.2600     0.6130 N.2   1 <1>  -0.4100 
 22 C       -2.2360    -5.7360     0.1780 C.2   1 <1>   0.1080 
 23 C       -0.9340    -6.4880     0.0160 C.3   1 <1>  -0.0590 
 24 H       -4.3230     1.6230     0.0250 H     1 <1>   0.0800 
 25 H       -3.3290     0.9440    -1.2560 H     1 <1>   0.0800 
 26 H       -1.8970    -1.6570     0.6520 H     1 <1>   0.0800 
 27 H       -3.2060    -1.4390     1.7990 H     1 <1>   0.0800 
 28 H        0.2790     2.3310    -0.1760 H     1 <1>   0.1500 
 29 H       -3.4190     2.8820     1.8350 H     1 <1>   0.1500 
 30 H       -5.2920    -0.4450    -1.4040 H     1 <1>   0.0800 
 31 H       -3.3360    -1.8320    -1.1670 H     1 <1>   0.0800 
 32 H       -3.2660     5.3120     1.4510 H     1 <1>   0.1500 
 33 H       -5.2340    -0.2150     1.4050 H     1 <1>   0.4000 
 34 H       -5.3900    -3.1480    -0.6090 H     1 <1>   0.0800 
 35 H       -5.1020    -2.8470     1.0760 H     1 <1>   0.0800 
 36 H        1.4920     4.1270    -1.0620 H     1 <1>   0.0800 
 37 H        1.3480     5.6010    -0.1460 H     1 <1>   0.0800 
 38 H        0.5060     5.4260    -1.6760 H     1 <1>   0.0800 
 39 H       -0.5560     6.7950    -0.2310 H     1 <1>   0.4500 
 40 H       -1.6730    -3.7200    -0.5020 H     1 <1>   0.1500 
 41 H       -0.6260    -6.4680    -1.0130 H     1 <1>   0.0800 
 42 H       -1.0620    -7.5110     0.3210 H     1 <1>   0.0800 
 43 H       -0.1730    -6.0360     0.6250 H     1 <1>   0.0800 
@<TRIPOS>BOND
  1   1   2  2   
  2   2   3  am  
  3   2   4  1   
  4   3   5  1   
  5   3   6  1   
  6   4   7  ar  
  7   4   8  ar  
  8   5   9  1   
  9   5  24  1   
 10   5  25  1   
 11   6  10  1   
 12   6  26  1   
 13   6  27  1   
 14   7  11  ar  
 15   7  28  1   
 16   8  12  ar  
 17   8  29  1   
 18   9  10  1   
 19   9  13  1   
 20   9  30  1   
 21  10  14  1   
 22  10  31  1   
 23  11  15  ar  
 24  11  16  1   
 25  12  15  ar  
 26  12  32  1   
 27  13  33  1   
 28  14  17  1   
 29  14  34  1   
 30  14  35  1   
 31  15  18  1   
 32  16  36  1   
 33  16  37  1   
 34  16  38  1   
 35  17  19  1   
 36  17  20  2   
 37  18  39  1   
 38  19  21  1   
 39  20  22  1   
 40  20  40  1   
 41  21  22  2   
 42  22  23  1   
 43  23  41  1   
 44  23  42  1   
 45  23  43  1   
@<TRIPOS>SUBSTRUCTURE
  1 ****   3 GROUP 4 **** **** 0

# MOE 2024.06 (io_trps.svl 2023.06)
