@<TRIPOS>MOLECULE
NONAME
37 38 1 0 0 
SMALL
USER_CHARGES


@<TRIPOS>ATOM
  1 O       -0.3680     0.1480    -2.2150 O.2   1 <1>  -0.5700 
  2 C        0.3080     0.3210    -1.2260 C.2   1 <1>   0.7800 
  3 O        1.3290    -0.5110    -1.0180 O.3   1 <1>  -0.4300 
  4 N        0.0570     1.3320    -0.3610 N.am  1 <1>  -0.7300 
  5 C        2.3210    -0.5000    -0.0140 C.3   1 <1>   0.2800 
  6 C       -0.8980     2.4540    -0.5740 C.3   1 <1>   0.1400 
  7 C        3.2230    -1.6900    -0.3420 C.3   1 <1>  -0.2400 
  8 C        3.1470     0.7910    -0.0910 C.3   1 <1>  -0.2400 
  9 C        1.6890    -0.7170     1.3670 C.3   1 <1>  -0.2400 
 10 C       -0.1730     3.8100    -0.5990 C.3   1 <1>   0.3810 
 11 O        0.7880     3.8410     0.4490 O.3   1 <1>  -0.5600 
 12 C       -1.1660     4.9670    -0.4610 C.2   1 <1>   0.1080 
 13 C        1.3700     5.0950     0.6850 C.3   1 <1>   0.1200 
 14 N       -2.2840     5.1160    -1.1080 N.2   1 <1>  -0.7070 
 15 C       -0.9210     6.0220     0.4060 C.2   1 <1>  -0.1810 
 16 C        0.3240     6.0610     1.2660 C.3   1 <1>   0.0210 
 17 N       -2.7830     6.2860    -0.6570 N.pl3 1 <1>   0.3000 
 18 C       -1.9720     6.8530     0.2600 C.2   1 <1>  -0.3020 
 19 H        0.7370     1.5110     0.3770 H     1 <1>   0.3700 
 20 H       -1.6180     2.4590     0.2260 H     1 <1>   0.0800 
 21 H       -1.4360     2.3230    -1.4970 H     1 <1>   0.0800 
 22 H        3.6550    -1.5720    -1.3190 H     1 <1>   0.0800 
 23 H        2.6570    -2.6040    -0.3210 H     1 <1>   0.0800 
 24 H        4.0210    -1.7690     0.3750 H     1 <1>   0.0800 
 25 H        3.5010     0.9430    -1.0950 H     1 <1>   0.0800 
 26 H        4.0000     0.7150     0.5580 H     1 <1>   0.0800 
 27 H        2.5850     1.6500     0.2180 H     1 <1>   0.0800 
 28 H        1.0550    -1.5860     1.3510 H     1 <1>   0.0800 
 29 H        1.1150     0.1310     1.6860 H     1 <1>   0.0800 
 30 H        2.4600    -0.8760     2.0990 H     1 <1>   0.0800 
 31 H        0.3520     3.9110    -1.5310 H     1 <1>   0.0800 
 32 H        1.7630     5.4700    -0.2450 H     1 <1>   0.0800 
 33 H        2.1800     4.9590     1.3800 H     1 <1>   0.0800 
 34 H        0.7210     7.0590     1.2990 H     1 <1>   0.0800 
 35 H        0.0780     5.7580     2.2680 H     1 <1>   0.0800 
 36 H       -3.6750     6.6660    -0.9960 H     1 <1>   0.2700 
 37 H       -2.1870     7.7890     0.7410 H     1 <1>   0.1500 
@<TRIPOS>BOND
  1   1   2  2   
  2   2   3  1   
  3   2   4  am  
  4   3   5  1   
  5   4   6  1   
  6   4  19  1   
  7   5   7  1   
  8   5   8  1   
  9   5   9  1   
 10   6  10  1   
 11   6  20  1   
 12   6  21  1   
 13   7  22  1   
 14   7  23  1   
 15   7  24  1   
 16   8  25  1   
 17   8  26  1   
 18   8  27  1   
 19   9  28  1   
 20   9  29  1   
 21   9  30  1   
 22  10  11  1   
 23  10  12  1   
 24  10  31  1   
 25  11  13  1   
 26  12  14  2   
 27  12  15  1   
 28  13  16  1   
 29  13  32  1   
 30  13  33  1   
 31  14  17  1   
 32  15  16  1   
 33  15  18  2   
 34  16  34  1   
 35  16  35  1   
 36  17  18  1   
 37  17  36  1   
 38  18  37  1   
@<TRIPOS>SUBSTRUCTURE
  1 ****  10 GROUP 4 **** **** 0

# MOE 2024.06 (io_trps.svl 2023.06)
