@<TRIPOS>MOLECULE
NONAME
51 54 1 0 0 
SMALL
USER_CHARGES


@<TRIPOS>ATOM
  1 F        1.2680    -0.1720     0.6480 F     1 <1>  -0.1900 
  2 C        1.4470    -1.4410     0.3790 C.ar  1 <1>   0.1900 
  3 C        0.6510    -2.3730     0.9930 C.ar  1 <1>  -0.1500 
  4 C        2.4530    -1.7800    -0.5310 C.ar  1 <1>  -0.1500 
  5 C        0.8670    -3.7210     0.6830 C.ar  1 <1>   0.0000 
  6 C        2.6630    -3.1050    -0.8340 C.ar  1 <1>  -0.1500 
  7 C        1.8610    -4.0820    -0.2230 C.ar  1 <1>  -0.1520 
  8 C        0.2650    -4.9140     1.1080 C.2   1 <1>  -0.1500 
  9 N        1.8550    -5.4530    -0.3430 N.pl3 1 <1>   0.0480 
 10 C        0.8670    -5.9660     0.4770 C.2   1 <1>  -0.2370 
 11 C        2.7610    -6.2330    -1.2150 C.3   1 <1>   0.0160 
 12 C        0.5700    -7.3720     0.6220 C.2   1 <1>   0.7150 
 13 O        1.4320    -8.2180     0.4570 O.2   1 <1>  -0.5700 
 14 N       -0.6960    -7.8020     0.9400 N.am  1 <1>  -0.6600 
 15 C       -0.9190    -9.1680     1.4940 C.3   1 <1>   0.1400 
 16 C       -1.9160    -7.1950     0.3380 C.3   1 <1>   0.1400 
 17 C       -1.3710   -10.0940     0.3430 C.3   1 <1>   0.4230 
 18 C       -2.4530    -8.1250    -0.7650 C.3   1 <1>  -0.1600 
 19 N       -1.5090   -11.5440     0.7080 N.4   1 <1>  -0.9590 
 20 C       -2.6980    -9.5800    -0.2640 C.3   1 <1>  -0.1060 
 21 C       -1.8650   -12.4310    -0.4390 C.3   1 <1>   0.3430 
 22 C       -0.4230   -12.1060     1.5540 C.3   1 <1>   0.2630 
 23 C       -3.7670    -9.6140     0.8440 C.2   1 <1>   0.9060 
 24 C       -3.1550   -10.4750    -1.4540 C.3   1 <1>  -0.1600 
 25 C       -2.1970   -11.6480    -1.7180 C.3   1 <1>  -0.1600 
 26 O       -3.7880   -10.5910     1.6100 O.co2 1 <1>  -0.9000 
 27 O       -4.5610    -8.6830     0.9650 O.co2 1 <1>  -0.9000 
 28 H       -0.1130    -2.0880     1.6900 H     1 <1>   0.1500 
 29 H        3.0430    -0.9990    -0.9750 H     1 <1>   0.1500 
 30 H        3.4330    -3.3880    -1.5280 H     1 <1>   0.1500 
 31 H       -0.5360    -4.9590     1.8240 H     1 <1>   0.1500 
 32 H        2.1900    -6.9590    -1.7630 H     1 <1>   0.0800 
 33 H        3.4860    -6.7380    -0.6040 H     1 <1>   0.0800 
 34 H        3.2620    -5.5840    -1.9070 H     1 <1>   0.0800 
 35 H       -0.0030    -9.5250     1.9280 H     1 <1>   0.0800 
 36 H       -1.6650    -9.1200     2.2680 H     1 <1>   0.0800 
 37 H       -2.6600    -7.0530     1.1050 H     1 <1>   0.0800 
 38 H       -1.6970    -6.2330    -0.0900 H     1 <1>   0.0800 
 39 H       -0.6080   -10.0200    -0.4140 H     1 <1>   0.0800 
 40 H       -3.3780    -7.7140    -1.1320 H     1 <1>   0.0800 
 41 H       -1.7540    -8.1260    -1.5820 H     1 <1>   0.0800 
 42 H       -2.3920   -11.4970     1.2870 H     1 <1>   0.4500 
 43 H       -1.0520   -13.1070    -0.6470 H     1 <1>   0.0800 
 44 H       -2.7240   -13.0190    -0.1600 H     1 <1>   0.0800 
 45 H        0.5180   -12.0620     1.0300 H     1 <1>   0.0800 
 46 H       -0.6400   -13.1310     1.8030 H     1 <1>   0.0800 
 47 H       -0.3390   -11.5460     2.4720 H     1 <1>   0.0800 
 48 H       -4.1330   -10.8750    -1.2370 H     1 <1>   0.0800 
 49 H       -3.2590    -9.8940    -2.3540 H     1 <1>   0.0800 
 50 H       -1.2840   -11.2820    -2.1550 H     1 <1>   0.0800 
 51 H       -2.6410   -12.3190    -2.4320 H     1 <1>   0.0800 
@<TRIPOS>BOND
  1   1   2  1   
  2   2   3  ar  
  3   2   4  ar  
  4   3   5  ar  
  5   3  28  1   
  6   4   6  ar  
  7   4  29  1   
  8   5   7  ar  
  9   5   8  1   
 10   6   7  ar  
 11   6  30  1   
 12   7   9  1   
 13   8  10  2   
 14   8  31  1   
 15   9  10  1   
 16   9  11  1   
 17  10  12  1   
 18  11  32  1   
 19  11  33  1   
 20  11  34  1   
 21  12  13  2   
 22  12  14  am  
 23  14  15  1   
 24  14  16  1   
 25  15  17  1   
 26  15  35  1   
 27  15  36  1   
 28  16  18  1   
 29  16  37  1   
 30  16  38  1   
 31  17  19  1   
 32  17  20  1   
 33  17  39  1   
 34  18  20  1   
 35  18  40  1   
 36  18  41  1   
 37  19  21  1   
 38  19  22  1   
 39  19  42  1   
 40  20  23  1   
 41  20  24  1   
 42  21  25  1   
 43  21  43  1   
 44  21  44  1   
 45  22  45  1   
 46  22  46  1   
 47  22  47  1   
 48  23  26  ar  
 49  23  27  ar  
 50  24  25  1   
 51  24  48  1   
 52  24  49  1   
 53  25  50  1   
 54  25  51  1   
@<TRIPOS>SUBSTRUCTURE
  1 ****  14 GROUP 4 **** **** 0

# MOE 2024.06 (io_trps.svl 2023.06)
