@<TRIPOS>MOLECULE
NONAME
52 54 1 0 0 
SMALL
USER_CHARGES


@<TRIPOS>ATOM
  1 O        0.1690    -0.1160    -0.8160 O.3   1 <1>  -0.5600 
  2 C        1.4110    -0.7660    -0.9680 C.3   1 <1>   0.2000 
  3 C        0.1590     1.2670    -1.0040 C.3   1 <1>   0.1200 
  4 C        2.5390    -0.0980    -0.1170 C.3   1 <1>   0.5660 
  5 C        1.1520    -2.2270    -0.5610 C.3   1 <1>   0.1200 
  6 C        1.0560     1.9310     0.0480 C.3   1 <1>   0.3430 
  7 N        2.4410     1.3930    -0.0540 N.4   1 <1>  -0.9590 
  8 C        3.9340    -0.3950    -0.6640 C.ar  1 <1>  -0.1430 
  9 O        2.3350    -2.9160    -0.3320 O.3   1 <1>  -0.6800 
 10 C        3.3910     2.0310     0.8930 C.3   1 <1>   0.5240 
 11 C        4.8250    -1.1380     0.0980 C.ar  1 <1>  -0.1500 
 12 C        4.3430     0.0820    -1.9050 C.ar  1 <1>  -0.1500 
 13 C        3.8150     3.3570     0.2670 C.2   1 <1>   0.1080 
 14 C        6.1030    -1.3950    -0.3650 C.ar  1 <1>  -0.1500 
 15 C        5.6220    -0.1740    -2.3670 C.ar  1 <1>  -0.1500 
 16 N        3.5830     3.6570    -0.9830 N.2   1 <1>  -0.7070 
 17 C        4.4880     4.3750     0.9340 C.2   1 <1>  -0.1500 
 18 C        6.5020    -0.9110    -1.5970 C.ar  1 <1>  -0.1500 
 19 N        4.1220     4.8870    -1.1410 N.pl3 1 <1>   0.3000 
 20 C        4.6690     5.3380     0.0060 C.2   1 <1>  -0.3320 
 21 C        5.3550     6.6890     0.1470 C.3   1 <1>   0.0200 
 22 C        6.6010     6.8130    -0.7500 C.3   1 <1>  -0.0800 
 23 C        7.6510     5.7430    -0.4160 C.3   1 <1>  -0.2400 
 24 C        7.2220     8.2080    -0.6050 C.3   1 <1>  -0.2400 
 25 H        1.6670    -0.7310    -2.0120 H     1 <1>   0.0800 
 26 H        0.4900     1.4920    -2.0040 H     1 <1>   0.0800 
 27 H       -0.8570     1.6050    -0.8910 H     1 <1>   0.0800 
 28 H        2.4660    -0.5000     0.8800 H     1 <1>   0.0800 
 29 H        0.5950    -2.7470    -1.3210 H     1 <1>   0.0800 
 30 H        0.5950    -2.2520     0.3600 H     1 <1>   0.0800 
 31 H        0.6500     1.7380     1.0270 H     1 <1>   0.0800 
 32 H        1.0670     2.9980    -0.1130 H     1 <1>   0.0800 
 33 H        2.8160     1.7560    -0.9480 H     1 <1>   0.4500 
 34 H        2.7040    -3.2900    -1.1610 H     1 <1>   0.4000 
 35 H        2.9320     2.1910     1.8530 H     1 <1>   0.0800 
 36 H        4.2690     1.4190     1.0160 H     1 <1>   0.0800 
 37 H        4.5320    -1.5360     1.0560 H     1 <1>   0.1500 
 38 H        3.6840     0.6600    -2.5310 H     1 <1>   0.1500 
 39 H        6.7880    -1.9740     0.2310 H     1 <1>   0.1500 
 40 H        5.9370     0.1990    -3.3270 H     1 <1>   0.1500 
 41 H        4.7990     4.3830     1.9650 H     1 <1>   0.1500 
 42 H        7.4980    -1.1110    -1.9570 H     1 <1>   0.1500 
 43 H        4.1120     5.3930    -2.0370 H     1 <1>   0.2700 
 44 H        4.6530     7.4660    -0.1020 H     1 <1>   0.0800 
 45 H        5.6430     6.8330     1.1750 H     1 <1>   0.0800 
 46 H        6.3030     6.6870    -1.7770 H     1 <1>   0.0800 
 47 H        7.9630     5.8250     0.6110 H     1 <1>   0.0800 
 48 H        8.5160     5.8610    -1.0450 H     1 <1>   0.0800 
 49 H        7.2560     4.7560    -0.5760 H     1 <1>   0.0800 
 50 H        7.5470     8.3770     0.4070 H     1 <1>   0.0800 
 51 H        6.5080     8.9680    -0.8690 H     1 <1>   0.0800 
 52 H        8.0730     8.3070    -1.2570 H     1 <1>   0.0800 
@<TRIPOS>BOND
  1   1   2  1   
  2   1   3  1   
  3   2   4  1   
  4   2   5  1   
  5   2  25  1   
  6   3   6  1   
  7   3  26  1   
  8   3  27  1   
  9   4   7  1   
 10   4   8  1   
 11   4  28  1   
 12   5   9  1   
 13   5  29  1   
 14   5  30  1   
 15   6   7  1   
 16   6  31  1   
 17   6  32  1   
 18   7  10  1   
 19   7  33  1   
 20   8  11  ar  
 21   8  12  ar  
 22   9  34  1   
 23  10  13  1   
 24  10  35  1   
 25  10  36  1   
 26  11  14  ar  
 27  11  37  1   
 28  12  15  ar  
 29  12  38  1   
 30  13  16  2   
 31  13  17  1   
 32  14  18  ar  
 33  14  39  1   
 34  15  18  ar  
 35  15  40  1   
 36  16  19  1   
 37  17  20  2   
 38  17  41  1   
 39  18  42  1   
 40  19  20  1   
 41  19  43  1   
 42  20  21  1   
 43  21  22  1   
 44  21  44  1   
 45  21  45  1   
 46  22  23  1   
 47  22  24  1   
 48  22  46  1   
 49  23  47  1   
 50  23  48  1   
 51  23  49  1   
 52  24  50  1   
 53  24  51  1   
 54  24  52  1   
@<TRIPOS>SUBSTRUCTURE
  1 ****  10 GROUP 4 **** **** 0

# MOE 2024.06 (io_trps.svl 2023.06)
