@<TRIPOS>MOLECULE
NONAME
61 64 1 0 0 
SMALL
USER_CHARGES


@<TRIPOS>ATOM
  1 CL      -2.1030     1.5340    -1.8400 Cl    1 <1>  -0.1770 
  2 C       -3.1690     1.1280    -0.5120 C.ar  1 <1>   0.1770 
  3 C       -3.2940     1.9240     0.6290 C.ar  1 <1>   0.0830 
  4 C       -3.9210    -0.0240    -0.6570 C.ar  1 <1>  -0.1500 
  5 O       -2.6060     3.0680     0.8650 O.3   1 <1>  -0.3630 
  6 C       -4.1990     1.5420     1.6060 C.ar  1 <1>  -0.1500 
  7 C       -4.8270    -0.3970     0.3260 C.ar  1 <1>  -0.1430 
  8 C       -1.2160     3.1300     0.6300 C.3   1 <1>   0.1200 
  9 C       -4.9560     0.3920     1.4620 C.ar  1 <1>  -0.1500 
 10 C       -5.6810    -1.6400     0.1530 C.3   1 <1>   0.4870 
 11 C       -0.6080     4.1210     1.6240 C.3   1 <1>  -0.1600 
 12 N       -6.7600    -1.3280    -0.8220 N.4   1 <1>  -0.9590 
 13 C        0.9070     4.2460     1.4300 C.3   1 <1>  -0.2400 
 14 C       -7.6960    -0.2840    -0.2730 C.3   1 <1>   0.3430 
 15 C       -7.5030    -2.5500    -1.2410 C.3   1 <1>   0.3430 
 16 C       -8.7500     0.1470    -1.3060 C.3   1 <1>   0.1430 
 17 C       -8.5260    -2.1870    -2.3230 C.3   1 <1>  -0.1600 
 18 C       -9.7100     1.0820    -0.6150 C.ar  1 <1>   0.1670 
 19 C       -9.4970    -1.0860    -1.8580 C.3   1 <1>  -0.1600 
 20 C       -8.1640     1.0370    -2.4360 C.3   1 <1>  -0.1600 
 21 N      -10.2580     0.8440     0.5480 N.ar  1 <1>  -0.6200 
 22 C       -9.9190     2.2180    -1.3310 C.ar  1 <1>  -0.1430 
 23 C       -9.1420     2.2140    -2.6240 C.3   1 <1>  -0.0170 
 24 C      -11.0610     1.8130     0.9970 C.ar  1 <1>   0.7200 
 25 C      -10.7600     3.1580    -0.7910 C.ar  1 <1>   0.1600 
 26 N      -11.3320     2.9640     0.3740 N.ar  1 <1>  -0.6200 
 27 N      -11.6550     1.6070     2.2230 N.pl3 1 <1>  -0.8380 
 28 C      -12.2730     2.7270     2.9870 C.3   1 <1>   0.1290 
 29 C      -11.9510     0.2450     2.7460 C.3   1 <1>   0.1290 
 30 H       -3.7830    -0.6120    -1.5480 H     1 <1>   0.1500 
 31 H       -4.3030     2.1570     2.4840 H     1 <1>   0.1500 
 32 H       -1.0570     3.4680    -0.3790 H     1 <1>   0.0800 
 33 H       -0.7920     2.1490     0.7660 H     1 <1>   0.0800 
 34 H       -5.6460     0.1280     2.2470 H     1 <1>   0.1500 
 35 H       -6.1040    -1.9350     1.1000 H     1 <1>   0.0800 
 36 H       -5.0660    -2.4460    -0.2150 H     1 <1>   0.0800 
 37 H       -0.8110     3.7850     2.6270 H     1 <1>   0.0800 
 38 H       -1.0640     5.0860     1.4850 H     1 <1>   0.0800 
 39 H       -6.3070    -0.9220    -1.6490 H     1 <1>   0.4500 
 40 H        1.3870     3.2950     1.5820 H     1 <1>   0.0800 
 41 H        1.3100     4.9490     2.1380 H     1 <1>   0.0800 
 42 H        1.1320     4.5940     0.4370 H     1 <1>   0.0800 
 43 H       -7.1460     0.5880     0.0390 H     1 <1>   0.0800 
 44 H       -8.2080    -0.6760     0.5910 H     1 <1>   0.0800 
 45 H       -8.0170    -2.9740    -0.3920 H     1 <1>   0.0800 
 46 H       -6.8190    -3.2890    -1.6280 H     1 <1>   0.0800 
 47 H       -9.0920    -3.0680    -2.5740 H     1 <1>   0.0800 
 48 H       -8.0100    -1.8800    -3.2150 H     1 <1>   0.0800 
 49 H      -10.1450    -0.7940    -2.6670 H     1 <1>   0.0800 
 50 H      -10.1250    -1.4860    -1.0790 H     1 <1>   0.0800 
 51 H       -8.0210     0.5060    -3.3600 H     1 <1>   0.0800 
 52 H       -7.2170     1.4430    -2.1250 H     1 <1>   0.0800 
 53 H       -9.8130     2.0300    -3.4460 H     1 <1>   0.0800 
 54 H       -8.6230     3.1440    -2.7790 H     1 <1>   0.0800 
 55 H      -10.9640     4.0770    -1.3140 H     1 <1>   0.1500 
 56 H      -11.7430     3.6450     2.8010 H     1 <1>   0.0800 
 57 H      -12.2360     2.5210     4.0420 H     1 <1>   0.0800 
 58 H      -13.2980     2.8490     2.6820 H     1 <1>   0.0800 
 59 H      -11.8500    -0.4940     1.9700 H     1 <1>   0.0800 
 60 H      -12.9600     0.2060     3.1180 H     1 <1>   0.0800 
 61 H      -11.2700     0.0110     3.5450 H     1 <1>   0.0800 
@<TRIPOS>BOND
  1   1   2  1   
  2   2   3  ar  
  3   2   4  ar  
  4   3   5  1   
  5   3   6  ar  
  6   4   7  ar  
  7   4  30  1   
  8   5   8  1   
  9   6   9  ar  
 10   6  31  1   
 11   7   9  ar  
 12   7  10  1   
 13   8  11  1   
 14   8  32  1   
 15   8  33  1   
 16   9  34  1   
 17  10  12  1   
 18  10  35  1   
 19  10  36  1   
 20  11  13  1   
 21  11  37  1   
 22  11  38  1   
 23  12  14  1   
 24  12  15  1   
 25  12  39  1   
 26  13  40  1   
 27  13  41  1   
 28  13  42  1   
 29  14  16  1   
 30  14  43  1   
 31  14  44  1   
 32  15  17  1   
 33  15  45  1   
 34  15  46  1   
 35  16  18  1   
 36  16  19  1   
 37  16  20  1   
 38  17  19  1   
 39  17  47  1   
 40  17  48  1   
 41  18  21  ar  
 42  18  22  ar  
 43  19  49  1   
 44  19  50  1   
 45  20  23  1   
 46  20  51  1   
 47  20  52  1   
 48  21  24  ar  
 49  22  23  1   
 50  22  25  ar  
 51  23  53  1   
 52  23  54  1   
 53  24  26  ar  
 54  24  27  1   
 55  25  26  ar  
 56  25  55  1   
 57  27  28  1   
 58  27  29  1   
 59  28  56  1   
 60  28  57  1   
 61  28  58  1   
 62  29  59  1   
 63  29  60  1   
 64  29  61  1   
@<TRIPOS>SUBSTRUCTURE
  1 ****  14 GROUP 4 **** **** 0

# MOE 2024.06 (io_trps.svl 2023.06)
