@<TRIPOS>MOLECULE
NONAME
52 56 1 0 0 
SMALL
USER_CHARGES


@<TRIPOS>ATOM
  1 O       -0.9060     1.5280     2.3630 O.2   1 <1>  -0.5700 
  2 C       -1.7500     1.5900     1.4860 C.2   1 <1>   0.5440 
  3 N       -2.9110     0.8520     1.6160 N.am  1 <1>  -0.6600 
  4 C       -1.5580     2.5300     0.4050 C.ar  1 <1>   0.0860 
  5 C       -2.9720    -0.3300     2.5170 C.3   1 <1>   0.1400 
  6 C       -4.1210     1.0380     0.7690 C.3   1 <1>   0.1400 
  7 C       -0.9200     2.2010    -0.8050 C.ar  1 <1>   0.0410 
  8 C       -2.0190     3.8340     0.5920 C.ar  1 <1>  -0.1500 
  9 C       -3.2030    -1.5920     1.6850 C.3   1 <1>  -0.1600 
 10 C       -4.3970    -0.2210    -0.0560 C.3   1 <1>  -0.1600 
 11 C       -0.4160     0.8820    -1.1100 C.2   1 <1>   0.6960 
 12 C       -0.7730     3.2090    -1.7640 C.ar  1 <1>  -0.1500 
 13 C       -1.8690     4.8090    -0.3740 C.ar  1 <1>  -0.1500 
 14 C       -4.4630    -1.4870     0.8150 C.3   1 <1>   0.4240 
 15 N        0.7130     0.6780    -1.7320 N.2   1 <1>  -0.6190 
 16 N       -1.0530    -0.2340    -0.8850 N.2   1 <1>  -0.6190 
 17 C       -1.2390     4.4920    -1.5620 C.ar  1 <1>  -0.1500 
 18 O       -5.5350    -1.3350     1.7230 O.3   1 <1>  -0.5600 
 19 C       -4.6280    -2.7550    -0.0520 C.ar  1 <1>  -0.1440 
 20 N        0.7550    -0.5960    -1.8750 N.2   1 <1>  -0.2500 
 21 N       -0.2990    -1.1570    -1.3700 N.2   1 <1>  -0.2500 
 22 C       -6.8100    -1.6660     1.2710 C.3   1 <1>   0.1200 
 23 C       -5.7630    -3.5540     0.0390 C.ar  1 <1>  -0.1440 
 24 C       -3.6330    -3.1170    -0.9540 C.ar  1 <1>  -0.1500 
 25 C       -6.8640    -3.1670     1.0050 C.3   1 <1>  -0.0170 
 26 C       -5.8940    -4.6910    -0.7430 C.ar  1 <1>  -0.1500 
 27 C       -3.7630    -4.2490    -1.7370 C.ar  1 <1>  -0.1500 
 28 C       -4.8900    -5.0450    -1.6390 C.ar  1 <1>   0.0820 
 29 O       -4.9420    -6.1410    -2.4390 O.3   1 <1>  -0.3620 
 30 C       -6.0380    -7.0250    -2.4000 C.3   1 <1>   0.0400 
 31 H       -3.7730    -0.1960     3.2220 H     1 <1>   0.0800 
 32 H       -2.0530    -0.4360     3.0680 H     1 <1>   0.0800 
 33 H       -4.0000     1.8760     0.1070 H     1 <1>   0.0800 
 34 H       -4.9600     1.2370     1.4110 H     1 <1>   0.0800 
 35 H       -2.4970     4.0780     1.5250 H     1 <1>   0.1500 
 36 H       -3.2860    -2.4470     2.3280 H     1 <1>   0.0800 
 37 H       -2.3370    -1.7390     1.0640 H     1 <1>   0.0800 
 38 H       -3.6120    -0.3290    -0.7770 H     1 <1>   0.0800 
 39 H       -5.3060    -0.1060    -0.6120 H     1 <1>   0.0800 
 40 H       -0.2770     2.9620    -2.6890 H     1 <1>   0.1500 
 41 H       -2.2330     5.8070    -0.2030 H     1 <1>   0.1500 
 42 H       -1.1090     5.2410    -2.3240 H     1 <1>   0.1500 
 43 H       -7.0270    -1.1070     0.3790 H     1 <1>   0.0800 
 44 H       -7.5120    -1.3940     2.0390 H     1 <1>   0.0800 
 45 H       -2.7400    -2.5170    -1.0570 H     1 <1>   0.1500 
 46 H       -7.8250    -3.4200     0.5960 H     1 <1>   0.0800 
 47 H       -6.7380    -3.6990     1.9310 H     1 <1>   0.0800 
 48 H       -6.7790    -5.2880    -0.6460 H     1 <1>   0.1500 
 49 H       -2.9820    -4.5130    -2.4270 H     1 <1>   0.1500 
 50 H       -5.8550    -7.8140    -3.1070 H     1 <1>   0.0800 
 51 H       -6.9290    -6.4880    -2.6730 H     1 <1>   0.0800 
 52 H       -6.1200    -7.4340    -1.4080 H     1 <1>   0.0800 
@<TRIPOS>BOND
  1   1   2  2   
  2   2   3  am  
  3   2   4  1   
  4   3   5  1   
  5   3   6  1   
  6   4   7  ar  
  7   4   8  ar  
  8   5   9  1   
  9   5  31  1   
 10   5  32  1   
 11   6  10  1   
 12   6  33  1   
 13   6  34  1   
 14   7  11  1   
 15   7  12  ar  
 16   8  13  ar  
 17   8  35  1   
 18   9  14  1   
 19   9  36  1   
 20   9  37  1   
 21  10  14  1   
 22  10  38  1   
 23  10  39  1   
 24  11  15  2   
 25  11  16  1   
 26  12  17  ar  
 27  12  40  1   
 28  13  17  ar  
 29  13  41  1   
 30  14  18  1   
 31  14  19  1   
 32  15  20  1   
 33  16  21  2   
 34  17  42  1   
 35  18  22  1   
 36  19  23  ar  
 37  19  24  ar  
 38  20  21  1   
 39  22  25  1   
 40  22  43  1   
 41  22  44  1   
 42  23  25  1   
 43  23  26  ar  
 44  24  27  ar  
 45  24  45  1   
 46  25  46  1   
 47  25  47  1   
 48  26  28  ar  
 49  26  48  1   
 50  27  28  ar  
 51  27  49  1   
 52  28  29  1   
 53  29  30  1   
 54  30  50  1   
 55  30  51  1   
 56  30  52  1   
@<TRIPOS>SUBSTRUCTURE
  1 ****  10 GROUP 4 **** **** 0

# MOE 2024.06 (io_trps.svl 2023.06)
