@<TRIPOS>MOLECULE
NONAME
51 53 1 0 0 
SMALL
USER_CHARGES


@<TRIPOS>ATOM
  1 F       -0.8750    -1.2010     1.5000 F     1 <1>  -0.3400 
  2 C       -0.0340    -2.2250     1.4850 C.3   1 <1>   1.0200 
  3 F        1.1880    -1.7170     1.5270 F     1 <1>  -0.3400 
  4 F       -0.2170    -2.8740     2.6260 F     1 <1>  -0.3400 
  5 C       -0.2440    -3.1260     0.2700 C.3   1 <1>  -0.1600 
  6 C       -1.6620    -3.7390     0.1900 C.3   1 <1>  -0.0990 
  7 C       -1.8760    -4.6480    -1.0130 C.2   1 <1>   0.5690 
  8 O       -0.9610    -4.7860    -1.7910 O.2   1 <1>  -0.5700 
  9 N       -3.0770    -5.2880    -1.1890 N.am  1 <1>  -0.6600 
 10 C       -3.3030    -6.2060    -2.3410 C.3   1 <1>   0.1400 
 11 C       -4.2610    -5.1800    -0.2910 C.3   1 <1>   0.1400 
 12 C       -3.6330    -7.6050    -1.8150 C.3   1 <1>  -0.1600 
 13 C       -4.5880    -6.5650     0.2700 C.3   1 <1>  -0.1600 
 14 C       -4.8300    -7.5900    -0.8520 C.3   1 <1>   0.4240 
 15 O       -5.9190    -7.1400    -1.6240 O.3   1 <1>  -0.5600 
 16 C       -5.0790    -9.0010    -0.2770 C.ar  1 <1>  -0.1440 
 17 C       -7.2020    -7.4510    -1.1760 C.3   1 <1>   0.1200 
 18 C       -6.2910    -9.6520    -0.4610 C.ar  1 <1>  -0.1440 
 19 C       -4.0880    -9.6500     0.4490 C.ar  1 <1>  -0.1500 
 20 C       -7.3930    -8.9630    -1.2420 C.3   1 <1>  -0.0170 
 21 C       -6.5000   -10.9180     0.0640 C.ar  1 <1>  -0.1500 
 22 C       -4.2770   -10.9160     0.9750 C.ar  1 <1>   0.0820 
 23 C       -5.5070   -11.5660     0.7930 C.ar  1 <1>   0.0820 
 24 O       -3.2030   -11.4200     1.6490 O.3   1 <1>  -0.3630 
 25 O       -5.7180   -12.7980     1.3430 O.3   1 <1>  -0.3630 
 26 C       -2.9250   -12.8030     1.6490 C.3   1 <1>   0.0400 
 27 C       -6.9850   -13.4180     1.3350 C.3   1 <1>   0.0400 
 28 H        0.4850    -3.9150     0.3080 H     1 <1>   0.0800 
 29 H       -0.0540    -2.5460    -0.6150 H     1 <1>   0.0800 
 30 H       -2.3870    -2.9460     0.1400 H     1 <1>   0.0800 
 31 H       -1.8460    -4.3150     1.0780 H     1 <1>   0.0800 
 32 H       -2.4310    -6.2560    -2.9710 H     1 <1>   0.0800 
 33 H       -4.1200    -5.8330    -2.9360 H     1 <1>   0.0800 
 34 H       -5.0970    -4.8090    -0.8590 H     1 <1>   0.0800 
 35 H       -4.0840    -4.4970     0.5190 H     1 <1>   0.0800 
 36 H       -2.7610    -7.9870    -1.3190 H     1 <1>   0.0800 
 37 H       -3.8510    -8.2620    -2.6360 H     1 <1>   0.0800 
 38 H       -5.4480    -6.5120     0.9100 H     1 <1>   0.0800 
 39 H       -3.7630    -6.8860     0.8780 H     1 <1>   0.0800 
 40 H       -7.9060    -6.9550    -1.8210 H     1 <1>   0.0800 
 41 H       -7.3260    -7.0880    -0.1710 H     1 <1>   0.0800 
 42 H       -3.1380    -9.1790     0.6180 H     1 <1>   0.1500 
 43 H       -7.3650    -9.2830    -2.2680 H     1 <1>   0.0800 
 44 H       -8.3540    -9.2160    -0.8330 H     1 <1>   0.0800 
 45 H       -7.4500   -11.3840    -0.1080 H     1 <1>   0.1500 
 46 H       -1.8890   -12.9360     1.9000 H     1 <1>   0.0800 
 47 H       -3.1240   -13.2020     0.6700 H     1 <1>   0.0800 
 48 H       -3.5420   -13.2800     2.3890 H     1 <1>   0.0800 
 49 H       -6.9100   -14.3380     1.8860 H     1 <1>   0.0800 
 50 H       -7.2670   -13.6250     0.3180 H     1 <1>   0.0800 
 51 H       -7.6960   -12.7660     1.8100 H     1 <1>   0.0800 
@<TRIPOS>BOND
  1   1   2  1   
  2   2   3  1   
  3   2   4  1   
  4   2   5  1   
  5   5   6  1   
  6   5  28  1   
  7   5  29  1   
  8   6   7  1   
  9   6  30  1   
 10   6  31  1   
 11   7   8  2   
 12   7   9  am  
 13   9  10  1   
 14   9  11  1   
 15  10  12  1   
 16  10  32  1   
 17  10  33  1   
 18  11  13  1   
 19  11  34  1   
 20  11  35  1   
 21  12  14  1   
 22  12  36  1   
 23  12  37  1   
 24  13  14  1   
 25  13  38  1   
 26  13  39  1   
 27  14  15  1   
 28  14  16  1   
 29  15  17  1   
 30  16  18  ar  
 31  16  19  ar  
 32  17  20  1   
 33  17  40  1   
 34  17  41  1   
 35  18  20  1   
 36  18  21  ar  
 37  19  22  ar  
 38  19  42  1   
 39  20  43  1   
 40  20  44  1   
 41  21  23  ar  
 42  21  45  1   
 43  22  23  ar  
 44  22  24  1   
 45  23  25  1   
 46  24  26  1   
 47  25  27  1   
 48  26  46  1   
 49  26  47  1   
 50  26  48  1   
 51  27  49  1   
 52  27  50  1   
 53  27  51  1   
@<TRIPOS>SUBSTRUCTURE
  1 ****  13 GROUP 4 **** **** 0

# MOE 2024.06 (io_trps.svl 2023.06)
