@<TRIPOS>MOLECULE
NONAME
47 49 1 0 0 
SMALL
USER_CHARGES


@<TRIPOS>ATOM
  1 F       -0.9440    -0.1250    -0.5660 F     1 <1>  -0.1900 
  2 C       -0.7610    -1.3600    -0.1650 C.ar  1 <1>   0.1900 
  3 C       -1.8770    -2.1870     0.0000 C.ar  1 <1>   0.1170 
  4 C        0.5340    -1.7730     0.0770 C.ar  1 <1>  -0.1500 
  5 N       -3.1650    -1.6820    -0.2660 N.am  1 <1>  -0.5470 
  6 C       -1.6450    -3.4890     0.4440 C.ar  1 <1>  -0.1500 
  7 C        0.7060    -3.0730     0.5070 C.ar  1 <1>   0.1900 
  8 C       -4.3550    -2.2980    -0.5270 C.2   1 <1>   0.6900 
  9 C       -0.3570    -3.9380     0.6970 C.ar  1 <1>  -0.1500 
 10 F        1.9180    -3.5010     0.7470 F     1 <1>  -0.1900 
 11 O       -4.4220    -3.5050    -0.6610 O.2   1 <1>  -0.5700 
 12 N       -5.4810    -1.5270    -0.6640 N.am  1 <1>  -0.6600 
 13 C       -5.6020    -0.1360    -0.1350 C.3   1 <1>   0.1400 
 14 C       -6.7110    -2.1320    -1.2550 C.3   1 <1>   0.1400 
 15 C       -6.9940     0.0540     0.4680 C.3   1 <1>  -0.1600 
 16 C       -7.6650    -1.0380    -1.7360 C.3   1 <1>  -0.1600 
 17 C       -8.1140    -0.0950    -0.5940 C.3   1 <1>   0.2800 
 18 O       -8.2590     1.1450    -1.2230 O.3   1 <1>  -0.5600 
 19 C       -9.4560    -0.5940     0.0240 C.3   1 <1>  -0.1600 
 20 C       -8.9290     2.2280    -0.6160 C.3   1 <1>   0.1200 
 21 C      -10.5980     0.4340     0.0500 C.3   1 <1>   0.2800 
 22 C      -10.0270     1.8280     0.3860 C.3   1 <1>   0.2000 
 23 O      -11.1750     0.4790    -1.2060 O.3   1 <1>  -0.6800 
 24 C      -11.7210     0.0040     0.9980 C.3   1 <1>  -0.2400 
 25 O       -9.4840     1.8370     1.6740 O.3   1 <1>  -0.6800 
 26 H        1.3710    -1.1150    -0.0620 H     1 <1>   0.1500 
 27 H       -3.1940    -0.6850    -0.4590 H     1 <1>   0.3700 
 28 H       -2.4710    -4.1610     0.5980 H     1 <1>   0.1500 
 29 H       -0.1800    -4.9430     1.0350 H     1 <1>   0.1500 
 30 H       -4.8620     0.0400     0.6280 H     1 <1>   0.0800 
 31 H       -5.4500     0.5690    -0.9360 H     1 <1>   0.0800 
 32 H       -6.4340    -2.7610    -2.0840 H     1 <1>   0.0800 
 33 H       -7.1910    -2.7470    -0.5130 H     1 <1>   0.0800 
 34 H       -7.0390     1.0150     0.9410 H     1 <1>   0.0800 
 35 H       -7.1000    -0.6900     1.2370 H     1 <1>   0.0800 
 36 H       -8.5120    -1.4850    -2.2200 H     1 <1>   0.0800 
 37 H       -7.1450    -0.4730    -2.4910 H     1 <1>   0.0800 
 38 H       -9.8010    -1.4880    -0.4600 H     1 <1>   0.0800 
 39 H       -9.2680    -0.8940     1.0380 H     1 <1>   0.0800 
 40 H       -8.2010     2.8690    -0.1510 H     1 <1>   0.0800 
 41 H       -9.3880     2.7740    -1.4200 H     1 <1>   0.0800 
 42 H      -10.8140     2.5610     0.3800 H     1 <1>   0.0800 
 43 H      -11.5020    -0.4040    -1.4530 H     1 <1>   0.4000 
 44 H      -11.3570    -0.0470     2.0090 H     1 <1>   0.0800 
 45 H      -12.1030    -0.9640     0.7290 H     1 <1>   0.0800 
 46 H      -12.5210     0.7230     0.9730 H     1 <1>   0.0800 
 47 H       -8.7430     1.2050     1.7160 H     1 <1>   0.4000 
@<TRIPOS>BOND
  1   1   2  1   
  2   2   3  ar  
  3   2   4  ar  
  4   3   5  1   
  5   3   6  ar  
  6   4   7  ar  
  7   4  26  1   
  8   5   8  am  
  9   5  27  1   
 10   6   9  ar  
 11   6  28  1   
 12   7   9  ar  
 13   7  10  1   
 14   8  11  2   
 15   8  12  am  
 16   9  29  1   
 17  12  13  1   
 18  12  14  1   
 19  13  15  1   
 20  13  30  1   
 21  13  31  1   
 22  14  16  1   
 23  14  32  1   
 24  14  33  1   
 25  15  17  1   
 26  15  34  1   
 27  15  35  1   
 28  16  17  1   
 29  16  36  1   
 30  16  37  1   
 31  17  18  1   
 32  17  19  1   
 33  18  20  1   
 34  19  21  1   
 35  19  38  1   
 36  19  39  1   
 37  20  22  1   
 38  20  40  1   
 39  20  41  1   
 40  21  22  1   
 41  21  23  1   
 42  21  24  1   
 43  22  25  1   
 44  22  42  1   
 45  23  43  1   
 46  24  44  1   
 47  24  45  1   
 48  24  46  1   
 49  25  47  1   
@<TRIPOS>SUBSTRUCTURE
  1 ****  12 GROUP 4 **** **** 0

# MOE 2024.06 (io_trps.svl 2023.06)
