@<TRIPOS>MOLECULE
NONAME
40 42 1 0 0 
SMALL
USER_CHARGES


@<TRIPOS>ATOM
  1 S        0.6340    -0.5310    -0.7330 S.3   1 <1>  -0.0800 
  2 C        0.2110    -2.0510     0.0550 C.ar  1 <1>   0.2970 
  3 C       -0.4420    -0.8760    -2.0900 C.2   1 <1>  -0.1100 
  4 N        0.7110    -2.4330     1.2100 N.ar  1 <1>  -0.5670 
  5 C       -0.6940    -2.7470    -0.7060 C.ar  1 <1>   0.0000 
  6 C       -1.0550    -2.0610    -1.9210 C.2   1 <1>  -0.1500 
  7 C        0.2470    -3.6030     1.6020 C.ar  1 <1>   0.4770 
  8 C       -1.0920    -3.9700    -0.1740 C.ar  1 <1>   0.4100 
  9 N       -0.6130    -4.3990     0.9810 N.ar  1 <1>  -0.6200 
 10 C        0.7630    -4.1130     2.9270 C.3   1 <1>  -0.0960 
 11 N       -1.9840    -4.7650    -0.8380 N.pl3 1 <1>  -0.8690 
 12 C       -2.3090    -6.1690    -0.5050 C.3   1 <1>   0.4690 
 13 C       -1.7040    -7.0350    -1.6150 C.2   1 <1>   0.0060 
 14 C       -3.8430    -6.3370    -0.3390 C.3   1 <1>  -0.0800 
 15 N       -2.3220    -7.4110    -2.6960 N.2   1 <1>  -0.5650 
 16 N       -0.4150    -7.4590    -1.5620 N.pl3 1 <1>   0.0480 
 17 C       -4.4330    -5.3650     0.7010 C.3   1 <1>  -0.2400 
 18 C       -4.2150    -7.7740     0.0730 C.3   1 <1>  -0.2400 
 19 C       -1.4010    -8.1220    -3.3690 C.2   1 <1>   0.0770 
 20 C       -0.2330    -8.1600    -2.6950 C.2   1 <1>  -0.3020 
 21 C        0.6130    -7.1800    -0.5420 C.3   1 <1>   0.0160 
 22 H       -0.4950    -0.1390    -2.8720 H     1 <1>   0.1500 
 23 H       -1.7610    -2.5000    -2.6030 H     1 <1>   0.1500 
 24 H        1.2380    -3.3210     3.4760 H     1 <1>   0.0800 
 25 H        1.4750    -4.8980     2.7550 H     1 <1>   0.0800 
 26 H       -0.0540    -4.4970     3.5100 H     1 <1>   0.0800 
 27 H       -2.1820    -4.5740    -1.8210 H     1 <1>   0.4000 
 28 H       -1.8580    -6.4410     0.4320 H     1 <1>   0.0800 
 29 H       -4.3030    -6.1370    -1.2920 H     1 <1>   0.0800 
 30 H       -3.9640    -5.5050     1.6580 H     1 <1>   0.0800 
 31 H       -5.4920    -5.5240     0.8070 H     1 <1>   0.0800 
 32 H       -4.2810    -4.3450     0.3950 H     1 <1>   0.0800 
 33 H       -3.7700    -8.0260     1.0200 H     1 <1>   0.0800 
 34 H       -3.8760    -8.4800    -0.6650 H     1 <1>   0.0800 
 35 H       -5.2820    -7.8730     0.1570 H     1 <1>   0.0800 
 36 H       -1.6310    -8.5750    -4.3200 H     1 <1>   0.1500 
 37 H        0.6930    -8.6360    -2.9580 H     1 <1>   0.1500 
 38 H        0.2240    -7.3990     0.4350 H     1 <1>   0.0800 
 39 H        0.8900    -6.1430    -0.5950 H     1 <1>   0.0800 
 40 H        1.4790    -7.7900    -0.7260 H     1 <1>   0.0800 
@<TRIPOS>BOND
  1   1   2  1   
  2   1   3  1   
  3   2   4  ar  
  4   2   5  ar  
  5   3   6  2   
  6   3  22  1   
  7   4   7  ar  
  8   5   6  1   
  9   5   8  ar  
 10   6  23  1   
 11   7   9  ar  
 12   7  10  1   
 13   8   9  ar  
 14   8  11  1   
 15  10  24  1   
 16  10  25  1   
 17  10  26  1   
 18  11  12  1   
 19  11  27  1   
 20  12  13  1   
 21  12  14  1   
 22  12  28  1   
 23  13  15  2   
 24  13  16  1   
 25  14  17  1   
 26  14  18  1   
 27  14  29  1   
 28  15  19  1   
 29  16  20  1   
 30  16  21  1   
 31  17  30  1   
 32  17  31  1   
 33  17  32  1   
 34  18  33  1   
 35  18  34  1   
 36  18  35  1   
 37  19  20  2   
 38  19  36  1   
 39  20  37  1   
 40  21  38  1   
 41  21  39  1   
 42  21  40  1   
@<TRIPOS>SUBSTRUCTURE
  1 ****  11 GROUP 4 **** **** 0

# MOE 2024.06 (io_trps.svl 2023.06)
