@<TRIPOS>MOLECULE
NONAME
50 51 1 0 0 
SMALL
USER_CHARGES


@<TRIPOS>ATOM
  1 O       -0.0890     1.3360    -0.4710 O.2   1 <1>  -0.5700 
  2 C       -0.3900     2.4830    -0.7030 C.2   1 <1>   0.5690 
  3 N       -1.2220     3.2320     0.0910 N.am  1 <1>  -0.6600 
  4 C        0.1910     3.1270    -1.9570 C.3   1 <1>   0.1810 
  5 C       -1.5590     4.6470    -0.2810 C.3   1 <1>   0.3640 
  6 C       -1.7990     2.7760     1.3870 C.3   1 <1>   0.2200 
  7 O        0.4440     4.4940    -1.7590 O.3   1 <1>  -0.5600 
  8 C       -3.0460     4.7430    -0.6290 C.ar  1 <1>  -0.1440 
  9 C       -0.7130     5.2550    -1.4370 C.3   1 <1>   0.2610 
 10 C       -0.6820     2.5590     2.4060 C.3   1 <1>  -0.2400 
 11 C       -2.6640     1.5280     1.2090 C.3   1 <1>  -0.2400 
 12 C       -3.8030     5.7940    -0.1300 C.ar  1 <1>  -0.1500 
 13 C       -3.6600     3.8030    -1.4480 C.ar  1 <1>  -0.1500 
 14 C       -0.3120     6.6880    -1.0670 C.2   1 <1>   0.5690 
 15 C       -5.1480     5.9010    -0.4390 C.ar  1 <1>  -0.1500 
 16 C       -5.0040     3.9090    -1.7570 C.ar  1 <1>  -0.1500 
 17 O       -1.1630     7.4920    -0.7650 O.2   1 <1>  -0.5700 
 18 N        1.0050     7.0280    -1.0530 N.am  1 <1>  -0.7300 
 19 C       -5.7500     4.9590    -1.2530 C.ar  1 <1>  -0.1500 
 20 C        1.5470     8.3700    -0.7290 C.3   1 <1>   0.1400 
 21 C        1.4310     8.6400     0.7750 C.3   1 <1>   0.1400 
 22 N        2.0850     9.9270     1.1180 N.am  1 <1>  -0.7300 
 23 C        3.2350    10.1450     1.7930 C.2   1 <1>   0.5690 
 24 O        3.6040    11.2710     2.0020 O.2   1 <1>  -0.5700 
 25 C        4.0750     8.9940     2.2870 C.3   1 <1>  -0.1790 
 26 H       -0.4890     3.0120    -2.7810 H     1 <1>   0.0800 
 27 H        1.1240     2.6530    -2.2010 H     1 <1>   0.0800 
 28 H       -1.3850     5.2480     0.5960 H     1 <1>   0.0800 
 29 H       -2.4420     3.5520     1.7690 H     1 <1>   0.0800 
 30 H       -1.3150     5.3070    -2.3270 H     1 <1>   0.0800 
 31 H       -0.0440     1.7470     2.1060 H     1 <1>   0.0800 
 32 H       -1.1050     2.3170     3.3640 H     1 <1>   0.0800 
 33 H       -0.0940     3.4520     2.5090 H     1 <1>   0.0800 
 34 H       -2.0730     0.6800     0.9160 H     1 <1>   0.0800 
 35 H       -3.4240     1.7040     0.4710 H     1 <1>   0.0800 
 36 H       -3.1480     1.2890     2.1380 H     1 <1>   0.0800 
 37 H       -3.3520     6.5430     0.4980 H     1 <1>   0.1500 
 38 H       -3.0980     2.9760    -1.8450 H     1 <1>   0.1500 
 39 H       -5.7240     6.7220    -0.0480 H     1 <1>   0.1500 
 40 H       -5.4710     3.1740    -2.3900 H     1 <1>   0.1500 
 41 H        1.6720     6.3000    -1.3330 H     1 <1>   0.3700 
 42 H       -6.7960     5.0430    -1.4930 H     1 <1>   0.1500 
 43 H        2.5790     8.4150    -1.0300 H     1 <1>   0.0800 
 44 H        0.9900     9.1150    -1.2720 H     1 <1>   0.0800 
 45 H        1.8890     7.8350     1.3200 H     1 <1>   0.0800 
 46 H        0.3920     8.6930     1.0520 H     1 <1>   0.0800 
 47 H        1.5840    10.7750     0.8400 H     1 <1>   0.3700 
 48 H        4.3340     8.3510     1.4680 H     1 <1>   0.0800 
 49 H        3.5310     8.4400     3.0280 H     1 <1>   0.0800 
 50 H        4.9780     9.3710     2.7310 H     1 <1>   0.0800 
@<TRIPOS>BOND
  1   1   2  2   
  2   2   3  am  
  3   2   4  1   
  4   3   5  1   
  5   3   6  1   
  6   4   7  1   
  7   4  26  1   
  8   4  27  1   
  9   5   8  1   
 10   5   9  1   
 11   5  28  1   
 12   6  10  1   
 13   6  11  1   
 14   6  29  1   
 15   7   9  1   
 16   8  12  ar  
 17   8  13  ar  
 18   9  14  1   
 19   9  30  1   
 20  10  31  1   
 21  10  32  1   
 22  10  33  1   
 23  11  34  1   
 24  11  35  1   
 25  11  36  1   
 26  12  15  ar  
 27  12  37  1   
 28  13  16  ar  
 29  13  38  1   
 30  14  17  2   
 31  14  18  am  
 32  15  19  ar  
 33  15  39  1   
 34  16  19  ar  
 35  16  40  1   
 36  18  20  1   
 37  18  41  1   
 38  19  42  1   
 39  20  21  1   
 40  20  43  1   
 41  20  44  1   
 42  21  22  1   
 43  21  45  1   
 44  21  46  1   
 45  22  23  am  
 46  22  47  1   
 47  23  24  2   
 48  23  25  1   
 49  25  48  1   
 50  25  49  1   
 51  25  50  1   
@<TRIPOS>SUBSTRUCTURE
  1 ****   5 GROUP 4 **** **** 0

# MOE 2024.06 (io_trps.svl 2023.06)
