@<TRIPOS>MOLECULE
NONAME
47 49 1 0 0 
SMALL
USER_CHARGES


@<TRIPOS>ATOM
  1 S        0.1070    -1.0470     0.4350 S.o2  1 <1>   1.4470 
  2 O        0.8350    -2.2950     0.4220 O.2   1 <1>  -0.6500 
  3 O       -0.9880    -0.8790     1.3650 O.2   1 <1>  -0.6500 
  4 N       -0.5820    -0.8510    -1.0860 N.am  1 <1>  -0.9140 
  5 C        1.2630     0.3390     0.5580 C.ar  1 <1>  -0.0090 
  6 C       -1.3710    -1.9420    -1.6690 C.3   1 <1>   0.2760 
  7 C        0.8260     1.6480     0.3730 C.ar  1 <1>   0.0830 
  8 C        2.6050     0.1220     0.8490 C.ar  1 <1>  -0.1500 
  9 C       -2.3510    -2.6680    -0.7580 C.3   1 <1>  -0.0800 
 10 C       -0.5780    -3.1020    -2.2540 C.3   1 <1>   0.1200 
 11 O       -0.4900     1.8450     0.0880 O.3   1 <1>  -0.3630 
 12 C        1.7260     2.7060     0.4830 C.ar  1 <1>  -0.1500 
 13 C        3.5030     1.1700     0.9570 C.ar  1 <1>  -0.1430 
 14 C       -2.5540    -3.9990    -1.4880 C.3   1 <1>   0.1200 
 15 C       -3.6480    -1.8850    -0.5020 C.3   1 <1>  -0.0170 
 16 O       -1.5240    -4.1150    -2.4280 O.3   1 <1>  -0.5600 
 17 C       -1.0720     3.1310     0.1130 C.3   1 <1>   0.0400 
 18 C        3.0550     2.4650     0.7740 C.ar  1 <1>  -0.1500 
 19 C        4.9620     0.9000     1.2770 C.3   1 <1>  -0.0970 
 20 C       -4.5630    -2.6540     0.4350 C.ar  1 <1>  -0.1430 
 21 C       -4.3010    -2.7230     1.7880 C.ar  1 <1>  -0.1500 
 22 C       -5.6890    -3.3200    -0.0040 C.ar  1 <1>  -0.1500 
 23 C       -5.1530    -3.4380     2.6140 C.ar  1 <1>   0.1600 
 24 C       -6.4750    -4.0060     0.9060 C.ar  1 <1>   0.1600 
 25 N       -6.2340    -4.0830     2.2050 N.ar  1 <1>  -0.6200 
 26 H       -1.1980    -0.0510    -0.9420 H     1 <1>   0.4200 
 27 H       -1.9230    -1.5250    -2.4940 H     1 <1>   0.0800 
 28 H        2.9510    -0.8880     0.9930 H     1 <1>   0.1500 
 29 H       -1.8910    -2.9190     0.1790 H     1 <1>   0.0800 
 30 H        0.1720    -3.4700    -1.5780 H     1 <1>   0.0800 
 31 H       -0.1430    -2.8600    -3.2070 H     1 <1>   0.0800 
 32 H        1.4150     3.7240     0.3420 H     1 <1>   0.1500 
 33 H       -3.4870    -4.0270    -2.0230 H     1 <1>   0.0800 
 34 H       -2.5000    -4.8330    -0.8100 H     1 <1>   0.0800 
 35 H       -4.1530    -1.6880    -1.4310 H     1 <1>   0.0800 
 36 H       -3.4100    -0.9380    -0.0490 H     1 <1>   0.0800 
 37 H       -2.1310     3.0230    -0.0390 H     1 <1>   0.0800 
 38 H       -0.6470     3.7240    -0.6770 H     1 <1>   0.0800 
 39 H       -0.8870     3.5790     1.0740 H     1 <1>   0.0800 
 40 H        3.7410     3.2910     0.8570 H     1 <1>   0.1500 
 41 H        5.5920     1.6430     0.8200 H     1 <1>   0.0800 
 42 H        5.2580    -0.0660     0.9090 H     1 <1>   0.0800 
 43 H        5.1120     0.9250     2.3420 H     1 <1>   0.0800 
 44 H       -3.4410    -2.2280     2.2050 H     1 <1>   0.1500 
 45 H       -5.9640    -3.3140    -1.0430 H     1 <1>   0.1500 
 46 H       -4.9310    -3.4810     3.6670 H     1 <1>   0.1500 
 47 H       -7.3500    -4.5210     0.5470 H     1 <1>   0.1500 
@<TRIPOS>BOND
  1   1   2  2   
  2   1   3  2   
  3   1   4  am  
  4   1   5  1   
  5   4   6  1   
  6   4  26  1   
  7   5   7  ar  
  8   5   8  ar  
  9   6   9  1   
 10   6  10  1   
 11   6  27  1   
 12   7  11  1   
 13   7  12  ar  
 14   8  13  ar  
 15   8  28  1   
 16   9  14  1   
 17   9  15  1   
 18   9  29  1   
 19  10  16  1   
 20  10  30  1   
 21  10  31  1   
 22  11  17  1   
 23  12  18  ar  
 24  12  32  1   
 25  13  18  ar  
 26  13  19  1   
 27  14  16  1   
 28  14  33  1   
 29  14  34  1   
 30  15  20  1   
 31  15  35  1   
 32  15  36  1   
 33  17  37  1   
 34  17  38  1   
 35  17  39  1   
 36  18  40  1   
 37  19  41  1   
 38  19  42  1   
 39  19  43  1   
 40  20  21  ar  
 41  20  22  ar  
 42  21  23  ar  
 43  21  44  1   
 44  22  24  ar  
 45  22  45  1   
 46  23  25  ar  
 47  23  46  1   
 48  24  25  ar  
 49  24  47  1   
@<TRIPOS>SUBSTRUCTURE
  1 ****   3 GROUP 4 **** **** 0

# MOE 2024.06 (io_trps.svl 2023.06)
