@<TRIPOS>MOLECULE
NONAME
55 57 1 0 0 
SMALL
USER_CHARGES


@<TRIPOS>ATOM
  1 O       -1.5320     5.2840     3.2960 O.2   1 <1>  -0.5700 
  2 C       -1.9260     5.0530     2.1760 C.2   1 <1>   0.5690 
  3 N       -3.1230     4.3990     1.9570 N.am  1 <1>  -0.6600 
  4 C       -1.0320     5.5370     1.0360 C.3   1 <1>   0.0440 
  5 C       -3.6530     4.1020     0.5900 C.3   1 <1>   0.2200 
  6 C       -3.9250     3.9370     3.1340 C.3   1 <1>   0.0600 
  7 C       -0.4930     4.4090     0.1590 C.ar  1 <1>  -0.1440 
  8 C       -5.1440     4.3750     0.4020 C.3   1 <1>  -0.1600 
  9 C       -3.5070     2.6350     0.2050 C.3   1 <1>  -0.1600 
 10 C        0.1130     3.3050     0.7410 C.ar  1 <1>  -0.1500 
 11 C       -0.6090     4.4710    -1.2220 C.ar  1 <1>  -0.1500 
 12 C       -5.5150     3.5750    -0.8570 C.3   1 <1>  -0.0800 
 13 C       -4.4610     2.4610    -0.9840 C.3   1 <1>  -0.0800 
 14 C        0.5830     2.2660    -0.0430 C.ar  1 <1>  -0.1500 
 15 C       -0.1420     3.4320    -2.0070 C.ar  1 <1>  -0.1500 
 16 C       -6.8790     2.8770    -0.7730 C.3   1 <1>  -0.1600 
 17 C       -5.2210     1.1290    -0.9760 C.3   1 <1>  -0.1600 
 18 C        0.4510     2.3230    -1.4280 C.ar  1 <1>   0.0830 
 19 C       -6.5560     1.4550    -0.3130 C.3   1 <1>   0.4230 
 20 O        0.8740     1.3470    -2.2690 O.3   1 <1>  -0.3630 
 21 N       -7.6170     0.4430    -0.6100 N.4   1 <1>  -0.9590 
 22 C        1.5640     0.2150    -1.7870 C.3   1 <1>   0.0400 
 23 C       -8.0110     0.3280    -2.0540 C.3   1 <1>   0.2630 
 24 C       -8.8290     0.6850     0.2330 C.3   1 <1>   0.2630 
 25 H       -1.5830     6.2460     0.4490 H     1 <1>   0.0800 
 26 H       -0.1950     6.0610     1.4590 H     1 <1>   0.0800 
 27 H       -3.1350     4.6910    -0.1440 H     1 <1>   0.0800 
 28 H       -4.3600     2.9740     2.9450 H     1 <1>   0.0800 
 29 H       -4.7040     4.6480     3.3410 H     1 <1>   0.0800 
 30 H       -3.3030     3.8510     4.0100 H     1 <1>   0.0800 
 31 H       -5.7060     4.0150     1.2420 H     1 <1>   0.0800 
 32 H       -5.3310     5.4260     0.2710 H     1 <1>   0.0800 
 33 H       -2.4950     2.4010    -0.0740 H     1 <1>   0.0800 
 34 H       -3.8000     2.0080     1.0260 H     1 <1>   0.0800 
 35 H        0.2170     3.2500     1.8120 H     1 <1>   0.1500 
 36 H       -1.0620     5.3240    -1.6950 H     1 <1>   0.1500 
 37 H       -5.4710     4.2230    -1.7180 H     1 <1>   0.0800 
 38 H       -3.9060     2.5780    -1.9020 H     1 <1>   0.0800 
 39 H        1.0430     1.4250     0.4400 H     1 <1>   0.1500 
 40 H       -0.2320     3.4750    -3.0780 H     1 <1>   0.1500 
 41 H       -7.3080     2.8780    -1.7580 H     1 <1>   0.0800 
 42 H       -7.5450     3.3810    -0.0950 H     1 <1>   0.0800 
 43 H       -4.6820     0.3640    -0.4460 H     1 <1>   0.0800 
 44 H       -5.3570     0.8240    -1.9970 H     1 <1>   0.0800 
 45 H       -6.3840     1.4880     0.7510 H     1 <1>   0.0800 
 46 H       -7.2220    -0.4670    -0.3300 H     1 <1>   0.4500 
 47 H        1.8260    -0.4000    -2.6290 H     1 <1>   0.0800 
 48 H        0.9180    -0.3310    -1.1220 H     1 <1>   0.0800 
 49 H        2.4550     0.5400    -1.2790 H     1 <1>   0.0800 
 50 H       -8.4530     1.2480    -2.4000 H     1 <1>   0.0800 
 51 H       -8.7310    -0.4640    -2.1810 H     1 <1>   0.0800 
 52 H       -7.1530     0.1050    -2.6670 H     1 <1>   0.0800 
 53 H       -9.2850     1.6260    -0.0280 H     1 <1>   0.0800 
 54 H       -8.5620     0.7090     1.2770 H     1 <1>   0.0800 
 55 H       -9.5530    -0.1000     0.0830 H     1 <1>   0.0800 
@<TRIPOS>BOND
  1   1   2  2   
  2   2   3  am  
  3   2   4  1   
  4   3   5  1   
  5   3   6  1   
  6   4   7  1   
  7   4  25  1   
  8   4  26  1   
  9   5   8  1   
 10   5   9  1   
 11   5  27  1   
 12   6  28  1   
 13   6  29  1   
 14   6  30  1   
 15   7  10  ar  
 16   7  11  ar  
 17   8  12  1   
 18   8  31  1   
 19   8  32  1   
 20   9  13  1   
 21   9  33  1   
 22   9  34  1   
 23  10  14  ar  
 24  10  35  1   
 25  11  15  ar  
 26  11  36  1   
 27  12  13  1   
 28  12  16  1   
 29  12  37  1   
 30  13  17  1   
 31  13  38  1   
 32  14  18  ar  
 33  14  39  1   
 34  15  18  ar  
 35  15  40  1   
 36  16  19  1   
 37  16  41  1   
 38  16  42  1   
 39  17  19  1   
 40  17  43  1   
 41  17  44  1   
 42  18  20  1   
 43  19  21  1   
 44  19  45  1   
 45  20  22  1   
 46  21  23  1   
 47  21  24  1   
 48  21  46  1   
 49  22  47  1   
 50  22  48  1   
 51  22  49  1   
 52  23  50  1   
 53  23  51  1   
 54  23  52  1   
 55  24  53  1   
 56  24  54  1   
 57  24  55  1   
@<TRIPOS>SUBSTRUCTURE
  1 ****   9 GROUP 4 **** **** 0

# MOE 2024.06 (io_trps.svl 2023.06)
