@<TRIPOS>MOLECULE
NONAME
51 55 1 0 0 
SMALL
USER_CHARGES


@<TRIPOS>ATOM
  1 O       -1.3670     0.6860    -1.8010 O.2   1 <1>  -0.5700 
  2 C       -1.7210     1.0730    -0.7040 C.2   1 <1>   0.5440 
  3 N       -2.1850     0.1480     0.2020 N.am  1 <1>  -0.6600 
  4 C       -1.6830     2.4820    -0.3900 C.ar  1 <1>   0.0860 
  5 C       -2.9860     0.4710     1.4110 C.3   1 <1>   0.1400 
  6 C       -2.2370    -1.3030    -0.0940 C.3   1 <1>   0.1400 
  7 C       -0.8960     3.0060     0.6650 C.ar  1 <1>   0.0000 
  8 C       -2.4290     3.3800    -1.1060 C.ar  1 <1>  -0.1500 
  9 C       -3.7460    -0.8180     1.7220 C.3   1 <1>   0.2000 
 10 C       -2.8950    -1.9400     1.1310 C.3   1 <1>  -0.0800 
 11 C       -0.9990     4.3860     0.9440 C.ar  1 <1>   0.3100 
 12 C       -0.0080     2.2310     1.4450 C.ar  1 <1>  -0.1500 
 13 C       -2.4450     4.7340    -0.7680 C.ar  1 <1>   0.2780 
 14 O       -3.9050    -1.0030     3.0860 O.3   1 <1>  -0.6800 
 15 C       -3.7040    -3.2040     0.8070 C.3   1 <1>   0.0200 
 16 N       -1.7790     5.2290     0.2270 N.ar  1 <1>  -0.6200 
 17 C       -0.2550     4.9190     2.0090 C.ar  1 <1>  -0.1500 
 18 C        0.7110     2.7810     2.4710 C.ar  1 <1>  -0.1500 
 19 C       -3.3000     5.6850    -1.5910 C.3   1 <1>  -0.0680 
 20 C       -2.8250    -4.2550     0.1570 C.2   1 <1>  -0.0400 
 21 C        0.5820     4.1410     2.7620 C.ar  1 <1>  -0.1500 
 22 C       -3.2560     5.6760    -3.0920 C.3   1 <1>  -0.2000 
 23 C       -2.6540     6.8160    -2.3340 C.3   1 <1>  -0.2000 
 24 O       -1.8170    -4.7610     0.8160 O.3   1 <1>  -0.0190 
 25 C       -2.8530    -4.8250    -1.0570 C.2   1 <1>  -0.1500 
 26 N       -1.1650    -5.6360     0.1060 N.2   1 <1>  -0.4100 
 27 C       -1.7680    -5.6960    -1.0270 C.2   1 <1>   0.1080 
 28 C       -1.3450    -6.5940    -2.1680 C.3   1 <1>  -0.0590 
 29 H       -2.3230     0.7280     2.2180 H     1 <1>   0.0800 
 30 H       -3.6680     1.2800     1.2150 H     1 <1>   0.0800 
 31 H       -2.8310    -1.4570    -0.9800 H     1 <1>   0.0800 
 32 H       -1.2470    -1.6940    -0.2610 H     1 <1>   0.0800 
 33 H       -3.0200     3.0440    -1.9380 H     1 <1>   0.1500 
 34 H       -4.7210    -0.7820     1.2680 H     1 <1>   0.0800 
 35 H       -2.1050    -2.1900     1.8190 H     1 <1>   0.0800 
 36 H        0.1100     1.1840     1.2220 H     1 <1>   0.1500 
 37 H       -3.0380    -1.1200     3.5210 H     1 <1>   0.4000 
 38 H       -4.5150    -2.9620     0.1440 H     1 <1>   0.0800 
 39 H       -4.1220    -3.6080     1.7120 H     1 <1>   0.0800 
 40 H       -0.3620     5.9690     2.2100 H     1 <1>   0.1500 
 41 H        1.3820     2.1800     3.0610 H     1 <1>   0.1500 
 42 H       -4.2400     5.8950    -1.1130 H     1 <1>   0.1000 
 43 H        1.1490     4.5640     3.5750 H     1 <1>   0.1500 
 44 H       -2.5880     5.0020    -3.6010 H     1 <1>   0.1000 
 45 H       -4.1680     5.8420    -3.6370 H     1 <1>   0.1000 
 46 H       -3.1490     7.7720    -2.3370 H     1 <1>   0.1000 
 47 H       -1.5830     6.9080    -2.2820 H     1 <1>   0.1000 
 48 H       -3.5280    -4.6710    -1.8780 H     1 <1>   0.1500 
 49 H       -2.1490    -7.2580    -2.4270 H     1 <1>   0.0800 
 50 H       -0.4900    -7.1780    -1.8790 H     1 <1>   0.0800 
 51 H       -1.0860    -5.9980    -3.0240 H     1 <1>   0.0800 
@<TRIPOS>BOND
  1   1   2  2   
  2   2   3  am  
  3   2   4  1   
  4   3   5  1   
  5   3   6  1   
  6   4   7  ar  
  7   4   8  ar  
  8   5   9  1   
  9   5  29  1   
 10   5  30  1   
 11   6  10  1   
 12   6  31  1   
 13   6  32  1   
 14   7  11  ar  
 15   7  12  ar  
 16   8  13  ar  
 17   8  33  1   
 18   9  10  1   
 19   9  14  1   
 20   9  34  1   
 21  10  15  1   
 22  10  35  1   
 23  11  16  ar  
 24  11  17  ar  
 25  12  18  ar  
 26  12  36  1   
 27  13  16  ar  
 28  13  19  1   
 29  14  37  1   
 30  15  20  1   
 31  15  38  1   
 32  15  39  1   
 33  17  21  ar  
 34  17  40  1   
 35  18  21  ar  
 36  18  41  1   
 37  19  22  1   
 38  19  23  1   
 39  19  42  1   
 40  20  24  1   
 41  20  25  2   
 42  21  43  1   
 43  22  23  1   
 44  22  44  1   
 45  22  45  1   
 46  23  46  1   
 47  23  47  1   
 48  24  26  1   
 49  25  27  1   
 50  25  48  1   
 51  26  27  2   
 52  27  28  1   
 53  28  49  1   
 54  28  50  1   
 55  28  51  1   
@<TRIPOS>SUBSTRUCTURE
  1 ****   3 GROUP 4 **** **** 0

# MOE 2024.06 (io_trps.svl 2023.06)
