@<TRIPOS>MOLECULE
NONAME
40 42 1 0 0 
SMALL
USER_CHARGES


@<TRIPOS>ATOM
  1 O       -0.9020     0.6160     1.8180 O.2   1 <1>  -0.5700 
  2 C       -1.6010     1.1630     0.9690 C.2   1 <1>   0.5440 
  3 N       -2.5670     0.3540     0.3800 N.am  1 <1>  -0.6600 
  4 C       -1.3900     2.5640     0.6500 C.ar  1 <1>   0.3960 
  5 C       -3.6620     0.8060    -0.5140 C.3   1 <1>   0.1400 
  6 C       -2.7730    -1.0640     0.7470 C.3   1 <1>   0.1400 
  7 N       -1.8390     3.0990    -0.5200 N.ar  1 <1>  -0.6200 
  8 C       -0.7040     3.3680     1.5770 C.ar  1 <1>   0.1600 
  9 C       -4.6340    -0.3770    -0.6210 C.3   1 <1>   0.2000 
 10 C       -3.7630    -1.5940    -0.2920 C.3   1 <1>  -0.0800 
 11 C       -1.5760     4.3710    -0.6480 C.ar  1 <1>   0.1600 
 12 N       -0.4390     4.6460     1.4600 N.ar  1 <1>  -0.6200 
 13 O       -5.6450    -0.2740     0.3440 O.3   1 <1>  -0.5600 
 14 C       -4.5420    -2.8360     0.1780 C.3   1 <1>   0.0200 
 15 C       -0.8960     5.1630     0.3070 C.ar  1 <1>   0.1390 
 16 C       -6.7030     0.5680     0.0100 C.3   1 <1>   0.0400 
 17 C       -3.6700    -4.0720     0.3220 C.2   1 <1>  -0.0400 
 18 O       -0.7060     6.3720     0.0930 O.3   1 <1>  -0.8290 
 19 O       -4.2060    -5.1680     0.7890 O.3   1 <1>  -0.0190 
 20 C       -2.3780    -4.3310     0.0590 C.2   1 <1>  -0.1500 
 21 N       -3.3460    -6.1430     0.8550 N.2   1 <1>  -0.4100 
 22 C       -2.2350    -5.6670     0.4230 C.2   1 <1>   0.1080 
 23 C       -0.9500    -6.4580     0.3260 C.3   1 <1>  -0.0590 
 24 H       -4.1370     1.6890    -0.1230 H     1 <1>   0.0800 
 25 H       -3.2450     1.0230    -1.4820 H     1 <1>   0.0800 
 26 H       -1.8400    -1.5990     0.7350 H     1 <1>   0.0800 
 27 H       -3.1980    -1.1050     1.7360 H     1 <1>   0.0800 
 28 H       -0.3600     2.8990     2.4790 H     1 <1>   0.1500 
 29 H       -5.0840    -0.4560    -1.5960 H     1 <1>   0.0800 
 30 H       -3.2070    -1.8460    -1.1770 H     1 <1>   0.0800 
 31 H       -1.8850     4.8920    -1.5340 H     1 <1>   0.1500 
 32 H       -5.3230    -3.0540    -0.5280 H     1 <1>   0.0800 
 33 H       -5.0100    -2.6340     1.1270 H     1 <1>   0.0800 
 34 H       -7.4100     0.5520     0.8210 H     1 <1>   0.0800 
 35 H       -7.1760     0.2080    -0.8870 H     1 <1>   0.0800 
 36 H       -6.3400     1.5720    -0.1280 H     1 <1>   0.0800 
 37 H       -1.6060    -3.6990    -0.3360 H     1 <1>   0.1500 
 38 H       -0.5960    -6.4580    -0.6880 H     1 <1>   0.0800 
 39 H       -1.1210    -7.4730     0.6360 H     1 <1>   0.0800 
 40 H       -0.2040    -6.0210     0.9640 H     1 <1>   0.0800 
@<TRIPOS>BOND
  1   1   2  2   
  2   2   3  am  
  3   2   4  1   
  4   3   5  1   
  5   3   6  1   
  6   4   7  ar  
  7   4   8  ar  
  8   5   9  1   
  9   5  24  1   
 10   5  25  1   
 11   6  10  1   
 12   6  26  1   
 13   6  27  1   
 14   7  11  ar  
 15   8  12  ar  
 16   8  28  1   
 17   9  10  1   
 18   9  13  1   
 19   9  29  1   
 20  10  14  1   
 21  10  30  1   
 22  11  15  ar  
 23  11  31  1   
 24  12  15  ar  
 25  13  16  1   
 26  14  17  1   
 27  14  32  1   
 28  14  33  1   
 29  15  18  1   
 30  16  34  1   
 31  16  35  1   
 32  16  36  1   
 33  17  19  1   
 34  17  20  2   
 35  19  21  1   
 36  20  22  1   
 37  20  37  1   
 38  21  22  2   
 39  22  23  1   
 40  23  38  1   
 41  23  39  1   
 42  23  40  1   
@<TRIPOS>SUBSTRUCTURE
  1 ****   3 GROUP 4 **** **** 0

# MOE 2024.06 (io_trps.svl 2023.06)
