@<TRIPOS>MOLECULE
NONAME
45 48 1 0 0 
SMALL
USER_CHARGES


@<TRIPOS>ATOM
  1 F       -2.6350     0.4850    -1.1560 F     1 <1>  -0.3400 
  2 C       -1.9090    -0.4110    -0.5040 C.3   1 <1>   1.2400 
  3 F       -0.6460    -0.0100    -0.5320 F     1 <1>  -0.3400 
  4 O       -2.0310    -1.6810    -1.1320 O.3   1 <1>  -0.3630 
  5 O       -2.3590    -0.5190     0.8380 O.3   1 <1>  -0.3630 
  6 C       -2.5280    -2.4870    -0.1870 C.ar  1 <1>   0.0830 
  7 C       -2.7220    -1.7990     0.9790 C.ar  1 <1>   0.0830 
  8 C       -2.8270    -3.8300    -0.2930 C.ar  1 <1>  -0.1500 
  9 C       -3.2260    -2.4230     2.1030 C.ar  1 <1>  -0.1500 
 10 C       -3.3410    -4.4800     0.8270 C.ar  1 <1>  -0.1440 
 11 C       -3.5320    -3.7750     2.0170 C.ar  1 <1>  -0.1500 
 12 C       -3.6850    -5.9550     0.7500 C.3   1 <1>   0.4870 
 13 N       -4.9430    -6.1530    -0.0300 N.4   1 <1>  -0.9590 
 14 C       -6.1540    -5.7620     0.7720 C.3   1 <1>   0.4230 
 15 C       -4.9430    -7.5410    -0.5950 C.3   1 <1>   0.2630 
 16 C       -7.4220    -6.5560     0.4350 C.3   1 <1>  -0.1600 
 17 C       -6.5770    -4.3480     0.3690 C.3   1 <1>  -0.1600 
 18 C       -7.9660    -5.9460    -0.8670 C.3   1 <1>  -0.0800 
 19 C       -7.4270    -4.5090    -0.9020 C.3   1 <1>  -0.0800 
 20 C       -9.4980    -5.8460    -0.9260 C.3   1 <1>  -0.1600 
 21 C       -8.6500    -3.5800    -0.9650 C.3   1 <1>  -0.1600 
 22 C       -9.8530    -4.4150    -0.5350 C.3   1 <1>   0.2000 
 23 O       -9.9620    -4.3520     0.8360 O.3   1 <1>  -0.6800 
 24 H       -2.6480    -4.3340    -1.2270 H     1 <1>   0.1500 
 25 H       -3.3670    -1.8650     3.0140 H     1 <1>   0.1500 
 26 H       -3.9190    -4.2680     2.8940 H     1 <1>   0.1500 
 27 H       -3.7910    -6.3650     1.7410 H     1 <1>   0.0800 
 28 H       -2.8690    -6.4660     0.2640 H     1 <1>   0.0800 
 29 H       -4.9080    -5.4870    -0.8120 H     1 <1>   0.4500 
 30 H       -5.9400    -5.8220     1.8280 H     1 <1>   0.0800 
 31 H       -5.0120    -8.2700     0.1970 H     1 <1>   0.0800 
 32 H       -4.0380    -7.7200    -1.1530 H     1 <1>   0.0800 
 33 H       -5.7800    -7.6760    -1.2610 H     1 <1>   0.0800 
 34 H       -7.2950    -7.6210     0.3820 H     1 <1>   0.0800 
 35 H       -8.1290    -6.3770     1.2260 H     1 <1>   0.0800 
 36 H       -7.1850    -3.9450     1.1600 H     1 <1>   0.0800 
 37 H       -5.7610    -3.6670     0.2140 H     1 <1>   0.0800 
 38 H       -7.6020    -6.5000    -1.7160 H     1 <1>   0.0800 
 39 H       -6.8130    -4.3650    -1.7750 H     1 <1>   0.0800 
 40 H      -10.0060    -6.5750    -0.3180 H     1 <1>   0.0800 
 41 H       -9.8080    -5.9910    -1.9460 H     1 <1>   0.0800 
 42 H       -8.8030    -3.2920    -1.9900 H     1 <1>   0.0800 
 43 H       -8.5450    -2.6810    -0.3820 H     1 <1>   0.0800 
 44 H      -10.7810    -4.0740    -0.9640 H     1 <1>   0.0800 
 45 H       -9.1340    -4.6480     1.2450 H     1 <1>   0.4000 
@<TRIPOS>BOND
  1   1   2  1   
  2   2   3  1   
  3   2   4  1   
  4   2   5  1   
  5   4   6  1   
  6   5   7  1   
  7   6   7  ar  
  8   6   8  ar  
  9   7   9  ar  
 10   8  10  ar  
 11   8  24  1   
 12   9  11  ar  
 13   9  25  1   
 14  10  11  ar  
 15  10  12  1   
 16  11  26  1   
 17  12  13  1   
 18  12  27  1   
 19  12  28  1   
 20  13  14  1   
 21  13  15  1   
 22  13  29  1   
 23  14  16  1   
 24  14  17  1   
 25  14  30  1   
 26  15  31  1   
 27  15  32  1   
 28  15  33  1   
 29  16  18  1   
 30  16  34  1   
 31  16  35  1   
 32  17  19  1   
 33  17  36  1   
 34  17  37  1   
 35  18  19  1   
 36  18  20  1   
 37  18  38  1   
 38  19  21  1   
 39  19  39  1   
 40  20  22  1   
 41  20  40  1   
 42  20  41  1   
 43  21  22  1   
 44  21  42  1   
 45  21  43  1   
 46  22  23  1   
 47  22  44  1   
 48  23  45  1   
@<TRIPOS>SUBSTRUCTURE
  1 ****  17 GROUP 4 **** **** 0

# MOE 2024.06 (io_trps.svl 2023.06)
