@<TRIPOS>MOLECULE
NONAME
25 25 1 0 0 
SMALL
USER_CHARGES


@<TRIPOS>ATOM
  1 BR       0.3430    -0.0910    -0.7040 Br    1 <1>  -0.1110 
  2 C       -1.3700    -0.9290    -0.4310 C.ar  1 <1>   0.1110 
  3 C       -2.5360    -0.1790    -0.5040 C.ar  1 <1>   0.0820 
  4 C       -1.4020    -2.2830    -0.1680 C.ar  1 <1>  -0.1500 
  5 O       -2.5130     1.1440    -0.7690 O.3   1 <1>  -0.3630 
  6 C       -3.7540    -0.8110    -0.3210 C.ar  1 <1>  -0.1500 
  7 C       -2.6290    -2.8960     0.0220 C.ar  1 <1>  -0.1500 
  8 C       -2.3460     1.9960     0.3400 C.3   1 <1>   0.1200 
  9 C       -3.8320    -2.1820    -0.0500 C.ar  1 <1>   0.0860 
 10 C       -2.3170     3.4330    -0.1690 C.3   1 <1>  -0.2400 
 11 C       -5.1050    -2.8510     0.1500 C.2   1 <1>   0.6340 
 12 O       -5.2020    -4.0390     0.3760 O.2   1 <1>  -0.5700 
 13 O       -6.2210    -2.1160     0.0840 O.3   1 <1>  -0.4300 
 14 C       -7.5020    -2.6860     0.2650 C.3   1 <1>   0.0400 
 15 H       -0.4860    -2.8450    -0.1140 H     1 <1>   0.1500 
 16 H       -4.6510    -0.2230    -0.3940 H     1 <1>   0.1500 
 17 H       -2.6620    -3.9540     0.2280 H     1 <1>   0.1500 
 18 H       -1.4210     1.7450     0.8310 H     1 <1>   0.0800 
 19 H       -3.1710     1.8430     1.0140 H     1 <1>   0.0800 
 20 H       -1.4950     3.5650    -0.8510 H     1 <1>   0.0800 
 21 H       -2.1900     4.1090     0.6560 H     1 <1>   0.0800 
 22 H       -3.2400     3.6680    -0.6690 H     1 <1>   0.0800 
 23 H       -8.2390    -1.9100     0.1670 H     1 <1>   0.0800 
 24 H       -7.5520    -3.1250     1.2470 H     1 <1>   0.0800 
 25 H       -7.6550    -3.4410    -0.4870 H     1 <1>   0.0800 
@<TRIPOS>BOND
  1   1   2  1   
  2   2   3  ar  
  3   2   4  ar  
  4   3   5  1   
  5   3   6  ar  
  6   4   7  ar  
  7   4  15  1   
  8   5   8  1   
  9   6   9  ar  
 10   6  16  1   
 11   7   9  ar  
 12   7  17  1   
 13   8  10  1   
 14   8  18  1   
 15   8  19  1   
 16   9  11  1   
 17  10  20  1   
 18  10  21  1   
 19  10  22  1   
 20  11  12  2   
 21  11  13  1   
 22  13  14  1   
 23  14  23  1   
 24  14  24  1   
 25  14  25  1   
@<TRIPOS>SUBSTRUCTURE
  1 ****   6 GROUP 4 **** **** 0

# MOE 2024.06 (io_trps.svl 2023.06)
