@<TRIPOS>MOLECULE
NONAME
47 50 1 0 0 
SMALL
USER_CHARGES


@<TRIPOS>ATOM
  1 O       -1.2160    -0.5120     0.9510 O.3   1 <1>  -0.5600 
  2 C       -1.6320     0.7410     1.3930 C.3   1 <1>   0.1200 
  3 C       -1.1050    -0.7010    -0.4210 C.3   1 <1>   0.1200 
  4 C       -3.1050     1.0370     1.0300 C.3   1 <1>   0.4230 
  5 C       -2.4940    -0.9290    -1.0410 C.3   1 <1>  -0.0800 
  6 N       -3.2240     1.4610    -0.4230 N.4   1 <1>  -0.9590 
  7 C       -4.0470    -0.1180     1.5020 C.3   1 <1>   0.2090 
  8 C       -3.3910    -1.8580    -0.1920 C.3   1 <1>   0.2090 
  9 C       -3.2060     0.3680    -1.4530 C.3   1 <1>   0.3430 
 10 C       -4.4190     2.3350    -0.6390 C.3   1 <1>   0.2630 
 11 N       -4.5340    -1.1190     0.4610 N.pl3 1 <1>  -0.8380 
 12 C       -5.8490    -1.4270     0.3050 C.ar  1 <1>   0.4610 
 13 N       -6.2140    -2.6250    -0.1690 N.ar  1 <1>  -0.1790 
 14 C       -6.9070    -0.5370     0.6320 C.ar  1 <1>  -0.1500 
 15 C       -7.5210    -3.0400    -0.3580 C.ar  1 <1>   0.3610 
 16 C       -8.2190    -0.8700     0.4770 C.ar  1 <1>  -0.1440 
 17 C       -8.5670    -2.1570    -0.0350 C.ar  1 <1>   0.0000 
 18 C       -7.8040    -4.3150    -0.8590 C.ar  1 <1>  -0.1500 
 19 C       -9.3160     0.1220     0.8470 C.3   1 <1>  -0.0970 
 20 C       -9.8850    -2.6010    -0.2370 C.ar  1 <1>  -0.1500 
 21 C       -9.1040    -4.7200    -1.0450 C.ar  1 <1>  -0.1500 
 22 C      -10.1470    -3.8560    -0.7320 C.ar  1 <1>  -0.1500 
 23 H       -1.5280     0.7340     2.4640 H     1 <1>   0.0800 
 24 H       -0.9660     1.4920     1.0050 H     1 <1>   0.0800 
 25 H       -0.5810     0.1300    -0.8630 H     1 <1>   0.0800 
 26 H       -0.5020    -1.5840    -0.5570 H     1 <1>   0.0800 
 27 H       -3.3610     1.8940     1.6310 H     1 <1>   0.0800 
 28 H       -2.3070    -1.4560    -1.9590 H     1 <1>   0.0800 
 29 H       -2.3920     2.0400    -0.6090 H     1 <1>   0.4500 
 30 H       -4.8780     0.3320     2.0100 H     1 <1>   0.0800 
 31 H       -3.5310    -0.6720     2.2700 H     1 <1>   0.0800 
 32 H       -2.8060    -2.3590     0.5640 H     1 <1>   0.0800 
 33 H       -3.7670    -2.6230    -0.8470 H     1 <1>   0.0800 
 34 H       -4.2210     0.1150    -1.7140 H     1 <1>   0.0800 
 35 H       -2.7370     0.7480    -2.3470 H     1 <1>   0.0800 
 36 H       -5.3250     1.7760    -0.4710 H     1 <1>   0.0800 
 37 H       -4.4300     2.7110    -1.6490 H     1 <1>   0.0800 
 38 H       -4.3990     3.1760     0.0360 H     1 <1>   0.0800 
 39 H       -5.4870    -3.3100    -0.3350 H     1 <1>   0.4570 
 40 H       -6.6620     0.4370     1.0030 H     1 <1>   0.1500 
 41 H       -7.0080    -4.9950    -1.1060 H     1 <1>   0.1500 
 42 H       -8.9060     1.0420     1.2240 H     1 <1>   0.0800 
 43 H       -9.9510    -0.2930     1.6100 H     1 <1>   0.0800 
 44 H       -9.9170     0.3530    -0.0150 H     1 <1>   0.0800 
 45 H      -10.7140    -1.9560    -0.0040 H     1 <1>   0.1500 
 46 H       -9.3320    -5.7020    -1.4320 H     1 <1>   0.1500 
 47 H      -11.1650    -4.1810    -0.8810 H     1 <1>   0.1500 
@<TRIPOS>BOND
  1   1   2  1   
  2   1   3  1   
  3   2   4  1   
  4   2  23  1   
  5   2  24  1   
  6   3   5  1   
  7   3  25  1   
  8   3  26  1   
  9   4   6  1   
 10   4   7  1   
 11   4  27  1   
 12   5   8  1   
 13   5   9  1   
 14   5  28  1   
 15   6   9  1   
 16   6  10  1   
 17   6  29  1   
 18   7  11  1   
 19   7  30  1   
 20   7  31  1   
 21   8  11  1   
 22   8  32  1   
 23   8  33  1   
 24   9  34  1   
 25   9  35  1   
 26  10  36  1   
 27  10  37  1   
 28  10  38  1   
 29  11  12  1   
 30  12  13  ar  
 31  12  14  ar  
 32  13  15  ar  
 33  13  39  1   
 34  14  16  ar  
 35  14  40  1   
 36  15  17  ar  
 37  15  18  ar  
 38  16  17  ar  
 39  16  19  1   
 40  17  20  ar  
 41  18  21  ar  
 42  18  41  1   
 43  19  42  1   
 44  19  43  1   
 45  19  44  1   
 46  20  22  ar  
 47  20  45  1   
 48  21  22  ar  
 49  21  46  1   
 50  22  47  1   
@<TRIPOS>SUBSTRUCTURE
  1 ****  12 GROUP 4 **** **** 0

# MOE 2024.06 (io_trps.svl 2023.06)
