@<TRIPOS>MOLECULE
NONAME
56 59 1 0 0 
SMALL
USER_CHARGES


@<TRIPOS>ATOM
  1 O        2.5630    -0.2780    -1.3520 O.2   1 <1>  -0.5700 
  2 C        2.3630    -0.7710    -0.2700 C.2   1 <1>   0.5690 
  3 N        2.3070    -0.0380     0.8750 N.am  1 <1>  -0.7300 
  4 C        2.1700    -2.2670    -0.1740 C.3   1 <1>  -0.0990 
  5 C        2.3060     1.4450     1.0030 C.3   1 <1>   0.1400 
  6 C        0.7090    -2.6460    -0.4390 C.3   1 <1>   0.0210 
  7 C        3.4370     2.1340     0.2110 C.3   1 <1>  -0.0800 
  8 C        0.4550    -4.1350    -0.2660 C.2   1 <1>  -0.1810 
  9 C        4.8280     1.5430     0.5030 C.3   1 <1>  -0.1600 
 10 C        3.4610     3.6460     0.4850 C.3   1 <1>  -0.1600 
 11 C       -0.8320    -4.7120    -0.3650 C.ar  1 <1>   0.0000 
 12 C        1.3290    -5.1380    -0.0030 C.2   1 <1>  -0.3020 
 13 C        5.9070     2.2510    -0.3120 C.3   1 <1>   0.3430 
 14 C        4.5610     4.3370    -0.3210 C.3   1 <1>   0.3430 
 15 C       -0.6730    -6.0770    -0.1480 C.ar  1 <1>  -0.1520 
 16 C       -2.1100    -4.2020    -0.6190 C.ar  1 <1>  -0.1500 
 17 N        0.6570    -6.3240     0.0710 N.pl3 1 <1>   0.0330 
 18 N        5.8830     3.7110    -0.0150 N.4   1 <1>  -0.9590 
 19 C       -1.7680    -6.9440    -0.1770 C.ar  1 <1>  -0.1500 
 20 C       -3.1890    -5.0560    -0.6480 C.ar  1 <1>  -0.1500 
 21 C        7.0070     4.4430    -0.6990 C.3   1 <1>   0.5230 
 22 C       -3.0180    -6.4280    -0.4260 C.ar  1 <1>  -0.1500 
 23 C        7.2440     5.8270    -0.0990 C.2   1 <1>   0.2980 
 24 O        8.0470     6.6660    -0.6680 O.3   1 <1>  -0.2800 
 25 N        6.7180     6.3000     0.9660 N.2   1 <1>  -0.3380 
 26 C        7.9970     7.7040     0.1040 C.2   1 <1>   0.2980 
 27 N        7.2100     7.5300     1.0960 N.2   1 <1>  -0.3380 
 28 C        8.8150     8.9340    -0.2190 C.3   1 <1>  -0.0600 
 29 H        2.0750    -0.5350     1.7380 H     1 <1>   0.3700 
 30 H        2.4630    -2.6070     0.8010 H     1 <1>   0.0800 
 31 H        2.8000    -2.7450    -0.9020 H     1 <1>   0.0800 
 32 H        2.4020     1.6930     2.0470 H     1 <1>   0.0800 
 33 H        1.3530     1.8170     0.6630 H     1 <1>   0.0800 
 34 H        0.4430    -2.3610    -1.4430 H     1 <1>   0.0800 
 35 H        0.0710    -2.1090     0.2390 H     1 <1>   0.0800 
 36 H        3.2230     2.0110    -0.8370 H     1 <1>   0.0800 
 37 H        4.8440     0.5010     0.2360 H     1 <1>   0.0800 
 38 H        5.0550     1.6110     1.5530 H     1 <1>   0.0800 
 39 H        3.6110     3.8390     1.5340 H     1 <1>   0.0800 
 40 H        2.5130     4.0750     0.2100 H     1 <1>   0.0800 
 41 H        2.3950    -5.0890     0.1360 H     1 <1>   0.1500 
 42 H        5.7210     2.0850    -1.3620 H     1 <1>   0.0800 
 43 H        6.8710     1.8340    -0.0660 H     1 <1>   0.0800 
 44 H        4.5770     5.3870    -0.0710 H     1 <1>   0.0800 
 45 H        4.3440     4.2420    -1.3740 H     1 <1>   0.0800 
 46 H       -2.2300    -3.1490    -0.7890 H     1 <1>   0.1500 
 47 H        1.0630    -7.2470     0.2530 H     1 <1>   0.2700 
 48 H        6.0330     3.8420     0.9970 H     1 <1>   0.4500 
 49 H       -1.6270    -7.9970    -0.0070 H     1 <1>   0.1500 
 50 H       -4.1770    -4.6760    -0.8410 H     1 <1>   0.1500 
 51 H        6.7900     4.5490    -1.7490 H     1 <1>   0.0800 
 52 H        7.9200     3.8810    -0.6010 H     1 <1>   0.0800 
 53 H       -3.8780    -7.0740    -0.4540 H     1 <1>   0.1500 
 54 H        8.5280     9.3210    -1.1790 H     1 <1>   0.0800 
 55 H        9.8590     8.6830    -0.2350 H     1 <1>   0.0800 
 56 H        8.6480     9.6900     0.5270 H     1 <1>   0.0800 
@<TRIPOS>BOND
  1   1   2  2   
  2   2   3  am  
  3   2   4  1   
  4   3   5  1   
  5   3  29  1   
  6   4   6  1   
  7   4  30  1   
  8   4  31  1   
  9   5   7  1   
 10   5  32  1   
 11   5  33  1   
 12   6   8  1   
 13   6  34  1   
 14   6  35  1   
 15   7   9  1   
 16   7  10  1   
 17   7  36  1   
 18   8  11  1   
 19   8  12  2   
 20   9  13  1   
 21   9  37  1   
 22   9  38  1   
 23  10  14  1   
 24  10  39  1   
 25  10  40  1   
 26  11  15  ar  
 27  11  16  ar  
 28  12  17  1   
 29  12  41  1   
 30  13  18  1   
 31  13  42  1   
 32  13  43  1   
 33  14  18  1   
 34  14  44  1   
 35  14  45  1   
 36  15  17  1   
 37  15  19  ar  
 38  16  20  ar  
 39  16  46  1   
 40  17  47  1   
 41  18  21  1   
 42  18  48  1   
 43  19  22  ar  
 44  19  49  1   
 45  20  22  ar  
 46  20  50  1   
 47  21  23  1   
 48  21  51  1   
 49  21  52  1   
 50  22  53  1   
 51  23  24  1   
 52  23  25  2   
 53  24  26  1   
 54  25  27  1   
 55  26  27  2   
 56  26  28  1   
 57  28  54  1   
 58  28  55  1   
 59  28  56  1   
@<TRIPOS>SUBSTRUCTURE
  1 ****   3 GROUP 4 **** **** 0

# MOE 2024.06 (io_trps.svl 2023.06)
