@<TRIPOS>MOLECULE
NONAME
41 43 1 0 0 
SMALL
USER_CHARGES


@<TRIPOS>ATOM
  1 O        0.8340     1.4780    -1.2960 O.3   1 <1>  -0.0190 
  2 N        1.6330     0.4790    -1.5240 N.2   1 <1>  -0.4100 
  3 C        0.8190     1.8100    -0.0330 C.2   1 <1>  -0.0400 
  4 C        2.1270     0.1480    -0.3850 C.2   1 <1>   0.1080 
  5 C        1.6410     0.9770     0.6220 C.2   1 <1>  -0.1500 
  6 C       -0.0270     2.9810     0.4290 C.3   1 <1>   0.0200 
  7 C        3.1020    -0.9910    -0.1800 C.3   1 <1>  -0.0590 
  8 C        0.2100     4.2050    -0.4790 C.3   1 <1>  -0.0800 
  9 C       -0.4360     5.5190    -0.0380 C.3   1 <1>   0.2000 
 10 C        1.6950     4.5440    -0.6610 C.3   1 <1>   0.3430 
 11 O       -0.2090     5.7240     1.3230 O.3   1 <1>  -0.6800 
 12 C        0.3760     6.5510    -0.8250 C.3   1 <1>   0.3430 
 13 N        1.7730     6.0230    -0.8310 N.4   1 <1>  -0.9590 
 14 C        2.5770     6.6890     0.2280 C.3   1 <1>   0.5230 
 15 C        2.9910     8.0570    -0.2980 C.2   1 <1>   0.0060 
 16 N        3.4260     9.0600     0.5000 N.pl3 1 <1>   0.0330 
 17 N        2.9630     8.3740    -1.5570 N.2   1 <1>  -0.5650 
 18 C        3.6870    10.0820    -0.3320 C.2   1 <1>  -0.3320 
 19 C        3.4010     9.6470    -1.5790 C.2   1 <1>   0.0770 
 20 C        4.2060    11.4330     0.1300 C.3   1 <1>  -0.0600 
 21 H        1.8930     0.9230     1.6660 H     1 <1>   0.1500 
 22 H       -1.0650     2.6980     0.3920 H     1 <1>   0.0800 
 23 H        0.2270     3.1980     1.4510 H     1 <1>   0.0800 
 24 H        4.0100    -0.6240     0.2600 H     1 <1>   0.0800 
 25 H        3.3330    -1.4510    -1.1240 H     1 <1>   0.0800 
 26 H        2.6680    -1.7310     0.4670 H     1 <1>   0.0800 
 27 H       -0.1740     3.9650    -1.4560 H     1 <1>   0.0800 
 28 H       -1.4930     5.5830    -0.2380 H     1 <1>   0.0800 
 29 H        2.0970     4.0290    -1.5190 H     1 <1>   0.0800 
 30 H        2.2450     4.2430     0.2150 H     1 <1>   0.0800 
 31 H       -0.9320     5.3350     1.8610 H     1 <1>   0.4000 
 32 H        0.3100     7.5340    -0.3860 H     1 <1>   0.0800 
 33 H        0.0090     6.5950    -1.8370 H     1 <1>   0.0800 
 34 H        2.2330     6.3270    -1.7080 H     1 <1>   0.4500 
 35 H        2.0000     6.7850     1.1330 H     1 <1>   0.0800 
 36 H        3.4640     6.1140     0.4340 H     1 <1>   0.0800 
 37 H        3.5420     9.0670     1.5190 H     1 <1>   0.2700 
 38 H        3.4920    10.1960    -2.5040 H     1 <1>   0.1500 
 39 H        4.3380    12.0870    -0.7140 H     1 <1>   0.0800 
 40 H        5.1540    11.3200     0.6250 H     1 <1>   0.0800 
 41 H        3.5070    11.8900     0.8080 H     1 <1>   0.0800 
@<TRIPOS>BOND
  1   1   2  1   
  2   1   3  1   
  3   2   4  2   
  4   3   5  2   
  5   3   6  1   
  6   4   5  1   
  7   4   7  1   
  8   5  21  1   
  9   6   8  1   
 10   6  22  1   
 11   6  23  1   
 12   7  24  1   
 13   7  25  1   
 14   7  26  1   
 15   8   9  1   
 16   8  10  1   
 17   8  27  1   
 18   9  11  1   
 19   9  12  1   
 20   9  28  1   
 21  10  13  1   
 22  10  29  1   
 23  10  30  1   
 24  11  31  1   
 25  12  13  1   
 26  12  32  1   
 27  12  33  1   
 28  13  14  1   
 29  13  34  1   
 30  14  15  1   
 31  14  35  1   
 32  14  36  1   
 33  15  16  1   
 34  15  17  2   
 35  16  18  1   
 36  16  37  1   
 37  17  19  1   
 38  18  19  2   
 39  18  20  1   
 40  19  38  1   
 41  20  39  1   
 42  20  40  1   
 43  20  41  1   
@<TRIPOS>SUBSTRUCTURE
  1 ****  10 GROUP 4 **** **** 0

# MOE 2024.06 (io_trps.svl 2023.06)
