@<TRIPOS>MOLECULE
NONAME
47 50 1 0 0 
SMALL
USER_CHARGES


@<TRIPOS>ATOM
  1 O        0.0490    -0.3710    -1.7960 O.2   1 <1>  -0.5700 
  2 C       -0.7490     0.4070    -1.3310 C.2   1 <1>   0.5690 
  3 N       -1.9170    -0.0370    -0.7550 N.am  1 <1>  -0.6600 
  4 C       -0.4000     1.8830    -1.4450 C.3   1 <1>   0.1570 
  5 C       -2.1680    -1.4990    -0.5380 C.3   1 <1>   0.1400 
  6 C       -2.9750     0.8270    -0.1370 C.3   1 <1>   0.1400 
  7 N       -0.4110     2.5650    -0.1310 N.pl3 1 <1>   0.0480 
  8 C       -3.6300    -1.8810    -0.8370 C.3   1 <1>   0.3440 
  9 C       -4.3980     0.3130    -0.4500 C.3   1 <1>   0.2950 
 10 C       -0.9910     3.7470     0.2000 C.2   1 <1>   0.0060 
 11 C        0.1060     2.1050     1.0230 C.2   1 <1>  -0.3020 
 12 O       -4.5030    -1.0420    -0.1290 O.3   1 <1>  -0.5600 
 13 C       -3.8930    -3.3330    -0.4510 C.ar  1 <1>  -0.1430 
 14 C       -5.5170     1.0440     0.3120 C.3   1 <1>  -0.1950 
 15 N       -0.8870     4.0420     1.4530 N.2   1 <1>  -0.5650 
 16 C       -1.6980     4.6560    -0.7860 C.3   1 <1>  -0.0600 
 17 C       -0.1930     3.0140     1.9740 C.2   1 <1>   0.0770 
 18 C       -4.2800    -3.6810     0.8360 C.ar  1 <1>  -0.1500 
 19 C       -3.7290    -4.3360    -1.3970 C.ar  1 <1>  -0.1500 
 20 C       -5.4200     2.4720     0.7640 C.3   1 <1>  -0.2000 
 21 C       -5.4580     1.3590     1.7750 C.3   1 <1>  -0.2000 
 22 C       -4.4990    -5.0050     1.1730 C.ar  1 <1>  -0.1500 
 23 C       -3.9470    -5.6610    -1.0630 C.ar  1 <1>  -0.1500 
 24 C       -4.3310    -5.9970     0.2230 C.ar  1 <1>  -0.1500 
 25 H       -1.0990     2.3540    -2.1060 H     1 <1>   0.0800 
 26 H        0.5840     1.9790    -1.8640 H     1 <1>   0.0800 
 27 H       -1.5230    -2.0910    -1.1640 H     1 <1>   0.0800 
 28 H       -1.9460    -1.7470     0.4850 H     1 <1>   0.0800 
 29 H       -2.8240     0.8500     0.9280 H     1 <1>   0.0800 
 30 H       -2.9000     1.8320    -0.5030 H     1 <1>   0.0800 
 31 H       -3.8280    -1.7540    -1.8870 H     1 <1>   0.0800 
 32 H       -4.5820     0.4200    -1.5050 H     1 <1>   0.0800 
 33 H        0.6430     1.1770     1.1070 H     1 <1>   0.1500 
 34 H       -6.4780     0.7340    -0.0620 H     1 <1>   0.1000 
 35 H       -2.0200     5.5510    -0.2850 H     1 <1>   0.0800 
 36 H       -2.5610     4.1670    -1.1970 H     1 <1>   0.0800 
 37 H       -1.0280     4.9340    -1.5790 H     1 <1>   0.0800 
 38 H        0.0570     2.9830     3.0220 H     1 <1>   0.1500 
 39 H       -4.4160    -2.9160     1.5820 H     1 <1>   0.1500 
 40 H       -3.4290    -4.0920    -2.4020 H     1 <1>   0.1500 
 41 H       -4.5030     3.0320     0.6920 H     1 <1>   0.1000 
 42 H       -6.2870     3.1030     0.6700 H     1 <1>   0.1000 
 43 H       -6.3500     1.2180     2.3610 H     1 <1>   0.1000 
 44 H       -4.5680     1.1300     2.3330 H     1 <1>   0.1000 
 45 H       -4.8000    -5.2620     2.1730 H     1 <1>   0.1500 
 46 H       -3.8180    -6.4310    -1.8030 H     1 <1>   0.1500 
 47 H       -4.5020    -7.0270     0.4840 H     1 <1>   0.1500 
@<TRIPOS>BOND
  1   1   2  2   
  2   2   3  am  
  3   2   4  1   
  4   3   5  1   
  5   3   6  1   
  6   4   7  1   
  7   4  25  1   
  8   4  26  1   
  9   5   8  1   
 10   5  27  1   
 11   5  28  1   
 12   6   9  1   
 13   6  29  1   
 14   6  30  1   
 15   7  10  1   
 16   7  11  1   
 17   8  12  1   
 18   8  13  1   
 19   8  31  1   
 20   9  12  1   
 21   9  14  1   
 22   9  32  1   
 23  10  15  2   
 24  10  16  1   
 25  11  17  2   
 26  11  33  1   
 27  13  18  ar  
 28  13  19  ar  
 29  14  20  1   
 30  14  21  1   
 31  14  34  1   
 32  15  17  1   
 33  16  35  1   
 34  16  36  1   
 35  16  37  1   
 36  17  38  1   
 37  18  22  ar  
 38  18  39  1   
 39  19  23  ar  
 40  19  40  1   
 41  20  21  1   
 42  20  41  1   
 43  20  42  1   
 44  21  43  1   
 45  21  44  1   
 46  22  24  ar  
 47  22  45  1   
 48  23  24  ar  
 49  23  46  1   
 50  24  47  1   
@<TRIPOS>SUBSTRUCTURE
  1 ****   6 GROUP 4 **** **** 0

# MOE 2024.06 (io_trps.svl 2023.06)
