@<TRIPOS>MOLECULE
NONAME
47 50 1 0 0 
SMALL
USER_CHARGES


@<TRIPOS>ATOM
  1 O       -0.3890     0.7010    -0.8520 O.3   1 <1>  -0.0190 
  2 N       -1.2410    -0.1220    -1.3840 N.2   1 <1>  -0.4100 
  3 C        0.5520    -0.0780    -0.3770 C.2   1 <1>   0.2980 
  4 C       -0.7890    -1.3000    -1.2020 C.2   1 <1>   0.3350 
  5 N        0.3720    -1.3260    -0.5570 N.2   1 <1>  -0.5650 
  6 C        1.7280     0.5690     0.3450 C.3   1 <1>   0.2900 
  7 C       -1.4690    -2.5740    -1.6730 C.3   1 <1>   0.1640 
  8 N        2.4200     1.5730    -0.4900 N.3   1 <1>  -0.9000 
  9 C       -2.2120    -3.2780    -0.5430 C.ar  1 <1>  -0.1430 
 10 C        3.4030     2.3670     0.2570 C.3   1 <1>   0.1900 
 11 C       -3.5800    -3.1110    -0.3870 C.ar  1 <1>  -0.1500 
 12 C       -1.5230    -4.0940     0.3410 C.ar  1 <1>  -0.1500 
 13 C        4.0120     3.4910    -0.5860 C.3   1 <1>   0.2090 
 14 C        4.6090     1.5300     0.6560 C.3   1 <1>  -0.1600 
 15 C       -4.2520    -3.7590     0.6350 C.ar  1 <1>  -0.1500 
 16 C       -2.1930    -4.7430     1.3640 C.ar  1 <1>  -0.1500 
 17 N        5.4150     3.6480    -0.1090 N.pl3 1 <1>  -0.8380 
 18 C        5.7290     2.5470     0.8340 C.3   1 <1>   0.2090 
 19 C       -3.5590    -4.5770     1.5100 C.ar  1 <1>  -0.1500 
 20 C        5.9790     4.9290    -0.0070 C.ar  1 <1>   0.1000 
 21 C        5.7130     5.8820    -0.9870 C.ar  1 <1>  -0.1500 
 22 C        6.8230     5.2990     1.0400 C.ar  1 <1>  -0.1500 
 23 C        6.2410     7.1580    -0.9170 C.ar  1 <1>  -0.1500 
 24 C        7.3550     6.5740     1.1160 C.ar  1 <1>  -0.1500 
 25 C        7.0630     7.5090     0.1390 C.ar  1 <1>  -0.1500 
 26 H        2.4220    -0.2030     0.6270 H     1 <1>   0.0800 
 27 H        1.3560     1.0350     1.2400 H     1 <1>   0.0800 
 28 H       -0.7260    -3.2320    -2.0840 H     1 <1>   0.0800 
 29 H       -2.1560    -2.3280    -2.4620 H     1 <1>   0.0800 
 30 H        1.7040     2.2040    -0.8710 H     1 <1>   0.3600 
 31 H        2.9500     2.8070     1.1300 H     1 <1>   0.0800 
 32 H       -4.1300    -2.4730    -1.0570 H     1 <1>   0.1500 
 33 H       -0.4590    -4.2240     0.2390 H     1 <1>   0.1500 
 34 H        3.4580     4.4050    -0.4610 H     1 <1>   0.0800 
 35 H        4.0320     3.2070    -1.6240 H     1 <1>   0.0800 
 36 H        4.8770     0.8630    -0.1450 H     1 <1>   0.0800 
 37 H        4.4460     0.9710     1.5580 H     1 <1>   0.0800 
 38 H       -5.3130    -3.6260     0.7500 H     1 <1>   0.1500 
 39 H       -1.6510    -5.3740     2.0460 H     1 <1>   0.1500 
 40 H        6.6920     2.1210     0.6100 H     1 <1>   0.0800 
 41 H        5.7180     2.9180     1.8440 H     1 <1>   0.0800 
 42 H       -4.0810    -5.0810     2.3050 H     1 <1>   0.1500 
 43 H        5.0930     5.6180    -1.8220 H     1 <1>   0.1500 
 44 H        7.0760     4.5960     1.8070 H     1 <1>   0.1500 
 45 H        6.0170     7.8770    -1.6850 H     1 <1>   0.1500 
 46 H        8.0000     6.8390     1.9350 H     1 <1>   0.1500 
 47 H        7.4750     8.5010     0.1980 H     1 <1>   0.1500 
@<TRIPOS>BOND
  1   1   2  1   
  2   1   3  1   
  3   2   4  2   
  4   3   5  2   
  5   3   6  1   
  6   4   5  1   
  7   4   7  1   
  8   6   8  1   
  9   6  26  1   
 10   6  27  1   
 11   7   9  1   
 12   7  28  1   
 13   7  29  1   
 14   8  10  1   
 15   8  30  1   
 16   9  11  ar  
 17   9  12  ar  
 18  10  13  1   
 19  10  14  1   
 20  10  31  1   
 21  11  15  ar  
 22  11  32  1   
 23  12  16  ar  
 24  12  33  1   
 25  13  17  1   
 26  13  34  1   
 27  13  35  1   
 28  14  18  1   
 29  14  36  1   
 30  14  37  1   
 31  15  19  ar  
 32  15  38  1   
 33  16  19  ar  
 34  16  39  1   
 35  17  18  1   
 36  17  20  1   
 37  18  40  1   
 38  18  41  1   
 39  19  42  1   
 40  20  21  ar  
 41  20  22  ar  
 42  21  23  ar  
 43  21  43  1   
 44  22  24  ar  
 45  22  44  1   
 46  23  25  ar  
 47  23  45  1   
 48  24  25  ar  
 49  24  46  1   
 50  25  47  1   
@<TRIPOS>SUBSTRUCTURE
  1 ****   6 GROUP 4 **** **** 0

# MOE 2024.06 (io_trps.svl 2023.06)
