@<TRIPOS>MOLECULE
NONAME
51 52 1 0 0 
SMALL
USER_CHARGES


@<TRIPOS>ATOM
  1 CL       2.8600     0.0970    -3.3530 Cl    1 <1>  -0.1770 
  2 C        3.0380    -0.9600    -1.9760 C.ar  1 <1>   0.1770 
  3 C        3.4140    -0.4260    -0.7590 C.ar  1 <1>  -0.1500 
  4 C        2.7990    -2.3110    -2.1360 C.ar  1 <1>  -0.1500 
  5 C        3.5580    -1.2660     0.3410 C.ar  1 <1>   0.0830 
  6 C        2.9250    -3.1570    -1.0440 C.ar  1 <1>  -0.1440 
  7 O        3.9610    -0.8000     1.5580 O.3   1 <1>  -0.3620 
  8 C        3.3000    -2.6370     0.1890 C.ar  1 <1>   0.0830 
  9 C        2.6710    -4.6470    -1.1660 C.3   1 <1>   0.4870 
 10 C        4.1810     0.5730     1.7970 C.3   1 <1>   0.0400 
 11 O        3.4150    -3.5220     1.2140 O.3   1 <1>  -0.3630 
 12 N        1.2690    -4.9620    -0.8200 N.4   1 <1>  -0.9590 
 13 C        2.6480    -3.2850     2.3800 C.3   1 <1>   0.0400 
 14 C        1.0550    -6.4370    -0.5920 C.3   1 <1>   0.3430 
 15 C        0.2360    -4.3590    -1.6990 C.3   1 <1>   0.3430 
 16 C       -0.4420    -6.8440    -0.5910 C.3   1 <1>   0.2000 
 17 C       -1.1600    -4.4800    -1.0590 C.3   1 <1>  -0.1600 
 18 O       -0.8220    -7.1780    -1.8940 O.3   1 <1>  -0.6800 
 19 C       -1.3120    -5.6810    -0.0690 C.3   1 <1>  -0.1060 
 20 C       -0.6960    -5.3680     1.3060 C.2   1 <1>   0.9060 
 21 C       -2.8020    -6.1020     0.0680 C.3   1 <1>  -0.1600 
 22 O       -0.0750    -4.3080     1.4590 O.co2 1 <1>  -0.9000 
 23 O       -0.6250    -6.2740     2.1360 O.co2 1 <1>  -0.9000 
 24 C       -3.6970    -5.0090     0.6730 C.3   1 <1>  -0.1600 
 25 C       -5.1430    -5.4950     0.8030 C.3   1 <1>  -0.2400 
 26 H        3.5900     0.6300    -0.7020 H     1 <1>   0.1500 
 27 H        2.5200    -2.6800    -3.1070 H     1 <1>   0.1500 
 28 H        3.3310    -5.1650    -0.4890 H     1 <1>   0.0800 
 29 H        2.8850    -4.9770    -2.1680 H     1 <1>   0.0800 
 30 H        4.4610     0.6900     2.8290 H     1 <1>   0.0800 
 31 H        3.2710     1.1130     1.6030 H     1 <1>   0.0800 
 32 H        4.9790     0.9160     1.1630 H     1 <1>   0.0800 
 33 H        1.0780    -4.5210     0.1210 H     1 <1>   0.4500 
 34 H        2.3620    -4.2330     2.8000 H     1 <1>   0.0800 
 35 H        1.7630    -2.7280     2.1250 H     1 <1>   0.0800 
 36 H        3.2450    -2.7340     3.0830 H     1 <1>   0.0800 
 37 H        1.5660    -7.0180    -1.3390 H     1 <1>   0.0800 
 38 H        1.4650    -6.6890     0.3740 H     1 <1>   0.0800 
 39 H        0.4510    -3.3190    -1.8750 H     1 <1>   0.0800 
 40 H        0.2350    -4.8780    -2.6440 H     1 <1>   0.0800 
 41 H       -0.5690    -7.7230     0.0200 H     1 <1>   0.0800 
 42 H       -1.3890    -3.5600    -0.5500 H     1 <1>   0.0800 
 43 H       -1.8720    -4.5720    -1.8590 H     1 <1>   0.0800 
 44 H       -1.7550    -7.4720    -1.8880 H     1 <1>   0.4000 
 45 H       -3.1970    -6.3790    -0.8930 H     1 <1>   0.0800 
 46 H       -2.8530    -6.9700     0.7050 H     1 <1>   0.0800 
 47 H       -3.3310    -4.7380     1.6500 H     1 <1>   0.0800 
 48 H       -3.6800    -4.1270     0.0570 H     1 <1>   0.0800 
 49 H       -5.1890    -6.3590     1.4430 H     1 <1>   0.0800 
 50 H       -5.5450    -5.7530    -0.1610 H     1 <1>   0.0800 
 51 H       -5.7520    -4.7210     1.2340 H     1 <1>   0.0800 
@<TRIPOS>BOND
  1   1   2  1   
  2   2   3  ar  
  3   2   4  ar  
  4   3   5  ar  
  5   3  26  1   
  6   4   6  ar  
  7   4  27  1   
  8   5   7  1   
  9   5   8  ar  
 10   6   8  ar  
 11   6   9  1   
 12   7  10  1   
 13   8  11  1   
 14   9  12  1   
 15   9  28  1   
 16   9  29  1   
 17  10  30  1   
 18  10  31  1   
 19  10  32  1   
 20  11  13  1   
 21  12  14  1   
 22  12  15  1   
 23  12  33  1   
 24  13  34  1   
 25  13  35  1   
 26  13  36  1   
 27  14  16  1   
 28  14  37  1   
 29  14  38  1   
 30  15  17  1   
 31  15  39  1   
 32  15  40  1   
 33  16  18  1   
 34  16  19  1   
 35  16  41  1   
 36  17  19  1   
 37  17  42  1   
 38  17  43  1   
 39  18  44  1   
 40  19  20  1   
 41  19  21  1   
 42  20  22  ar  
 43  20  23  ar  
 44  21  24  1   
 45  21  45  1   
 46  21  46  1   
 47  24  25  1   
 48  24  47  1   
 49  24  48  1   
 50  25  49  1   
 51  25  50  1   
 52  25  51  1   
@<TRIPOS>SUBSTRUCTURE
  1 ****  12 GROUP 4 **** **** 0

# MOE 2024.06 (io_trps.svl 2023.06)
