@<TRIPOS>MOLECULE
NONAME
51 55 1 0 0 
SMALL
USER_CHARGES


@<TRIPOS>ATOM
  1 O       -1.8180     0.5530    -2.0410 O.2   1 <1>  -0.5700 
  2 C       -1.7940     0.8440    -0.8600 C.2   1 <1>   0.5440 
  3 N       -1.8670    -0.1730     0.0480 N.am  1 <1>  -0.7300 
  4 C       -1.6940     2.2290    -0.4320 C.ar  1 <1>   0.0860 
  5 C       -1.9320    -1.6170    -0.2790 C.3   1 <1>   0.2200 
  6 C       -2.0400     2.6430     0.8560 C.ar  1 <1>  -0.1500 
  7 C       -1.2430     3.2200    -1.3040 C.ar  1 <1>  -0.1500 
  8 C       -3.3390    -2.1640    -0.0820 C.3   1 <1>  -0.0800 
  9 C       -1.1830    -2.3890     0.7970 C.3   1 <1>   0.1200 
 10 C       -1.9310     3.9630     1.2470 C.ar  1 <1>  -0.1500 
 11 C       -1.1340     4.5410    -0.9130 C.ar  1 <1>  -0.1500 
 12 C       -3.3830    -2.4800     1.4180 C.3   1 <1>   0.1200 
 13 C       -4.4870    -1.2640    -0.5770 C.3   1 <1>  -0.0160 
 14 O       -2.0630    -2.4360     1.8790 O.3   1 <1>  -0.5600 
 15 C       -1.4730     4.9530     0.3760 C.ar  1 <1>   0.0540 
 16 C       -5.8280    -1.9640    -0.4250 C.ar  1 <1>  -0.1430 
 17 C       -1.3610     6.3390     0.7960 C.2   1 <1>   0.4620 
 18 C       -6.6670    -1.7260     0.6450 C.ar  1 <1>  -0.1500 
 19 C       -6.2750    -2.8800    -1.3560 C.ar  1 <1>  -0.1500 
 20 N       -1.6560     6.7940     1.9630 N.2   1 <1>  -0.4100 
 21 N       -0.9250     7.3060    -0.0160 N.2   1 <1>  -0.5650 
 22 C       -7.8730    -2.4000     0.7330 C.ar  1 <1>   0.1600 
 23 C       -7.5000    -3.5000    -1.1750 C.ar  1 <1>   0.1600 
 24 O       -1.4260     8.0690     1.9610 O.3   1 <1>  -0.0190 
 25 C       -0.9910     8.3130     0.7530 C.2   1 <1>   0.3930 
 26 N       -8.3100    -3.2830    -0.1500 N.ar  1 <1>  -0.6200 
 27 C       -0.6190     9.7430     0.3950 C.3   1 <1>  -0.0150 
 28 C        0.4150    10.0510    -0.6470 C.3   1 <1>  -0.2000 
 29 C        0.7090    10.3070     0.8020 C.3   1 <1>  -0.2000 
 30 H       -1.8190     0.0150     1.0510 H     1 <1>   0.3700 
 31 H       -1.5430    -1.8060    -1.2660 H     1 <1>   0.0800 
 32 H       -2.4070     1.9250     1.5670 H     1 <1>   0.1500 
 33 H       -0.9720     2.9420    -2.3090 H     1 <1>   0.1500 
 34 H       -3.4010    -3.1010    -0.6080 H     1 <1>   0.0800 
 35 H       -0.2640    -1.9140     1.0930 H     1 <1>   0.0800 
 36 H       -0.9910    -3.4000     0.4810 H     1 <1>   0.0800 
 37 H       -2.2080     4.2380     2.2510 H     1 <1>   0.1500 
 38 H       -0.7790     5.2680    -1.6230 H     1 <1>   0.1500 
 39 H       -3.7880    -3.4600     1.6060 H     1 <1>   0.0800 
 40 H       -3.9440    -1.7430     1.9660 H     1 <1>   0.0800 
 41 H       -4.3270    -1.0200    -1.6130 H     1 <1>   0.0800 
 42 H       -4.5040    -0.3390    -0.0290 H     1 <1>   0.0800 
 43 H       -6.3950    -1.0230     1.4110 H     1 <1>   0.1500 
 44 H       -5.6830    -3.1160    -2.2210 H     1 <1>   0.1500 
 45 H       -8.5140    -2.2020     1.5750 H     1 <1>   0.1500 
 46 H       -7.8320    -4.2110    -1.9120 H     1 <1>   0.1500 
 47 H       -1.4710    10.3980     0.4460 H     1 <1>   0.1000 
 48 H        0.9090     9.2310    -1.1400 H     1 <1>   0.1000 
 49 H        0.2510    10.8880    -1.3020 H     1 <1>   0.1000 
 50 H        0.7520    11.3230     1.1530 H     1 <1>   0.1000 
 51 H        1.4130     9.6650     1.3030 H     1 <1>   0.1000 
@<TRIPOS>BOND
  1   1   2  2   
  2   2   3  am  
  3   2   4  1   
  4   3   5  1   
  5   3  30  1   
  6   4   6  ar  
  7   4   7  ar  
  8   5   8  1   
  9   5   9  1   
 10   5  31  1   
 11   6  10  ar  
 12   6  32  1   
 13   7  11  ar  
 14   7  33  1   
 15   8  12  1   
 16   8  13  1   
 17   8  34  1   
 18   9  14  1   
 19   9  35  1   
 20   9  36  1   
 21  10  15  ar  
 22  10  37  1   
 23  11  15  ar  
 24  11  38  1   
 25  12  14  1   
 26  12  39  1   
 27  12  40  1   
 28  13  16  1   
 29  13  41  1   
 30  13  42  1   
 31  15  17  1   
 32  16  18  ar  
 33  16  19  ar  
 34  17  20  2   
 35  17  21  1   
 36  18  22  ar  
 37  18  43  1   
 38  19  23  ar  
 39  19  44  1   
 40  20  24  1   
 41  21  25  2   
 42  22  26  ar  
 43  22  45  1   
 44  23  26  ar  
 45  23  46  1   
 46  24  25  1   
 47  25  27  1   
 48  27  28  1   
 49  27  29  1   
 50  27  47  1   
 51  28  29  1   
 52  28  48  1   
 53  28  49  1   
 54  29  50  1   
 55  29  51  1   
@<TRIPOS>SUBSTRUCTURE
  1 ****   6 GROUP 4 **** **** 0

# MOE 2024.06 (io_trps.svl 2023.06)
