@<TRIPOS>MOLECULE
NONAME
46 48 1 0 0 
SMALL
USER_CHARGES


@<TRIPOS>ATOM
  1 S        0.0210     0.0960     0.7570 S.o2  1 <1>   1.3330 
  2 O       -0.7340     1.3170     0.9310 O.2   1 <1>  -0.6500 
  3 O        0.5230    -0.6010     1.9200 O.2   1 <1>  -0.6500 
  4 N       -0.9360    -0.9960    -0.1230 N.am  1 <1>  -0.8490 
  5 C        1.3620     0.4410    -0.3830 C.3   1 <1>  -0.0550 
  6 C       -2.3520    -0.9170     0.2460 C.3   1 <1>   0.1160 
  7 C       -0.4720    -2.3850    -0.0250 C.3   1 <1>   0.1160 
  8 C        2.3630     1.4940     0.1320 C.3   1 <1>  -0.0800 
  9 C        3.3380     1.8960    -0.9620 C.3   1 <1>   0.2200 
 10 C        3.3130     0.9170     1.1820 C.3   1 <1>   0.1200 
 11 N        3.8860     3.2360    -0.6590 N.am  1 <1>  -0.7300 
 12 C        4.4360     0.8410    -0.8310 C.3   1 <1>   0.1200 
 13 O        4.3610     0.3310     0.4700 O.3   1 <1>  -0.5600 
 14 C        3.6860     4.3790    -1.3860 C.2   1 <1>   0.5440 
 15 O        2.9850     4.3010    -2.3810 O.2   1 <1>  -0.5700 
 16 C        4.3020     5.6410    -0.9680 C.ar  1 <1>   0.3960 
 17 N        5.0750     5.6700     0.1010 N.ar  1 <1>  -0.6200 
 18 C        4.0580     6.8130    -1.7220 C.ar  1 <1>  -0.1500 
 19 C        5.6360     6.8470     0.4680 C.ar  1 <1>   0.3100 
 20 C        4.6090     8.0060    -1.3740 C.ar  1 <1>  -0.1500 
 21 C        5.4330     8.0510    -0.2410 C.ar  1 <1>   0.0000 
 22 C        6.4600     6.8770     1.6060 C.ar  1 <1>  -0.1500 
 23 C        6.0560     9.2300     0.2130 C.ar  1 <1>  -0.1500 
 24 C        7.0570     8.0330     2.0310 C.ar  1 <1>  -0.1500 
 25 C        6.8520     9.2230     1.3260 C.ar  1 <1>  -0.1500 
 26 H        1.8830    -0.4690    -0.6080 H     1 <1>   0.0800 
 27 H        0.9290     0.8030    -1.2950 H     1 <1>   0.0800 
 28 H       -2.9300    -1.6100    -0.3390 H     1 <1>   0.0800 
 29 H       -2.7270     0.0760     0.0570 H     1 <1>   0.0800 
 30 H       -2.4790    -1.1410     1.2920 H     1 <1>   0.0800 
 31 H       -1.0550    -3.0160    -0.6740 H     1 <1>   0.0800 
 32 H       -0.5640    -2.7420     0.9880 H     1 <1>   0.0800 
 33 H        0.5600    -2.4540    -0.3220 H     1 <1>   0.0800 
 34 H        1.8220     2.3460     0.5080 H     1 <1>   0.0800 
 35 H        2.8960     1.8900    -1.9440 H     1 <1>   0.0800 
 36 H        2.8650     0.1760     1.8200 H     1 <1>   0.0800 
 37 H        3.7300     1.7020     1.7890 H     1 <1>   0.0800 
 38 H        4.4910     3.3080     0.1660 H     1 <1>   0.3700 
 39 H        5.4170     1.2470    -1.0010 H     1 <1>   0.0800 
 40 H        4.2590     0.0240    -1.5070 H     1 <1>   0.0800 
 41 H        3.4200     6.7380    -2.5860 H     1 <1>   0.1500 
 42 H        4.4300     8.9030    -1.9410 H     1 <1>   0.1500 
 43 H        6.6080     5.9550     2.1370 H     1 <1>   0.1500 
 44 H        5.8940    10.1420    -0.3340 H     1 <1>   0.1500 
 45 H        7.6860     8.0420     2.9050 H     1 <1>   0.1500 
 46 H        7.3280    10.1260     1.6710 H     1 <1>   0.1500 
@<TRIPOS>BOND
  1   1   2  2   
  2   1   3  2   
  3   1   4  am  
  4   1   5  1   
  5   4   6  1   
  6   4   7  1   
  7   5   8  1   
  8   5  26  1   
  9   5  27  1   
 10   6  28  1   
 11   6  29  1   
 12   6  30  1   
 13   7  31  1   
 14   7  32  1   
 15   7  33  1   
 16   8   9  1   
 17   8  10  1   
 18   8  34  1   
 19   9  11  1   
 20   9  12  1   
 21   9  35  1   
 22  10  13  1   
 23  10  36  1   
 24  10  37  1   
 25  11  14  am  
 26  11  38  1   
 27  12  13  1   
 28  12  39  1   
 29  12  40  1   
 30  14  15  2   
 31  14  16  1   
 32  16  17  ar  
 33  16  18  ar  
 34  17  19  ar  
 35  18  20  ar  
 36  18  41  1   
 37  19  21  ar  
 38  19  22  ar  
 39  20  21  ar  
 40  20  42  1   
 41  21  23  ar  
 42  22  24  ar  
 43  22  43  1   
 44  23  25  ar  
 45  23  44  1   
 46  24  25  ar  
 47  24  45  1   
 48  25  46  1   
@<TRIPOS>SUBSTRUCTURE
  1 ****  11 GROUP 4 **** **** 0

# MOE 2024.06 (io_trps.svl 2023.06)
