@<TRIPOS>MOLECULE
NONAME
42 44 1 0 0 
SMALL
USER_CHARGES


@<TRIPOS>ATOM
  1 CL      -1.7780    -0.1780    -2.4250 Cl    1 <1>  -0.1770 
  2 C       -2.5650     0.8260    -1.2320 C.ar  1 <1>   0.1770 
  3 C       -3.0890     0.2420    -0.0850 C.ar  1 <1>  -0.1440 
  4 C       -2.6570     2.1890    -1.4700 C.ar  1 <1>  -0.1500 
  5 C       -3.7220     1.0540     0.8470 C.ar  1 <1>  -0.1500 
  6 C       -2.9690    -1.2510     0.1530 C.3   1 <1>   0.4870 
  7 C       -3.2910     2.9980    -0.5410 C.ar  1 <1>  -0.1500 
  8 C       -3.8120     2.4120     0.5980 C.ar  1 <1>   0.1900 
  9 N       -3.8560    -1.9870    -0.7920 N.4   1 <1>  -0.9590 
 10 F       -4.4140     3.1680     1.4750 F     1 <1>  -0.1900 
 11 C       -5.2990    -1.6500    -0.5780 C.3   1 <1>   0.3430 
 12 C       -3.7300    -3.4580    -0.5560 C.3   1 <1>   0.3430 
 13 C       -5.8170    -2.6860     0.4230 C.3   1 <1>   0.2000 
 14 C       -5.0750    -3.9540    -0.0040 C.3   1 <1>  -0.0800 
 15 O       -5.4180    -2.2990     1.7010 O.3   1 <1>  -0.6800 
 16 C       -4.9090    -5.0390     1.0770 C.3   1 <1>   0.0210 
 17 C       -4.1880    -6.2540     0.5270 C.2   1 <1>   0.1080 
 18 N       -2.9850    -6.2010     0.0430 N.2   1 <1>  -0.7070 
 19 C       -4.7180    -7.5390     0.4820 C.2   1 <1>  -0.1500 
 20 N       -2.7070    -7.4730    -0.3170 N.pl3 1 <1>   0.3000 
 21 C       -3.7450    -8.2970    -0.0650 C.2   1 <1>  -0.3320 
 22 C       -3.7410    -9.7860    -0.3600 C.3   1 <1>  -0.0600 
 23 H       -2.2390     2.6090    -2.3690 H     1 <1>   0.1500 
 24 H       -4.1440     0.6570     1.7560 H     1 <1>   0.1500 
 25 H       -3.2430    -1.4790     1.1700 H     1 <1>   0.0800 
 26 H       -1.9450    -1.5540     0.0040 H     1 <1>   0.0800 
 27 H       -3.3810     4.0600    -0.6930 H     1 <1>   0.1500 
 28 H       -3.5580    -1.7430    -1.7470 H     1 <1>   0.4500 
 29 H       -5.4420    -0.6470    -0.2130 H     1 <1>   0.0800 
 30 H       -5.8330    -1.7650    -1.5070 H     1 <1>   0.0800 
 31 H       -3.4910    -3.9830    -1.4670 H     1 <1>   0.0800 
 32 H       -2.9500    -3.6600     0.1610 H     1 <1>   0.0800 
 33 H       -6.8900    -2.7790     0.4030 H     1 <1>   0.0800 
 34 H       -5.6090    -4.3920    -0.8300 H     1 <1>   0.0800 
 35 H       -5.9020    -2.8020     2.3910 H     1 <1>   0.4000 
 36 H       -5.8740    -5.3390     1.4450 H     1 <1>   0.0800 
 37 H       -4.3360    -4.6650     1.9070 H     1 <1>   0.0800 
 38 H       -5.6930    -7.8440     0.8200 H     1 <1>   0.1500 
 39 H       -1.8050    -7.7520    -0.7240 H     1 <1>   0.2700 
 40 H       -4.6790   -10.2240    -0.0680 H     1 <1>   0.0800 
 41 H       -2.9530   -10.2730     0.1860 H     1 <1>   0.0800 
 42 H       -3.5970    -9.9580    -1.4120 H     1 <1>   0.0800 
@<TRIPOS>BOND
  1   1   2  1   
  2   2   3  ar  
  3   2   4  ar  
  4   3   5  ar  
  5   3   6  1   
  6   4   7  ar  
  7   4  23  1   
  8   5   8  ar  
  9   5  24  1   
 10   6   9  1   
 11   6  25  1   
 12   6  26  1   
 13   7   8  ar  
 14   7  27  1   
 15   8  10  1   
 16   9  11  1   
 17   9  12  1   
 18   9  28  1   
 19  11  13  1   
 20  11  29  1   
 21  11  30  1   
 22  12  14  1   
 23  12  31  1   
 24  12  32  1   
 25  13  14  1   
 26  13  15  1   
 27  13  33  1   
 28  14  16  1   
 29  14  34  1   
 30  15  35  1   
 31  16  17  1   
 32  16  36  1   
 33  16  37  1   
 34  17  18  2   
 35  17  19  1   
 36  18  20  1   
 37  19  21  2   
 38  19  38  1   
 39  20  21  1   
 40  20  39  1   
 41  21  22  1   
 42  22  40  1   
 43  22  41  1   
 44  22  42  1   
@<TRIPOS>SUBSTRUCTURE
  1 ****   9 GROUP 4 **** **** 0

# MOE 2024.06 (io_trps.svl 2023.06)
