@<TRIPOS>MOLECULE
NONAME
47 49 1 0 0 
SMALL
USER_CHARGES


@<TRIPOS>ATOM
  1 O        0.9310    -1.2390    -0.8290 O.2   1 <1>  -0.5700 
  2 C        1.9750    -0.7270    -0.5030 C.2   1 <1>   0.5690 
  3 N        2.2150     0.6080    -0.4250 N.am  1 <1>  -0.6600 
  4 C        3.1880    -1.5190    -0.1080 C.3   1 <1>  -0.0990 
  5 C        3.6180     0.9010    -0.0420 C.3   1 <1>   0.3000 
  6 C        1.1890     1.6460    -0.7260 C.3   1 <1>   0.0600 
  7 C        4.0380    -0.4500     0.5980 C.3   1 <1>  -0.1860 
  8 C        4.3720     1.2800    -1.3350 C.3   1 <1>  -0.1600 
  9 C        3.6960     2.0900     0.9300 C.3   1 <1>  -0.1600 
 10 C        5.5220    -0.6950     0.5920 C.2   1 <1>   0.9060 
 11 C        5.6920     2.0420    -1.1360 C.3   1 <1>   0.3430 
 12 C        5.1290     2.4780     1.3150 C.3   1 <1>   0.3430 
 13 O        6.1080    -0.9650    -0.4520 O.co2 1 <1>  -0.9000 
 14 O        6.1650    -0.2970     1.5680 O.co2 1 <1>  -0.9000 
 15 N        6.1280     2.0870     0.2840 N.4   1 <1>  -0.9590 
 16 C        7.4560     2.6990     0.4840 C.3   1 <1>   0.5240 
 17 C        7.4560     4.1970     0.2130 C.2   1 <1>  -0.1810 
 18 C        8.5990     4.9860     0.3000 C.2   1 <1>   0.1080 
 19 C        6.4790     5.0670    -0.1420 C.2   1 <1>  -0.3020 
 20 N        8.3600     6.2260     0.0270 N.2   1 <1>  -0.7070 
 21 C        9.9880     4.5080     0.6670 C.3   1 <1>  -0.0590 
 22 N        7.0500     6.2830    -0.2470 N.pl3 1 <1>   0.3140 
 23 C        6.3960     7.5450    -0.6130 C.3   1 <1>   0.0160 
 24 H        3.6710    -1.8910    -0.9940 H     1 <1>   0.0800 
 25 H        2.9330    -2.3320     0.5460 H     1 <1>   0.0800 
 26 H        0.2960     1.1790    -1.1050 H     1 <1>   0.0800 
 27 H        1.5570     2.3320    -1.4670 H     1 <1>   0.0800 
 28 H        0.9370     2.1820     0.1720 H     1 <1>   0.0800 
 29 H        3.7340    -0.4390     1.6280 H     1 <1>   0.0800 
 30 H        3.7510     1.9060    -1.9460 H     1 <1>   0.0800 
 31 H        4.5680     0.3960    -1.9150 H     1 <1>   0.0800 
 32 H        3.1410     1.8740     1.8250 H     1 <1>   0.0800 
 33 H        3.2490     2.9530     0.4720 H     1 <1>   0.0800 
 34 H        5.5770     3.0470    -1.5040 H     1 <1>   0.0800 
 35 H        6.4550     1.5570    -1.7240 H     1 <1>   0.0800 
 36 H        5.3850     1.9720     2.2340 H     1 <1>   0.0800 
 37 H        5.1760     3.5380     1.4970 H     1 <1>   0.0800 
 38 H        6.3280     1.0840     0.5280 H     1 <1>   0.4500 
 39 H        8.1670     2.2220    -0.1690 H     1 <1>   0.0800 
 40 H        7.7760     2.5230     1.4980 H     1 <1>   0.0800 
 41 H        5.4340     4.9090    -0.3250 H     1 <1>   0.1500 
 42 H        9.9810     4.0640     1.6450 H     1 <1>   0.0800 
 43 H       10.6670     5.3420     0.6750 H     1 <1>   0.0800 
 44 H       10.3350     3.7920    -0.0530 H     1 <1>   0.0800 
 45 H        5.4310     7.5970    -0.1470 H     1 <1>   0.0800 
 46 H        6.2940     7.5900    -1.6810 H     1 <1>   0.0800 
 47 H        7.0040     8.3640    -0.2760 H     1 <1>   0.0800 
@<TRIPOS>BOND
  1   1   2  2   
  2   2   3  am  
  3   2   4  1   
  4   3   5  1   
  5   3   6  1   
  6   4   7  1   
  7   4  24  1   
  8   4  25  1   
  9   5   7  1   
 10   5   8  1   
 11   5   9  1   
 12   6  26  1   
 13   6  27  1   
 14   6  28  1   
 15   7  10  1   
 16   7  29  1   
 17   8  11  1   
 18   8  30  1   
 19   8  31  1   
 20   9  12  1   
 21   9  32  1   
 22   9  33  1   
 23  10  13  ar  
 24  10  14  ar  
 25  11  15  1   
 26  11  34  1   
 27  11  35  1   
 28  12  15  1   
 29  12  36  1   
 30  12  37  1   
 31  15  16  1   
 32  15  38  1   
 33  16  17  1   
 34  16  39  1   
 35  16  40  1   
 36  17  18  1   
 37  17  19  2   
 38  18  20  2   
 39  18  21  1   
 40  19  22  1   
 41  19  41  1   
 42  20  22  1   
 43  21  42  1   
 44  21  43  1   
 45  21  44  1   
 46  22  23  1   
 47  23  45  1   
 48  23  46  1   
 49  23  47  1   
@<TRIPOS>SUBSTRUCTURE
  1 ****  15 GROUP 4 **** **** 0

# MOE 2024.06 (io_trps.svl 2023.06)
