@<TRIPOS>MOLECULE
NONAME
47 48 1 0 0 
SMALL
USER_CHARGES


@<TRIPOS>ATOM
  1 O       -1.0420    -0.2310    -0.0670 O.2   1 <1>  -0.5700 
  2 C       -1.7950     0.6100     0.3880 C.2   1 <1>   0.5440 
  3 N       -3.1440     0.3390     0.4520 N.am  1 <1>  -0.6600 
  4 C       -1.2610     1.8790     0.8550 C.ar  1 <1>   0.0860 
  5 C       -3.6690    -1.0380     0.1470 C.3   1 <1>   0.1400 
  6 C       -4.1630     1.3750     0.8230 C.3   1 <1>   0.1400 
  7 C       -0.6970     2.8300    -0.0090 C.ar  1 <1>  -0.1440 
  8 C       -1.3140     2.1690     2.2180 C.ar  1 <1>  -0.1500 
  9 C       -5.0220    -1.2550     0.8370 C.3   1 <1>   0.2000 
 10 C       -5.4560     1.1270     0.0440 C.3   1 <1>  -0.1600 
 11 C       -0.2040     4.0210     0.5130 C.ar  1 <1>  -0.1500 
 12 C       -0.6380     2.5160    -1.5100 C.3   1 <1>  -0.0160 
 13 C       -0.8270     3.3570     2.7250 C.ar  1 <1>  -0.1500 
 14 O       -5.4750    -2.5560     0.6820 O.3   1 <1>  -0.6800 
 15 C       -6.1170    -0.2410     0.4080 C.3   1 <1>  -0.1060 
 16 C       -0.2690     4.2860     1.8690 C.ar  1 <1>  -0.1500 
 17 C       -0.3170     3.7040    -2.4270 C.3   1 <1>  -0.2400 
 18 C       -6.9930    -0.1360     1.6690 C.2   1 <1>   0.9060 
 19 C       -7.0220    -0.6890    -0.7880 C.3   1 <1>  -0.1600 
 20 O       -7.0590     0.9260     2.3010 O.co2 1 <1>  -0.9000 
 21 O       -7.5730    -1.1600     2.0600 O.co2 1 <1>  -0.9000 
 22 C       -6.3110    -1.1140    -2.0890 C.3   1 <1>  -0.1600 
 23 C       -7.3310    -1.4760    -3.1710 C.3   1 <1>  -0.2400 
 24 H       -3.7740    -1.1430    -0.9160 H     1 <1>   0.0800 
 25 H       -2.9700    -1.7740     0.5030 H     1 <1>   0.0800 
 26 H       -4.3640     1.3250     1.8810 H     1 <1>   0.0800 
 27 H       -3.7970     2.3600     0.5930 H     1 <1>   0.0800 
 28 H       -1.7480     1.4430     2.8830 H     1 <1>   0.1500 
 29 H       -4.8370    -1.1400     1.8940 H     1 <1>   0.0800 
 30 H       -6.1480     1.9280     0.2390 H     1 <1>   0.0800 
 31 H       -5.2120     1.1840    -0.9970 H     1 <1>   0.0800 
 32 H        0.2410     4.7640    -0.1220 H     1 <1>   0.1500 
 33 H        0.0960     1.7450    -1.6690 H     1 <1>   0.0800 
 34 H       -1.5900     2.1170    -1.8160 H     1 <1>   0.0800 
 35 H       -0.8820     3.5580     3.7810 H     1 <1>   0.1500 
 36 H       -6.3550    -2.5760     1.1370 H     1 <1>   0.4000 
 37 H        0.1160     5.2130     2.2560 H     1 <1>   0.1500 
 38 H        0.6810     4.0600    -2.2480 H     1 <1>   0.0800 
 39 H       -1.0190     4.5030    -2.2640 H     1 <1>   0.0800 
 40 H       -0.3840     3.3950    -3.4550 H     1 <1>   0.0800 
 41 H       -7.6300    -1.5170    -0.4660 H     1 <1>   0.0800 
 42 H       -7.7020     0.1160    -1.0060 H     1 <1>   0.0800 
 43 H       -5.6800    -0.3290    -2.4600 H     1 <1>   0.0800 
 44 H       -5.6950    -1.9760    -1.8980 H     1 <1>   0.0800 
 45 H       -7.9530    -0.6290    -3.3990 H     1 <1>   0.0800 
 46 H       -7.9570    -2.2860    -2.8360 H     1 <1>   0.0800 
 47 H       -6.8230    -1.7840    -4.0680 H     1 <1>   0.0800 
@<TRIPOS>BOND
  1   1   2  2   
  2   2   3  am  
  3   2   4  1   
  4   3   5  1   
  5   3   6  1   
  6   4   7  ar  
  7   4   8  ar  
  8   5   9  1   
  9   5  24  1   
 10   5  25  1   
 11   6  10  1   
 12   6  26  1   
 13   6  27  1   
 14   7  11  ar  
 15   7  12  1   
 16   8  13  ar  
 17   8  28  1   
 18   9  14  1   
 19   9  15  1   
 20   9  29  1   
 21  10  15  1   
 22  10  30  1   
 23  10  31  1   
 24  11  16  ar  
 25  11  32  1   
 26  12  17  1   
 27  12  33  1   
 28  12  34  1   
 29  13  16  ar  
 30  13  35  1   
 31  14  36  1   
 32  15  18  1   
 33  15  19  1   
 34  16  37  1   
 35  17  38  1   
 36  17  39  1   
 37  17  40  1   
 38  18  20  ar  
 39  18  21  ar  
 40  19  22  1   
 41  19  41  1   
 42  19  42  1   
 43  22  23  1   
 44  22  43  1   
 45  22  44  1   
 46  23  45  1   
 47  23  46  1   
 48  23  47  1   
@<TRIPOS>SUBSTRUCTURE
  1 ****   3 GROUP 4 **** **** 0

# MOE 2024.06 (io_trps.svl 2023.06)
