@<TRIPOS>MOLECULE
NONAME
50 53 1 0 0 
SMALL
USER_CHARGES


@<TRIPOS>ATOM
  1 O       -0.5730    -0.5850    -0.0160 O.3   1 <1>  -0.5600 
  2 C        0.4310    -1.2200     0.7160 C.3   1 <1>   0.1200 
  3 C       -1.6850    -1.3910    -0.2780 C.3   1 <1>   0.1200 
  4 C        0.9660    -2.4450    -0.0510 C.3   1 <1>   0.2090 
  5 C       -1.2750    -2.6270    -1.0970 C.3   1 <1>   0.2090 
  6 N       -0.1520    -3.3810    -0.4240 N.pl3 1 <1>  -0.8380 
  7 C       -0.2300    -4.7210    -0.1910 C.ar  1 <1>   0.7710 
  8 N       -1.3670    -5.3580    -0.4280 N.ar  1 <1>  -0.6200 
  9 N        0.8540    -5.3700     0.2700 N.ar  1 <1>  -0.1790 
 10 C       -1.4270    -6.6550    -0.1960 C.ar  1 <1>   0.4100 
 11 C        0.8440    -6.6990     0.5270 C.ar  1 <1>   0.2180 
 12 N       -2.6020    -7.2840    -0.4470 N.pl3 1 <1>  -0.8380 
 13 C       -0.3130    -7.3620     0.2950 C.ar  1 <1>  -0.1500 
 14 C        2.1100    -7.3640     1.0520 C.3   1 <1>  -0.0170 
 15 C       -2.8790    -8.7450    -0.3430 C.3   1 <1>   0.2090 
 16 C       -3.8520    -6.5750    -0.8500 C.3   1 <1>   0.2090 
 17 C        3.2650    -7.2880     0.0440 C.3   1 <1>  -0.2400 
 18 C       -4.2600    -8.9170    -0.9730 C.3   1 <1>  -0.0800 
 19 C       -4.9630    -7.6010    -0.6240 C.3   1 <1>  -0.0800 
 20 C       -5.0120   -10.1930    -0.5550 C.3   1 <1>  -0.0220 
 21 C       -5.4480    -7.5330     0.8440 C.3   1 <1>  -0.0220 
 22 C       -5.7680   -10.0320     0.7490 C.2   1 <1>  -0.2880 
 23 C       -5.9590    -8.8640     1.3630 C.2   1 <1>  -0.2880 
 24 H        1.2190    -0.5040     0.8740 H     1 <1>   0.0800 
 25 H        0.0300    -1.5080     1.6730 H     1 <1>   0.0800 
 26 H       -2.1320    -1.6840     0.6560 H     1 <1>   0.0800 
 27 H       -2.3950    -0.8000    -0.8300 H     1 <1>   0.0800 
 28 H        1.7020    -2.9290     0.5630 H     1 <1>   0.0800 
 29 H        1.4540    -2.0980    -0.9470 H     1 <1>   0.0800 
 30 H       -0.9490    -2.3010    -2.0700 H     1 <1>   0.0800 
 31 H       -2.1470    -3.2400    -1.2430 H     1 <1>   0.0800 
 32 H        1.6890    -4.8140     0.3820 H     1 <1>   0.4570 
 33 H       -0.4030    -8.4150     0.4770 H     1 <1>   0.1500 
 34 H        2.4050    -6.9020     1.9790 H     1 <1>   0.0800 
 35 H        1.9060    -8.4000     1.2630 H     1 <1>   0.0800 
 36 H       -2.1400    -9.3240    -0.8690 H     1 <1>   0.0800 
 37 H       -2.9060    -9.0320     0.6960 H     1 <1>   0.0800 
 38 H       -4.0030    -5.6810    -0.2700 H     1 <1>   0.0800 
 39 H       -3.7870    -6.3170    -1.8940 H     1 <1>   0.0800 
 40 H        3.5610    -6.2720    -0.1460 H     1 <1>   0.0800 
 41 H        2.9820    -7.7480    -0.8880 H     1 <1>   0.0800 
 42 H        4.1190    -7.8180     0.4300 H     1 <1>   0.0800 
 43 H       -4.1120    -8.9580    -2.0390 H     1 <1>   0.0800 
 44 H       -5.7950    -7.4290    -1.2840 H     1 <1>   0.0800 
 45 H       -5.7260   -10.4440    -1.3200 H     1 <1>   0.0800 
 46 H       -4.3180   -11.0120    -0.4750 H     1 <1>   0.0800 
 47 H       -4.6460    -7.2200     1.4910 H     1 <1>   0.0800 
 48 H       -6.2290    -6.7970     0.9170 H     1 <1>   0.0800 
 49 H       -6.1500   -10.9630     1.1370 H     1 <1>   0.1500 
 50 H       -6.4930    -8.7750     2.2940 H     1 <1>   0.1500 
@<TRIPOS>BOND
  1   1   2  1   
  2   1   3  1   
  3   2   4  1   
  4   2  24  1   
  5   2  25  1   
  6   3   5  1   
  7   3  26  1   
  8   3  27  1   
  9   4   6  1   
 10   4  28  1   
 11   4  29  1   
 12   5   6  1   
 13   5  30  1   
 14   5  31  1   
 15   6   7  1   
 16   7   8  ar  
 17   7   9  ar  
 18   8  10  ar  
 19   9  11  ar  
 20   9  32  1   
 21  10  12  1   
 22  10  13  ar  
 23  11  13  ar  
 24  11  14  1   
 25  12  15  1   
 26  12  16  1   
 27  13  33  1   
 28  14  17  1   
 29  14  34  1   
 30  14  35  1   
 31  15  18  1   
 32  15  36  1   
 33  15  37  1   
 34  16  19  1   
 35  16  38  1   
 36  16  39  1   
 37  17  40  1   
 38  17  41  1   
 39  17  42  1   
 40  18  19  1   
 41  18  20  1   
 42  18  43  1   
 43  19  21  1   
 44  19  44  1   
 45  20  22  1   
 46  20  45  1   
 47  20  46  1   
 48  21  23  1   
 49  21  47  1   
 50  21  48  1   
 51  22  23  2   
 52  22  49  1   
 53  23  50  1   
@<TRIPOS>SUBSTRUCTURE
  1 ****  10 GROUP 4 **** **** 0

# MOE 2024.06 (io_trps.svl 2023.06)
