@<TRIPOS>MOLECULE
NONAME
48 50 1 0 0 
SMALL
USER_CHARGES


@<TRIPOS>ATOM
  1 S        1.6390     0.8550     0.9710 S.o2  1 <1>   1.3330 
  2 O        0.8160    -0.0680     0.2220 O.2   1 <1>  -0.6500 
  3 O        1.1320     1.4290     2.1970 O.2   1 <1>  -0.6500 
  4 N        3.0870     0.0540     1.3530 N.am  1 <1>  -0.8490 
  5 C        2.1410     2.1710    -0.1400 C.3   1 <1>  -0.0550 
  6 C        2.8480    -1.3100     1.8310 C.3   1 <1>   0.1160 
  7 C        3.9080     0.7830     2.3260 C.3   1 <1>   0.1160 
  8 C        2.7250     1.6820    -1.4860 C.3   1 <1>  -0.0800 
  9 C        2.9330     2.7730    -2.5260 C.3   1 <1>   0.2200 
 10 C        4.1170     1.0430    -1.3860 C.3   1 <1>   0.1200 
 11 N        3.4990     3.9770    -1.8830 N.am  1 <1>  -0.7300 
 12 C        4.0010     2.1330    -3.3990 C.3   1 <1>   0.1200 
 13 O        4.8370     1.4580    -2.5100 O.3   1 <1>  -0.5600 
 14 C        2.8370     5.1380    -1.6450 C.2   1 <1>   0.5690 
 15 O        1.7400     5.3440    -2.1030 O.2   1 <1>  -0.5700 
 16 C        3.4780     6.1900    -0.7640 C.3   1 <1>   0.1570 
 17 N        3.9100     5.5810     0.5110 N.pl3 1 <1>   0.0480 
 18 C        5.0680     4.8660     0.7230 C.ar  1 <1>  -0.1520 
 19 C        3.1630     5.5100     1.6540 C.2   1 <1>  -0.3020 
 20 C        5.0390     4.3600     2.0200 C.ar  1 <1>   0.0000 
 21 C        6.1560     4.5990    -0.1160 C.ar  1 <1>  -0.1500 
 22 C        3.8200     4.7830     2.5870 C.2   1 <1>  -0.1500 
 23 C        6.1040     3.5880     2.4930 C.ar  1 <1>  -0.1500 
 24 C        7.1900     3.8240     0.3550 C.ar  1 <1>  -0.1500 
 25 C        7.1660     3.3200     1.6600 C.ar  1 <1>  -0.1500 
 26 H        1.2790     2.7740    -0.3520 H     1 <1>   0.0800 
 27 H        2.8520     2.8000     0.3590 H     1 <1>   0.0800 
 28 H        3.7820    -1.7980     2.0490 H     1 <1>   0.0800 
 29 H        2.3390    -1.8820     1.0730 H     1 <1>   0.0800 
 30 H        2.2380    -1.2940     2.7190 H     1 <1>   0.0800 
 31 H        4.8490     0.2800     2.4680 H     1 <1>   0.0800 
 32 H        3.3990     0.8550     3.2730 H     1 <1>   0.0800 
 33 H        4.1080     1.7760     1.9670 H     1 <1>   0.0800 
 34 H        2.0570     0.9490    -1.9050 H     1 <1>   0.0800 
 35 H        2.0370     3.0130    -3.0760 H     1 <1>   0.0800 
 36 H        4.0630    -0.0330    -1.3800 H     1 <1>   0.0800 
 37 H        4.6530     1.3830    -0.5170 H     1 <1>   0.0800 
 38 H        4.4000     3.7980    -1.4240 H     1 <1>   0.3700 
 39 H        4.5700     2.8530    -3.9600 H     1 <1>   0.0800 
 40 H        3.5680     1.4050    -4.0630 H     1 <1>   0.0800 
 41 H        2.7660     6.9670    -0.5580 H     1 <1>   0.0800 
 42 H        4.3260     6.6160    -1.2630 H     1 <1>   0.0800 
 43 H        2.1990     5.9810     1.7370 H     1 <1>   0.1500 
 44 H        6.1890     4.9970    -1.1150 H     1 <1>   0.1500 
 45 H        3.5030     4.5460     3.5880 H     1 <1>   0.1500 
 46 H        6.0760     3.2160     3.5010 H     1 <1>   0.1500 
 47 H        8.0330     3.6010    -0.2760 H     1 <1>   0.1500 
 48 H        7.9920     2.7230     2.0050 H     1 <1>   0.1500 
@<TRIPOS>BOND
  1   1   2  2   
  2   1   3  2   
  3   1   4  am  
  4   1   5  1   
  5   4   6  1   
  6   4   7  1   
  7   5   8  1   
  8   5  26  1   
  9   5  27  1   
 10   6  28  1   
 11   6  29  1   
 12   6  30  1   
 13   7  31  1   
 14   7  32  1   
 15   7  33  1   
 16   8   9  1   
 17   8  10  1   
 18   8  34  1   
 19   9  11  1   
 20   9  12  1   
 21   9  35  1   
 22  10  13  1   
 23  10  36  1   
 24  10  37  1   
 25  11  14  am  
 26  11  38  1   
 27  12  13  1   
 28  12  39  1   
 29  12  40  1   
 30  14  15  2   
 31  14  16  1   
 32  16  17  1   
 33  16  41  1   
 34  16  42  1   
 35  17  18  1   
 36  17  19  1   
 37  18  20  ar  
 38  18  21  ar  
 39  19  22  2   
 40  19  43  1   
 41  20  22  1   
 42  20  23  ar  
 43  21  24  ar  
 44  21  44  1   
 45  22  45  1   
 46  23  25  ar  
 47  23  46  1   
 48  24  25  ar  
 49  24  47  1   
 50  25  48  1   
@<TRIPOS>SUBSTRUCTURE
  1 ****   5 GROUP 4 **** **** 0

# MOE 2024.06 (io_trps.svl 2023.06)
