@<TRIPOS>MOLECULE
NONAME
57 60 1 0 0 
SMALL
USER_CHARGES


@<TRIPOS>ATOM
  1 S       -2.7100    -2.3850    -2.9470 S.3   1 <1>  -0.0800 
  2 C       -3.3540    -0.8180    -3.3610 C.2   1 <1>   0.2280 
  3 C       -3.2410    -2.1330    -1.3150 C.2   1 <1>  -0.1100 
  4 N       -3.9010    -0.2000    -2.3930 N.2   1 <1>  -0.5650 
  5 C       -3.8550    -0.9350    -1.1910 C.2   1 <1>   0.1410 
  6 C       -4.3890    -0.4260     0.0740 C.2   1 <1>   0.7160 
  7 O       -3.8860    -0.8260     1.1100 O.2   1 <1>  -0.5700 
  8 N       -5.4440     0.4670     0.1710 N.am  1 <1>  -0.6600 
  9 C       -5.6740     1.2790     1.3950 C.3   1 <1>   0.1400 
 10 C       -6.4350     0.7270    -0.9050 C.3   1 <1>   0.1400 
 11 C       -7.0710     0.9920     1.9450 C.3   1 <1>  -0.1600 
 12 C       -7.8490     0.4500    -0.3840 C.3   1 <1>  -0.1600 
 13 C       -8.1810     1.2320     0.9030 C.3   1 <1>   0.2800 
 14 O       -8.1080     2.5950     0.5500 O.3   1 <1>  -0.5600 
 15 C       -9.5710     0.8710     1.5240 C.3   1 <1>   0.2000 
 16 C       -9.1950     3.4330     0.8000 C.3   1 <1>   0.1200 
 17 O       -9.7150    -0.5020     1.7650 O.3   1 <1>  -0.6800 
 18 C      -10.8110     1.4630     0.7770 C.3   1 <1>   0.3000 
 19 C      -10.4420     2.8270     0.1560 C.3   1 <1>  -0.1600 
 20 N      -11.8630     1.6550     1.8080 N.am  1 <1>  -0.7300 
 21 C      -11.3770     0.5100    -0.2930 C.3   1 <1>  -0.2400 
 22 C      -13.1610     2.0590     1.8000 C.2   1 <1>   0.5690 
 23 O      -13.7410     2.1060     2.8560 O.2   1 <1>  -0.5700 
 24 C      -13.9290     2.4800     0.5630 C.3   1 <1>   0.1570 
 25 N      -14.6590     1.3410    -0.0090 N.pl3 1 <1>   0.3140 
 26 N      -14.6620     1.1160    -1.3380 N.2   1 <1>  -0.7070 
 27 C      -15.4110     0.4270     0.6370 C.2   1 <1>  -0.3020 
 28 C      -15.4070     0.0680    -1.5000 C.2   1 <1>   0.1080 
 29 C      -15.9070    -0.4120    -0.2960 C.2   1 <1>  -0.1500 
 30 C      -15.6790    -0.5310    -2.8590 C.3   1 <1>  -0.0590 
 31 H       -3.2430    -0.4980    -4.3820 H     1 <1>   0.1500 
 32 H       -3.0420    -2.9000    -0.5880 H     1 <1>   0.1500 
 33 H       -4.9350     1.0590     2.1470 H     1 <1>   0.0800 
 34 H       -5.5870     2.3230     1.1430 H     1 <1>   0.0800 
 35 H       -6.3490     1.7530    -1.2210 H     1 <1>   0.0800 
 36 H       -6.2580     0.0950    -1.7550 H     1 <1>   0.0800 
 37 H       -7.2450     1.6080     2.8070 H     1 <1>   0.0800 
 38 H       -7.0980    -0.0330     2.2720 H     1 <1>   0.0800 
 39 H       -7.9350    -0.6050    -0.2040 H     1 <1>   0.0800 
 40 H       -8.5390     0.7140    -1.1600 H     1 <1>   0.0800 
 41 H       -9.5580     1.3180     2.5030 H     1 <1>   0.0800 
 42 H       -9.3090     3.5550     1.8640 H     1 <1>   0.0800 
 43 H       -8.9720     4.3910     0.3630 H     1 <1>   0.0800 
 44 H       -9.8750    -0.9800     0.9290 H     1 <1>   0.4000 
 45 H      -11.2490     3.5270     0.2460 H     1 <1>   0.0800 
 46 H      -10.2340     2.7120    -0.8930 H     1 <1>   0.0800 
 47 H      -11.5810     1.2720     2.7150 H     1 <1>   0.3700 
 48 H      -10.6020     0.1030    -0.9090 H     1 <1>   0.0800 
 49 H      -12.0470     1.0280    -0.9510 H     1 <1>   0.0800 
 50 H      -11.9050    -0.3090     0.1630 H     1 <1>   0.0800 
 51 H      -13.2740     2.8770    -0.1830 H     1 <1>   0.0800 
 52 H      -14.6440     3.2340     0.8300 H     1 <1>   0.0800 
 53 H      -15.5500     0.4260     1.7040 H     1 <1>   0.1500 
 54 H      -16.5480    -1.2650    -0.1640 H     1 <1>   0.1500 
 55 H      -16.3230    -1.3860    -2.7720 H     1 <1>   0.0800 
 56 H      -14.7520    -0.8300    -3.3110 H     1 <1>   0.0800 
 57 H      -16.1510     0.2040    -3.4850 H     1 <1>   0.0800 
@<TRIPOS>BOND
  1   1   2  1   
  2   1   3  1   
  3   2   4  2   
  4   2  31  1   
  5   3   5  2   
  6   3  32  1   
  7   4   5  1   
  8   5   6  1   
  9   6   7  2   
 10   6   8  am  
 11   8   9  1   
 12   8  10  1   
 13   9  11  1   
 14   9  33  1   
 15   9  34  1   
 16  10  12  1   
 17  10  35  1   
 18  10  36  1   
 19  11  13  1   
 20  11  37  1   
 21  11  38  1   
 22  12  13  1   
 23  12  39  1   
 24  12  40  1   
 25  13  14  1   
 26  13  15  1   
 27  14  16  1   
 28  15  17  1   
 29  15  18  1   
 30  15  41  1   
 31  16  19  1   
 32  16  42  1   
 33  16  43  1   
 34  17  44  1   
 35  18  19  1   
 36  18  20  1   
 37  18  21  1   
 38  19  45  1   
 39  19  46  1   
 40  20  22  am  
 41  20  47  1   
 42  21  48  1   
 43  21  49  1   
 44  21  50  1   
 45  22  23  2   
 46  22  24  1   
 47  24  25  1   
 48  24  51  1   
 49  24  52  1   
 50  25  26  1   
 51  25  27  1   
 52  26  28  2   
 53  27  29  2   
 54  27  53  1   
 55  28  29  1   
 56  28  30  1   
 57  29  54  1   
 58  30  55  1   
 59  30  56  1   
 60  30  57  1   
@<TRIPOS>SUBSTRUCTURE
  1 ****  12 GROUP 4 **** **** 0

# MOE 2024.06 (io_trps.svl 2023.06)
