@<TRIPOS>MOLECULE
NONAME
59 62 1 0 0 
SMALL
USER_CHARGES


@<TRIPOS>ATOM
  1 F        1.1200     0.7220     1.7870 F     1 <1>  -0.1900 
  2 C        2.1050     1.2480     1.0870 C.ar  1 <1>   0.1900 
  3 C        2.7920     0.5250     0.1100 C.ar  1 <1>   0.4100 
  4 C        2.4500     2.5490     1.3250 C.ar  1 <1>   0.1600 
  5 N        3.7540     1.1230    -0.5730 N.ar  1 <1>  -0.6200 
  6 N        2.5280    -0.8040    -0.2180 N.pl3 1 <1>  -0.8380 
  7 N        3.4170     3.1460     0.6530 N.ar  1 <1>  -0.6200 
  8 C        4.0090     2.3790    -0.2600 C.ar  1 <1>   0.7200 
  9 C        2.0460    -1.7990     0.7700 C.3   1 <1>   0.2090 
 10 C        3.2160    -1.4870    -1.3420 C.3   1 <1>   0.2090 
 11 N        5.0100     2.9260    -0.9900 N.pl3 1 <1>  -0.8690 
 12 C        2.6180    -3.1330     0.3070 C.3   1 <1>  -0.1600 
 13 C        2.8470    -2.9560    -1.1900 C.3   1 <1>  -0.1600 
 14 C        5.1040     4.3700    -1.2740 C.3   1 <1>   0.2090 
 15 C        6.0240     5.0340    -0.2370 C.3   1 <1>  -0.0800 
 16 C        5.8940     6.5650    -0.3210 C.3   1 <1>   0.3430 
 17 C        7.4890     4.5710    -0.3690 C.3   1 <1>  -0.1600 
 18 N        7.1540     7.2810     0.0880 N.4   1 <1>  -0.9590 
 19 C        8.3700     5.2310     0.7100 C.3   1 <1>  -0.1600 
 20 C        7.8350     6.5780     1.2110 C.3   1 <1>   0.3430 
 21 C        6.9160     8.7170     0.4300 C.3   1 <1>   0.3430 
 22 C        6.4910     9.5380    -0.7890 C.3   1 <1>  -0.0170 
 23 C        6.4150    10.9970    -0.3850 C.ar  1 <1>  -0.1440 
 24 C        5.2340    11.5270     0.1120 C.ar  1 <1>  -0.1500 
 25 C        7.5320    11.8120    -0.5000 C.ar  1 <1>  -0.1500 
 26 C        5.1720    12.8550     0.4970 C.ar  1 <1>  -0.1500 
 27 C        7.4690    13.1400    -0.1140 C.ar  1 <1>  -0.1500 
 28 C        6.2900    13.6620     0.3850 C.ar  1 <1>  -0.1500 
 29 H        1.9240     3.1100     2.0770 H     1 <1>   0.1500 
 30 H        0.9690    -1.8240     0.7440 H     1 <1>   0.0800 
 31 H        2.3810    -1.5580     1.7650 H     1 <1>   0.0800 
 32 H        4.2810    -1.3590    -1.2410 H     1 <1>   0.0800 
 33 H        2.8910    -1.0880    -2.2870 H     1 <1>   0.0800 
 34 H        5.2720     2.2950    -1.7490 H     1 <1>   0.4000 
 35 H        1.9560    -3.9510     0.5290 H     1 <1>   0.0800 
 36 H        3.5590    -3.2980     0.8030 H     1 <1>   0.0800 
 37 H        3.6170    -3.6020    -1.5700 H     1 <1>   0.0800 
 38 H        1.9330    -3.1410    -1.7260 H     1 <1>   0.0800 
 39 H        4.1170     4.8030    -1.2310 H     1 <1>   0.0800 
 40 H        5.4900     4.5130    -2.2690 H     1 <1>   0.0800 
 41 H        5.6640     4.7420     0.7350 H     1 <1>   0.0800 
 42 H        5.0750     6.8700     0.3120 H     1 <1>   0.0800 
 43 H        5.6480     6.8440    -1.3320 H     1 <1>   0.0800 
 44 H        7.8580     4.8300    -1.3460 H     1 <1>   0.0800 
 45 H        7.5530     3.4990    -0.2730 H     1 <1>   0.0800 
 46 H        7.8080     7.2380    -0.7050 H     1 <1>   0.4500 
 47 H        9.3690     5.3560     0.3290 H     1 <1>   0.0800 
 48 H        8.4420     4.5720     1.5580 H     1 <1>   0.0800 
 49 H        7.1290     6.4110     2.0090 H     1 <1>   0.0800 
 50 H        8.6500     7.1700     1.5960 H     1 <1>   0.0800 
 51 H        7.8240     9.1470     0.8220 H     1 <1>   0.0800 
 52 H        6.1600     8.7970     1.1940 H     1 <1>   0.0800 
 53 H        5.5280     9.2210    -1.1470 H     1 <1>   0.0800 
 54 H        7.2090     9.4280    -1.5820 H     1 <1>   0.0800 
 55 H        4.3500    10.9210     0.2040 H     1 <1>   0.1500 
 56 H        8.4590    11.4300    -0.8900 H     1 <1>   0.1500 
 57 H        4.2540    13.2650     0.8820 H     1 <1>   0.1500 
 58 H        8.3370    13.7710    -0.2050 H     1 <1>   0.1500 
 59 H        6.2410    14.6950     0.6840 H     1 <1>   0.1500 
@<TRIPOS>BOND
  1   1   2  1   
  2   2   3  ar  
  3   2   4  ar  
  4   3   5  ar  
  5   3   6  1   
  6   4   7  ar  
  7   4  29  1   
  8   5   8  ar  
  9   6   9  1   
 10   6  10  1   
 11   7   8  ar  
 12   8  11  1   
 13   9  12  1   
 14   9  30  1   
 15   9  31  1   
 16  10  13  1   
 17  10  32  1   
 18  10  33  1   
 19  11  14  1   
 20  11  34  1   
 21  12  13  1   
 22  12  35  1   
 23  12  36  1   
 24  13  37  1   
 25  13  38  1   
 26  14  15  1   
 27  14  39  1   
 28  14  40  1   
 29  15  16  1   
 30  15  17  1   
 31  15  41  1   
 32  16  18  1   
 33  16  42  1   
 34  16  43  1   
 35  17  19  1   
 36  17  44  1   
 37  17  45  1   
 38  18  20  1   
 39  18  21  1   
 40  18  46  1   
 41  19  20  1   
 42  19  47  1   
 43  19  48  1   
 44  20  49  1   
 45  20  50  1   
 46  21  22  1   
 47  21  51  1   
 48  21  52  1   
 49  22  23  1   
 50  22  53  1   
 51  22  54  1   
 52  23  24  ar  
 53  23  25  ar  
 54  24  26  ar  
 55  24  55  1   
 56  25  27  ar  
 57  25  56  1   
 58  26  28  ar  
 59  26  57  1   
 60  27  28  ar  
 61  27  58  1   
 62  28  59  1   
@<TRIPOS>SUBSTRUCTURE
  1 ****  15 GROUP 4 **** **** 0

# MOE 2024.06 (io_trps.svl 2023.06)
