@<TRIPOS>MOLECULE
NONAME
55 57 1 0 0 
SMALL
USER_CHARGES


@<TRIPOS>ATOM
  1 O       -4.1810     0.5940     1.9280 O.2   1 <1>  -0.5700 
  2 C       -3.3700     1.2650     1.3240 C.2   1 <1>   0.6900 
  3 N       -3.1560     1.1180    -0.0410 N.am  1 <1>  -0.4690 
  4 N       -2.6510     2.2030     1.9970 N.am  1 <1>  -0.4900 
  5 C       -2.2400     1.9300    -0.7010 C.2   1 <1>  -0.0410 
  6 C       -3.8940     0.0710    -0.7920 C.3   1 <1>   0.1400 
  7 C       -1.7400     3.0130     1.3940 C.2   1 <1>   0.6160 
  8 C       -1.5430     2.8590    -0.0080 C.2   1 <1>  -0.1360 
  9 C       -5.2840     0.5760    -1.1750 C.3   1 <1>  -0.0990 
 10 O       -1.1410     3.8260     2.0660 O.2   1 <1>  -0.5700 
 11 C       -6.0740    -0.5540    -1.7980 C.2   1 <1>   0.5690 
 12 O       -6.0360    -0.6470    -3.0020 O.2   1 <1>  -0.5700 
 13 N       -6.7830    -1.4410    -1.0280 N.am  1 <1>  -0.6600 
 14 C       -7.5130    -2.5860    -1.6580 C.3   1 <1>   0.1400 
 15 C       -6.9360    -1.3690     0.4550 C.3   1 <1>   0.1400 
 16 C       -9.0210    -2.3180    -1.7860 C.3   1 <1>   0.1400 
 17 C       -8.1220    -0.4860     0.8680 C.3   1 <1>  -0.1600 
 18 N       -9.6460    -1.9430    -0.4750 N.am  1 <1>  -0.6600 
 19 C       -9.3500    -0.5470    -0.0510 C.3   1 <1>   0.1400 
 20 C      -10.4270    -2.7560     0.3050 C.2   1 <1>   0.5690 
 21 O      -10.8450    -2.3870     1.3780 O.2   1 <1>  -0.5700 
 22 C      -10.7700    -4.1650    -0.1590 C.3   1 <1>  -0.0990 
 23 C      -11.7520    -4.8990     0.7650 C.3   1 <1>   0.0200 
 24 C      -12.0230    -6.3000     0.2390 C.2   1 <1>  -0.3320 
 25 N      -11.2630    -7.3910     0.4910 N.pl3 1 <1>   0.3140 
 26 C      -13.0400    -6.7090    -0.5480 C.2   1 <1>  -0.1500 
 27 N      -11.7560    -8.4820    -0.1200 N.2   1 <1>  -0.7070 
 28 C      -10.0590    -7.4750     1.3280 C.3   1 <1>   0.0160 
 29 C      -12.8200    -8.0670    -0.7360 C.2   1 <1>   0.1390 
 30 H       -2.8040     2.3030     2.9930 H     1 <1>   0.3700 
 31 H       -2.1160     1.7850    -1.7630 H     1 <1>   0.1500 
 32 H       -3.9770    -0.8110    -0.1800 H     1 <1>   0.0800 
 33 H       -3.3480    -0.1980    -1.6810 H     1 <1>   0.0800 
 34 H       -0.8240     3.5120    -0.4640 H     1 <1>   0.1500 
 35 H       -5.1920     1.3690    -1.8930 H     1 <1>   0.0800 
 36 H       -5.8000     0.9590    -0.3170 H     1 <1>   0.0800 
 37 H       -7.3570    -3.4750    -1.0750 H     1 <1>   0.0800 
 38 H       -7.1140    -2.7780    -2.6390 H     1 <1>   0.0800 
 39 H       -6.0340    -1.0040     0.9140 H     1 <1>   0.0800 
 40 H       -7.1000    -2.3630     0.8360 H     1 <1>   0.0800 
 41 H       -9.4920    -3.1900    -2.1980 H     1 <1>   0.0800 
 42 H       -9.1700    -1.5190    -2.4920 H     1 <1>   0.0800 
 43 H       -7.7960     0.5360     0.9320 H     1 <1>   0.0800 
 44 H       -8.4240    -0.7710     1.8600 H     1 <1>   0.0800 
 45 H       -9.1740     0.0610    -0.9210 H     1 <1>   0.0800 
 46 H      -10.2020    -0.1350     0.4640 H     1 <1>   0.0800 
 47 H       -9.8600    -4.7280    -0.2330 H     1 <1>   0.0800 
 48 H      -11.2160    -4.1060    -1.1350 H     1 <1>   0.0800 
 49 H      -12.6770    -4.3490     0.8010 H     1 <1>   0.0800 
 50 H      -11.3630    -4.9450     1.7680 H     1 <1>   0.0800 
 51 H      -13.8540    -6.1390    -0.9560 H     1 <1>   0.1500 
 52 H       -9.3060    -6.8210     0.9340 H     1 <1>   0.0800 
 53 H       -9.6980    -8.4870     1.3220 H     1 <1>   0.0800 
 54 H      -10.3090    -7.1900     2.3320 H     1 <1>   0.0800 
 55 H      -13.4530    -8.7120    -1.3230 H     1 <1>   0.1500 
@<TRIPOS>BOND
  1   1   2  2   
  2   2   3  am  
  3   2   4  am  
  4   3   5  1   
  5   3   6  1   
  6   4   7  am  
  7   4  30  1   
  8   5   8  2   
  9   5  31  1   
 10   6   9  1   
 11   6  32  1   
 12   6  33  1   
 13   7   8  1   
 14   7  10  2   
 15   8  34  1   
 16   9  11  1   
 17   9  35  1   
 18   9  36  1   
 19  11  12  2   
 20  11  13  am  
 21  13  14  1   
 22  13  15  1   
 23  14  16  1   
 24  14  37  1   
 25  14  38  1   
 26  15  17  1   
 27  15  39  1   
 28  15  40  1   
 29  16  18  1   
 30  16  41  1   
 31  16  42  1   
 32  17  19  1   
 33  17  43  1   
 34  17  44  1   
 35  18  19  1   
 36  18  20  am  
 37  19  45  1   
 38  19  46  1   
 39  20  21  2   
 40  20  22  1   
 41  22  23  1   
 42  22  47  1   
 43  22  48  1   
 44  23  24  1   
 45  23  49  1   
 46  23  50  1   
 47  24  25  1   
 48  24  26  2   
 49  25  27  1   
 50  25  28  1   
 51  26  29  1   
 52  26  51  1   
 53  27  29  2   
 54  28  52  1   
 55  28  53  1   
 56  28  54  1   
 57  29  55  1   
@<TRIPOS>SUBSTRUCTURE
  1 ****  15 GROUP 4 **** **** 0

# MOE 2024.06 (io_trps.svl 2023.06)
