@<TRIPOS>MOLECULE
NONAME
54 55 1 0 0 
SMALL
USER_CHARGES


@<TRIPOS>ATOM
  1 S        1.1750     1.6770    -1.3570 S.o2  1 <1>   1.3330 
  2 O        1.8550     0.4620    -1.7420 O.2   1 <1>  -0.6500 
  3 O        0.6280     2.5300    -2.3890 O.2   1 <1>  -0.6500 
  4 N        2.2860     2.5960    -0.4640 N.am  1 <1>  -0.8490 
  5 C       -0.1550     1.2370    -0.2220 C.3   1 <1>  -0.0550 
  6 C        3.1760     3.3760    -1.3270 C.3   1 <1>   0.1160 
  7 C        3.0870     1.8110     0.4800 C.3   1 <1>   0.1160 
  8 C       -0.9660     2.3420     0.5040 C.3   1 <1>  -0.0800 
  9 C       -1.4720     3.4790    -0.3930 C.3   1 <1>   0.2000 
 10 C       -0.1900     3.0490     1.6210 C.3   1 <1>   0.1400 
 11 O       -2.6810     3.9120     0.1300 O.3   1 <1>  -0.6800 
 12 C       -0.4560     4.6130    -0.2310 C.3   1 <1>   0.1400 
 13 N        0.1830     4.3780     1.0900 N.am  1 <1>  -0.6600 
 14 C        1.2570     5.0660     1.5830 C.2   1 <1>   0.5690 
 15 O        1.8540     4.6790     2.5620 O.2   1 <1>  -0.5700 
 16 C        1.7170     6.3380     0.8860 C.3   1 <1>  -0.0990 
 17 C        2.6870     7.1820     1.7270 C.3   1 <1>  -0.0170 
 18 C        3.0760     8.4500     0.9830 C.ar  1 <1>  -0.1440 
 19 C        4.2340     8.4940     0.2230 C.ar  1 <1>  -0.1500 
 20 C        2.2720     9.5750     1.0590 C.ar  1 <1>  -0.1500 
 21 C        4.5930     9.6550    -0.4600 C.ar  1 <1>   0.0820 
 22 C        2.6200    10.7310     0.3820 C.ar  1 <1>  -0.1500 
 23 O        5.7210     9.7480    -1.2140 O.3   1 <1>  -0.3620 
 24 C        3.7760    10.7800    -0.3790 C.ar  1 <1>  -0.1440 
 25 C        6.6560     8.6960    -1.2820 C.3   1 <1>   0.0400 
 26 C        4.1450    12.0600    -1.1150 C.3   1 <1>  -0.0970 
 27 H       -0.8600     0.6560    -0.7850 H     1 <1>   0.0800 
 28 H        0.2430     0.5770     0.5230 H     1 <1>   0.0800 
 29 H        3.8450     3.9720    -0.7290 H     1 <1>   0.0800 
 30 H        2.6000     4.0390    -1.9500 H     1 <1>   0.0800 
 31 H        3.7520     2.7210    -1.9590 H     1 <1>   0.0800 
 32 H        3.6830     2.4690     1.0900 H     1 <1>   0.0800 
 33 H        3.7370     1.1330    -0.0480 H     1 <1>   0.0800 
 34 H        2.4490     1.2400     1.1310 H     1 <1>   0.0800 
 35 H       -1.8070     1.8370     0.9500 H     1 <1>   0.0800 
 36 H       -1.6360     3.1950    -1.4190 H     1 <1>   0.0800 
 37 H        0.6840     2.4970     1.9220 H     1 <1>   0.0800 
 38 H       -0.8210     3.1900     2.4820 H     1 <1>   0.0800 
 39 H       -2.5230     4.3190     1.0060 H     1 <1>   0.4000 
 40 H       -0.9330     5.5760    -0.2760 H     1 <1>   0.0800 
 41 H        0.2930     4.5560    -1.0000 H     1 <1>   0.0800 
 42 H        2.1950     6.0650    -0.0350 H     1 <1>   0.0800 
 43 H        0.8560     6.9360     0.6560 H     1 <1>   0.0800 
 44 H        3.5680     6.6060     1.9530 H     1 <1>   0.0800 
 45 H        2.2230     7.4400     2.6630 H     1 <1>   0.0800 
 46 H        4.8470     7.6160     0.1730 H     1 <1>   0.1500 
 47 H        1.3710     9.5580     1.6460 H     1 <1>   0.1500 
 48 H        1.9830    11.5940     0.4540 H     1 <1>   0.1500 
 49 H        7.4740     9.0160    -1.9020 H     1 <1>   0.0800 
 50 H        6.1810     7.8360    -1.7190 H     1 <1>   0.0800 
 51 H        7.0110     8.4800    -0.2900 H     1 <1>   0.0800 
 52 H        3.4120    12.8290    -0.9520 H     1 <1>   0.0800 
 53 H        4.2120    11.8660    -2.1700 H     1 <1>   0.0800 
 54 H        5.0990    12.4150    -0.7690 H     1 <1>   0.0800 
@<TRIPOS>BOND
  1   1   2  2   
  2   1   3  2   
  3   1   4  am  
  4   1   5  1   
  5   4   6  1   
  6   4   7  1   
  7   5   8  1   
  8   5  27  1   
  9   5  28  1   
 10   6  29  1   
 11   6  30  1   
 12   6  31  1   
 13   7  32  1   
 14   7  33  1   
 15   7  34  1   
 16   8   9  1   
 17   8  10  1   
 18   8  35  1   
 19   9  11  1   
 20   9  12  1   
 21   9  36  1   
 22  10  13  1   
 23  10  37  1   
 24  10  38  1   
 25  11  39  1   
 26  12  13  1   
 27  12  40  1   
 28  12  41  1   
 29  13  14  am  
 30  14  15  2   
 31  14  16  1   
 32  16  17  1   
 33  16  42  1   
 34  16  43  1   
 35  17  18  1   
 36  17  44  1   
 37  17  45  1   
 38  18  19  ar  
 39  18  20  ar  
 40  19  21  ar  
 41  19  46  1   
 42  20  22  ar  
 43  20  47  1   
 44  21  23  1   
 45  21  24  ar  
 46  22  24  ar  
 47  22  48  1   
 48  23  25  1   
 49  24  26  1   
 50  25  49  1   
 51  25  50  1   
 52  25  51  1   
 53  26  52  1   
 54  26  53  1   
 55  26  54  1   
@<TRIPOS>SUBSTRUCTURE
  1 ****  16 GROUP 4 **** **** 0

# MOE 2024.06 (io_trps.svl 2023.06)
