@<TRIPOS>MOLECULE
NONAME
37 38 1 0 0 
SMALL
USER_CHARGES


@<TRIPOS>ATOM
  1 S        0.3340     0.3850     0.1440 S.3   1 <1>  -0.0800 
  2 C        1.9420    -0.2690    -0.1380 C.2   1 <1>  -0.1400 
  3 C        0.2680    -0.3460     1.7370 C.2   1 <1>  -0.1400 
  4 C        2.3480    -0.9960     0.9200 C.2   1 <1>  -0.1500 
  5 C        2.6160     0.0850    -1.4480 C.3   1 <1>   0.3890 
  6 C        1.3960    -1.0350     1.9880 C.2   1 <1>  -0.1500 
  7 C       -0.9930    -0.1300     2.5490 C.3   1 <1>  -0.0600 
  8 N        3.2390     1.4380    -1.3890 N.pl3 1 <1>  -0.8690 
  9 C        3.3880     2.3720    -0.4390 C.ar  1 <1>   0.7710 
 10 N        4.0750     3.4350    -0.8020 N.ar  1 <1>  -0.6200 
 11 N        2.8740     2.2290     0.7950 N.ar  1 <1>  -0.1790 
 12 C        4.2710     4.3920     0.0890 C.ar  1 <1>   0.4100 
 13 C        3.0340     3.1850     1.7370 C.ar  1 <1>   0.2110 
 14 N        4.9990     5.4780    -0.2960 N.pl3 1 <1>  -0.8380 
 15 C        3.7400     4.2880     1.3930 C.ar  1 <1>  -0.1500 
 16 C        5.6810     6.4120     0.6410 C.3   1 <1>   0.2090 
 17 C        5.3170     5.7450    -1.7350 C.3   1 <1>   0.1290 
 18 C        4.8120     7.6500     0.8430 C.3   1 <1>  -0.2400 
 19 H        3.2880    -1.5180     1.0090 H     1 <1>   0.1500 
 20 H        1.8950     0.0500    -2.2480 H     1 <1>   0.0800 
 21 H        3.3830    -0.6420    -1.6600 H     1 <1>   0.0800 
 22 H        1.6010    -1.5890     2.8890 H     1 <1>   0.1500 
 23 H       -1.1520     0.9190     2.7220 H     1 <1>   0.0800 
 24 H       -0.9160    -0.6310     3.4970 H     1 <1>   0.0800 
 25 H       -1.8410    -0.5260     2.0200 H     1 <1>   0.0800 
 26 H        3.6790     1.7100    -2.2740 H     1 <1>   0.4000 
 27 H        2.3390     1.3720     0.9550 H     1 <1>   0.4570 
 28 H        2.5980     3.0430     2.7130 H     1 <1>   0.1500 
 29 H        3.8920     5.0870     2.0920 H     1 <1>   0.1500 
 30 H        6.6370     6.6990     0.2340 H     1 <1>   0.0800 
 31 H        5.8680     5.9280     1.5840 H     1 <1>   0.0800 
 32 H        4.5500     5.3470    -2.3760 H     1 <1>   0.0800 
 33 H        6.2570     5.2870    -1.9890 H     1 <1>   0.0800 
 34 H        5.3820     6.8040    -1.9150 H     1 <1>   0.0800 
 35 H        4.6790     8.1690    -0.0880 H     1 <1>   0.0800 
 36 H        5.2900     8.3170     1.5360 H     1 <1>   0.0800 
 37 H        3.8500     7.3780     1.2360 H     1 <1>   0.0800 
@<TRIPOS>BOND
  1   1   2  1   
  2   1   3  1   
  3   2   4  2   
  4   2   5  1   
  5   3   6  2   
  6   3   7  1   
  7   4   6  1   
  8   4  19  1   
  9   5   8  1   
 10   5  20  1   
 11   5  21  1   
 12   6  22  1   
 13   7  23  1   
 14   7  24  1   
 15   7  25  1   
 16   8   9  1   
 17   8  26  1   
 18   9  10  ar  
 19   9  11  ar  
 20  10  12  ar  
 21  11  13  ar  
 22  11  27  1   
 23  12  14  1   
 24  12  15  ar  
 25  13  15  ar  
 26  13  28  1   
 27  14  16  1   
 28  14  17  1   
 29  15  29  1   
 30  16  18  1   
 31  16  30  1   
 32  16  31  1   
 33  17  32  1   
 34  17  33  1   
 35  17  34  1   
 36  18  35  1   
 37  18  36  1   
 38  18  37  1   
@<TRIPOS>SUBSTRUCTURE
  1 ****  11 GROUP 4 **** **** 0

# MOE 2024.06 (io_trps.svl 2023.06)
