@<TRIPOS>MOLECULE
NONAME
43 45 1 0 0 
SMALL
USER_CHARGES


@<TRIPOS>ATOM
  1 F        0.5650     4.9200    -1.3630 F     1 <1>  -0.3400 
  2 C        0.6410     3.5980    -1.2240 C.3   1 <1>   0.9600 
  3 F        0.0840     3.1210    -2.3380 F     1 <1>  -0.3400 
  4 O        2.0300     3.2920    -1.2920 O.3   1 <1>  -0.3630 
  5 C       -0.1300     3.1430     0.0600 C.3   1 <1>   0.6000 
  6 C        2.4760     2.0530    -0.9910 C.ar  1 <1>   0.0830 
  7 F       -0.2380     1.8140     0.1500 F     1 <1>  -0.3400 
  8 F       -1.3980     3.5670     0.0550 F     1 <1>  -0.3400 
  9 C        3.2220     1.8600     0.1760 C.ar  1 <1>   0.0860 
 10 C        2.2160     0.9980    -1.8560 C.ar  1 <1>  -0.1500 
 11 C        3.4950     2.9570     1.0790 C.2   1 <1>   0.5440 
 12 C        3.6750     0.5690     0.4510 C.ar  1 <1>  -0.1500 
 13 C        2.6800    -0.2700    -1.5610 C.ar  1 <1>  -0.1500 
 14 O        2.5520     3.5590     1.5650 O.2   1 <1>  -0.5700 
 15 N        4.7770     3.3400     1.4050 N.am  1 <1>  -0.6600 
 16 C        3.4100    -0.4840    -0.4040 C.ar  1 <1>  -0.1500 
 17 C        5.0320     4.4340     2.3980 C.3   1 <1>   0.3210 
 18 C        5.9970     2.8770     0.6800 C.3   1 <1>   0.0600 
 19 C        5.5260     5.7070     1.7220 C.2   1 <1>   0.1080 
 20 N        6.6690     6.2820     1.9870 N.2   1 <1>  -0.7070 
 21 C        4.8280     6.4030     0.7420 C.2   1 <1>  -0.1810 
 22 N        6.7100     7.3660     1.1760 N.pl3 1 <1>   0.3000 
 23 C        5.5970     7.4380     0.4240 C.2   1 <1>  -0.3320 
 24 C        3.5530     6.3710    -0.0500 C.3   1 <1>   0.0210 
 25 C        5.0150     8.3290    -0.6360 C.3   1 <1>   0.0200 
 26 C        3.6120     7.7040    -0.8390 C.3   1 <1>  -0.1600 
 27 H        0.3220     3.5000     0.9630 H     1 <1>   0.0800 
 28 H        1.6590     1.1630    -2.7610 H     1 <1>   0.1500 
 29 H        4.2390     0.3960     1.3510 H     1 <1>   0.1500 
 30 H        2.4740    -1.0900    -2.2290 H     1 <1>   0.1500 
 31 H        3.7680    -1.4730    -0.1720 H     1 <1>   0.1500 
 32 H        5.7760     4.1030     3.1000 H     1 <1>   0.0800 
 33 H        4.1400     4.6630     2.9530 H     1 <1>   0.0800 
 34 H        5.7430     2.2690    -0.1690 H     1 <1>   0.0800 
 35 H        6.6200     2.3070     1.3480 H     1 <1>   0.0800 
 36 H        6.5580     3.7260     0.3250 H     1 <1>   0.0800 
 37 H        7.5000     8.0220     1.1650 H     1 <1>   0.2700 
 38 H        2.6950     6.3240     0.5970 H     1 <1>   0.0800 
 39 H        3.5610     5.5260    -0.7150 H     1 <1>   0.0800 
 40 H        5.6000     8.2690    -1.5370 H     1 <1>   0.0800 
 41 H        4.9470     9.3480    -0.3000 H     1 <1>   0.0800 
 42 H        2.8680     8.3740    -0.4460 H     1 <1>   0.0800 
 43 H        3.4100     7.5380    -1.8820 H     1 <1>   0.0800 
@<TRIPOS>BOND
  1   1   2  1   
  2   2   3  1   
  3   2   4  1   
  4   2   5  1   
  5   4   6  1   
  6   5   7  1   
  7   5   8  1   
  8   5  27  1   
  9   6   9  ar  
 10   6  10  ar  
 11   9  11  1   
 12   9  12  ar  
 13  10  13  ar  
 14  10  28  1   
 15  11  14  2   
 16  11  15  am  
 17  12  16  ar  
 18  12  29  1   
 19  13  16  ar  
 20  13  30  1   
 21  15  17  1   
 22  15  18  1   
 23  16  31  1   
 24  17  19  1   
 25  17  32  1   
 26  17  33  1   
 27  18  34  1   
 28  18  35  1   
 29  18  36  1   
 30  19  20  2   
 31  19  21  1   
 32  20  22  1   
 33  21  23  2   
 34  21  24  1   
 35  22  23  1   
 36  22  37  1   
 37  23  25  1   
 38  24  26  1   
 39  24  38  1   
 40  24  39  1   
 41  25  26  1   
 42  25  40  1   
 43  25  41  1   
 44  26  42  1   
 45  26  43  1   
@<TRIPOS>SUBSTRUCTURE
  1 ****  11 GROUP 4 **** **** 0

# MOE 2024.06 (io_trps.svl 2023.06)
