@<TRIPOS>MOLECULE
NONAME
49 52 1 0 0 
SMALL
USER_CHARGES


@<TRIPOS>ATOM
  1 S        0.0300    -0.2970    -1.1380 S.o2  1 <1>   1.5010 
  2 O       -0.1550     0.3700    -2.4090 O.2   1 <1>  -0.6500 
  3 O        0.3810    -1.7010    -1.1190 O.2   1 <1>  -0.6500 
  4 N       -1.3860    -0.0570    -0.2280 N.am  1 <1>  -0.8490 
  5 C        1.2440     0.6270    -0.1900 C.2   1 <1>  -0.0630 
  6 C       -2.6450    -0.1210    -0.9770 C.3   1 <1>   0.1960 
  7 C       -1.4630    -0.7450     1.0680 C.3   1 <1>   0.1960 
  8 C        1.0160     1.8870     0.3460 C.2   1 <1>   0.1390 
  9 C        2.5240     0.3530     0.1710 C.2   1 <1>  -0.3020 
 10 C       -3.0960    -1.5670    -1.1940 C.3   1 <1>  -0.1600 
 11 C       -1.9440    -2.1970     0.9480 C.3   1 <1>  -0.1600 
 12 N        2.0440     2.3560     0.9880 N.2   1 <1>  -0.7070 
 13 N        2.9800     1.4040     0.8750 N.pl3 1 <1>   0.3140 
 14 C       -3.2470    -2.3140     0.1440 C.3   1 <1>   0.4240 
 15 C        4.3130     1.5650     1.4670 C.3   1 <1>   0.0160 
 16 O       -4.1790    -1.5850     0.9150 O.3   1 <1>  -0.5600 
 17 C       -3.6860    -3.7970    -0.0310 C.ar  1 <1>  -0.1430 
 18 C       -5.5300    -1.8490     0.7210 C.3   1 <1>   0.1200 
 19 C       -2.8960    -4.7300    -0.7140 C.ar  1 <1>   0.0820 
 20 C       -4.8990    -4.2330     0.5020 C.ar  1 <1>  -0.1430 
 21 C       -5.8100    -3.2590     1.2180 C.3   1 <1>  -0.0170 
 22 O       -1.7280    -4.3150    -1.2650 O.3   1 <1>  -0.3630 
 23 C       -3.3090    -6.0550    -0.8300 C.ar  1 <1>  -0.1500 
 24 C       -5.3000    -5.5530     0.3840 C.ar  1 <1>  -0.1500 
 25 C       -0.7550    -5.1980    -1.7760 C.3   1 <1>   0.0400 
 26 C       -4.5060    -6.4660    -0.2790 C.ar  1 <1>  -0.1500 
 27 H       -2.5430     0.3790    -1.9260 H     1 <1>   0.0800 
 28 H       -3.4020     0.4060    -0.4210 H     1 <1>   0.0800 
 29 H       -2.1550    -0.2070     1.6950 H     1 <1>   0.0800 
 30 H       -0.5030    -0.7200     1.5570 H     1 <1>   0.0800 
 31 H        0.0850     2.4210     0.2430 H     1 <1>   0.1500 
 32 H        3.1100    -0.5220    -0.0410 H     1 <1>   0.1500 
 33 H       -2.3730    -2.0510    -1.8210 H     1 <1>   0.0800 
 34 H       -4.0260    -1.5850    -1.7280 H     1 <1>   0.0800 
 35 H       -2.1080    -2.6040     1.9280 H     1 <1>   0.0800 
 36 H       -1.1640    -2.7820     0.5050 H     1 <1>   0.0800 
 37 H        4.8730     0.6570     1.3520 H     1 <1>   0.0800 
 38 H        4.2050     1.8000     2.5090 H     1 <1>   0.0800 
 39 H        4.8180     2.3720     0.9690 H     1 <1>   0.0800 
 40 H       -5.7690    -1.7480    -0.3230 H     1 <1>   0.0800 
 41 H       -6.0920    -1.1290     1.2880 H     1 <1>   0.0800 
 42 H       -6.8400    -3.5010     1.0280 H     1 <1>   0.0800 
 43 H       -5.6380    -3.3090     2.2780 H     1 <1>   0.0800 
 44 H       -2.7150    -6.7810    -1.3490 H     1 <1>   0.1500 
 45 H       -6.2350    -5.8770     0.8080 H     1 <1>   0.1500 
 46 H        0.1060    -4.6140    -2.0500 H     1 <1>   0.0800 
 47 H       -1.1530    -5.6930    -2.6430 H     1 <1>   0.0800 
 48 H       -0.4890    -5.9040    -1.0100 H     1 <1>   0.0800 
 49 H       -4.8210    -7.4910    -0.3690 H     1 <1>   0.1500 
@<TRIPOS>BOND
  1   1   2  2   
  2   1   3  2   
  3   1   4  am  
  4   1   5  1   
  5   4   6  1   
  6   4   7  1   
  7   5   8  1   
  8   5   9  2   
  9   6  10  1   
 10   6  27  1   
 11   6  28  1   
 12   7  11  1   
 13   7  29  1   
 14   7  30  1   
 15   8  12  2   
 16   8  31  1   
 17   9  13  1   
 18   9  32  1   
 19  10  14  1   
 20  10  33  1   
 21  10  34  1   
 22  11  14  1   
 23  11  35  1   
 24  11  36  1   
 25  12  13  1   
 26  13  15  1   
 27  14  16  1   
 28  14  17  1   
 29  15  37  1   
 30  15  38  1   
 31  15  39  1   
 32  16  18  1   
 33  17  19  ar  
 34  17  20  ar  
 35  18  21  1   
 36  18  40  1   
 37  18  41  1   
 38  19  22  1   
 39  19  23  ar  
 40  20  21  1   
 41  20  24  ar  
 42  21  42  1   
 43  21  43  1   
 44  22  25  1   
 45  23  26  ar  
 46  23  44  1   
 47  24  26  ar  
 48  24  45  1   
 49  25  46  1   
 50  25  47  1   
 51  25  48  1   
 52  26  49  1   
@<TRIPOS>SUBSTRUCTURE
  1 ****  11 GROUP 4 **** **** 0

# MOE 2024.06 (io_trps.svl 2023.06)
