@<TRIPOS>MOLECULE
NONAME
41 44 1 0 0 
SMALL
USER_CHARGES


@<TRIPOS>ATOM
  1 S       -1.5240     1.3110     1.1420 S.3   1 <1>  -0.0800 
  2 C       -0.5580     2.4230     0.1970 C.2   1 <1>  -0.1400 
  3 C       -0.3100     1.3050     2.4120 C.2   1 <1>  -0.1100 
  4 C        0.5900     2.7370     0.8120 C.2   1 <1>  -0.1810 
  5 C       -1.0000     2.9460    -1.1430 C.3   1 <1>   0.0200 
  6 C        0.7310     2.0990     2.0900 C.2   1 <1>  -0.1500 
  7 C        1.6000     3.6840     0.1590 C.3   1 <1>   0.4610 
  8 C       -0.1520     4.1910    -1.4470 C.3   1 <1>   0.1200 
  9 O        1.2110     3.9600    -1.1750 O.3   1 <1>  -0.5600 
 10 C        1.6990     5.0050     0.9350 C.3   1 <1>  -0.1600 
 11 C        2.9770     3.0170     0.0670 C.3   1 <1>  -0.1600 
 12 C        2.7630     5.9290     0.3400 C.3   1 <1>   0.1400 
 13 C        4.0280     3.9680    -0.5080 C.3   1 <1>   0.1400 
 14 N        4.0680     5.2120     0.3150 N.am  1 <1>  -0.6600 
 15 C        5.2350     5.6210     0.9240 C.2   1 <1>   0.5690 
 16 O        6.2370     4.9440     0.8740 O.2   1 <1>  -0.5700 
 17 C        5.3350     6.9150     1.7250 C.3   1 <1>   0.0810 
 18 C        5.7090     8.1200     0.8730 C.2   1 <1>  -0.1400 
 19 S        4.4690     8.8590    -0.1310 S.3   1 <1>  -0.0800 
 20 C        6.8760     8.7770     0.7330 C.2   1 <1>  -0.1500 
 21 C        5.5990    10.0630    -0.7240 C.2   1 <1>  -0.1100 
 22 C        6.8140     9.8820    -0.1750 C.2   1 <1>  -0.1500 
 23 H       -0.5060     0.6990     3.2780 H     1 <1>   0.1500 
 24 H       -2.0420     3.2110    -1.1190 H     1 <1>   0.0800 
 25 H       -0.8480     2.1970    -1.8980 H     1 <1>   0.0800 
 26 H        1.5990     2.2610     2.7040 H     1 <1>   0.1500 
 27 H       -0.4820     5.0240    -0.8530 H     1 <1>   0.0800 
 28 H       -0.2380     4.4540    -2.4870 H     1 <1>   0.0800 
 29 H        1.9620     4.7950     1.9560 H     1 <1>   0.0800 
 30 H        0.7460     5.4980     0.9500 H     1 <1>   0.0800 
 31 H        2.9030     2.1390    -0.5470 H     1 <1>   0.0800 
 32 H        3.3010     2.7070     1.0420 H     1 <1>   0.0800 
 33 H        2.8150     6.8310     0.9180 H     1 <1>   0.0800 
 34 H        2.4930     6.1980    -0.6680 H     1 <1>   0.0800 
 35 H        3.7770     4.2260    -1.5230 H     1 <1>   0.0800 
 36 H        4.9870     3.4800    -0.5200 H     1 <1>   0.0800 
 37 H        6.1070     6.7760     2.4590 H     1 <1>   0.0800 
 38 H        4.4300     7.1040     2.2660 H     1 <1>   0.0800 
 39 H        7.7960     8.5290     1.2330 H     1 <1>   0.1500 
 40 H        5.2300    10.7850    -1.4290 H     1 <1>   0.1500 
 41 H        7.6850    10.4830    -0.3720 H     1 <1>   0.1500 
@<TRIPOS>BOND
  1   1   2  1   
  2   1   3  1   
  3   2   4  2   
  4   2   5  1   
  5   3   6  2   
  6   3  23  1   
  7   4   6  1   
  8   4   7  1   
  9   5   8  1   
 10   5  24  1   
 11   5  25  1   
 12   6  26  1   
 13   7   9  1   
 14   7  10  1   
 15   7  11  1   
 16   8   9  1   
 17   8  27  1   
 18   8  28  1   
 19  10  12  1   
 20  10  29  1   
 21  10  30  1   
 22  11  13  1   
 23  11  31  1   
 24  11  32  1   
 25  12  14  1   
 26  12  33  1   
 27  12  34  1   
 28  13  14  1   
 29  13  35  1   
 30  13  36  1   
 31  14  15  am  
 32  15  16  2   
 33  15  17  1   
 34  17  18  1   
 35  17  37  1   
 36  17  38  1   
 37  18  19  1   
 38  18  20  2   
 39  19  21  1   
 40  20  22  1   
 41  20  39  1   
 42  21  22  2   
 43  21  40  1   
 44  22  41  1   
@<TRIPOS>SUBSTRUCTURE
  1 ****  12 GROUP 4 **** **** 0

# MOE 2024.06 (io_trps.svl 2023.06)
