@<TRIPOS>MOLECULE
NONAME
46 48 1 0 0 
SMALL
USER_CHARGES


@<TRIPOS>ATOM
  1 S        0.4530     0.1720    -0.5050 S.o2  1 <1>   1.3330 
  2 O        0.0910     0.0770    -1.9010 O.2   1 <1>  -0.6500 
  3 O        1.8500     0.2470    -0.1390 O.2   1 <1>  -0.6500 
  4 N       -0.2250    -1.1540     0.3100 N.am  1 <1>  -0.8490 
  5 C       -0.4240     1.5700     0.1890 C.3   1 <1>  -0.0550 
  6 C        0.3380    -1.3660     1.6480 C.3   1 <1>   0.1160 
  7 C       -0.1330    -2.3900    -0.4720 C.3   1 <1>   0.1160 
  8 C       -0.0390     2.9100    -0.4690 C.3   1 <1>  -0.0800 
  9 C       -0.8900     4.1000    -0.0300 C.3   1 <1>   0.2000 
 10 C        1.4110     3.3510    -0.1940 C.3   1 <1>   0.1100 
 11 O       -1.1020     4.0250     1.3350 O.3   1 <1>  -0.6800 
 12 C        0.0550     5.2690    -0.2670 C.3   1 <1>   0.1100 
 13 N        1.3490     4.7630     0.2150 N.3   1 <1>  -0.8100 
 14 C        2.4930     5.5470    -0.2900 C.3   1 <1>   0.2900 
 15 C        2.5350     6.9420     0.3140 C.2   1 <1>  -0.0400 
 16 O        3.2790     7.8530    -0.2800 O.3   1 <1>  -0.2800 
 17 C        1.9350     7.4700     1.4020 C.2   1 <1>  -0.1500 
 18 C        3.1840     8.9950     0.3940 C.2   1 <1>   0.1410 
 19 C        2.3540     8.8020     1.4540 C.2   1 <1>  -0.1500 
 20 C        3.8990    10.1770    -0.0400 C.2   1 <1>   0.2880 
 21 N        4.6600    10.2590    -1.1070 N.2   1 <1>  -0.7070 
 22 C        3.8700    11.4060     0.6310 C.2   1 <1>  -0.1500 
 23 N        5.1170    11.5210    -1.1260 N.pl3 1 <1>   0.3000 
 24 C        4.6540    12.2360    -0.0850 C.2   1 <1>  -0.3020 
 25 H       -1.4770     1.4150     0.0560 H     1 <1>   0.0800 
 26 H       -0.2340     1.6230     1.2430 H     1 <1>   0.0800 
 27 H       -0.1870    -2.1630     2.1470 H     1 <1>   0.0800 
 28 H        0.2390    -0.4730     2.2400 H     1 <1>   0.0800 
 29 H        1.3830    -1.6220     1.5810 H     1 <1>   0.0800 
 30 H       -0.5880    -3.2060     0.0640 H     1 <1>   0.0800 
 31 H        0.8980    -2.6290    -0.6750 H     1 <1>   0.0800 
 32 H       -0.6520    -2.2730    -1.4090 H     1 <1>   0.0800 
 33 H       -0.1500     2.8070    -1.5350 H     1 <1>   0.0800 
 34 H       -1.8370     4.1820    -0.5360 H     1 <1>   0.0800 
 35 H        2.0040     3.2250    -1.0860 H     1 <1>   0.0800 
 36 H        1.8570     2.7770     0.6010 H     1 <1>   0.0800 
 37 H       -0.2340     4.2270     1.7490 H     1 <1>   0.4000 
 38 H       -0.2570     6.1520     0.2630 H     1 <1>   0.0800 
 39 H        0.1070     5.4840    -1.3210 H     1 <1>   0.0800 
 40 H        3.4120     5.0460    -0.0410 H     1 <1>   0.0800 
 41 H        2.4360     5.6280    -1.3620 H     1 <1>   0.0800 
 42 H        1.2730     6.9830     2.0960 H     1 <1>   0.1500 
 43 H        2.0580     9.5130     2.2030 H     1 <1>   0.1500 
 44 H        3.3240    11.6110     1.5330 H     1 <1>   0.1500 
 45 H        5.7450    11.8620    -1.8650 H     1 <1>   0.2700 
 46 H        4.9040    13.2690     0.0810 H     1 <1>   0.1500 
@<TRIPOS>BOND
  1   1   2  2   
  2   1   3  2   
  3   1   4  am  
  4   1   5  1   
  5   4   6  1   
  6   4   7  1   
  7   5   8  1   
  8   5  25  1   
  9   5  26  1   
 10   6  27  1   
 11   6  28  1   
 12   6  29  1   
 13   7  30  1   
 14   7  31  1   
 15   7  32  1   
 16   8   9  1   
 17   8  10  1   
 18   8  33  1   
 19   9  11  1   
 20   9  12  1   
 21   9  34  1   
 22  10  13  1   
 23  10  35  1   
 24  10  36  1   
 25  11  37  1   
 26  12  13  1   
 27  12  38  1   
 28  12  39  1   
 29  13  14  1   
 30  14  15  1   
 31  14  40  1   
 32  14  41  1   
 33  15  16  1   
 34  15  17  2   
 35  16  18  1   
 36  17  19  1   
 37  17  42  1   
 38  18  19  2   
 39  18  20  1   
 40  19  43  1   
 41  20  21  2   
 42  20  22  1   
 43  21  23  1   
 44  22  24  2   
 45  22  44  1   
 46  23  24  1   
 47  23  45  1   
 48  24  46  1   
@<TRIPOS>SUBSTRUCTURE
  1 ****  13 GROUP 4 **** **** 0

# MOE 2024.06 (io_trps.svl 2023.06)
