@<TRIPOS>MOLECULE
NONAME
53 56 1 0 0 
SMALL
USER_CHARGES


@<TRIPOS>ATOM
  1 O       -1.7620     3.4870    -1.8750 O.co2 1 <1>  -0.9000 
  2 C       -1.8470     2.7730    -0.8720 C.2   1 <1>   0.9060 
  3 O       -2.8000     2.0160    -0.6630 O.co2 1 <1>  -0.9000 
  4 C       -0.7450     2.8420     0.1640 C.3   1 <1>  -0.1060 
  5 C       -1.4200     2.9950     1.5420 C.3   1 <1>   0.2000 
  6 C       -0.0110     4.1580    -0.1090 C.3   1 <1>   0.3430 
  7 C        0.1310     1.5510     0.0310 C.3   1 <1>  -0.0170 
  8 O       -1.9290     1.7770     1.9330 O.3   1 <1>  -0.6800 
  9 C       -0.4950     3.5290     2.6500 C.3   1 <1>  -0.1600 
 10 N        0.9920     4.5350     0.9490 N.4   1 <1>  -0.9590 
 11 C        1.4240     1.7080    -0.7660 C.ar  1 <1>  -0.1440 
 12 C        0.9490     3.7030     2.1820 C.3   1 <1>   0.3430 
 13 C        2.3480     4.6110     0.3470 C.3   1 <1>   0.5240 
 14 C        1.3950     2.1390    -2.0840 C.ar  1 <1>  -0.1500 
 15 C        2.6460     1.4120    -0.1770 C.ar  1 <1>  -0.1500 
 16 C        2.4580     5.9550    -0.3490 C.2   1 <1>   0.0460 
 17 C        2.5730     2.3140    -2.7900 C.ar  1 <1>  -0.1500 
 18 C        3.8240     1.5850    -0.8830 C.ar  1 <1>  -0.1500 
 19 N        2.1000     7.0900     0.2850 N.2   1 <1>  -0.5650 
 20 C        2.8580     6.2420    -1.5930 C.2   1 <1>  -0.0100 
 21 C        3.7890     2.0430    -2.1880 C.ar  1 <1>  -0.1500 
 22 C        2.3080     8.0180    -0.6040 C.2   1 <1>   0.4250 
 23 O        2.7660     7.5300    -1.7450 O.3   1 <1>  -0.2800 
 24 C        2.0890     9.4420    -0.4570 C.ar  1 <1>   0.0530 
 25 C        2.3000    10.3320    -1.5130 C.ar  1 <1>  -0.1500 
 26 C        1.6560     9.9830     0.7560 C.ar  1 <1>  -0.1500 
 27 C        2.0890    11.6910    -1.3660 C.ar  1 <1>  -0.1500 
 28 C        1.4420    11.3410     0.9090 C.ar  1 <1>  -0.1500 
 29 C        1.6590    12.1980    -0.1540 C.ar  1 <1>  -0.1500 
 30 H       -2.2650     3.6610     1.4510 H     1 <1>   0.0800 
 31 H       -0.7550     4.9360    -0.1730 H     1 <1>   0.0800 
 32 H        0.4550     4.1130    -1.0790 H     1 <1>   0.0800 
 33 H        0.3780     1.1760     1.0070 H     1 <1>   0.0800 
 34 H       -0.4530     0.7710    -0.4300 H     1 <1>   0.0800 
 35 H       -2.5210     1.4770     1.1880 H     1 <1>   0.4000 
 36 H       -0.8640     4.4830     2.9770 H     1 <1>   0.0800 
 37 H       -0.5130     2.8700     3.5010 H     1 <1>   0.0800 
 38 H        0.7980     5.5200     1.1920 H     1 <1>   0.4500 
 39 H        1.3700     2.7330     1.9790 H     1 <1>   0.0800 
 40 H        1.5310     4.1670     2.9620 H     1 <1>   0.0800 
 41 H        3.0990     4.5570     1.1160 H     1 <1>   0.0800 
 42 H        2.5070     3.8180    -0.3600 H     1 <1>   0.0800 
 43 H        0.4520     2.3380    -2.5720 H     1 <1>   0.1500 
 44 H        2.6880     1.0370     0.8310 H     1 <1>   0.1500 
 45 H        2.5350     2.6500    -3.8120 H     1 <1>   0.1500 
 46 H        4.7690     1.3490    -0.4230 H     1 <1>   0.1500 
 47 H        3.2060     5.6300    -2.4080 H     1 <1>   0.1500 
 48 H        4.7030     2.1720    -2.7410 H     1 <1>   0.1500 
 49 H        2.6350     9.9580    -2.4640 H     1 <1>   0.1500 
 50 H        1.4840     9.3300     1.5920 H     1 <1>   0.1500 
 51 H        2.2580    12.3560    -2.1960 H     1 <1>   0.1500 
 52 H        1.1090    11.7330     1.8540 H     1 <1>   0.1500 
 53 H        1.4930    13.2560    -0.0380 H     1 <1>   0.1500 
@<TRIPOS>BOND
  1   1   2  ar  
  2   2   3  ar  
  3   2   4  1   
  4   4   5  1   
  5   4   6  1   
  6   4   7  1   
  7   5   8  1   
  8   5   9  1   
  9   5  30  1   
 10   6  10  1   
 11   6  31  1   
 12   6  32  1   
 13   7  11  1   
 14   7  33  1   
 15   7  34  1   
 16   8  35  1   
 17   9  12  1   
 18   9  36  1   
 19   9  37  1   
 20  10  12  1   
 21  10  13  1   
 22  10  38  1   
 23  11  14  ar  
 24  11  15  ar  
 25  12  39  1   
 26  12  40  1   
 27  13  16  1   
 28  13  41  1   
 29  13  42  1   
 30  14  17  ar  
 31  14  43  1   
 32  15  18  ar  
 33  15  44  1   
 34  16  19  1   
 35  16  20  2   
 36  17  21  ar  
 37  17  45  1   
 38  18  21  ar  
 39  18  46  1   
 40  19  22  2   
 41  20  23  1   
 42  20  47  1   
 43  21  48  1   
 44  22  23  1   
 45  22  24  1   
 46  24  25  ar  
 47  24  26  ar  
 48  25  27  ar  
 49  25  49  1   
 50  26  28  ar  
 51  26  50  1   
 52  27  29  ar  
 53  27  51  1   
 54  28  29  ar  
 55  28  52  1   
 56  29  53  1   
@<TRIPOS>SUBSTRUCTURE
  1 ****  10 GROUP 4 **** **** 0

# MOE 2024.06 (io_trps.svl 2023.06)
