@<TRIPOS>MOLECULE
NONAME
38 39 1 0 0 
SMALL
USER_CHARGES


@<TRIPOS>ATOM
  1 CL      -0.4930     0.8800     2.4200 Cl    1 <1>  -0.1770 
  2 C       -1.5820     1.4160     1.1500 C.ar  1 <1>   0.1770 
  3 C       -1.7650     2.7860     0.9190 C.ar  1 <1>   0.4100 
  4 C       -2.2340     0.4800     0.3910 C.ar  1 <1>  -0.1500 
  5 N       -2.5700     3.2430    -0.0350 N.ar  1 <1>  -0.6200 
  6 N       -1.1010     3.7220     1.6910 N.pl3 1 <1>  -0.8690 
  7 C       -3.0800     0.9440    -0.6130 C.ar  1 <1>  -0.1790 
  8 C       -3.1940     2.3240    -0.7610 C.ar  1 <1>   0.1600 
  9 C       -0.7970     5.1010     1.2400 C.3   1 <1>   0.2090 
 10 C       -3.8160     0.0510    -1.4790 C.2   1 <1>   0.9790 
 11 C        0.7190     5.2850     1.0590 C.3   1 <1>  -0.0800 
 12 O       -3.7150    -1.1800    -1.3450 O.co2 1 <1>  -0.9000 
 13 O       -4.5570     0.5040    -2.3690 O.co2 1 <1>  -0.9000 
 14 C        1.0320     6.7490     0.7040 C.3   1 <1>  -0.1600 
 15 C        1.2870     4.3440    -0.0220 C.3   1 <1>  -0.1600 
 16 C        2.5350     6.9730     0.4890 C.3   1 <1>  -0.1600 
 17 C        2.7900     4.5720    -0.2410 C.3   1 <1>  -0.1600 
 18 C        3.0970     6.0360    -0.5980 C.3   1 <1>  -0.0800 
 19 C        4.6110     6.2180    -0.7890 C.3   1 <1>   0.1200 
 20 O        4.8870     7.5170    -1.1840 O.3   1 <1>  -0.6800 
 21 H       -2.1060    -0.5760     0.5520 H     1 <1>   0.1500 
 22 H       -0.4350     3.3350     2.3630 H     1 <1>   0.4000 
 23 H       -3.8510     2.6840    -1.5370 H     1 <1>   0.1500 
 24 H       -1.1620     5.7900     1.9820 H     1 <1>   0.0800 
 25 H       -1.3000     5.3200     0.3130 H     1 <1>   0.0800 
 26 H        1.1960     5.0630     1.9980 H     1 <1>   0.0800 
 27 H        0.6910     7.3950     1.4950 H     1 <1>   0.0800 
 28 H        0.5050     7.0220    -0.1940 H     1 <1>   0.0800 
 29 H        0.7610     4.5050    -0.9480 H     1 <1>   0.0800 
 30 H        1.1290     3.3180     0.2630 H     1 <1>   0.0800 
 31 H        3.0570     6.8020     1.4150 H     1 <1>   0.0800 
 32 H        2.7000     7.9990     0.2090 H     1 <1>   0.0800 
 33 H        3.1290     3.9250    -1.0310 H     1 <1>   0.0800 
 34 H        3.3190     4.3020     0.6570 H     1 <1>   0.0800 
 35 H        2.6100     6.2550    -1.5330 H     1 <1>   0.0800 
 36 H        4.9840     5.5530    -1.5500 H     1 <1>   0.0800 
 37 H        5.1400     6.0330     0.1300 H     1 <1>   0.0800 
 38 H        4.3770     7.7420    -1.9850 H     1 <1>   0.4000 
@<TRIPOS>BOND
  1   1   2  1   
  2   2   3  ar  
  3   2   4  ar  
  4   3   5  ar  
  5   3   6  1   
  6   4   7  ar  
  7   4  21  1   
  8   5   8  ar  
  9   6   9  1   
 10   6  22  1   
 11   7   8  ar  
 12   7  10  1   
 13   8  23  1   
 14   9  11  1   
 15   9  24  1   
 16   9  25  1   
 17  10  12  ar  
 18  10  13  ar  
 19  11  14  1   
 20  11  15  1   
 21  11  26  1   
 22  14  16  1   
 23  14  27  1   
 24  14  28  1   
 25  15  17  1   
 26  15  29  1   
 27  15  30  1   
 28  16  18  1   
 29  16  31  1   
 30  16  32  1   
 31  17  18  1   
 32  17  33  1   
 33  17  34  1   
 34  18  19  1   
 35  18  35  1   
 36  19  20  1   
 37  19  36  1   
 38  19  37  1   
 39  20  38  1   
@<TRIPOS>SUBSTRUCTURE
  1 ****   3 GROUP 4 **** **** 0

# MOE 2024.06 (io_trps.svl 2023.06)
