@<TRIPOS>MOLECULE
NONAME
39 42 1 0 0 
SMALL
USER_CHARGES


@<TRIPOS>ATOM
  1 S       -0.2380     0.5420     1.5990 S.3   1 <1>  -0.0800 
  2 C       -0.1010     1.9210     0.5290 C.2   1 <1>  -0.1400 
  3 C        1.3750     0.8470     2.2280 C.2   1 <1>  -0.1100 
  4 C        1.0840     2.5330     0.6510 C.2   1 <1>  -0.1810 
  5 C       -1.2060     2.3430    -0.4010 C.3   1 <1>   0.0200 
  6 C        1.9310     1.9200     1.6330 C.2   1 <1>  -0.1500 
  7 C        1.4330     3.7570    -0.2000 C.3   1 <1>   0.4610 
  8 C       -0.9170     3.7940    -0.8190 C.3   1 <1>   0.1200 
  9 O        0.4330     3.9600    -1.1850 O.3   1 <1>  -0.5600 
 10 C        1.5460     5.0140     0.6700 C.3   1 <1>  -0.1600 
 11 C        2.7370     3.5150    -0.9640 C.3   1 <1>  -0.1600 
 12 C        1.9510     6.2300    -0.1580 C.3   1 <1>   0.2090 
 13 C        3.1670     4.7490    -1.7570 C.3   1 <1>   0.2090 
 14 N        3.2250     5.9380    -0.8610 N.pl3 1 <1>  -0.8380 
 15 C        4.4210     6.3230    -0.2850 C.ar  1 <1>   0.4100 
 16 N        5.2840     5.3680     0.0380 N.ar  1 <1>  -0.6200 
 17 C        4.6690     7.6720    -0.0630 C.ar  1 <1>  -0.1500 
 18 C        6.4120     5.7650     0.5970 C.ar  1 <1>   0.1600 
 19 C        5.8450     8.0860     0.5240 C.ar  1 <1>   0.0730 
 20 C        6.7370     7.0800     0.8590 C.ar  1 <1>  -0.1500 
 21 C        6.1280     9.4690     0.7720 C.1   1 <1>   0.4840 
 22 N        6.3530    10.5680     0.9770 N.1   1 <1>  -0.5570 
 23 H        1.7410     0.1800     2.9880 H     1 <1>   0.1500 
 24 H       -2.1570     2.2890     0.0970 H     1 <1>   0.0800 
 25 H       -1.2260     1.7020    -1.2630 H     1 <1>   0.0800 
 26 H        2.9120     2.3100     1.8450 H     1 <1>   0.1500 
 27 H       -1.1370     4.4670    -0.0110 H     1 <1>   0.0800 
 28 H       -1.5230     4.0630    -1.6660 H     1 <1>   0.0800 
 29 H        2.2950     4.8530     1.4240 H     1 <1>   0.0800 
 30 H        0.6190     5.2000     1.1770 H     1 <1>   0.0800 
 31 H        2.6130     2.6790    -1.6250 H     1 <1>   0.0800 
 32 H        3.5220     3.2700    -0.2740 H     1 <1>   0.0800 
 33 H        2.0670     7.0840     0.4870 H     1 <1>   0.0800 
 34 H        1.1900     6.4560    -0.8850 H     1 <1>   0.0800 
 35 H        2.4620     4.9400    -2.5480 H     1 <1>   0.0800 
 36 H        4.1320     4.5790    -2.2040 H     1 <1>   0.0800 
 37 H        3.9280     8.3860    -0.3660 H     1 <1>   0.1500 
 38 H        7.1160     4.9930     0.8610 H     1 <1>   0.1500 
 39 H        7.6780     7.3200     1.3200 H     1 <1>   0.1500 
@<TRIPOS>BOND
  1   1   2  1   
  2   1   3  1   
  3   2   4  2   
  4   2   5  1   
  5   3   6  2   
  6   3  23  1   
  7   4   6  1   
  8   4   7  1   
  9   5   8  1   
 10   5  24  1   
 11   5  25  1   
 12   6  26  1   
 13   7   9  1   
 14   7  10  1   
 15   7  11  1   
 16   8   9  1   
 17   8  27  1   
 18   8  28  1   
 19  10  12  1   
 20  10  29  1   
 21  10  30  1   
 22  11  13  1   
 23  11  31  1   
 24  11  32  1   
 25  12  14  1   
 26  12  33  1   
 27  12  34  1   
 28  13  14  1   
 29  13  35  1   
 30  13  36  1   
 31  14  15  1   
 32  15  16  ar  
 33  15  17  ar  
 34  16  18  ar  
 35  17  19  ar  
 36  17  37  1   
 37  18  20  ar  
 38  18  38  1   
 39  19  20  ar  
 40  19  21  1   
 41  20  39  1   
 42  21  22  3   
@<TRIPOS>SUBSTRUCTURE
  1 ****  10 GROUP 4 **** **** 0

# MOE 2024.06 (io_trps.svl 2023.06)
