@<TRIPOS>MOLECULE
NONAME
40 43 1 0 0 
SMALL
USER_CHARGES


@<TRIPOS>ATOM
  1 S       -0.6670    -0.2250     1.7420 S.3   1 <1>  -0.0800 
  2 C       -1.3410     0.9090     0.5810 C.2   1 <1>  -0.1400 
  3 C       -2.1380    -1.1880     1.7050 C.2   1 <1>  -0.1100 
  4 C       -2.5850     0.5490     0.2360 C.2   1 <1>  -0.1810 
  5 C       -0.5730     2.1240     0.0690 C.3   1 <1>   0.4600 
  6 C       -3.0450    -0.6500     0.8670 C.2   1 <1>  -0.1500 
  7 C       -3.3630     1.3970    -0.7450 C.3   1 <1>   0.0210 
  8 O       -1.3250     2.7090    -0.9780 O.3   1 <1>  -0.5600 
  9 C       -0.3560     3.1580     1.1840 C.3   1 <1>  -0.1600 
 10 C        0.7650     1.7060    -0.5500 C.3   1 <1>  -0.1600 
 11 C       -2.7220     2.7960    -0.8260 C.3   1 <1>   0.1200 
 12 C        0.4840     4.3360     0.6950 C.3   1 <1>   0.2090 
 13 C        1.5690     2.9230    -1.0020 C.3   1 <1>   0.2090 
 14 N        1.7700     3.8160     0.1620 N.pl3 1 <1>  -0.8380 
 15 C        2.8130     4.7200     0.0560 C.ar  1 <1>   0.4100 
 16 N        2.5060     5.9830    -0.1930 N.ar  1 <1>  -0.6200 
 17 C        4.1180     4.2680     0.2040 C.ar  1 <1>  -0.1500 
 18 C        3.5130     6.8790    -0.3020 C.ar  1 <1>   0.1310 
 19 C        5.1640     5.1470     0.0910 C.ar  1 <1>  -0.1500 
 20 C        3.2620     8.3140    -0.5650 C.2   1 <1>   0.9790 
 21 C        4.8410     6.4620    -0.1650 C.ar  1 <1>  -0.1500 
 22 O        4.2060     9.0650    -0.8990 O.co2 1 <1>  -0.9000 
 23 O        2.1370     8.8460    -0.4490 O.co2 1 <1>  -0.9000 
 24 H       -2.1680    -2.0680     2.3220 H     1 <1>   0.1500 
 25 H       -4.0250    -1.0470     0.6640 H     1 <1>   0.1500 
 26 H       -4.3850     1.4910    -0.4250 H     1 <1>   0.0800 
 27 H       -3.3510     0.9330    -1.7150 H     1 <1>   0.0800 
 28 H        0.1670     2.6930     1.9980 H     1 <1>   0.0800 
 29 H       -1.2960     3.5070     1.5650 H     1 <1>   0.0800 
 30 H        0.5830     1.0530    -1.3830 H     1 <1>   0.0800 
 31 H        1.3480     1.1670     0.1730 H     1 <1>   0.0800 
 32 H       -2.9340     3.3590     0.0660 H     1 <1>   0.0800 
 33 H       -3.1100     3.3340    -1.6720 H     1 <1>   0.0800 
 34 H        0.6780     5.0150     1.5090 H     1 <1>   0.0800 
 35 H       -0.0330     4.8780    -0.0790 H     1 <1>   0.0800 
 36 H        1.0420     3.4590    -1.7740 H     1 <1>   0.0800 
 37 H        2.5210     2.6120    -1.3950 H     1 <1>   0.0800 
 38 H        4.2830     3.2290     0.4120 H     1 <1>   0.1500 
 39 H        6.1870     4.8340     0.1980 H     1 <1>   0.1500 
 40 H        5.6240     7.1940    -0.2620 H     1 <1>   0.1500 
@<TRIPOS>BOND
  1   1   2  1   
  2   1   3  1   
  3   2   4  2   
  4   2   5  1   
  5   3   6  2   
  6   3  24  1   
  7   4   6  1   
  8   4   7  1   
  9   5   8  1   
 10   5   9  1   
 11   5  10  1   
 12   6  25  1   
 13   7  11  1   
 14   7  26  1   
 15   7  27  1   
 16   8  11  1   
 17   9  12  1   
 18   9  28  1   
 19   9  29  1   
 20  10  13  1   
 21  10  30  1   
 22  10  31  1   
 23  11  32  1   
 24  11  33  1   
 25  12  14  1   
 26  12  34  1   
 27  12  35  1   
 28  13  14  1   
 29  13  36  1   
 30  13  37  1   
 31  14  15  1   
 32  15  16  ar  
 33  15  17  ar  
 34  16  18  ar  
 35  17  19  ar  
 36  17  38  1   
 37  18  20  1   
 38  18  21  ar  
 39  19  21  ar  
 40  19  39  1   
 41  20  22  ar  
 42  20  23  ar  
 43  21  40  1   
@<TRIPOS>SUBSTRUCTURE
  1 ****  14 GROUP 4 **** **** 0

# MOE 2024.06 (io_trps.svl 2023.06)
