@<TRIPOS>MOLECULE
NONAME
53 56 1 0 0 
SMALL
USER_CHARGES


@<TRIPOS>ATOM
  1 O        0.2210     0.3190    -1.4020 O.3   1 <1>  -0.2800 
  2 C        0.6580     1.4570    -0.8620 C.ar  1 <1>   0.1400 
  3 C        0.9130    -0.6740    -0.8470 C.2   1 <1>  -0.0400 
  4 C        1.6560     1.1990     0.0610 C.ar  1 <1>   0.0000 
  5 C        0.2230     2.7470    -1.1360 C.ar  1 <1>  -0.1500 
  6 C        1.8030    -0.2040     0.0510 C.2   1 <1>  -0.1810 
  7 C        0.6030    -2.0920    -1.3010 C.3   1 <1>   0.2900 
  8 C        2.2480     2.2640     0.7410 C.ar  1 <1>  -0.1500 
  9 C        0.8140     3.7950    -0.4590 C.ar  1 <1>  -0.1500 
 10 C        2.7880    -0.9550     0.9250 C.3   1 <1>  -0.0590 
 11 N       -0.3550    -2.7790    -0.4020 N.3   1 <1>  -0.8100 
 12 C        1.8240     3.5520     0.4770 C.ar  1 <1>  -0.1500 
 13 C       -0.5460    -4.1790    -0.8030 C.3   1 <1>   0.1100 
 14 C       -1.6340    -2.0470    -0.3160 C.3   1 <1>   0.1100 
 15 C       -1.4620    -4.9150     0.2060 C.3   1 <1>   0.4230 
 16 C       -2.5530    -2.7260     0.7060 C.3   1 <1>  -0.1600 
 17 N       -1.5600    -6.4170    -0.0300 N.4   1 <1>  -0.9590 
 18 C       -2.8390    -4.2140     0.3760 C.3   1 <1>   0.0000 
 19 C       -2.7260    -7.0660     0.6550 C.3   1 <1>   0.3430 
 20 C       -1.5140    -6.8470    -1.4660 C.3   1 <1>   0.2630 
 21 C       -3.6000    -4.8590     1.5730 C.3   1 <1>  -0.1600 
 22 C       -3.6740    -4.3300    -0.9310 C.3   1 <1>   0.1200 
 23 C       -3.1320    -6.2890     1.9060 C.3   1 <1>  -0.1600 
 24 O       -4.8230    -3.5570    -0.8800 O.3   1 <1>  -0.6800 
 25 H       -0.5540     2.9030    -1.8610 H     1 <1>   0.1500 
 26 H        1.5270    -2.6430    -1.3140 H     1 <1>   0.0800 
 27 H        0.2180    -2.0610    -2.3060 H     1 <1>   0.0800 
 28 H        3.0240     2.0700     1.4590 H     1 <1>   0.1500 
 29 H        0.5000     4.8060    -0.6490 H     1 <1>   0.1500 
 30 H        2.6000    -0.7300     1.9600 H     1 <1>   0.0800 
 31 H        3.7930    -0.6610     0.6800 H     1 <1>   0.0800 
 32 H        2.6900    -2.0150     0.7820 H     1 <1>   0.0800 
 33 H        2.2720     4.3820     0.9940 H     1 <1>   0.1500 
 34 H       -0.9630    -4.2060    -1.7940 H     1 <1>   0.0800 
 35 H        0.4150    -4.6630    -0.8140 H     1 <1>   0.0800 
 36 H       -1.4570    -1.0380     0.0190 H     1 <1>   0.0800 
 37 H       -2.1070    -1.9950    -1.2830 H     1 <1>   0.0800 
 38 H       -0.9720    -4.7910     1.1570 H     1 <1>   0.0800 
 39 H       -2.0720    -2.6430     1.6660 H     1 <1>   0.0800 
 40 H       -3.4690    -2.1660     0.7700 H     1 <1>   0.0800 
 41 H       -0.7190    -6.8020     0.4230 H     1 <1>   0.4500 
 42 H       -3.5700    -7.0980    -0.0140 H     1 <1>   0.0800 
 43 H       -2.4760    -8.0820     0.9210 H     1 <1>   0.0800 
 44 H       -2.3520    -6.4410    -2.0100 H     1 <1>   0.0800 
 45 H       -1.5500    -7.9230    -1.5360 H     1 <1>   0.0800 
 46 H       -0.6030    -6.5100    -1.9340 H     1 <1>   0.0800 
 47 H       -3.4760    -4.2650     2.4630 H     1 <1>   0.0800 
 48 H       -4.6570    -4.8760     1.3730 H     1 <1>   0.0800 
 49 H       -3.9820    -5.3430    -1.1120 H     1 <1>   0.0800 
 50 H       -3.1170    -3.9860    -1.7840 H     1 <1>   0.0800 
 51 H       -3.9290    -6.8120     2.4060 H     1 <1>   0.0800 
 52 H       -2.2990    -6.2580     2.5880 H     1 <1>   0.0800 
 53 H       -5.3830    -3.7770    -0.1110 H     1 <1>   0.4000 
@<TRIPOS>BOND
  1   1   2  1   
  2   1   3  1   
  3   2   4  ar  
  4   2   5  ar  
  5   3   6  2   
  6   3   7  1   
  7   4   6  1   
  8   4   8  ar  
  9   5   9  ar  
 10   5  25  1   
 11   6  10  1   
 12   7  11  1   
 13   7  26  1   
 14   7  27  1   
 15   8  12  ar  
 16   8  28  1   
 17   9  12  ar  
 18   9  29  1   
 19  10  30  1   
 20  10  31  1   
 21  10  32  1   
 22  11  13  1   
 23  11  14  1   
 24  12  33  1   
 25  13  15  1   
 26  13  34  1   
 27  13  35  1   
 28  14  16  1   
 29  14  36  1   
 30  14  37  1   
 31  15  17  1   
 32  15  18  1   
 33  15  38  1   
 34  16  18  1   
 35  16  39  1   
 36  16  40  1   
 37  17  19  1   
 38  17  20  1   
 39  17  41  1   
 40  18  21  1   
 41  18  22  1   
 42  19  23  1   
 43  19  42  1   
 44  19  43  1   
 45  20  44  1   
 46  20  45  1   
 47  20  46  1   
 48  21  23  1   
 49  21  47  1   
 50  21  48  1   
 51  22  24  1   
 52  22  49  1   
 53  22  50  1   
 54  23  51  1   
 55  23  52  1   
 56  24  53  1   
@<TRIPOS>SUBSTRUCTURE
  1 ****  11 GROUP 4 **** **** 0

# MOE 2024.06 (io_trps.svl 2023.06)
