@<TRIPOS>MOLECULE
NONAME
52 55 1 0 0 
SMALL
USER_CHARGES


@<TRIPOS>ATOM
  1 O       -0.1550     2.4640    -2.0950 O.2   1 <1>  -0.5700 
  2 C       -0.5850     3.4630    -1.5650 C.2   1 <1>   0.5690 
  3 N       -1.5210     3.4370    -0.5650 N.am  1 <1>  -0.5090 
  4 C       -0.0240     4.8040    -2.0430 C.3   1 <1>   0.1810 
  5 C       -2.1690     4.6920    -0.0850 C.3   1 <1>   0.3640 
  6 C       -2.0950     2.1840    -0.0240 C.3   1 <1>   0.0490 
  7 O       -0.8380     5.9210    -1.7410 O.3   1 <1>  -0.5600 
  8 C       -3.5840     4.7940    -0.6600 C.ar  1 <1>  -0.1440 
  9 C       -1.3400     5.9580    -0.4120 C.3   1 <1>   0.2610 
 10 C       -1.9680     1.9250     1.4450 C.3   1 <1>  -0.2000 
 11 C       -1.1850     1.1050     0.4710 C.3   1 <1>  -0.2000 
 12 C       -3.8150     4.7900    -2.0290 C.ar  1 <1>  -0.1500 
 13 C       -4.6680     4.8950     0.2030 C.ar  1 <1>  -0.1500 
 14 C       -0.2250     6.2180     0.6120 C.2   1 <1>   0.5690 
 15 C       -5.1030     4.8880    -2.5240 C.ar  1 <1>  -0.1500 
 16 C       -5.9580     4.9930    -0.2900 C.ar  1 <1>  -0.1500 
 17 O       -0.3240     5.7790     1.7340 O.2   1 <1>  -0.5700 
 18 N        0.8460     6.9620     0.2220 N.am  1 <1>  -0.6550 
 19 C       -6.1820     4.9910    -1.6630 C.ar  1 <1>   0.0820 
 20 C        2.0230     7.3120     1.0370 C.3   1 <1>   0.2250 
 21 O       -7.4110     5.0830    -2.2290 O.3   1 <1>  -0.3620 
 22 C        1.6720     8.1000     2.3310 C.3   1 <1>   0.0000 
 23 C        2.7190     8.5990     0.5140 C.3   1 <1>   0.0000 
 24 C        2.9540     6.1090     1.2190 C.3   1 <1>  -0.2400 
 25 C       -8.5770     5.1720    -1.4420 C.3   1 <1>   0.0400 
 26 C        2.8320     9.0700     1.9880 C.3   1 <1>   0.0000 
 27 H        0.0930     4.7720    -3.1110 H     1 <1>   0.0800 
 28 H        0.9440     4.9520    -1.6020 H     1 <1>   0.0800 
 29 H       -2.2680     4.6240     0.9830 H     1 <1>   0.0800 
 30 H       -3.0030     1.8940    -0.5280 H     1 <1>   0.1000 
 31 H       -2.0000     6.8040    -0.3580 H     1 <1>   0.0800 
 32 H       -1.4250     2.6170     2.0650 H     1 <1>   0.1000 
 33 H       -2.7840     1.4520     1.9620 H     1 <1>   0.1000 
 34 H       -1.4720     0.0820     0.3080 H     1 <1>   0.1000 
 35 H       -0.1230     1.2540     0.3900 H     1 <1>   0.1000 
 36 H       -2.9960     4.7080    -2.7220 H     1 <1>   0.1500 
 37 H       -4.5170     4.8950     1.2690 H     1 <1>   0.1500 
 38 H       -5.2800     4.8840    -3.5840 H     1 <1>   0.1500 
 39 H       -6.7710     5.0690     0.4060 H     1 <1>   0.1500 
 40 H        0.8660     7.3030    -0.7420 H     1 <1>   0.3700 
 41 H        0.7140     8.5900     2.2870 H     1 <1>   0.0000 
 42 H        1.8350     7.5530     3.2430 H     1 <1>   0.0000 
 43 H        3.6760     8.4330     0.0510 H     1 <1>   0.0000 
 44 H        2.0670     9.2350    -0.0600 H     1 <1>   0.0000 
 45 H        3.8220     6.3830     1.7920 H     1 <1>   0.0800 
 46 H        3.2790     5.7410     0.2640 H     1 <1>   0.0800 
 47 H        2.4400     5.3260     1.7470 H     1 <1>   0.0800 
 48 H       -9.4230     5.2280    -2.1040 H     1 <1>   0.0800 
 49 H       -8.5260     6.0620    -0.8400 H     1 <1>   0.0800 
 50 H       -8.6520     4.2930    -0.8270 H     1 <1>   0.0800 
 51 H        3.7630     8.7820     2.4460 H     1 <1>   0.0000 
 52 H        2.5860    10.1070     2.1320 H     1 <1>   0.0000 
@<TRIPOS>BOND
  1   1   2  2   
  2   2   3  am  
  3   2   4  1   
  4   3   5  1   
  5   3   6  1   
  6   4   7  1   
  7   4  27  1   
  8   4  28  1   
  9   5   8  1   
 10   5   9  1   
 11   5  29  1   
 12   6  10  1   
 13   6  11  1   
 14   6  30  1   
 15   7   9  1   
 16   8  12  ar  
 17   8  13  ar  
 18   9  14  1   
 19   9  31  1   
 20  10  11  1   
 21  10  32  1   
 22  10  33  1   
 23  11  34  1   
 24  11  35  1   
 25  12  15  ar  
 26  12  36  1   
 27  13  16  ar  
 28  13  37  1   
 29  14  17  2   
 30  14  18  am  
 31  15  19  ar  
 32  15  38  1   
 33  16  19  ar  
 34  16  39  1   
 35  18  20  1   
 36  18  40  1   
 37  19  21  1   
 38  20  22  1   
 39  20  23  1   
 40  20  24  1   
 41  21  25  1   
 42  22  26  1   
 43  22  41  1   
 44  22  42  1   
 45  23  26  1   
 46  23  43  1   
 47  23  44  1   
 48  24  45  1   
 49  24  46  1   
 50  24  47  1   
 51  25  48  1   
 52  25  49  1   
 53  25  50  1   
 54  26  51  1   
 55  26  52  1   
@<TRIPOS>SUBSTRUCTURE
  1 ****   5 GROUP 4 **** **** 0

# MOE 2024.06 (io_trps.svl 2023.06)
