@<TRIPOS>MOLECULE
NONAME
44 46 1 0 0 
SMALL
USER_CHARGES


@<TRIPOS>ATOM
  1 O       -1.8110    -0.4110    -2.5980 O.2   1 <1>  -0.5700 
  2 C       -1.9870    -0.7860    -1.4670 C.2   1 <1>   0.5690 
  3 N       -1.9650     0.0680    -0.4010 N.am  1 <1>  -0.6600 
  4 C       -2.2900    -2.2470    -1.2650 C.3   1 <1>  -0.0190 
  5 C       -2.2510    -0.3690     0.9960 C.3   1 <1>   0.2200 
  6 C       -1.5950     1.5080    -0.5700 C.3   1 <1>   0.0600 
  7 C       -1.2520    -2.9420    -0.3570 C.3   1 <1>   0.1200 
  8 C       -3.7660    -2.3890    -0.8780 C.3   1 <1>   0.3430 
  9 C       -1.2090    -1.4090     1.4740 C.3   1 <1>   0.1200 
 10 C       -3.7270    -0.8330     1.1400 C.3   1 <1>   0.3430 
 11 O       -1.4730    -2.7080     1.0070 O.3   1 <1>  -0.5600 
 12 N       -4.0260    -2.2020     0.5890 N.4   1 <1>  -0.9590 
 13 C       -5.3550    -2.7190     1.0090 C.3   1 <1>   0.4860 
 14 C       -5.4160    -4.1990     0.6790 C.ar  1 <1>  -0.1440 
 15 C       -6.2450    -4.6530    -0.3350 C.ar  1 <1>  -0.1500 
 16 C       -4.6280    -5.1110     1.3660 C.ar  1 <1>  -0.1500 
 17 C       -6.2670    -5.9960    -0.6650 C.ar  1 <1>  -0.1500 
 18 C       -4.6590    -6.4520     1.0290 C.ar  1 <1>  -0.1500 
 19 C       -5.4750    -6.9290     0.0030 C.ar  1 <1>   0.0860 
 20 C       -5.5030    -8.3300    -0.3770 C.2   1 <1>   0.5440 
 21 O       -5.7700    -8.6700    -1.5080 O.2   1 <1>  -0.5700 
 22 N       -5.2420    -9.3240     0.5030 N.am  1 <1>  -0.8000 
 23 H       -2.1880    -2.7010    -2.2350 H     1 <1>   0.0800 
 24 H       -2.1340     0.4960     1.6260 H     1 <1>   0.0800 
 25 H       -0.7220     1.7350     0.0170 H     1 <1>   0.0800 
 26 H       -2.4090     2.1380    -0.2550 H     1 <1>   0.0800 
 27 H       -1.3730     1.7320    -1.6000 H     1 <1>   0.0800 
 28 H       -0.2510    -2.6280    -0.6070 H     1 <1>   0.0800 
 29 H       -1.3100    -4.0070    -0.5010 H     1 <1>   0.0800 
 30 H       -4.0760    -3.3810    -1.1640 H     1 <1>   0.0800 
 31 H       -4.3530    -1.6880    -1.4500 H     1 <1>   0.0800 
 32 H       -1.2300    -1.4610     2.5490 H     1 <1>   0.0800 
 33 H       -0.2140    -1.1220     1.1780 H     1 <1>   0.0800 
 34 H       -4.3640    -0.1020     0.6700 H     1 <1>   0.0800 
 35 H       -3.9590    -0.8360     2.1920 H     1 <1>   0.0800 
 36 H       -3.3120    -2.8180     1.0270 H     1 <1>   0.4500 
 37 H       -5.4890    -2.5870     2.0700 H     1 <1>   0.0800 
 38 H       -6.1410    -2.1910     0.4940 H     1 <1>   0.0800 
 39 H       -6.8790    -3.9750    -0.8830 H     1 <1>   0.1500 
 40 H       -3.9790    -4.7920     2.1650 H     1 <1>   0.1500 
 41 H       -6.9080    -6.3410    -1.4600 H     1 <1>   0.1500 
 42 H       -4.0300    -7.1430     1.5640 H     1 <1>   0.1500 
 43 H       -5.3080   -10.2880     0.1740 H     1 <1>   0.3700 
 44 H       -5.1560    -9.1920     1.5090 H     1 <1>   0.3700 
@<TRIPOS>BOND
  1   1   2  2   
  2   2   3  am  
  3   2   4  1   
  4   3   5  1   
  5   3   6  1   
  6   4   7  1   
  7   4   8  1   
  8   4  23  1   
  9   5   9  1   
 10   5  10  1   
 11   5  24  1   
 12   6  25  1   
 13   6  26  1   
 14   6  27  1   
 15   7  11  1   
 16   7  28  1   
 17   7  29  1   
 18   8  12  1   
 19   8  30  1   
 20   8  31  1   
 21   9  11  1   
 22   9  32  1   
 23   9  33  1   
 24  10  12  1   
 25  10  34  1   
 26  10  35  1   
 27  12  13  1   
 28  12  36  1   
 29  13  14  1   
 30  13  37  1   
 31  13  38  1   
 32  14  15  ar  
 33  14  16  ar  
 34  15  17  ar  
 35  15  39  1   
 36  16  18  ar  
 37  16  40  1   
 38  17  19  ar  
 39  17  41  1   
 40  18  19  ar  
 41  18  42  1   
 42  19  20  1   
 43  20  21  2   
 44  20  22  am  
 45  22  43  1   
 46  22  44  1   
@<TRIPOS>SUBSTRUCTURE
  1 ****   8 GROUP 4 **** **** 0

# MOE 2024.06 (io_trps.svl 2023.06)
