@<TRIPOS>MOLECULE
NONAME
45 47 1 0 0 
SMALL
USER_CHARGES


@<TRIPOS>ATOM
  1 CL      -0.7450     0.0950    -0.4510 Cl    1 <1>  -0.1770 
  2 C       -0.3450     1.7930    -0.3470 C.ar  1 <1>   0.1770 
  3 C       -1.0010     2.6100     0.5550 C.ar  1 <1>   0.1600 
  4 C        0.6290     2.3160    -1.1690 C.ar  1 <1>  -0.1500 
  5 N       -0.7600     3.9080     0.7010 N.ar  1 <1>  -0.6200 
  6 C        0.8860     3.6620    -1.0260 C.ar  1 <1>  -0.1500 
  7 C        0.1770     4.4150    -0.0860 C.ar  1 <1>   0.4270 
  8 N        0.3490     5.7630     0.1420 N.am  1 <1>  -0.5470 
  9 C        1.2480     6.6730    -0.3370 C.2   1 <1>   0.5690 
 10 O        2.1200     6.3990    -1.1250 O.2   1 <1>  -0.5700 
 11 C        1.1790     8.1340     0.1470 C.3   1 <1>   0.4040 
 12 N        2.4670     8.9000    -0.0670 N.4   1 <1>  -0.9590 
 13 C        3.5460     8.4280     0.8510 C.3   1 <1>   0.3430 
 14 C        2.2680    10.3750    -0.0140 C.3   1 <1>   0.3430 
 15 C        4.8620     9.1180     0.4990 C.3   1 <1>  -0.1600 
 16 C        3.5700    11.0870    -0.3810 C.3   1 <1>  -0.1600 
 17 C        4.7310    10.6540     0.5360 C.3   1 <1>  -0.0800 
 18 C        6.0550    11.3630     0.1710 C.3   1 <1>   0.3800 
 19 O        7.0180    10.9930     1.0830 O.3   1 <1>  -0.6800 
 20 C        5.9610    12.8800     0.1980 C.2   1 <1>  -0.1400 
 21 S        5.4700    13.6660     1.6950 S.3   1 <1>  -0.0800 
 22 C        6.1920    13.8010    -0.7580 C.2   1 <1>  -0.1500 
 23 C        5.5940    15.2520     0.9580 C.2   1 <1>  -0.1100 
 24 C        5.9820    15.1500    -0.3260 C.2   1 <1>  -0.1500 
 25 H       -1.7580     2.1700     1.1820 H     1 <1>   0.1500 
 26 H        1.1510     1.6980    -1.8790 H     1 <1>   0.1500 
 27 H        1.6340     4.1180    -1.6470 H     1 <1>   0.1500 
 28 H       -0.3460     6.0620     0.8250 H     1 <1>   0.3700 
 29 H        0.9190     8.1460     1.1910 H     1 <1>   0.0800 
 30 H        0.3870     8.6150    -0.4000 H     1 <1>   0.0800 
 31 H        2.7830     8.6400    -1.0170 H     1 <1>   0.4500 
 32 H        3.6710     7.3600     0.7590 H     1 <1>   0.0800 
 33 H        3.2870     8.6550     1.8730 H     1 <1>   0.0800 
 34 H        1.9700    10.6690     0.9800 H     1 <1>   0.0800 
 35 H        1.4940    10.6710    -0.7030 H     1 <1>   0.0800 
 36 H        5.1900     8.7920    -0.4730 H     1 <1>   0.0800 
 37 H        5.6080     8.8030     1.2090 H     1 <1>   0.0800 
 38 H        3.4090    12.1470    -0.2890 H     1 <1>   0.0800 
 39 H        3.8120    10.8860    -1.4100 H     1 <1>   0.0800 
 40 H        4.4810    10.9450     1.5430 H     1 <1>   0.0800 
 41 H        6.3930    11.0460    -0.8010 H     1 <1>   0.0800 
 42 H        7.6590    11.7270     1.1700 H     1 <1>   0.4000 
 43 H        6.5070    13.5980    -1.7670 H     1 <1>   0.1500 
 44 H        5.3610    16.1040     1.5730 H     1 <1>   0.1500 
 45 H        6.1340    15.9760    -0.9990 H     1 <1>   0.1500 
@<TRIPOS>BOND
  1   1   2  1   
  2   2   3  ar  
  3   2   4  ar  
  4   3   5  ar  
  5   3  25  1   
  6   4   6  ar  
  7   4  26  1   
  8   5   7  ar  
  9   6   7  ar  
 10   6  27  1   
 11   7   8  1   
 12   8   9  am  
 13   8  28  1   
 14   9  10  2   
 15   9  11  1   
 16  11  12  1   
 17  11  29  1   
 18  11  30  1   
 19  12  13  1   
 20  12  14  1   
 21  12  31  1   
 22  13  15  1   
 23  13  32  1   
 24  13  33  1   
 25  14  16  1   
 26  14  34  1   
 27  14  35  1   
 28  15  17  1   
 29  15  36  1   
 30  15  37  1   
 31  16  17  1   
 32  16  38  1   
 33  16  39  1   
 34  17  18  1   
 35  17  40  1   
 36  18  19  1   
 37  18  20  1   
 38  18  41  1   
 39  19  42  1   
 40  20  21  1   
 41  20  22  2   
 42  21  23  1   
 43  22  24  1   
 44  22  43  1   
 45  23  24  2   
 46  23  44  1   
 47  24  45  1   
@<TRIPOS>SUBSTRUCTURE
  1 ****  12 GROUP 4 **** **** 0

# MOE 2024.06 (io_trps.svl 2023.06)
