@<TRIPOS>MOLECULE
NONAME
45 47 1 0 0 
SMALL
USER_CHARGES


@<TRIPOS>ATOM
  1 F       -0.7840    -0.2660     0.6140 F     1 <1>  -0.1900 
  2 C       -2.0070     0.1860     0.5060 C.ar  1 <1>   0.1900 
  3 C       -2.3780     1.0940    -0.4920 C.ar  1 <1>   0.0830 
  4 C       -2.9190    -0.2820     1.4320 C.ar  1 <1>  -0.1500 
  5 O       -1.5740     1.6300    -1.4550 O.3   1 <1>  -0.3630 
  6 C       -3.6990     1.5080    -0.5250 C.ar  1 <1>  -0.1500 
  7 C       -4.2300     0.1530     1.3720 C.ar  1 <1>  -0.1500 
  8 C       -0.1890     1.3730    -1.5310 C.3   1 <1>   0.0400 
  9 C       -4.6510     1.0510     0.3890 C.ar  1 <1>   0.0530 
 10 C       -6.0180     1.5010     0.3080 C.2   1 <1>   0.0870 
 11 O       -6.2950     2.7170    -0.0890 O.3   1 <1>  -0.0190 
 12 C       -7.2060     0.8880     0.5500 C.2   1 <1>  -0.0860 
 13 N       -7.5790     2.9610    -0.1240 N.2   1 <1>  -0.4100 
 14 C       -8.1520     1.8750     0.2650 C.2   1 <1>   0.3720 
 15 C       -7.4920    -0.4520     0.9470 C.2   1 <1>   0.7160 
 16 N       -9.5420     1.7140     0.3730 N.pl3 1 <1>  -0.8210 
 17 O       -7.3600    -0.7880     2.1100 O.2   1 <1>  -0.5700 
 18 N       -7.8900    -1.3930     0.0300 N.am  1 <1>  -0.6600 
 19 C      -10.3630     2.6770    -0.4140 C.3   1 <1>   0.1290 
 20 C      -10.0350     1.5790     1.7710 C.3   1 <1>   0.1290 
 21 C       -8.2380    -2.7900     0.3900 C.3   1 <1>   0.1400 
 22 C       -8.2770    -1.1020    -1.3710 C.3   1 <1>   0.1400 
 23 C       -8.4640    -3.4830    -0.9520 C.3   1 <1>   0.2000 
 24 C       -8.9800    -2.3700    -1.8560 C.3   1 <1>  -0.1600 
 25 O       -7.2390    -3.8930    -1.4490 O.3   1 <1>  -0.6800 
 26 H       -2.6040    -0.9760     2.1910 H     1 <1>   0.1500 
 27 H       -3.9950     2.2060    -1.2880 H     1 <1>   0.1500 
 28 H       -4.9310    -0.2050     2.1050 H     1 <1>   0.1500 
 29 H        0.2130     1.9420    -2.3510 H     1 <1>   0.0800 
 30 H       -0.0360     0.3230    -1.7080 H     1 <1>   0.0800 
 31 H        0.2770     1.6820    -0.6120 H     1 <1>   0.0800 
 32 H      -11.3880     2.3520    -0.4390 H     1 <1>   0.0800 
 33 H       -9.9940     2.7330    -1.4230 H     1 <1>   0.0800 
 34 H      -10.3100     3.6570     0.0300 H     1 <1>   0.0800 
 35 H      -11.0420     1.2010     1.7680 H     1 <1>   0.0800 
 36 H      -10.0160     2.5370     2.2620 H     1 <1>   0.0800 
 37 H       -9.4170     0.8950     2.3280 H     1 <1>   0.0800 
 38 H       -7.4570    -3.2600     0.9630 H     1 <1>   0.0800 
 39 H       -9.1490    -2.7840     0.9620 H     1 <1>   0.0800 
 40 H       -8.9350    -0.2500    -1.4240 H     1 <1>   0.0800 
 41 H       -7.3920    -0.9120    -1.9540 H     1 <1>   0.0800 
 42 H       -9.1160    -4.3380    -0.8930 H     1 <1>   0.0800 
 43 H       -8.8060    -2.5680    -2.8990 H     1 <1>   0.0800 
 44 H      -10.0380    -2.2550    -1.7020 H     1 <1>   0.0800 
 45 H       -6.6030    -3.1550    -1.3590 H     1 <1>   0.4000 
@<TRIPOS>BOND
  1   1   2  1   
  2   2   3  ar  
  3   2   4  ar  
  4   3   5  1   
  5   3   6  ar  
  6   4   7  ar  
  7   4  26  1   
  8   5   8  1   
  9   6   9  ar  
 10   6  27  1   
 11   7   9  ar  
 12   7  28  1   
 13   8  29  1   
 14   8  30  1   
 15   8  31  1   
 16   9  10  1   
 17  10  11  1   
 18  10  12  2   
 19  11  13  1   
 20  12  14  1   
 21  12  15  1   
 22  13  14  2   
 23  14  16  1   
 24  15  17  2   
 25  15  18  am  
 26  16  19  1   
 27  16  20  1   
 28  18  21  1   
 29  18  22  1   
 30  19  32  1   
 31  19  33  1   
 32  19  34  1   
 33  20  35  1   
 34  20  36  1   
 35  20  37  1   
 36  21  23  1   
 37  21  38  1   
 38  21  39  1   
 39  22  24  1   
 40  22  40  1   
 41  22  41  1   
 42  23  24  1   
 43  23  25  1   
 44  23  42  1   
 45  24  43  1   
 46  24  44  1   
 47  25  45  1   
@<TRIPOS>SUBSTRUCTURE
  1 ****  10 GROUP 4 **** **** 0

# MOE 2024.06 (io_trps.svl 2023.06)
