@<TRIPOS>MOLECULE
NONAME
41 42 1 0 0 
SMALL
USER_CHARGES


@<TRIPOS>ATOM
  1 S        1.2000    -0.3490    -1.1030 S.3   1 <1>  -0.0800 
  2 C        1.4960    -1.4310     0.2330 C.2   1 <1>  -0.1400 
  3 C        1.8950     0.9550    -0.1650 C.2   1 <1>   0.2280 
  4 C        2.0740    -0.7370     1.2260 C.2   1 <1>   0.0770 
  5 C        1.0860    -2.8770     0.0820 C.3   1 <1>   0.5230 
  6 N        2.2870     0.6090     0.9960 N.2   1 <1>  -0.5650 
  7 N       -0.3850    -2.9370    -0.1520 N.4   1 <1>  -0.9590 
  8 C       -0.8140    -4.3240    -0.5410 C.3   1 <1>   0.3430 
  9 C       -1.1550    -2.3990     1.0120 C.3   1 <1>   0.3430 
 10 C       -2.3300    -4.4110    -0.7980 C.3   1 <1>   0.2000 
 11 C       -2.6560    -2.4440     0.7100 C.3   1 <1>  -0.1600 
 12 O       -2.6340    -5.7370    -1.0540 O.3   1 <1>  -0.6800 
 13 C       -3.1680    -3.8750     0.3960 C.3   1 <1>   0.0000 
 14 C       -2.9650    -4.8050     1.6290 C.3   1 <1>   0.1200 
 15 C       -4.6870    -3.8430     0.0550 C.3   1 <1>  -0.1600 
 16 O       -3.6680    -4.3530     2.7370 O.3   1 <1>  -0.6800 
 17 C       -5.1000    -3.1060    -1.2350 C.3   1 <1>  -0.1600 
 18 C       -6.6220    -3.1240    -1.3970 C.3   1 <1>  -0.2400 
 19 H        1.9390     1.9290    -0.6230 H     1 <1>   0.1500 
 20 H        2.3870    -1.1240     2.1840 H     1 <1>   0.1500 
 21 H        1.3460    -3.4290     0.9700 H     1 <1>   0.0800 
 22 H        1.6120    -3.3060    -0.7560 H     1 <1>   0.0800 
 23 H       -0.5640    -2.3080    -0.9480 H     1 <1>   0.4500 
 24 H       -0.2970    -4.6300    -1.4360 H     1 <1>   0.0800 
 25 H       -0.5630    -5.0130     0.2480 H     1 <1>   0.0800 
 26 H       -0.9440    -2.9820     1.8940 H     1 <1>   0.0800 
 27 H       -0.8630    -1.3780     1.2070 H     1 <1>   0.0800 
 28 H       -2.5460    -3.8580    -1.6940 H     1 <1>   0.0800 
 29 H       -3.1920    -2.0390     1.5500 H     1 <1>   0.0800 
 30 H       -2.8470    -1.7850    -0.1170 H     1 <1>   0.0800 
 31 H       -3.5880    -5.8430    -1.2620 H     1 <1>   0.4000 
 32 H       -1.9310    -4.8890     1.9130 H     1 <1>   0.0800 
 33 H       -3.3280    -5.7970     1.4160 H     1 <1>   0.0800 
 34 H       -5.0500    -4.8550    -0.0090 H     1 <1>   0.0800 
 35 H       -5.2150    -3.3890     0.8770 H     1 <1>   0.0800 
 36 H       -3.4400    -3.4410     2.9930 H     1 <1>   0.4000 
 37 H       -4.7790    -2.0800    -1.2080 H     1 <1>   0.0800 
 38 H       -4.6690    -3.5760    -2.1000 H     1 <1>   0.0800 
 39 H       -7.0990    -2.6330    -0.5660 H     1 <1>   0.0800 
 40 H       -6.9870    -4.1350    -1.4550 H     1 <1>   0.0800 
 41 H       -6.9040    -2.6110    -2.3000 H     1 <1>   0.0800 
@<TRIPOS>BOND
  1   1   2  1   
  2   1   3  1   
  3   2   4  2   
  4   2   5  1   
  5   3   6  2   
  6   3  19  1   
  7   4   6  1   
  8   4  20  1   
  9   5   7  1   
 10   5  21  1   
 11   5  22  1   
 12   7   8  1   
 13   7   9  1   
 14   7  23  1   
 15   8  10  1   
 16   8  24  1   
 17   8  25  1   
 18   9  11  1   
 19   9  26  1   
 20   9  27  1   
 21  10  12  1   
 22  10  13  1   
 23  10  28  1   
 24  11  13  1   
 25  11  29  1   
 26  11  30  1   
 27  12  31  1   
 28  13  14  1   
 29  13  15  1   
 30  14  16  1   
 31  14  32  1   
 32  14  33  1   
 33  15  17  1   
 34  15  34  1   
 35  15  35  1   
 36  16  36  1   
 37  17  18  1   
 38  17  37  1   
 39  17  38  1   
 40  18  39  1   
 41  18  40  1   
 42  18  41  1   
@<TRIPOS>SUBSTRUCTURE
  1 ****   9 GROUP 4 **** **** 0

# MOE 2024.06 (io_trps.svl 2023.06)
