@<TRIPOS>MOLECULE
NONAME
44 46 1 0 0 
SMALL
USER_CHARGES


@<TRIPOS>ATOM
  1 O       -0.3290     0.6960    -1.7500 O.co2 1 <1>  -0.9000 
  2 C       -0.5320     0.2280    -0.6190 C.2   1 <1>   0.9060 
  3 O        0.0560    -0.7550    -0.1670 O.co2 1 <1>  -0.9000 
  4 C       -1.5790     0.9720     0.2350 C.3   1 <1>   0.3170 
  5 N       -1.9280     2.3050    -0.3900 N.4   1 <1>  -0.9590 
  6 C       -2.9010     0.2000     0.3520 C.3   1 <1>  -0.1600 
  7 C       -3.3630     2.2610    -0.7590 C.3   1 <1>   0.3430 
  8 C       -1.5720     3.4320     0.4900 C.3   1 <1>   0.5240 
  9 C       -3.9900     1.2480     0.2010 C.3   1 <1>   0.2000 
 10 C       -1.4110     4.6790    -0.3530 C.2   1 <1>  -0.1810 
 11 O       -4.1830     1.8540     1.4380 O.3   1 <1>  -0.6800 
 12 C       -0.1600     5.2070    -0.6860 C.2   1 <1>   0.2350 
 13 C       -2.3170     5.5090    -0.9110 C.2   1 <1>  -0.3020 
 14 N       -0.2930     6.2930    -1.4050 N.2   1 <1>  -0.7070 
 15 C        1.0890     4.6130    -0.2600 C.ar  1 <1>   0.0540 
 16 N       -1.6150     6.4700    -1.5440 N.pl3 1 <1>   0.3000 
 17 C        1.9160     5.2040     0.7010 C.ar  1 <1>  -0.1430 
 18 C        1.4580     3.3710    -0.7700 C.ar  1 <1>  -0.1500 
 19 C        3.0470     4.5380     1.1460 C.ar  1 <1>  -0.1500 
 20 C        1.5850     6.5760     1.2700 C.3   1 <1>  -0.0970 
 21 C        2.5750     2.6980    -0.3150 C.ar  1 <1>  -0.1430 
 22 C        3.3710     3.2880     0.6490 C.ar  1 <1>  -0.1500 
 23 C        2.9110     1.3220    -0.8630 C.3   1 <1>  -0.0970 
 24 H       -1.1590     1.1200     1.2130 H     1 <1>   0.0800 
 25 H       -1.3240     2.3090    -1.2430 H     1 <1>   0.4500 
 26 H       -2.9600    -0.3540     1.2720 H     1 <1>   0.0800 
 27 H       -2.9650    -0.5010    -0.4640 H     1 <1>   0.0800 
 28 H       -3.8340     3.2250    -0.6830 H     1 <1>   0.0800 
 29 H       -3.4530     1.8930    -1.7680 H     1 <1>   0.0800 
 30 H       -2.3380     3.5760     1.2340 H     1 <1>   0.0800 
 31 H       -0.6410     3.2230     0.9930 H     1 <1>   0.0800 
 32 H       -4.9290     0.8570    -0.1530 H     1 <1>   0.0800 
 33 H       -4.5810     1.2210     2.0710 H     1 <1>   0.4000 
 34 H       -3.3920     5.4880    -0.8990 H     1 <1>   0.1500 
 35 H       -2.0040     7.2600    -2.0750 H     1 <1>   0.2700 
 36 H        0.8540     2.9200    -1.5380 H     1 <1>   0.1500 
 37 H        3.6860     4.9870     1.8860 H     1 <1>   0.1500 
 38 H        2.2960     6.8680     2.0220 H     1 <1>   0.0800 
 39 H        0.6040     6.5700     1.7100 H     1 <1>   0.0800 
 40 H        1.6050     7.3080     0.4820 H     1 <1>   0.0800 
 41 H        4.2450     2.7760     1.0120 H     1 <1>   0.1500 
 42 H        3.9700     1.2240    -1.0150 H     1 <1>   0.0800 
 43 H        2.4140     1.1520    -1.8020 H     1 <1>   0.0800 
 44 H        2.5840     0.5630    -0.1750 H     1 <1>   0.0800 
@<TRIPOS>BOND
  1   1   2  ar  
  2   2   3  ar  
  3   2   4  1   
  4   4   5  1   
  5   4   6  1   
  6   4  24  1   
  7   5   7  1   
  8   5   8  1   
  9   5  25  1   
 10   6   9  1   
 11   6  26  1   
 12   6  27  1   
 13   7   9  1   
 14   7  28  1   
 15   7  29  1   
 16   8  10  1   
 17   8  30  1   
 18   8  31  1   
 19   9  11  1   
 20   9  32  1   
 21  10  12  1   
 22  10  13  2   
 23  11  33  1   
 24  12  14  2   
 25  12  15  1   
 26  13  16  1   
 27  13  34  1   
 28  14  16  1   
 29  15  17  ar  
 30  15  18  ar  
 31  16  35  1   
 32  17  19  ar  
 33  17  20  1   
 34  18  21  ar  
 35  18  36  1   
 36  19  22  ar  
 37  19  37  1   
 38  20  38  1   
 39  20  39  1   
 40  20  40  1   
 41  21  22  ar  
 42  21  23  1   
 43  22  41  1   
 44  23  42  1   
 45  23  43  1   
 46  23  44  1   
@<TRIPOS>SUBSTRUCTURE
  1 ****   8 GROUP 4 **** **** 0

# MOE 2024.06 (io_trps.svl 2023.06)
