@<TRIPOS>MOLECULE
NONAME
47 50 1 0 0 
SMALL
USER_CHARGES


@<TRIPOS>ATOM
  1 S       -0.1220     0.0010    -1.1310 S.3   1 <1>  -0.0800 
  2 C       -0.2640    -1.7250    -1.3850 C.ar  1 <1>   0.2970 
  3 C       -1.2380    -0.0380     0.2330 C.2   1 <1>  -0.1400 
  4 N        0.3920    -2.3380    -2.3460 N.ar  1 <1>  -0.5670 
  5 C       -1.1210    -2.2850    -0.4670 C.ar  1 <1>   0.0000 
  6 C       -1.6770    -1.3020     0.4580 C.2   1 <1>  -0.1810 
  7 C       -1.4350     1.3520     0.8210 C.3   1 <1>  -0.0600 
  8 C        0.1490    -3.6300    -2.3700 C.ar  1 <1>   0.4700 
  9 C       -1.2710    -3.6740    -0.6240 C.ar  1 <1>   0.4100 
 10 C       -2.6530    -1.8020     1.5300 C.3   1 <1>   0.0210 
 11 N       -0.6380    -4.3370    -1.5740 N.ar  1 <1>  -0.6200 
 12 N       -2.0770    -4.4250     0.1920 N.pl3 1 <1>  -0.8690 
 13 C       -3.2590    -0.7760     2.4860 C.3   1 <1>  -0.2400 
 14 C       -2.2030    -5.9030     0.2130 C.3   1 <1>   0.2890 
 15 C       -3.6410    -6.2730    -0.1060 C.3   1 <1>  -0.0800 
 16 C       -2.0680    -6.3960     1.6500 C.3   1 <1>   0.1200 
 17 C       -4.3220    -6.1120     1.2580 C.3   1 <1>   0.1200 
 18 C       -3.7510    -7.7100    -0.6500 C.3   1 <1>  -0.0170 
 19 O       -3.3320    -6.2650     2.2350 O.3   1 <1>  -0.5600 
 20 C       -5.1930    -8.0880    -0.9520 C.ar  1 <1>  -0.1430 
 21 C       -5.8650    -7.5790    -2.0460 C.ar  1 <1>  -0.1500 
 22 C       -5.9060    -8.9570    -0.1510 C.ar  1 <1>  -0.1500 
 23 C       -7.1790    -7.9510    -2.2760 C.ar  1 <1>   0.1600 
 24 C       -7.2190    -9.2630    -0.4700 C.ar  1 <1>   0.1600 
 25 N       -7.8730    -8.7800    -1.5130 N.ar  1 <1>  -0.6200 
 26 H       -2.0930     1.3730     1.6620 H     1 <1>   0.0800 
 27 H       -1.8370     2.0040     0.0670 H     1 <1>   0.0800 
 28 H       -0.4840     1.7430     1.1350 H     1 <1>   0.0800 
 29 H        0.6590    -4.1870    -3.1380 H     1 <1>   0.1500 
 30 H       -3.4720    -2.2910     1.0300 H     1 <1>   0.0800 
 31 H       -2.1420    -2.5340     2.1320 H     1 <1>   0.0800 
 32 H       -2.5150    -3.9770     0.9960 H     1 <1>   0.4000 
 33 H       -3.8170    -0.0380     1.9380 H     1 <1>   0.0800 
 34 H       -2.4870    -0.3050     3.0670 H     1 <1>   0.0800 
 35 H       -3.9330    -1.2680     3.1640 H     1 <1>   0.0800 
 36 H       -1.4880    -6.3690    -0.4430 H     1 <1>   0.0800 
 37 H       -4.0610    -5.5960    -0.8290 H     1 <1>   0.0800 
 38 H       -1.3470    -5.8300     2.2120 H     1 <1>   0.0800 
 39 H       -1.8060    -7.4390     1.6690 H     1 <1>   0.0800 
 40 H       -5.1020    -6.8310     1.4330 H     1 <1>   0.0800 
 41 H       -4.7260    -5.1190     1.3610 H     1 <1>   0.0800 
 42 H       -3.3380    -8.4090     0.0570 H     1 <1>   0.0800 
 43 H       -3.1770    -7.7910    -1.5570 H     1 <1>   0.0800 
 44 H       -5.3790    -6.8990    -2.7200 H     1 <1>   0.1500 
 45 H       -5.4570    -9.3990     0.7200 H     1 <1>   0.1500 
 46 H       -7.6870    -7.5440    -3.1340 H     1 <1>   0.1500 
 47 H       -7.7590    -9.9430     0.1670 H     1 <1>   0.1500 
@<TRIPOS>BOND
  1   1   2  1   
  2   1   3  1   
  3   2   4  ar  
  4   2   5  ar  
  5   3   6  2   
  6   3   7  1   
  7   4   8  ar  
  8   5   6  1   
  9   5   9  ar  
 10   6  10  1   
 11   7  26  1   
 12   7  27  1   
 13   7  28  1   
 14   8  11  ar  
 15   8  29  1   
 16   9  11  ar  
 17   9  12  1   
 18  10  13  1   
 19  10  30  1   
 20  10  31  1   
 21  12  14  1   
 22  12  32  1   
 23  13  33  1   
 24  13  34  1   
 25  13  35  1   
 26  14  15  1   
 27  14  16  1   
 28  14  36  1   
 29  15  17  1   
 30  15  18  1   
 31  15  37  1   
 32  16  19  1   
 33  16  38  1   
 34  16  39  1   
 35  17  19  1   
 36  17  40  1   
 37  17  41  1   
 38  18  20  1   
 39  18  42  1   
 40  18  43  1   
 41  20  21  ar  
 42  20  22  ar  
 43  21  23  ar  
 44  21  44  1   
 45  22  24  ar  
 46  22  45  1   
 47  23  25  ar  
 48  23  46  1   
 49  24  25  ar  
 50  24  47  1   
@<TRIPOS>SUBSTRUCTURE
  1 ****  12 GROUP 4 **** **** 0

# MOE 2024.06 (io_trps.svl 2023.06)
