@<TRIPOS>MOLECULE
NONAME
45 47 1 0 0 
SMALL
USER_CHARGES


@<TRIPOS>ATOM
  1 O       -0.7800     0.2360    -0.5410 O.2   1 <1>  -0.5700 
  2 C       -1.6640     0.8690     0.0030 C.2   1 <1>   0.5440 
  3 N       -2.7440     0.1880     0.5180 N.am  1 <1>  -0.6600 
  4 C       -1.5670     2.3110     0.0680 C.ar  1 <1>   0.0860 
  5 C       -2.7240    -1.3000     0.6920 C.3   1 <1>   0.1400 
  6 C       -4.1300     0.7480     0.5340 C.3   1 <1>   0.1400 
  7 C       -1.1110     3.0340    -1.0330 C.ar  1 <1>   0.1600 
  8 C       -1.9120     3.0370     1.2010 C.ar  1 <1>  -0.1500 
  9 C       -3.7090    -1.9770    -0.2760 C.3   1 <1>   0.3440 
 10 C       -5.0570    -0.0410    -0.4210 C.3   1 <1>   0.2000 
 11 N       -1.0040     4.3530    -1.1050 N.ar  1 <1>  -0.6200 
 12 C       -1.8010     4.4100     1.1520 C.ar  1 <1>  -0.1500 
 13 O       -4.9850    -1.4090    -0.1250 O.3   1 <1>  -0.5600 
 14 C       -3.7770    -3.4790    -0.0110 C.ar  1 <1>  -0.1430 
 15 C       -6.5390     0.3940    -0.3300 C.3   1 <1>  -0.0800 
 16 C       -1.3500     5.0110    -0.0100 C.ar  1 <1>   0.1600 
 17 C       -2.9000    -4.3270    -0.6720 C.ar  1 <1>  -0.1500 
 18 C       -4.6870    -4.0200     0.8870 C.ar  1 <1>  -0.1500 
 19 C       -7.4270    -0.4370    -1.2720 C.3   1 <1>  -0.2400 
 20 C       -6.7310     1.8840    -0.6620 C.3   1 <1>  -0.2400 
 21 C       -2.9310    -5.6910    -0.4400 C.ar  1 <1>  -0.1500 
 22 C       -4.7200    -5.3840     1.1210 C.ar  1 <1>  -0.1500 
 23 C       -3.8410    -6.2210     0.4570 C.ar  1 <1>  -0.1500 
 24 H       -1.7370    -1.6920     0.5230 H     1 <1>   0.0800 
 25 H       -3.0020    -1.5440     1.7010 H     1 <1>   0.0800 
 26 H       -4.5230     0.6960     1.5340 H     1 <1>   0.0800 
 27 H       -4.1150     1.7790     0.2330 H     1 <1>   0.0800 
 28 H       -0.8200     2.4770    -1.9080 H     1 <1>   0.1500 
 29 H       -2.2520     2.5340     2.0900 H     1 <1>   0.1500 
 30 H       -3.3890    -1.8110    -1.2900 H     1 <1>   0.0800 
 31 H       -4.7180     0.0950    -1.4340 H     1 <1>   0.0800 
 32 H       -2.0570     5.0130     2.0040 H     1 <1>   0.1500 
 33 H       -6.8740     0.2300     0.6800 H     1 <1>   0.0800 
 34 H       -1.2670     6.0850    -0.0420 H     1 <1>   0.1500 
 35 H       -2.1850    -3.9290    -1.3720 H     1 <1>   0.1500 
 36 H       -5.3780    -3.3770     1.4060 H     1 <1>   0.1500 
 37 H       -7.1120    -0.3190    -2.2940 H     1 <1>   0.0800 
 38 H       -8.4550    -0.1310    -1.1900 H     1 <1>   0.0800 
 39 H       -7.3720    -1.4810    -1.0180 H     1 <1>   0.0800 
 40 H       -6.3440     2.1080    -1.6410 H     1 <1>   0.0800 
 41 H       -6.2400     2.5110     0.0600 H     1 <1>   0.0800 
 42 H       -7.7780     2.1340    -0.6470 H     1 <1>   0.0800 
 43 H       -2.2470    -6.3410    -0.9580 H     1 <1>   0.1500 
 44 H       -5.4300    -5.7920     1.8180 H     1 <1>   0.1500 
 45 H       -3.8660    -7.2810     0.6380 H     1 <1>   0.1500 
@<TRIPOS>BOND
  1   1   2  2   
  2   2   3  am  
  3   2   4  1   
  4   3   5  1   
  5   3   6  1   
  6   4   7  ar  
  7   4   8  ar  
  8   5   9  1   
  9   5  24  1   
 10   5  25  1   
 11   6  10  1   
 12   6  26  1   
 13   6  27  1   
 14   7  11  ar  
 15   7  28  1   
 16   8  12  ar  
 17   8  29  1   
 18   9  13  1   
 19   9  14  1   
 20   9  30  1   
 21  10  13  1   
 22  10  15  1   
 23  10  31  1   
 24  11  16  ar  
 25  12  16  ar  
 26  12  32  1   
 27  14  17  ar  
 28  14  18  ar  
 29  15  19  1   
 30  15  20  1   
 31  15  33  1   
 32  16  34  1   
 33  17  21  ar  
 34  17  35  1   
 35  18  22  ar  
 36  18  36  1   
 37  19  37  1   
 38  19  38  1   
 39  19  39  1   
 40  20  40  1   
 41  20  41  1   
 42  20  42  1   
 43  21  23  ar  
 44  21  43  1   
 45  22  23  ar  
 46  22  44  1   
 47  23  45  1   
@<TRIPOS>SUBSTRUCTURE
  1 ****   3 GROUP 4 **** **** 0

# MOE 2024.06 (io_trps.svl 2023.06)
