@<TRIPOS>MOLECULE
NONAME
53 56 1 0 0 
SMALL
USER_CHARGES


@<TRIPOS>ATOM
  1 O       -1.1850    -3.2510    -0.8500 O.2   1 <1>  -0.5700 
  2 C       -0.0080    -3.4780    -0.7030 C.2   1 <1>   0.5690 
  3 N        0.5880    -4.6460    -1.0940 N.am  1 <1>  -0.6600 
  4 C        0.8660    -2.4290    -0.0440 C.3   1 <1>  -0.0990 
  5 C        2.0350    -4.8680    -0.8500 C.3   1 <1>   0.1400 
  6 C       -0.1670    -5.7610    -1.7220 C.3   1 <1>   0.0600 
  7 C        2.1870    -2.2650    -0.8170 C.3   1 <1>  -0.0800 
  8 C        2.8410    -3.6090    -1.2200 C.3   1 <1>  -0.0800 
  9 C        3.2480    -1.4720    -0.0400 C.3   1 <1>  -0.1600 
 10 C        4.2420    -3.6000    -0.5950 C.3   1 <1>  -0.1600 
 11 C        4.5710    -2.1190    -0.4330 C.3   1 <1>   0.2200 
 12 N        5.6700    -1.8470     0.5390 N.am  1 <1>  -0.6600 
 13 C        6.7620    -1.0970     0.1470 C.2   1 <1>   0.5440 
 14 C        5.6170    -2.4970     1.8830 C.3   1 <1>   0.0600 
 15 O        6.6610    -0.3490    -0.8080 O.2   1 <1>  -0.5700 
 16 C        8.0280    -1.1750     0.8470 C.ar  1 <1>   0.0860 
 17 C        8.8100    -2.3420     0.8350 C.ar  1 <1>   0.0000 
 18 C        8.4880    -0.0650     1.5530 C.ar  1 <1>  -0.1500 
 19 C        8.4140    -3.5250     0.1000 C.ar  1 <1>   0.0000 
 20 C       10.0070    -2.3560     1.5470 C.ar  1 <1>  -0.1500 
 21 C        9.6780    -0.0970     2.2540 C.ar  1 <1>  -0.1500 
 22 C        8.1980    -3.4840    -1.2750 C.ar  1 <1>  -0.1500 
 23 C        8.2400    -4.7460     0.7490 C.ar  1 <1>  -0.1500 
 24 C       10.4400    -1.2500     2.2530 C.ar  1 <1>  -0.1500 
 25 C        7.8170    -4.6140    -1.9760 C.ar  1 <1>  -0.1500 
 26 C        7.8590    -5.8790     0.0550 C.ar  1 <1>  -0.1500 
 27 C        7.6460    -5.8150    -1.3110 C.ar  1 <1>  -0.1500 
 28 H        0.3400    -1.4930    -0.0090 H     1 <1>   0.0800 
 29 H        1.0540    -2.7490     0.9640 H     1 <1>   0.0800 
 30 H        2.1660    -5.1010     0.1930 H     1 <1>   0.0800 
 31 H        2.3860    -5.7050    -1.4290 H     1 <1>   0.0800 
 32 H       -0.0910    -6.6430    -1.1110 H     1 <1>   0.0800 
 33 H        0.2340    -5.9670    -2.6990 H     1 <1>   0.0800 
 34 H       -1.2080    -5.5020    -1.8260 H     1 <1>   0.0800 
 35 H        1.9680    -1.7330    -1.7280 H     1 <1>   0.0800 
 36 H        2.9580    -3.6010    -2.2910 H     1 <1>   0.0800 
 37 H        3.0840    -1.5700     1.0160 H     1 <1>   0.0800 
 38 H        3.2370    -0.4300    -0.3070 H     1 <1>   0.0800 
 39 H        4.9630    -4.0910    -1.2240 H     1 <1>   0.0800 
 40 H        4.2080    -4.0860     0.3610 H     1 <1>   0.0800 
 41 H        4.8440    -1.7430    -1.4070 H     1 <1>   0.0800 
 42 H        4.6140    -2.4870     2.2690 H     1 <1>   0.0800 
 43 H        6.2480    -1.9750     2.5800 H     1 <1>   0.0800 
 44 H        5.9520    -3.5160     1.8060 H     1 <1>   0.0800 
 45 H        7.8960     0.8340     1.5450 H     1 <1>   0.1500 
 46 H       10.6110    -3.2470     1.5400 H     1 <1>   0.1500 
 47 H       10.0130     0.7720     2.7950 H     1 <1>   0.1500 
 48 H        8.3290    -2.5530    -1.8010 H     1 <1>   0.1500 
 49 H        8.4050    -4.8040     1.8100 H     1 <1>   0.1500 
 50 H       11.3690    -1.2830     2.7950 H     1 <1>   0.1500 
 51 H        7.6560    -4.5570    -3.0380 H     1 <1>   0.1500 
 52 H        7.7310    -6.8130     0.5740 H     1 <1>   0.1500 
 53 H        7.3530    -6.6960    -1.8550 H     1 <1>   0.1500 
@<TRIPOS>BOND
  1   1   2  2   
  2   2   3  am  
  3   2   4  1   
  4   3   5  1   
  5   3   6  1   
  6   4   7  1   
  7   4  28  1   
  8   4  29  1   
  9   5   8  1   
 10   5  30  1   
 11   5  31  1   
 12   6  32  1   
 13   6  33  1   
 14   6  34  1   
 15   7   8  1   
 16   7   9  1   
 17   7  35  1   
 18   8  10  1   
 19   8  36  1   
 20   9  11  1   
 21   9  37  1   
 22   9  38  1   
 23  10  11  1   
 24  10  39  1   
 25  10  40  1   
 26  11  12  1   
 27  11  41  1   
 28  12  13  am  
 29  12  14  1   
 30  13  15  2   
 31  13  16  1   
 32  14  42  1   
 33  14  43  1   
 34  14  44  1   
 35  16  17  ar  
 36  16  18  ar  
 37  17  19  1   
 38  17  20  ar  
 39  18  21  ar  
 40  18  45  1   
 41  19  22  ar  
 42  19  23  ar  
 43  20  24  ar  
 44  20  46  1   
 45  21  24  ar  
 46  21  47  1   
 47  22  25  ar  
 48  22  48  1   
 49  23  26  ar  
 50  23  49  1   
 51  24  50  1   
 52  25  27  ar  
 53  25  51  1   
 54  26  27  ar  
 55  26  52  1   
 56  27  53  1   
@<TRIPOS>SUBSTRUCTURE
  1 ****  12 GROUP 4 **** **** 0

# MOE 2024.06 (io_trps.svl 2023.06)
