@<TRIPOS>MOLECULE
NONAME
44 46 1 0 0 
SMALL
USER_CHARGES


@<TRIPOS>ATOM
  1 O       -1.9300    -0.0550     2.8130 O.2   1 <1>  -0.5700 
  2 C       -2.0060     0.5910     1.7950 C.2   1 <1>   0.5690 
  3 N       -2.2520     0.0040     0.5810 N.am  1 <1>  -0.6600 
  4 C       -1.8230     2.0870     1.9260 C.3   1 <1>   0.1570 
  5 C       -2.2790    -1.4940     0.4580 C.3   1 <1>   0.3640 
  6 C       -2.4530     0.7750    -0.6920 C.3   1 <1>   0.1400 
  7 N       -0.5590     2.4860     1.2960 N.pl3 1 <1>   0.3140 
  8 C       -0.9030    -2.0610     0.0650 C.ar  1 <1>  -0.1440 
  9 C       -3.3900    -1.9840    -0.5270 C.3   1 <1>   0.2000 
 10 C       -2.8160    -0.1290    -1.8780 C.3   1 <1>   0.1200 
 11 N       -0.5250     3.3610     0.2710 N.2   1 <1>  -0.7070 
 12 C        0.6800     2.0570     1.6100 C.2   1 <1>  -0.3020 
 13 C        0.1670    -1.2810    -0.3650 C.ar  1 <1>  -0.1500 
 14 C       -0.7170    -3.4340     0.1620 C.ar  1 <1>  -0.1500 
 15 O       -3.8010    -1.0300    -1.4820 O.3   1 <1>  -0.5600 
 16 C       -4.6530    -2.4150     0.2280 C.3   1 <1>   0.1200 
 17 C        0.7300     3.4680    -0.0340 C.2   1 <1>   0.1080 
 18 C        1.5370     2.6720     0.7700 C.2   1 <1>  -0.1500 
 19 C        1.3760    -1.8610    -0.7090 C.ar  1 <1>  -0.1500 
 20 C        0.4900    -4.0180    -0.1820 C.ar  1 <1>  -0.1500 
 21 O       -4.4210    -3.6060     0.9110 O.3   1 <1>  -0.6800 
 22 C        1.2200     4.3680    -1.1440 C.3   1 <1>  -0.0590 
 23 C        1.5380    -3.2310    -0.6220 C.ar  1 <1>  -0.1500 
 24 H       -1.7890     2.3600     2.9620 H     1 <1>   0.0800 
 25 H       -2.6340     2.6050     1.4530 H     1 <1>   0.0800 
 26 H       -2.5000    -1.9150     1.4240 H     1 <1>   0.0800 
 27 H       -3.2450     1.4910    -0.5530 H     1 <1>   0.0800 
 28 H       -1.5580     1.3150    -0.9410 H     1 <1>   0.0800 
 29 H       -3.0280    -2.8280    -1.0850 H     1 <1>   0.0800 
 30 H       -1.9600    -0.6770    -2.2310 H     1 <1>   0.0800 
 31 H       -3.2080     0.4590    -2.6880 H     1 <1>   0.0800 
 32 H        0.8750     1.3480     2.3950 H     1 <1>   0.1500 
 33 H        0.0870    -0.2120    -0.4320 H     1 <1>   0.1500 
 34 H       -1.5160    -4.0630     0.5140 H     1 <1>   0.1500 
 35 H       -5.4690    -2.5760    -0.4550 H     1 <1>   0.0800 
 36 H       -4.9280    -1.6650     0.9490 H     1 <1>   0.0800 
 37 H        2.6070     2.5840     0.7150 H     1 <1>   0.1500 
 38 H        2.1910    -1.2430    -1.0410 H     1 <1>   0.1500 
 39 H        0.6150    -5.0830    -0.1030 H     1 <1>   0.1500 
 40 H       -4.4810    -4.3700     0.3030 H     1 <1>   0.4000 
 41 H        2.2890     4.3070    -1.2340 H     1 <1>   0.0800 
 42 H        0.9410     5.3830    -0.9300 H     1 <1>   0.0800 
 43 H        0.7700     4.0710    -2.0730 H     1 <1>   0.0800 
 44 H        2.4780    -3.6820    -0.8890 H     1 <1>   0.1500 
@<TRIPOS>BOND
  1   1   2  2   
  2   2   3  am  
  3   2   4  1   
  4   3   5  1   
  5   3   6  1   
  6   4   7  1   
  7   4  24  1   
  8   4  25  1   
  9   5   8  1   
 10   5   9  1   
 11   5  26  1   
 12   6  10  1   
 13   6  27  1   
 14   6  28  1   
 15   7  11  1   
 16   7  12  1   
 17   8  13  ar  
 18   8  14  ar  
 19   9  15  1   
 20   9  16  1   
 21   9  29  1   
 22  10  15  1   
 23  10  30  1   
 24  10  31  1   
 25  11  17  2   
 26  12  18  2   
 27  12  32  1   
 28  13  19  ar  
 29  13  33  1   
 30  14  20  ar  
 31  14  34  1   
 32  16  21  1   
 33  16  35  1   
 34  16  36  1   
 35  17  18  1   
 36  17  22  1   
 37  18  37  1   
 38  19  23  ar  
 39  19  38  1   
 40  20  23  ar  
 41  20  39  1   
 42  21  40  1   
 43  22  41  1   
 44  22  42  1   
 45  22  43  1   
 46  23  44  1   
@<TRIPOS>SUBSTRUCTURE
  1 ****   3 GROUP 4 **** **** 0

# MOE 2024.06 (io_trps.svl 2023.06)
