@<TRIPOS>MOLECULE
NONAME
52 55 1 0 0 
SMALL
USER_CHARGES


@<TRIPOS>ATOM
  1 O        0.3580    -0.0710    -0.4190 O.3   1 <1>  -0.5600 
  2 C        1.6250    -0.6590    -0.5410 C.3   1 <1>   0.3440 
  3 C        0.2900     1.2790    -0.7740 C.3   1 <1>   0.2950 
  4 C        1.5520    -2.1230    -0.1320 C.ar  1 <1>  -0.1440 
  5 C        2.6340     0.0740     0.3730 C.3   1 <1>   0.3430 
  6 C       -1.1650     1.7230    -0.6150 C.3   1 <1>  -0.1950 
  7 C        1.2230     2.1120     0.1320 C.3   1 <1>   0.3430 
  8 C        0.7170    -2.5440     0.8960 C.ar  1 <1>  -0.1500 
  9 C        2.3470    -3.0590    -0.7810 C.ar  1 <1>  -0.1500 
 10 N        2.6330     1.5700     0.1780 N.4   1 <1>  -0.9590 
 11 C       -2.1700     1.4760    -1.6950 C.3   1 <1>  -0.2000 
 12 C       -1.7110     2.8760    -1.3980 C.3   1 <1>  -0.2000 
 13 C        0.6860    -3.8740     1.2750 C.ar  1 <1>  -0.1500 
 14 C        2.3150    -4.3890    -0.4020 C.ar  1 <1>  -0.1500 
 15 C        3.4520     2.2780     1.1940 C.3   1 <1>   0.5240 
 16 C        1.4870    -4.7970     0.6280 C.ar  1 <1>  -0.1500 
 17 C        3.5480     3.7130     0.7420 C.2   1 <1>  -0.1810 
 18 C        2.8290     4.7870     1.2530 C.2   1 <1>   0.1080 
 19 C        4.3100     4.2450    -0.2460 C.2   1 <1>  -0.3320 
 20 N        3.0970     5.8840     0.6250 N.2   1 <1>  -0.7070 
 21 C        1.8320     4.7890     2.3940 C.3   1 <1>  -0.0590 
 22 N        4.0160     5.5610    -0.2880 N.pl3 1 <1>   0.3140 
 23 C        5.3290     3.5840    -1.1640 C.3   1 <1>  -0.0600 
 24 C        4.5860     6.5840    -1.1770 C.3   1 <1>   0.0160 
 25 H        1.9270    -0.5910    -1.5720 H     1 <1>   0.0800 
 26 H        0.5830     1.3760    -1.8060 H     1 <1>   0.0800 
 27 H        3.6190    -0.3240     0.1940 H     1 <1>   0.0800 
 28 H        2.3710    -0.1580     1.3920 H     1 <1>   0.0800 
 29 H       -1.5140     1.6140     0.3980 H     1 <1>   0.1000 
 30 H        0.8030     2.1130     1.1240 H     1 <1>   0.0800 
 31 H        1.2310     3.1320    -0.2180 H     1 <1>   0.0800 
 32 H        0.0780    -1.8420     1.4050 H     1 <1>   0.1500 
 33 H        2.9960    -2.7700    -1.5890 H     1 <1>   0.1500 
 34 H        3.0700     1.8090    -0.7220 H     1 <1>   0.4500 
 35 H       -1.8530     1.0050    -2.6100 H     1 <1>   0.1000 
 36 H       -3.1670     1.1850    -1.4120 H     1 <1>   0.1000 
 37 H       -2.4090     3.5480    -0.9270 H     1 <1>   0.1000 
 38 H       -1.1080     3.3710    -2.1410 H     1 <1>   0.1000 
 39 H        0.0350    -4.1940     2.0710 H     1 <1>   0.1500 
 40 H        2.9320    -5.1120    -0.9080 H     1 <1>   0.1500 
 41 H        2.9960     2.2140     2.1680 H     1 <1>   0.0800 
 42 H        4.4410     1.8530     1.2420 H     1 <1>   0.0800 
 43 H        1.4610    -5.8330     0.9220 H     1 <1>   0.1500 
 44 H        1.8120     3.8500     2.9120 H     1 <1>   0.0800 
 45 H        0.8520     5.0100     2.0150 H     1 <1>   0.0800 
 46 H        2.1030     5.5600     3.0930 H     1 <1>   0.0800 
 47 H        5.4420     2.5400    -0.9360 H     1 <1>   0.0800 
 48 H        6.2890     4.0570    -1.0460 H     1 <1>   0.0800 
 49 H        5.0250     3.6820    -2.1920 H     1 <1>   0.0800 
 50 H        4.4040     6.3100    -2.1990 H     1 <1>   0.0800 
 51 H        5.6410     6.6610    -0.9970 H     1 <1>   0.0800 
 52 H        4.1190     7.5290    -0.9710 H     1 <1>   0.0800 
@<TRIPOS>BOND
  1   1   2  1   
  2   1   3  1   
  3   2   4  1   
  4   2   5  1   
  5   2  25  1   
  6   3   6  1   
  7   3   7  1   
  8   3  26  1   
  9   4   8  ar  
 10   4   9  ar  
 11   5  10  1   
 12   5  27  1   
 13   5  28  1   
 14   6  11  1   
 15   6  12  1   
 16   6  29  1   
 17   7  10  1   
 18   7  30  1   
 19   7  31  1   
 20   8  13  ar  
 21   8  32  1   
 22   9  14  ar  
 23   9  33  1   
 24  10  15  1   
 25  10  34  1   
 26  11  12  1   
 27  11  35  1   
 28  11  36  1   
 29  12  37  1   
 30  12  38  1   
 31  13  16  ar  
 32  13  39  1   
 33  14  16  ar  
 34  14  40  1   
 35  15  17  1   
 36  15  41  1   
 37  15  42  1   
 38  16  43  1   
 39  17  18  1   
 40  17  19  2   
 41  18  20  2   
 42  18  21  1   
 43  19  22  1   
 44  19  23  1   
 45  20  22  1   
 46  21  44  1   
 47  21  45  1   
 48  21  46  1   
 49  22  24  1   
 50  23  47  1   
 51  23  48  1   
 52  23  49  1   
 53  24  50  1   
 54  24  51  1   
 55  24  52  1   
@<TRIPOS>SUBSTRUCTURE
  1 ****  10 GROUP 4 **** **** 0

# MOE 2024.06 (io_trps.svl 2023.06)
