@<TRIPOS>MOLECULE
NONAME
43 45 1 0 0 
SMALL
USER_CHARGES


@<TRIPOS>ATOM
  1 F       -0.8950    -0.8220    -1.4340 F     1 <1>  -0.1900 
  2 C       -1.8420    -1.2960    -0.6730 C.ar  1 <1>   0.1900 
  3 C       -1.8350    -2.6270    -0.2690 C.ar  1 <1>  -0.1440 
  4 C       -2.8350    -0.4050    -0.3160 C.ar  1 <1>  -0.1500 
  5 C       -2.9130    -3.0620     0.5200 C.ar  1 <1>  -0.1440 
  6 C       -0.7020    -3.5850    -0.6780 C.3   1 <1>   1.1640 
  7 C       -3.8770    -0.8450     0.4730 C.ar  1 <1>  -0.1500 
  8 C       -3.9110    -2.1640     0.8850 C.ar  1 <1>  -0.1500 
  9 C       -3.0740    -4.4970     1.0240 C.3   1 <1>   0.4860 
 10 F        0.3630    -3.0620    -1.2610 F     1 <1>  -0.3400 
 11 F       -0.2480    -4.2590     0.3700 F     1 <1>  -0.3400 
 12 F       -1.1690    -4.5110    -1.5120 F     1 <1>  -0.3400 
 13 N       -3.5030    -5.3990    -0.0860 N.4   1 <1>  -0.9590 
 14 C       -4.8270    -4.9870    -0.6520 C.3   1 <1>   0.3430 
 15 C       -3.6780    -6.7940     0.4310 C.3   1 <1>   0.3430 
 16 C       -5.8660    -5.8490     0.0680 C.3   1 <1>   0.2000 
 17 C       -5.1520    -7.1890     0.2230 C.3   1 <1>  -0.0800 
 18 O       -6.0780    -5.3180     1.3380 O.3   1 <1>  -0.6800 
 19 C       -5.3550    -8.0840    -1.0200 C.3   1 <1>  -0.0160 
 20 C       -4.7430    -9.4670    -0.8450 C.ar  1 <1>   0.1670 
 21 N       -3.4220    -9.5300    -0.8880 N.ar  1 <1>  -0.6200 
 22 C       -5.5610   -10.5810    -0.6570 C.ar  1 <1>   0.1600 
 23 C       -2.9780   -10.7700    -0.7440 C.ar  1 <1>   0.1600 
 24 N       -5.1170   -11.8150    -0.5000 N.ar  1 <1>  -0.6200 
 25 C       -3.7980   -11.8750    -0.5550 C.ar  1 <1>   0.1600 
 26 H       -2.7890     0.6170    -0.6530 H     1 <1>   0.1500 
 27 H       -4.6570    -0.1600     0.7660 H     1 <1>   0.1500 
 28 H       -4.7380    -2.4840     1.5020 H     1 <1>   0.1500 
 29 H       -3.8180    -4.5140     1.8050 H     1 <1>   0.0800 
 30 H       -2.1490    -4.8460     1.4510 H     1 <1>   0.0800 
 31 H       -2.7860    -5.3900    -0.8280 H     1 <1>   0.4500 
 32 H       -5.0300    -3.9370    -0.5190 H     1 <1>   0.0800 
 33 H       -4.8510    -5.2160    -1.7040 H     1 <1>   0.0800 
 34 H       -3.0100    -7.4680    -0.0780 H     1 <1>   0.0800 
 35 H       -3.4520    -6.8280     1.4850 H     1 <1>   0.0800 
 36 H       -6.8070    -5.8950    -0.4540 H     1 <1>   0.0800 
 37 H       -5.5180    -7.7250     1.0830 H     1 <1>   0.0800 
 38 H       -6.8560    -5.7320     1.7710 H     1 <1>   0.4000 
 39 H       -4.9190    -7.6290    -1.8930 H     1 <1>   0.0800 
 40 H       -6.4090    -8.1940    -1.2110 H     1 <1>   0.0800 
 41 H       -6.6280   -10.4520    -0.6340 H     1 <1>   0.1500 
 42 H       -1.9130   -10.9230    -0.7770 H     1 <1>   0.1500 
 43 H       -3.3450   -12.8450    -0.4450 H     1 <1>   0.1500 
@<TRIPOS>BOND
  1   1   2  1   
  2   2   3  ar  
  3   2   4  ar  
  4   3   5  ar  
  5   3   6  1   
  6   4   7  ar  
  7   4  26  1   
  8   5   8  ar  
  9   5   9  1   
 10   6  10  1   
 11   6  11  1   
 12   6  12  1   
 13   7   8  ar  
 14   7  27  1   
 15   8  28  1   
 16   9  13  1   
 17   9  29  1   
 18   9  30  1   
 19  13  14  1   
 20  13  15  1   
 21  13  31  1   
 22  14  16  1   
 23  14  32  1   
 24  14  33  1   
 25  15  17  1   
 26  15  34  1   
 27  15  35  1   
 28  16  17  1   
 29  16  18  1   
 30  16  36  1   
 31  17  19  1   
 32  17  37  1   
 33  18  38  1   
 34  19  20  1   
 35  19  39  1   
 36  19  40  1   
 37  20  21  ar  
 38  20  22  ar  
 39  21  23  ar  
 40  22  24  ar  
 41  22  41  1   
 42  23  25  ar  
 43  23  42  1   
 44  24  25  ar  
 45  25  43  1   
@<TRIPOS>SUBSTRUCTURE
  1 ****  13 GROUP 4 **** **** 0

# MOE 2024.06 (io_trps.svl 2023.06)
