@<TRIPOS>MOLECULE
NONAME
52 55 1 0 0 
SMALL
USER_CHARGES


@<TRIPOS>ATOM
  1 O       -0.0150     0.6570    -0.8080 O.3   1 <1>  -0.3630 
  2 C       -1.2580     0.2680    -0.4030 C.ar  1 <1>   0.0820 
  3 C        0.9440    -0.2920    -1.2320 C.3   1 <1>   0.0400 
  4 C       -2.2460     1.2480    -0.2900 C.ar  1 <1>  -0.1440 
  5 C       -1.5560    -1.0610    -0.1100 C.ar  1 <1>  -0.1500 
  6 C       -3.5270     0.8610     0.0840 C.ar  1 <1>  -0.1500 
  7 C       -1.8920     2.7070    -0.6020 C.3   1 <1>   0.0630 
  8 C       -2.8320    -1.4250     0.2790 C.ar  1 <1>  -0.1500 
  9 C       -3.8260    -0.4590     0.3740 C.ar  1 <1>   0.0820 
 10 C       -0.7110     3.1980     0.2430 C.3   1 <1>   0.3430 
 11 C       -2.9770     3.7610    -0.3650 C.3   1 <1>  -0.1600 
 12 O       -5.1060    -0.7230     0.7420 O.3   1 <1>  -0.3630 
 13 N       -1.0540     4.5730     0.7360 N.4   1 <1>  -0.9590 
 14 C       -2.1970     5.0330    -0.0970 C.3   1 <1>   0.3430 
 15 C       -5.5270    -2.0390     1.0260 C.3   1 <1>   0.0400 
 16 C        0.1410     5.4770     0.7290 C.3   1 <1>   0.3430 
 17 C       -0.1370     6.8380     1.3770 C.3   1 <1>   0.0960 
 18 N        1.1000     7.6260     1.3190 N.pl3 1 <1>   0.0480 
 19 C        1.6720     8.1380     0.1970 C.ar  1 <1>  -0.1520 
 20 C        2.0290     7.7680     2.2990 C.2   1 <1>   0.0360 
 21 C        2.9320     8.5560     0.5860 C.ar  1 <1>   0.2270 
 22 C        1.2400     8.2890    -1.1260 C.ar  1 <1>  -0.1500 
 23 N        3.1270     8.3100     1.9090 N.2   1 <1>  -0.5650 
 24 C        3.7970     9.1290    -0.3440 C.ar  1 <1>  -0.1500 
 25 C        2.1030     8.8550    -2.0380 C.ar  1 <1>  -0.1500 
 26 C        3.3810     9.2740    -1.6490 C.ar  1 <1>  -0.1500 
 27 H        1.7930     0.2380    -1.6240 H     1 <1>   0.0800 
 28 H        0.5120    -0.9070    -2.0030 H     1 <1>   0.0800 
 29 H        1.2460    -0.8890    -0.3900 H     1 <1>   0.0800 
 30 H       -0.8110    -1.8310    -0.1760 H     1 <1>   0.1500 
 31 H       -4.3400     1.5560     0.1580 H     1 <1>   0.1500 
 32 H       -1.5910     2.7540    -1.6350 H     1 <1>   0.0800 
 33 H       -3.0320    -2.4560     0.5000 H     1 <1>   0.1500 
 34 H        0.1790     3.2090    -0.3650 H     1 <1>   0.0800 
 35 H       -0.5510     2.5290     1.0740 H     1 <1>   0.0800 
 36 H       -3.5570     3.5430     0.5140 H     1 <1>   0.0800 
 37 H       -3.6370     3.8610    -1.2100 H     1 <1>   0.0800 
 38 H       -1.3990     4.4480     1.7000 H     1 <1>   0.4500 
 39 H       -2.7980     5.7700     0.4110 H     1 <1>   0.0800 
 40 H       -1.8360     5.4370    -1.0300 H     1 <1>   0.0800 
 41 H       -6.5720    -2.0080     1.2770 H     1 <1>   0.0800 
 42 H       -4.9610    -2.4150     1.8600 H     1 <1>   0.0800 
 43 H       -5.3800    -2.6490     0.1520 H     1 <1>   0.0800 
 44 H        0.4670     5.6320    -0.2870 H     1 <1>   0.0800 
 45 H        0.9470     5.0020     1.2670 H     1 <1>   0.0800 
 46 H       -0.4240     6.7190     2.4060 H     1 <1>   0.0800 
 47 H       -0.9030     7.3720     0.8450 H     1 <1>   0.0800 
 48 H        1.8520     7.4430     3.3090 H     1 <1>   0.1500 
 49 H        0.2560     7.9830    -1.4280 H     1 <1>   0.1500 
 50 H        4.7700     9.4440    -0.0170 H     1 <1>   0.1500 
 51 H        1.8040     8.9890    -3.0640 H     1 <1>   0.1500 
 52 H        4.0370     9.7150    -2.3800 H     1 <1>   0.1500 
@<TRIPOS>BOND
  1   1   2  1   
  2   1   3  1   
  3   2   4  ar  
  4   2   5  ar  
  5   3  27  1   
  6   3  28  1   
  7   3  29  1   
  8   4   6  ar  
  9   4   7  1   
 10   5   8  ar  
 11   5  30  1   
 12   6   9  ar  
 13   6  31  1   
 14   7  10  1   
 15   7  11  1   
 16   7  32  1   
 17   8   9  ar  
 18   8  33  1   
 19   9  12  1   
 20  10  13  1   
 21  10  34  1   
 22  10  35  1   
 23  11  14  1   
 24  11  36  1   
 25  11  37  1   
 26  12  15  1   
 27  13  14  1   
 28  13  16  1   
 29  13  38  1   
 30  14  39  1   
 31  14  40  1   
 32  15  41  1   
 33  15  42  1   
 34  15  43  1   
 35  16  17  1   
 36  16  44  1   
 37  16  45  1   
 38  17  18  1   
 39  17  46  1   
 40  17  47  1   
 41  18  19  1   
 42  18  20  1   
 43  19  21  ar  
 44  19  22  ar  
 45  20  23  2   
 46  20  48  1   
 47  21  23  1   
 48  21  24  ar  
 49  22  25  ar  
 50  22  49  1   
 51  24  26  ar  
 52  24  50  1   
 53  25  26  ar  
 54  25  51  1   
 55  26  52  1   
@<TRIPOS>SUBSTRUCTURE
  1 ****  10 GROUP 4 **** **** 0

# MOE 2024.06 (io_trps.svl 2023.06)
