@<TRIPOS>MOLECULE
NONAME
48 49 1 0 0 
SMALL
USER_CHARGES


@<TRIPOS>ATOM
  1 CL      -0.3440    -4.1010     0.0880 Cl    1 <1>  -0.1770 
  2 C       -1.9460    -3.6030     0.5650 C.ar  1 <1>   0.1770 
  3 C       -3.0240    -3.9540    -0.2240 C.ar  1 <1>  -0.1500 
  4 C       -2.1050    -2.8680     1.7260 C.ar  1 <1>  -0.1500 
  5 C       -4.3020    -3.5600     0.1620 C.ar  1 <1>   0.0830 
  6 C       -3.3760    -2.4730     2.1060 C.ar  1 <1>  -0.1500 
  7 O       -5.4310    -3.8600    -0.5300 O.3   1 <1>  -0.3630 
  8 C       -4.4660    -2.8190     1.3250 C.ar  1 <1>  -0.1500 
  9 C       -5.3800    -4.5020    -1.7960 C.3   1 <1>   0.1810 
 10 C       -5.0330    -5.9970    -1.7470 C.2   1 <1>   0.5690 
 11 O       -4.3090    -6.3850    -2.6310 O.2   1 <1>  -0.5700 
 12 N       -5.5300    -6.8880    -0.8180 N.am  1 <1>  -0.6600 
 13 C       -5.0790    -8.3240    -0.9270 C.3   1 <1>   0.3210 
 14 C       -6.2600    -6.4940     0.4350 C.3   1 <1>   0.1400 
 15 C       -5.9630    -9.3410    -0.1950 C.2   1 <1>   0.0460 
 16 C       -7.7040    -6.0160     0.1760 C.3   1 <1>   0.3430 
 17 N       -7.2410    -9.5790    -0.5700 N.2   1 <1>  -0.5650 
 18 C       -5.6220   -10.1270     0.8550 C.2   1 <1>  -0.3320 
 19 N       -8.4930    -6.9870    -0.6500 N.4   1 <1>  -0.9590 
 20 C       -7.6320   -10.5160     0.2320 C.2   1 <1>   0.0360 
 21 N       -6.6960   -10.8910     1.1250 N.pl3 1 <1>   0.0330 
 22 C       -4.3280   -10.2510     1.6450 C.3   1 <1>  -0.0600 
 23 C       -8.4320    -6.7080    -2.1130 C.3   1 <1>   0.2630 
 24 C       -9.9010    -7.1190    -0.1830 C.3   1 <1>   0.2630 
 25 H       -2.8320    -4.5240    -1.1130 H     1 <1>   0.1500 
 26 H       -1.2450    -2.6100     2.3170 H     1 <1>   0.1500 
 27 H       -3.5140    -1.8960     3.0060 H     1 <1>   0.1500 
 28 H       -5.4530    -2.5070     1.6180 H     1 <1>   0.1500 
 29 H       -4.6650    -3.9800    -2.4070 H     1 <1>   0.0800 
 30 H       -6.3440    -4.3860    -2.2520 H     1 <1>   0.0800 
 31 H       -4.0740    -8.3900    -0.5540 H     1 <1>   0.0800 
 32 H       -5.0510    -8.6110    -1.9640 H     1 <1>   0.0800 
 33 H       -5.7120    -5.7220     0.9430 H     1 <1>   0.0800 
 34 H       -6.2940    -7.3140     1.1290 H     1 <1>   0.0800 
 35 H       -7.6820    -5.0530    -0.3060 H     1 <1>   0.0800 
 36 H       -8.1820    -5.8860     1.1320 H     1 <1>   0.0800 
 37 H       -8.0250    -7.9180    -0.5300 H     1 <1>   0.4500 
 38 H       -8.6050   -10.9780     0.2060 H     1 <1>   0.1500 
 39 H       -6.7800   -11.6210     1.8410 H     1 <1>   0.2700 
 40 H       -3.5950    -9.5410     1.3060 H     1 <1>   0.0800 
 41 H       -3.9180   -11.2390     1.5300 H     1 <1>   0.0800 
 42 H       -4.5110   -10.0730     2.6900 H     1 <1>   0.0800 
 43 H       -8.8430    -5.7360    -2.3310 H     1 <1>   0.0800 
 44 H       -8.9920    -7.4530    -2.6540 H     1 <1>   0.0800 
 45 H       -7.4120    -6.7450    -2.4580 H     1 <1>   0.0800 
 46 H      -10.4250    -6.1850    -0.3010 H     1 <1>   0.0800 
 47 H       -9.9240    -7.4040     0.8560 H     1 <1>   0.0800 
 48 H      -10.4100    -7.8780    -0.7560 H     1 <1>   0.0800 
@<TRIPOS>BOND
  1   1   2  1   
  2   2   3  ar  
  3   2   4  ar  
  4   3   5  ar  
  5   3  25  1   
  6   4   6  ar  
  7   4  26  1   
  8   5   7  1   
  9   5   8  ar  
 10   6   8  ar  
 11   6  27  1   
 12   7   9  1   
 13   8  28  1   
 14   9  10  1   
 15   9  29  1   
 16   9  30  1   
 17  10  11  2   
 18  10  12  am  
 19  12  13  1   
 20  12  14  1   
 21  13  15  1   
 22  13  31  1   
 23  13  32  1   
 24  14  16  1   
 25  14  33  1   
 26  14  34  1   
 27  15  17  1   
 28  15  18  2   
 29  16  19  1   
 30  16  35  1   
 31  16  36  1   
 32  17  20  2   
 33  18  21  1   
 34  18  22  1   
 35  19  23  1   
 36  19  24  1   
 37  19  37  1   
 38  20  21  1   
 39  20  38  1   
 40  21  39  1   
 41  22  40  1   
 42  22  41  1   
 43  22  42  1   
 44  23  43  1   
 45  23  44  1   
 46  23  45  1   
 47  24  46  1   
 48  24  47  1   
 49  24  48  1   
@<TRIPOS>SUBSTRUCTURE
  1 ****  12 GROUP 4 **** **** 0

# MOE 2024.06 (io_trps.svl 2023.06)
