@<TRIPOS>MOLECULE
NONAME
40 41 1 0 0 
SMALL
USER_CHARGES


@<TRIPOS>ATOM
  1 S        0.4070    -0.0710    -0.5270 S.o2  1 <1>   1.3330 
  2 O       -0.5240    -0.1910    -1.6260 O.2   1 <1>  -0.6500 
  3 O        1.8240     0.0170    -0.7980 O.2   1 <1>  -0.6500 
  4 N        0.1600    -1.3830     0.5220 N.am  1 <1>  -0.8490 
  5 C       -0.0940     1.3400     0.4560 C.3   1 <1>  -0.0550 
  6 C       -0.0820    -2.6320    -0.2050 C.3   1 <1>   0.1160 
  7 C        1.2510    -1.5700     1.4840 C.3   1 <1>   0.1160 
  8 C       -0.0050     2.6750    -0.3110 C.3   1 <1>  -0.0800 
  9 C       -0.5480     3.8800     0.4620 C.3   1 <1>   0.2000 
 10 C        1.4260     3.0800    -0.6950 C.3   1 <1>   0.2090 
 11 O       -0.0690     3.8320     1.7640 O.3   1 <1>  -0.6800 
 12 C        0.1000     5.0750    -0.2370 C.3   1 <1>   0.2090 
 13 N        1.4340     4.5640    -0.6420 N.pl3 1 <1>  -0.8380 
 14 C        2.5790     5.3170    -0.6650 C.ar  1 <1>   0.7200 
 15 N        2.4370     6.6320    -0.5440 N.ar  1 <1>  -0.6200 
 16 N        3.7270     4.6640    -0.8020 N.ar  1 <1>  -0.6200 
 17 C        3.5360     7.3710    -0.5740 C.ar  1 <1>   0.1670 
 18 C        4.8090     5.3960    -0.8310 C.ar  1 <1>   0.1600 
 19 C        4.7690     6.7630    -0.7210 C.ar  1 <1>  -0.1500 
 20 C        3.4300     8.9150    -0.4430 C.3   1 <1>   1.1630 
 21 F        4.6160     9.5190    -0.4610 F     1 <1>  -0.3400 
 22 F        2.7300     9.4710    -1.4270 F     1 <1>  -0.3400 
 23 F        2.8500     9.2990     0.6910 F     1 <1>  -0.3400 
 24 H       -1.1080     1.1940     0.7730 H     1 <1>   0.0800 
 25 H        0.5160     1.3910     1.3360 H     1 <1>   0.0800 
 26 H       -0.2520    -3.4400     0.4870 H     1 <1>   0.0800 
 27 H        0.7620    -2.8720    -0.8300 H     1 <1>   0.0800 
 28 H       -0.9560    -2.5340    -0.8270 H     1 <1>   0.0800 
 29 H        1.0050    -2.3600     2.1730 H     1 <1>   0.0800 
 30 H        1.4090    -0.6670     2.0490 H     1 <1>   0.0800 
 31 H        2.1670    -1.8220     0.9730 H     1 <1>   0.0800 
 32 H       -0.5700     2.5860    -1.2220 H     1 <1>   0.0800 
 33 H       -1.6230     3.9310     0.4870 H     1 <1>   0.0800 
 34 H        1.6840     2.7340    -1.6830 H     1 <1>   0.0800 
 35 H        2.1410     2.6920     0.0120 H     1 <1>   0.0800 
 36 H        0.8830     4.0650     1.7380 H     1 <1>   0.4000 
 37 H        0.1640     5.9290     0.4160 H     1 <1>   0.0800 
 38 H       -0.4550     5.3380    -1.1200 H     1 <1>   0.0800 
 39 H        5.7540     4.8900    -0.9460 H     1 <1>   0.1500 
 40 H        5.6860     7.3250    -0.7510 H     1 <1>   0.1500 
@<TRIPOS>BOND
  1   1   2  2   
  2   1   3  2   
  3   1   4  am  
  4   1   5  1   
  5   4   6  1   
  6   4   7  1   
  7   5   8  1   
  8   5  24  1   
  9   5  25  1   
 10   6  26  1   
 11   6  27  1   
 12   6  28  1   
 13   7  29  1   
 14   7  30  1   
 15   7  31  1   
 16   8   9  1   
 17   8  10  1   
 18   8  32  1   
 19   9  11  1   
 20   9  12  1   
 21   9  33  1   
 22  10  13  1   
 23  10  34  1   
 24  10  35  1   
 25  11  36  1   
 26  12  13  1   
 27  12  37  1   
 28  12  38  1   
 29  13  14  1   
 30  14  15  ar  
 31  14  16  ar  
 32  15  17  ar  
 33  16  18  ar  
 34  17  19  ar  
 35  17  20  1   
 36  18  19  ar  
 37  18  39  1   
 38  19  40  1   
 39  20  21  1   
 40  20  22  1   
 41  20  23  1   
@<TRIPOS>SUBSTRUCTURE
  1 ****  13 GROUP 4 **** **** 0

# MOE 2024.06 (io_trps.svl 2023.06)
