@<TRIPOS>MOLECULE
NONAME
52 54 1 0 0 
SMALL
USER_CHARGES


@<TRIPOS>ATOM
  1 O       -0.0530     0.5600     0.2120 O.3   1 <1>  -0.3630 
  2 C        1.1990     0.9540    -0.1460 C.ar  1 <1>   0.0830 
  3 C       -1.2020     1.2270    -0.2460 C.3   1 <1>   0.1200 
  4 C        2.2860     0.3420     0.4820 C.ar  1 <1>  -0.1440 
  5 C        1.4160     1.9420    -1.1040 C.ar  1 <1>  -0.1500 
  6 C       -2.4030     0.5750     0.4440 C.3   1 <1>   0.3430 
  7 C        3.5800     0.7430     0.1560 C.ar  1 <1>  -0.1440 
  8 C        2.0700    -0.7540     1.5270 C.3   1 <1>  -0.0970 
  9 C        2.7020     2.3250    -1.4270 C.ar  1 <1>  -0.1500 
 10 N       -3.7120     1.1730     0.0250 N.4   1 <1>  -0.9590 
 11 C        3.7770     1.7290    -0.7970 C.ar  1 <1>  -0.1500 
 12 C        4.8070     0.1300     0.8190 C.3   1 <1>  -0.0970 
 13 C       -4.8420     0.3250     0.5240 C.3   1 <1>   0.3430 
 14 C       -3.8700     2.5810     0.5000 C.3   1 <1>   0.3430 
 15 C       -6.1930     0.8130    -0.0230 C.3   1 <1>   0.0000 
 16 C       -5.1720     3.1680    -0.0470 C.3   1 <1>  -0.1600 
 17 C       -7.3100    -0.0940     0.5170 C.3   1 <1>   0.2000 
 18 C       -6.3890     2.3120     0.3400 C.3   1 <1>  -0.1600 
 19 C       -6.3580     0.6010    -1.5400 C.3   1 <1>  -0.1600 
 20 O       -7.6200     0.2000     1.8290 O.3   1 <1>  -0.6800 
 21 C       -8.4980     0.1290    -0.4100 C.3   1 <1>  -0.1600 
 22 C       -7.8730     0.4690    -1.7720 C.3   1 <1>  -0.1600 
 23 H       -1.1090     2.2640     0.0220 H     1 <1>   0.0800 
 24 H       -1.2560     1.1020    -1.3130 H     1 <1>   0.0800 
 25 H        0.6090     2.4260    -1.6160 H     1 <1>   0.1500 
 26 H       -2.2870     0.6740     1.5110 H     1 <1>   0.0800 
 27 H       -2.3960    -0.4740     0.1990 H     1 <1>   0.0800 
 28 H        2.7580    -1.5640     1.3700 H     1 <1>   0.0800 
 29 H        1.0810    -1.1690     1.4810 H     1 <1>   0.0800 
 30 H        2.2250    -0.3510     2.5110 H     1 <1>   0.0800 
 31 H        2.8720     3.0880    -2.1670 H     1 <1>   0.1500 
 32 H       -3.7740     1.1760    -1.0010 H     1 <1>   0.4500 
 33 H        4.7730     2.0410    -1.0580 H     1 <1>   0.1500 
 34 H        5.6990     0.6690     0.5570 H     1 <1>   0.0800 
 35 H        4.9240    -0.8910     0.5020 H     1 <1>   0.0800 
 36 H        4.7050     0.1570     1.8890 H     1 <1>   0.0800 
 37 H       -4.6920    -0.7000     0.2270 H     1 <1>   0.0800 
 38 H       -4.8760     0.3590     1.6010 H     1 <1>   0.0800 
 39 H       -3.8950     2.6010     1.5780 H     1 <1>   0.0800 
 40 H       -3.0420     3.1860     0.1690 H     1 <1>   0.0800 
 41 H       -5.3010     4.1590     0.3540 H     1 <1>   0.0800 
 42 H       -5.1020     3.2700    -1.1150 H     1 <1>   0.0800 
 43 H       -7.0130    -1.1290     0.4670 H     1 <1>   0.0800 
 44 H       -7.2730     2.7080    -0.1300 H     1 <1>   0.0800 
 45 H       -6.5310     2.4100     1.4030 H     1 <1>   0.0800 
 46 H       -5.9440     1.3940    -2.1360 H     1 <1>   0.0800 
 47 H       -5.8910    -0.3240    -1.8320 H     1 <1>   0.0800 
 48 H       -8.4500    -0.2470     2.0900 H     1 <1>   0.4000 
 49 H       -9.1140    -0.7500    -0.4730 H     1 <1>   0.0800 
 50 H       -9.0900     0.9630    -0.0690 H     1 <1>   0.0800 
 51 H       -8.0800    -0.3000    -2.4970 H     1 <1>   0.0800 
 52 H       -8.2800     1.3980    -2.1350 H     1 <1>   0.0800 
@<TRIPOS>BOND
  1   1   2  1   
  2   1   3  1   
  3   2   4  ar  
  4   2   5  ar  
  5   3   6  1   
  6   3  23  1   
  7   3  24  1   
  8   4   7  ar  
  9   4   8  1   
 10   5   9  ar  
 11   5  25  1   
 12   6  10  1   
 13   6  26  1   
 14   6  27  1   
 15   7  11  ar  
 16   7  12  1   
 17   8  28  1   
 18   8  29  1   
 19   8  30  1   
 20   9  11  ar  
 21   9  31  1   
 22  10  13  1   
 23  10  14  1   
 24  10  32  1   
 25  11  33  1   
 26  12  34  1   
 27  12  35  1   
 28  12  36  1   
 29  13  15  1   
 30  13  37  1   
 31  13  38  1   
 32  14  16  1   
 33  14  39  1   
 34  14  40  1   
 35  15  17  1   
 36  15  18  1   
 37  15  19  1   
 38  16  18  1   
 39  16  41  1   
 40  16  42  1   
 41  17  20  1   
 42  17  21  1   
 43  17  43  1   
 44  18  44  1   
 45  18  45  1   
 46  19  22  1   
 47  19  46  1   
 48  19  47  1   
 49  20  48  1   
 50  21  22  1   
 51  21  49  1   
 52  21  50  1   
 53  22  51  1   
 54  22  52  1   
@<TRIPOS>SUBSTRUCTURE
  1 ****   6 GROUP 4 **** **** 0

# MOE 2024.06 (io_trps.svl 2023.06)
