@<TRIPOS>MOLECULE
NONAME
46 48 1 0 0 
SMALL
USER_CHARGES


@<TRIPOS>ATOM
  1 O       -2.4210     0.8790    -1.8280 O.2   1 <1>  -0.5700 
  2 C       -2.0820     0.9920    -0.6650 C.2   1 <1>   0.5440 
  3 N       -2.0040    -0.1380     0.0960 N.am  1 <1>  -0.7300 
  4 C       -1.7810     2.2830    -0.0750 C.ar  1 <1>   0.0860 
  5 C       -2.3030    -1.5070    -0.3800 C.3   1 <1>   0.2200 
  6 C       -0.8740     3.1940    -0.6380 C.ar  1 <1>  -0.1440 
  7 C       -2.4090     2.6480     1.1170 C.ar  1 <1>  -0.1500 
  8 C       -3.7120    -1.8830     0.0400 C.3   1 <1>  -0.0800 
  9 C       -1.4640    -2.5190     0.3940 C.3   1 <1>   0.1200 
 10 C       -0.6200     4.4080    -0.0200 C.ar  1 <1>  -0.1500 
 11 C       -0.1450     2.8680    -1.9370 C.3   1 <1>  -0.0970 
 12 C       -2.1520     3.8570     1.7310 C.ar  1 <1>  -0.1500 
 13 C       -3.4970    -2.3750     1.4750 C.3   1 <1>   0.1200 
 14 C       -4.3020    -2.9750    -0.8720 C.3   1 <1>  -0.0170 
 15 O       -2.1630    -2.7870     1.5730 O.3   1 <1>  -0.5600 
 16 C       -1.2560     4.7490     1.1700 C.ar  1 <1>   0.0820 
 17 C       -5.7280    -3.3230    -0.4720 C.ar  1 <1>  -0.1430 
 18 O       -1.0560     5.9130     1.8280 O.3   1 <1>  -0.3630 
 19 C       -6.0410    -4.4900     0.1960 C.ar  1 <1>  -0.1500 
 20 C       -6.7850    -2.4840    -0.7610 C.ar  1 <1>  -0.1500 
 21 C       -0.1880     6.9070     1.3330 C.3   1 <1>   0.0400 
 22 C       -7.3570    -4.7510     0.5380 C.ar  1 <1>   0.1600 
 23 C       -8.0660    -2.8390    -0.3750 C.ar  1 <1>   0.1600 
 24 N       -8.3780    -3.9520     0.2700 N.ar  1 <1>  -0.6200 
 25 H       -1.7240    -0.0750     1.0770 H     1 <1>   0.3700 
 26 H       -2.1430    -1.5750    -1.4440 H     1 <1>   0.0800 
 27 H       -3.1170     1.9730     1.5650 H     1 <1>   0.1500 
 28 H       -4.3640    -1.0270     0.0190 H     1 <1>   0.0800 
 29 H       -0.4820    -2.1490     0.6300 H     1 <1>   0.0800 
 30 H       -1.3840    -3.4410    -0.1530 H     1 <1>   0.0800 
 31 H        0.0770     5.0870    -0.4730 H     1 <1>   0.1500 
 32 H        0.6250     3.5880    -2.1460 H     1 <1>   0.0800 
 33 H       -0.8430     2.8690    -2.7560 H     1 <1>   0.0800 
 34 H        0.3110     1.8960    -1.8760 H     1 <1>   0.0800 
 35 H       -2.6450     4.1240     2.6490 H     1 <1>   0.1500 
 36 H       -4.1380    -3.1960     1.7430 H     1 <1>   0.0800 
 37 H       -3.6380    -1.5700     2.1750 H     1 <1>   0.0800 
 38 H       -3.6910    -3.8610    -0.8390 H     1 <1>   0.0800 
 39 H       -4.3080    -2.6230    -1.8890 H     1 <1>   0.0800 
 40 H       -5.2750    -5.1980     0.4560 H     1 <1>   0.1500 
 41 H       -6.6240    -1.5590    -1.2840 H     1 <1>   0.1500 
 42 H       -0.2050     7.7360     2.0180 H     1 <1>   0.0800 
 43 H       -0.5360     7.2250     0.3660 H     1 <1>   0.0800 
 44 H        0.8070     6.5030     1.2720 H     1 <1>   0.0800 
 45 H       -7.5830    -5.6650     1.0590 H     1 <1>   0.1500 
 46 H       -8.8780    -2.1720    -0.6090 H     1 <1>   0.1500 
@<TRIPOS>BOND
  1   1   2  2   
  2   2   3  am  
  3   2   4  1   
  4   3   5  1   
  5   3  25  1   
  6   4   6  ar  
  7   4   7  ar  
  8   5   8  1   
  9   5   9  1   
 10   5  26  1   
 11   6  10  ar  
 12   6  11  1   
 13   7  12  ar  
 14   7  27  1   
 15   8  13  1   
 16   8  14  1   
 17   8  28  1   
 18   9  15  1   
 19   9  29  1   
 20   9  30  1   
 21  10  16  ar  
 22  10  31  1   
 23  11  32  1   
 24  11  33  1   
 25  11  34  1   
 26  12  16  ar  
 27  12  35  1   
 28  13  15  1   
 29  13  36  1   
 30  13  37  1   
 31  14  17  1   
 32  14  38  1   
 33  14  39  1   
 34  16  18  1   
 35  17  19  ar  
 36  17  20  ar  
 37  18  21  1   
 38  19  22  ar  
 39  19  40  1   
 40  20  23  ar  
 41  20  41  1   
 42  21  42  1   
 43  21  43  1   
 44  21  44  1   
 45  22  24  ar  
 46  22  45  1   
 47  23  24  ar  
 48  23  46  1   
@<TRIPOS>SUBSTRUCTURE
  1 ****   3 GROUP 4 **** **** 0

# MOE 2024.06 (io_trps.svl 2023.06)
