@<TRIPOS>MOLECULE
NONAME
41 42 1 0 0 
SMALL
USER_CHARGES


@<TRIPOS>ATOM
  1 CL      -1.4300    -0.7250    -2.1090 Cl    1 <1>  -0.1770 
  2 C       -2.1020     0.3740    -0.9310 C.ar  1 <1>   0.1770 
  3 C       -3.3120     0.0750    -0.3110 C.ar  1 <1>   0.0860 
  4 C       -1.3910     1.5280    -0.6450 C.ar  1 <1>  -0.1500 
  5 C       -3.7610     1.0010     0.6250 C.ar  1 <1>   0.1900 
  6 C       -4.0560    -1.1160    -0.6160 C.2   1 <1>   0.5440 
  7 C       -1.8780     2.4290     0.2900 C.ar  1 <1>  -0.1500 
  8 F       -4.8760     0.7720     1.2620 F     1 <1>  -0.1900 
  9 C       -3.0750     2.1630     0.9320 C.ar  1 <1>  -0.1500 
 10 O       -5.0310    -1.0670    -1.3380 O.2   1 <1>  -0.5700 
 11 N       -3.6950    -2.3160    -0.0780 N.am  1 <1>  -0.7300 
 12 C       -4.4490    -3.5730    -0.2780 C.3   1 <1>   0.2200 
 13 C       -5.6150    -3.6160     0.7140 C.3   1 <1>  -0.0800 
 14 C       -3.6030    -4.7780     0.1250 C.3   1 <1>   0.1200 
 15 C       -5.2830    -4.8080     1.6190 C.3   1 <1>   0.1200 
 16 C       -7.0000    -3.6110     0.0280 C.3   1 <1>  -0.0550 
 17 O       -3.9170    -5.0090     1.4610 O.3   1 <1>  -0.5600 
 18 S       -7.4690    -5.0720    -0.9120 S.o2  1 <1>   1.3330 
 19 O       -6.2930    -5.6390    -1.5350 O.2   1 <1>  -0.6500 
 20 O       -8.6240    -4.7610    -1.7230 O.2   1 <1>  -0.6500 
 21 N       -7.9940    -6.1560     0.2880 N.am  1 <1>  -0.8490 
 22 C       -9.3840    -5.9380     0.7060 C.3   1 <1>   0.1160 
 23 C       -7.8140    -7.5560    -0.1120 C.3   1 <1>   0.1160 
 24 H       -0.4610     1.7180    -1.1530 H     1 <1>   0.1500 
 25 H       -1.3280     3.3290     0.5140 H     1 <1>   0.1500 
 26 H       -3.4730     2.8450     1.6630 H     1 <1>   0.1500 
 27 H       -2.9660    -2.3700     0.6360 H     1 <1>   0.3700 
 28 H       -4.7560    -3.6490    -1.3080 H     1 <1>   0.0800 
 29 H       -5.5790    -2.7390     1.3360 H     1 <1>   0.0800 
 30 H       -2.5470    -4.6080     0.0210 H     1 <1>   0.0800 
 31 H       -3.8930    -5.6490    -0.4380 H     1 <1>   0.0800 
 32 H       -5.7720    -5.7160     1.3180 H     1 <1>   0.0800 
 33 H       -5.4910    -4.6090     2.6560 H     1 <1>   0.0800 
 34 H       -7.0180    -2.7690    -0.6380 H     1 <1>   0.0800 
 35 H       -7.7480    -3.4270     0.7730 H     1 <1>   0.0800 
 36 H       -9.6280    -6.5850     1.5300 H     1 <1>   0.0800 
 37 H      -10.0590    -6.1400    -0.1100 H     1 <1>   0.0800 
 38 H       -9.5230    -4.9190     1.0220 H     1 <1>   0.0800 
 39 H       -8.1480    -8.2150     0.6700 H     1 <1>   0.0800 
 40 H       -6.7710    -7.7560    -0.2960 H     1 <1>   0.0800 
 41 H       -8.3690    -7.7620    -1.0130 H     1 <1>   0.0800 
@<TRIPOS>BOND
  1   1   2  1   
  2   2   3  ar  
  3   2   4  ar  
  4   3   5  ar  
  5   3   6  1   
  6   4   7  ar  
  7   4  24  1   
  8   5   8  1   
  9   5   9  ar  
 10   6  10  2   
 11   6  11  am  
 12   7   9  ar  
 13   7  25  1   
 14   9  26  1   
 15  11  12  1   
 16  11  27  1   
 17  12  13  1   
 18  12  14  1   
 19  12  28  1   
 20  13  15  1   
 21  13  16  1   
 22  13  29  1   
 23  14  17  1   
 24  14  30  1   
 25  14  31  1   
 26  15  17  1   
 27  15  32  1   
 28  15  33  1   
 29  16  18  1   
 30  16  34  1   
 31  16  35  1   
 32  18  19  2   
 33  18  20  2   
 34  18  21  am  
 35  21  22  1   
 36  21  23  1   
 37  22  36  1   
 38  22  37  1   
 39  22  38  1   
 40  23  39  1   
 41  23  40  1   
 42  23  41  1   
@<TRIPOS>SUBSTRUCTURE
  1 ****  12 GROUP 4 **** **** 0

# MOE 2024.06 (io_trps.svl 2023.06)
