@<TRIPOS>MOLECULE
NONAME
45 46 1 0 0 
SMALL
USER_CHARGES


@<TRIPOS>ATOM
  1 S        0.2670     2.5490     0.6270 S.o2  1 <1>   1.3330 
  2 O       -0.4920     3.7020     0.2140 O.2   1 <1>  -0.6500 
  3 O        1.2650     2.7030     1.6640 O.2   1 <1>  -0.6500 
  4 N        1.1110     1.9790    -0.7320 N.am  1 <1>  -0.8490 
  5 C       -0.8520     1.2210     1.0170 C.3   1 <1>  -0.1350 
  6 C        2.2670     1.0770    -0.5300 C.3   1 <1>   0.1960 
  7 C        1.1970     2.8750    -1.8920 C.3   1 <1>   0.1960 
  8 C        3.5160     1.6990     0.1500 C.3   1 <1>   0.3430 
  9 C        2.1000     4.0940    -1.6580 C.3   1 <1>  -0.1600 
 10 N        3.5430     3.1920     0.1160 N.4   1 <1>  -0.9590 
 11 C        3.5350     3.7680    -1.2520 C.3   1 <1>   0.3430 
 12 C        4.5880     3.7700     1.0050 C.3   1 <1>   0.5230 
 13 C        4.2970     5.2390     1.2400 C.2   1 <1>  -0.0400 
 14 O        4.6850     6.1230     0.3410 O.3   1 <1>  -0.2800 
 15 C        3.6690     5.8540     2.2660 C.2   1 <1>  -0.1500 
 16 C        4.3200     7.3180     0.7630 C.2   1 <1>  -0.0400 
 17 C        3.6840     7.2180     1.9510 C.2   1 <1>  -0.1500 
 18 C        4.6600     8.5180    -0.1050 C.3   1 <1>   0.0200 
 19 C        4.1820     9.8430     0.5050 C.3   1 <1>  -0.1600 
 20 C        4.5370    11.0360    -0.3900 C.3   1 <1>  -0.2400 
 21 H       -1.4470     1.4820     1.8700 H     1 <1>   0.0800 
 22 H       -0.3110     0.3230     1.2370 H     1 <1>   0.0800 
 23 H       -1.5070     1.0370     0.1880 H     1 <1>   0.0800 
 24 H        2.5660     0.6810    -1.4860 H     1 <1>   0.0800 
 25 H        1.9520     0.2320     0.0580 H     1 <1>   0.0800 
 26 H        0.2060     3.2200    -2.1440 H     1 <1>   0.0800 
 27 H        1.5560     2.3200    -2.7420 H     1 <1>   0.0800 
 28 H        4.4060     1.2980    -0.3060 H     1 <1>   0.0800 
 29 H        3.5110     1.3810     1.1800 H     1 <1>   0.0800 
 30 H        1.6570     4.7580    -0.9370 H     1 <1>   0.0800 
 31 H        2.1410     4.6420    -2.5820 H     1 <1>   0.0800 
 32 H        2.6490     3.4760     0.5620 H     1 <1>   0.4500 
 33 H        4.1080     4.6810    -1.2740 H     1 <1>   0.0800 
 34 H        3.9780     3.0820    -1.9550 H     1 <1>   0.0800 
 35 H        5.5670     3.6560     0.5720 H     1 <1>   0.0800 
 36 H        4.5680     3.2640     1.9560 H     1 <1>   0.0800 
 37 H        3.2290     5.4330     3.1540 H     1 <1>   0.1500 
 38 H        3.2630     7.9980     2.5610 H     1 <1>   0.1500 
 39 H        4.2060     8.3840    -1.0700 H     1 <1>   0.0800 
 40 H        5.7270     8.5510    -0.2400 H     1 <1>   0.0800 
 41 H        4.6390     9.9780     1.4700 H     1 <1>   0.0800 
 42 H        3.1140     9.8090     0.6410 H     1 <1>   0.0800 
 43 H        5.6020    11.1040    -0.5240 H     1 <1>   0.0800 
 44 H        4.1910    11.9490     0.0620 H     1 <1>   0.0800 
 45 H        4.0700    10.9360    -1.3550 H     1 <1>   0.0800 
@<TRIPOS>BOND
  1   1   2  2   
  2   1   3  2   
  3   1   4  am  
  4   1   5  1   
  5   4   6  1   
  6   4   7  1   
  7   5  21  1   
  8   5  22  1   
  9   5  23  1   
 10   6   8  1   
 11   6  24  1   
 12   6  25  1   
 13   7   9  1   
 14   7  26  1   
 15   7  27  1   
 16   8  10  1   
 17   8  28  1   
 18   8  29  1   
 19   9  11  1   
 20   9  30  1   
 21   9  31  1   
 22  10  11  1   
 23  10  12  1   
 24  10  32  1   
 25  11  33  1   
 26  11  34  1   
 27  12  13  1   
 28  12  35  1   
 29  12  36  1   
 30  13  14  1   
 31  13  15  2   
 32  14  16  1   
 33  15  17  1   
 34  15  37  1   
 35  16  17  2   
 36  16  18  1   
 37  17  38  1   
 38  18  19  1   
 39  18  39  1   
 40  18  40  1   
 41  19  20  1   
 42  19  41  1   
 43  19  42  1   
 44  20  43  1   
 45  20  44  1   
 46  20  45  1   
@<TRIPOS>SUBSTRUCTURE
  1 ****  10 GROUP 4 **** **** 0

# MOE 2024.06 (io_trps.svl 2023.06)
