@<TRIPOS>MOLECULE
NONAME
56 59 1 0 0 
SMALL
USER_CHARGES


@<TRIPOS>ATOM
  1 O       -0.1700    -0.1190     0.1250 O.2   1 <1>  -0.5700 
  2 C       -1.1430     0.5860     0.0060 C.2   1 <1>   0.5690 
  3 N       -2.4020     0.1340     0.2810 N.am  1 <1>  -0.6600 
  4 C       -0.9230     2.0160    -0.4520 C.3   1 <1>  -0.0990 
  5 C       -3.6570     0.9120     0.1880 C.3   1 <1>   0.1400 
  6 C       -2.6890    -1.2900     0.5570 C.3   1 <1>   0.1400 
  7 C       -0.7820     2.9670     0.7440 C.3   1 <1>  -0.0220 
  8 C       -4.7630    -0.0260     0.6880 C.3   1 <1>  -0.0800 
  9 C       -4.2080    -1.4390     0.4340 C.3   1 <1>  -0.0800 
 10 C       -0.5950     4.4140     0.2740 C.2   1 <1>  -0.1240 
 11 C       -6.1910     0.2410     0.1180 C.3   1 <1>   0.2800 
 12 C       -4.6440    -1.9550    -0.9470 C.3   1 <1>  -0.1600 
 13 C       -1.7450     5.2650     0.1040 C.2   1 <1>   0.3750 
 14 C        0.6490     4.9200     0.0070 C.2   1 <1>  -0.1690 
 15 O       -6.1090     0.8640    -1.1140 O.3   1 <1>  -0.6800 
 16 C       -6.9280    -1.0910    -0.1140 C.3   1 <1>  -0.1600 
 17 C       -7.0320     1.1630     1.0290 C.3   1 <1>  -0.1600 
 18 C       -6.1770    -2.0560    -1.0580 C.3   1 <1>  -0.1600 
 19 N       -1.6680     6.4970    -0.2730 N.2   1 <1>  -0.5760 
 20 C       -3.1520     4.7500     0.3570 C.3   1 <1>  -0.1790 
 21 N        0.7130     6.2480    -0.3910 N.pl3 1 <1>   0.6010 
 22 C        1.9870     4.1800     0.0920 C.3   1 <1>  -0.1020 
 23 C       -6.4510     2.5670     1.2730 C.3   1 <1>  -0.2400 
 24 C       -0.4180     6.9930    -0.5180 C.2   1 <1>   0.3120 
 25 N        1.7610     7.0100    -0.7000 N.2   1 <1>  -0.7070 
 26 N       -0.1360     8.1990    -0.8960 N.2   1 <1>  -0.5650 
 27 C        1.1910     8.1400    -0.9860 C.2   1 <1>   0.3660 
 28 H       -0.0240     2.0460    -1.0390 H     1 <1>   0.0800 
 29 H       -1.7290     2.3220    -1.0900 H     1 <1>   0.0800 
 30 H       -3.6060     1.7970     0.7940 H     1 <1>   0.0800 
 31 H       -3.7980     1.1860    -0.8420 H     1 <1>   0.0800 
 32 H       -2.1620    -1.9260    -0.1350 H     1 <1>   0.0800 
 33 H       -2.3690    -1.5190     1.5590 H     1 <1>   0.0800 
 34 H        0.0560     2.6550     1.3410 H     1 <1>   0.0800 
 35 H       -1.6350     2.8760     1.3890 H     1 <1>   0.0800 
 36 H       -4.8090     0.0810     1.7570 H     1 <1>   0.0800 
 37 H       -4.5590    -2.1290     1.1820 H     1 <1>   0.0800 
 38 H       -4.2840    -1.2720    -1.7000 H     1 <1>   0.0800 
 39 H       -4.2020    -2.9160    -1.1450 H     1 <1>   0.0800 
 40 H       -6.9980     0.9100    -1.5090 H     1 <1>   0.4000 
 41 H       -7.0400    -1.5770     0.8400 H     1 <1>   0.0800 
 42 H       -7.9200    -0.9160    -0.4900 H     1 <1>   0.0800 
 43 H       -8.0150     1.2690     0.6030 H     1 <1>   0.0800 
 44 H       -7.1600     0.6800     1.9820 H     1 <1>   0.0800 
 45 H       -6.4870    -3.0630    -0.8370 H     1 <1>   0.0800 
 46 H       -6.4560    -1.8510    -2.0770 H     1 <1>   0.0800 
 47 H       -3.3610     3.9100    -0.2760 H     1 <1>   0.0800 
 48 H       -3.8730     5.5160     0.1370 H     1 <1>   0.0800 
 49 H       -3.2690     4.4740     1.3880 H     1 <1>   0.0800 
 50 H        2.5320     4.3080    -0.8270 H     1 <1>   0.0800 
 51 H        1.8780     3.1250     0.2550 H     1 <1>   0.0800 
 52 H        2.5790     4.5900     0.8910 H     1 <1>   0.0800 
 53 H       -6.2640     3.0710     0.3410 H     1 <1>   0.0800 
 54 H       -5.5350     2.5120     1.8320 H     1 <1>   0.0800 
 55 H       -7.1510     3.1560     1.8400 H     1 <1>   0.0800 
 56 H        1.7540     9.0100    -1.2870 H     1 <1>   0.1500 
@<TRIPOS>BOND
  1   1   2  2   
  2   2   3  am  
  3   2   4  1   
  4   3   5  1   
  5   3   6  1   
  6   4   7  1   
  7   4  28  1   
  8   4  29  1   
  9   5   8  1   
 10   5  30  1   
 11   5  31  1   
 12   6   9  1   
 13   6  32  1   
 14   6  33  1   
 15   7  10  1   
 16   7  34  1   
 17   7  35  1   
 18   8   9  1   
 19   8  11  1   
 20   8  36  1   
 21   9  12  1   
 22   9  37  1   
 23  10  13  1   
 24  10  14  2   
 25  11  15  1   
 26  11  16  1   
 27  11  17  1   
 28  12  18  1   
 29  12  38  1   
 30  12  39  1   
 31  13  19  2   
 32  13  20  1   
 33  14  21  1   
 34  14  22  1   
 35  15  40  1   
 36  16  18  1   
 37  16  41  1   
 38  16  42  1   
 39  17  23  1   
 40  17  43  1   
 41  17  44  1   
 42  18  45  1   
 43  18  46  1   
 44  19  24  1   
 45  20  47  1   
 46  20  48  1   
 47  20  49  1   
 48  21  24  1   
 49  21  25  1   
 50  22  50  1   
 51  22  51  1   
 52  22  52  1   
 53  23  53  1   
 54  23  54  1   
 55  23  55  1   
 56  24  26  2   
 57  25  27  2   
 58  26  27  1   
 59  27  56  1   
@<TRIPOS>SUBSTRUCTURE
  1 ****   4 GROUP 4 **** **** 0

# MOE 2024.06 (io_trps.svl 2023.06)
