@<TRIPOS>MOLECULE
NONAME
39 39 1 0 0 
SMALL
USER_CHARGES


@<TRIPOS>ATOM
  1 F       -2.4380    -0.3880     0.3040 F     1 <1>  -0.3400 
  2 C       -1.9080     0.8140     0.1150 C.3   1 <1>   1.0200 
  3 F       -1.0470     0.9980     1.1130 F     1 <1>  -0.3400 
  4 F       -1.1750     0.7250    -0.9900 F     1 <1>  -0.3400 
  5 C       -2.9880     1.9450     0.0280 C.3   1 <1>   0.2000 
  6 O       -3.6570     2.1740     1.2470 O.3   1 <1>  -0.6800 
  7 C       -2.4810     3.3070    -0.5260 C.3   1 <1>  -0.0800 
  8 C       -1.4430     4.0130     0.3770 C.3   1 <1>  -0.1600 
  9 C       -3.6580     4.2660    -0.8090 C.3   1 <1>  -0.1600 
 10 C       -0.9910     5.3520    -0.2140 C.3   1 <1>   0.1400 
 11 C       -3.1870     5.6040    -1.3880 C.3   1 <1>   0.1400 
 12 N       -2.1770     6.2050    -0.4800 N.am  1 <1>  -0.6600 
 13 C       -2.3110     7.4500     0.0840 C.2   1 <1>   0.7800 
 14 O       -1.4730     7.9110     0.8340 O.2   1 <1>  -0.5700 
 15 O       -3.4080     8.1460    -0.2260 O.3   1 <1>  -0.4300 
 16 C       -3.7650     9.4340     0.2280 C.3   1 <1>   0.2800 
 17 C       -3.9470     9.4290     1.7500 C.3   1 <1>  -0.2400 
 18 C       -5.1090     9.7320    -0.4390 C.3   1 <1>  -0.2400 
 19 C       -2.7320    10.4670    -0.2370 C.3   1 <1>  -0.2400 
 20 H       -3.7360     1.5790    -0.6520 H     1 <1>   0.0800 
 21 H       -3.0420     2.5400     1.9150 H     1 <1>   0.4000 
 22 H       -2.0050     3.1130    -1.4720 H     1 <1>   0.0800 
 23 H       -0.5700     3.3990     0.5020 H     1 <1>   0.0800 
 24 H       -1.8580     4.2020     1.3520 H     1 <1>   0.0800 
 25 H       -4.2030     4.4670     0.0980 H     1 <1>   0.0800 
 26 H       -4.3430     3.8110    -1.5020 H     1 <1>   0.0800 
 27 H       -0.4630     5.1900    -1.1380 H     1 <1>   0.0800 
 28 H       -0.3170     5.8390     0.4710 H     1 <1>   0.0800 
 29 H       -4.0330     6.2570    -1.5140 H     1 <1>   0.0800 
 30 H       -2.7390     5.4500    -2.3540 H     1 <1>   0.0800 
 31 H       -4.3540    10.3700     2.0730 H     1 <1>   0.0800 
 32 H       -3.0080     9.2940     2.2530 H     1 <1>   0.0800 
 33 H       -4.6220     8.6460     2.0440 H     1 <1>   0.0800 
 34 H       -5.4630    10.7050    -0.1490 H     1 <1>   0.0800 
 35 H       -5.8410     9.0030    -0.1430 H     1 <1>   0.0800 
 36 H       -5.0060     9.7130    -1.5090 H     1 <1>   0.0800 
 37 H       -3.0780    11.4590    -0.0120 H     1 <1>   0.0800 
 38 H       -2.5780    10.3910    -1.2980 H     1 <1>   0.0800 
 39 H       -1.7930    10.3300     0.2670 H     1 <1>   0.0800 
@<TRIPOS>BOND
  1   1   2  1   
  2   2   3  1   
  3   2   4  1   
  4   2   5  1   
  5   5   6  1   
  6   5   7  1   
  7   5  20  1   
  8   6  21  1   
  9   7   8  1   
 10   7   9  1   
 11   7  22  1   
 12   8  10  1   
 13   8  23  1   
 14   8  24  1   
 15   9  11  1   
 16   9  25  1   
 17   9  26  1   
 18  10  12  1   
 19  10  27  1   
 20  10  28  1   
 21  11  12  1   
 22  11  29  1   
 23  11  30  1   
 24  12  13  am  
 25  13  14  2   
 26  13  15  1   
 27  15  16  1   
 28  16  17  1   
 29  16  18  1   
 30  16  19  1   
 31  17  31  1   
 32  17  32  1   
 33  17  33  1   
 34  18  34  1   
 35  18  35  1   
 36  18  36  1   
 37  19  37  1   
 38  19  38  1   
 39  19  39  1   
@<TRIPOS>SUBSTRUCTURE
  1 ****  12 GROUP 4 **** **** 0

# MOE 2024.06 (io_trps.svl 2023.06)
