@<TRIPOS>MOLECULE
NONAME
32 33 1 0 0 
SMALL
USER_CHARGES


@<TRIPOS>ATOM
  1 F       -1.3610    -0.6000     1.1680 F     1 <1>  -0.3400 
  2 C       -1.6400    -0.0240    -0.0020 C.3   1 <1>   0.2600 
  3 C       -2.3680     1.2870     0.2950 C.3   1 <1>   0.2000 
  4 C       -2.6770    -0.8930    -0.7260 C.3   1 <1>   0.2090 
  5 O       -2.3500     2.0820    -0.8510 O.3   1 <1>  -0.6800 
  6 C       -3.8100     0.8380     0.5390 C.3   1 <1>   0.2090 
  7 N       -4.0070    -0.2940    -0.4060 N.pl3 1 <1>  -0.8380 
  8 C       -5.1720    -1.0190    -0.4570 C.ar  1 <1>   0.7200 
  9 N       -6.2150    -0.5270     0.2060 N.ar  1 <1>  -0.6200 
 10 N       -5.1460    -2.1380    -1.1750 N.ar  1 <1>  -0.6200 
 11 C       -7.3200    -1.2280     0.1380 C.ar  1 <1>   0.1600 
 12 C       -6.2680    -2.8150    -1.2220 C.ar  1 <1>   0.1600 
 13 C       -7.4090    -2.4010    -0.5740 C.ar  1 <1>  -0.1430 
 14 C       -8.7000    -3.2010    -0.6390 C.3   1 <1>  -0.0170 
 15 C       -8.7610    -4.2180     0.5060 C.3   1 <1>  -0.1600 
 16 C      -10.0560    -5.0360     0.4630 C.3   1 <1>  -0.2400 
 17 H       -0.7080     0.0910    -0.5230 H     1 <1>   0.0800 
 18 H       -1.9340     1.8410     1.1080 H     1 <1>   0.0800 
 19 H       -2.6180    -1.9200    -0.4080 H     1 <1>   0.0800 
 20 H       -2.5260    -0.8390    -1.7890 H     1 <1>   0.0800 
 21 H       -3.0020     1.7130    -1.4850 H     1 <1>   0.4000 
 22 H       -4.5160     1.6320     0.3610 H     1 <1>   0.0800 
 23 H       -3.9220     0.4780     1.5480 H     1 <1>   0.0800 
 24 H       -8.1800    -0.8550     0.6670 H     1 <1>   0.1500 
 25 H       -6.2760    -3.7270    -1.7940 H     1 <1>   0.1500 
 26 H       -9.5420    -2.5330    -0.5780 H     1 <1>   0.0800 
 27 H       -8.7590    -3.7140    -1.5840 H     1 <1>   0.0800 
 28 H       -7.9170    -4.8840     0.4410 H     1 <1>   0.0800 
 29 H       -8.7000    -3.7000     1.4490 H     1 <1>   0.0800 
 30 H      -10.1270    -5.5830    -0.4620 H     1 <1>   0.0800 
 31 H      -10.9130    -4.3920     0.5520 H     1 <1>   0.0800 
 32 H      -10.0720    -5.7400     1.2760 H     1 <1>   0.0800 
@<TRIPOS>BOND
  1   1   2  1   
  2   2   3  1   
  3   2   4  1   
  4   2  17  1   
  5   3   5  1   
  6   3   6  1   
  7   3  18  1   
  8   4   7  1   
  9   4  19  1   
 10   4  20  1   
 11   5  21  1   
 12   6   7  1   
 13   6  22  1   
 14   6  23  1   
 15   7   8  1   
 16   8   9  ar  
 17   8  10  ar  
 18   9  11  ar  
 19  10  12  ar  
 20  11  13  ar  
 21  11  24  1   
 22  12  13  ar  
 23  12  25  1   
 24  13  14  1   
 25  14  15  1   
 26  14  26  1   
 27  14  27  1   
 28  15  16  1   
 29  15  28  1   
 30  15  29  1   
 31  16  30  1   
 32  16  31  1   
 33  16  32  1   
@<TRIPOS>SUBSTRUCTURE
  1 ****   8 GROUP 4 **** **** 0

# MOE 2024.06 (io_trps.svl 2023.06)
