@<TRIPOS>MOLECULE
NONAME
42 45 1 0 0 
SMALL
USER_CHARGES


@<TRIPOS>ATOM
  1 F        0.4700     1.0460    -2.1380 F     1 <1>  -0.1900 
  2 C        1.4430     1.0810    -1.2610 C.ar  1 <1>   0.1900 
  3 C        1.9260    -0.1050    -0.7190 C.ar  1 <1>   0.0820 
  4 C        1.9490     2.3140    -0.8950 C.ar  1 <1>  -0.1500 
  5 O        1.4170    -1.3020    -1.0970 O.3   1 <1>  -0.3630 
  6 C        2.9560    -0.0400     0.2100 C.ar  1 <1>  -0.1500 
  7 C        2.9710     2.3640     0.0400 C.ar  1 <1>  -0.1500 
  8 C        0.6940    -2.0440    -0.1390 C.3   1 <1>   0.2000 
  9 C        3.4720     1.1910     0.5880 C.ar  1 <1>  -0.1500 
 10 C        0.6210    -3.4920    -0.6280 C.3   1 <1>  -0.1600 
 11 C       -0.7050    -1.4350     0.0130 C.3   1 <1>  -0.1600 
 12 C       -0.2690    -4.3380     0.2830 C.3   1 <1>   0.2090 
 13 C       -1.5700    -2.3000     0.9260 C.3   1 <1>   0.2090 
 14 N       -1.6090    -3.6900     0.3940 N.pl3 1 <1>  -0.8380 
 15 C       -2.7650    -4.3680     0.1310 C.2   1 <1>   0.2710 
 16 N       -2.7890    -5.6720     0.4440 N.2   1 <1>  -0.6210 
 17 C       -3.8560    -3.7500    -0.4320 C.2   1 <1>  -0.1410 
 18 C       -3.8700    -6.3460     0.2230 C.2   1 <1>   0.9190 
 19 C       -4.9710    -4.5190    -0.6540 C.cat 1 <1>   0.7910 
 20 N       -4.9820    -5.8080    -0.3220 N.pl3 1 <1>  -0.6690 
 21 N       -3.8780    -7.6350     0.5550 N.pl3 1 <1>  -0.8500 
 22 N       -6.1770    -4.2550    -1.1830 N.pl3 1 <1>  -0.3930 
 23 C       -6.2220    -6.2750    -0.6790 C.2   1 <1>   0.5030 
 24 N       -6.9610    -5.3670    -1.1960 N.2   1 <1>  -0.2600 
 25 H        1.5500     3.2110    -1.3330 H     1 <1>   0.1500 
 26 H        3.3580    -0.9450     0.6280 H     1 <1>   0.1500 
 27 H        3.3790     3.3150     0.3390 H     1 <1>   0.1500 
 28 H        1.2210    -2.0070     0.7990 H     1 <1>   0.0800 
 29 H        4.2700     1.2380     1.3090 H     1 <1>   0.1500 
 30 H        1.6090    -3.9140    -0.6490 H     1 <1>   0.0800 
 31 H        0.2170    -3.5180    -1.6240 H     1 <1>   0.0800 
 32 H       -1.1750    -1.3610    -0.9510 H     1 <1>   0.0800 
 33 H       -0.6290    -0.4490     0.4350 H     1 <1>   0.0800 
 34 H        0.1690    -4.4190     1.2640 H     1 <1>   0.0800 
 35 H       -0.3570    -5.3280    -0.1290 H     1 <1>   0.0800 
 36 H       -2.5610    -1.8880     0.9990 H     1 <1>   0.0800 
 37 H       -1.1480    -2.3180     1.9170 H     1 <1>   0.0800 
 38 H       -3.8320    -2.7150    -0.7040 H     1 <1>   0.1500 
 39 H       -3.0280    -8.0110     0.9790 H     1 <1>   0.4000 
 40 H       -4.6660    -8.2710     0.4990 H     1 <1>   0.4000 
 41 H       -6.4870    -3.3450    -1.5450 H     1 <1>   0.4500 
 42 H       -6.5210    -7.3010    -0.5310 H     1 <1>   0.1500 
@<TRIPOS>BOND
  1   1   2  1   
  2   2   3  ar  
  3   2   4  ar  
  4   3   5  1   
  5   3   6  ar  
  6   4   7  ar  
  7   4  25  1   
  8   5   8  1   
  9   6   9  ar  
 10   6  26  1   
 11   7   9  ar  
 12   7  27  1   
 13   8  10  1   
 14   8  11  1   
 15   8  28  1   
 16   9  29  1   
 17  10  12  1   
 18  10  30  1   
 19  10  31  1   
 20  11  13  1   
 21  11  32  1   
 22  11  33  1   
 23  12  14  1   
 24  12  34  1   
 25  12  35  1   
 26  13  14  1   
 27  13  36  1   
 28  13  37  1   
 29  14  15  1   
 30  15  16  1   
 31  15  17  2   
 32  16  18  2   
 33  17  19  1   
 34  17  38  1   
 35  18  20  1   
 36  18  21  1   
 37  19  20  ar  
 38  19  22  ar  
 39  20  23  1   
 40  21  39  1   
 41  21  40  1   
 42  22  24  1   
 43  22  41  1   
 44  23  24  2   
 45  23  42  1   
@<TRIPOS>SUBSTRUCTURE
  1 ****  14 GROUP 4 **** **** 0

# MOE 2024.06 (io_trps.svl 2023.06)
