@<TRIPOS>MOLECULE
NONAME
48 51 1 0 0 
SMALL
USER_CHARGES


@<TRIPOS>ATOM
  1 O        3.7160    -1.1580    -2.2620 O.2   1 <1>  -0.5700 
  2 C        2.9430    -1.3160    -1.3340 C.2   1 <1>   0.5440 
  3 N        2.7990    -0.2510    -0.4820 N.am  1 <1>  -0.6600 
  4 C        2.2970    -2.5920    -1.0800 C.ar  1 <1>   0.0860 
  5 C        3.5510    -0.3180     0.8190 C.3   1 <1>   0.2200 
  6 C        2.4780     1.0900    -1.0670 C.3   1 <1>   0.1400 
  7 C        2.7270    -3.7610    -1.7080 C.ar  1 <1>  -0.1500 
  8 C        1.2290    -2.7130    -0.1900 C.ar  1 <1>  -0.1500 
  9 C        2.9980     0.6400     1.8870 C.3   1 <1>   0.1200 
 10 C        5.0680    -0.0780     0.5940 C.3   1 <1>   0.3430 
 11 C        3.4020     2.2370    -0.6130 C.3   1 <1>  -0.0800 
 12 C        2.1410    -4.9840    -1.4420 C.ar  1 <1>  -0.1500 
 13 C        0.6460    -3.9360     0.0760 C.ar  1 <1>  -0.1500 
 14 O        3.5930     1.8980     1.7730 O.3   1 <1>  -0.5600 
 15 N        5.3660     0.5820    -0.7260 N.4   1 <1>  -0.9590 
 16 C        3.0610     2.7330     0.8010 C.3   1 <1>   0.1200 
 17 C        4.9170     2.0070    -0.8090 C.3   1 <1>   0.3430 
 18 C        1.0880    -5.1090    -0.5350 C.ar  1 <1>   0.0540 
 19 C        6.7950     0.4290    -1.1140 C.3   1 <1>   0.2630 
 20 C        0.4760    -6.3900    -0.2330 C.2   1 <1>   0.4620 
 21 N        0.8040    -7.5220    -0.8680 N.2   1 <1>  -0.2270 
 22 N       -0.4320    -6.5720     0.6710 N.2   1 <1>  -0.7070 
 23 N        0.0920    -8.4450    -0.3630 N.2   1 <1>  -0.4180 
 24 N       -0.6470    -7.8600     0.5590 N.pl3 1 <1>   0.5800 
 25 C       -1.6140    -8.5810     1.3900 C.3   1 <1>   0.0160 
 26 H        3.4330    -1.3110     1.2170 H     1 <1>   0.0800 
 27 H        2.5170     1.0230    -2.1420 H     1 <1>   0.0800 
 28 H        1.4600     1.3340    -0.8120 H     1 <1>   0.0800 
 29 H        3.5360    -3.7100    -2.4170 H     1 <1>   0.1500 
 30 H        0.8430    -1.8370     0.3010 H     1 <1>   0.1500 
 31 H        3.2600     0.2690     2.8630 H     1 <1>   0.0800 
 32 H        1.9260     0.7260     1.8370 H     1 <1>   0.0800 
 33 H        5.5580    -1.0370     0.6220 H     1 <1>   0.0800 
 34 H        5.4670     0.5120     1.4030 H     1 <1>   0.0800 
 35 H        3.1530     3.0680    -1.2490 H     1 <1>   0.0800 
 36 H        2.5090    -5.8610    -1.9480 H     1 <1>   0.1500 
 37 H       -0.1750    -3.9890     0.7720 H     1 <1>   0.1500 
 38 H        4.7810     0.0520    -1.4150 H     1 <1>   0.4500 
 39 H        1.9970     2.8150     0.9510 H     1 <1>   0.0800 
 40 H        3.4940     3.7060     0.9590 H     1 <1>   0.0800 
 41 H        5.4540     2.5950    -0.0810 H     1 <1>   0.0800 
 42 H        5.1810     2.3830    -1.7840 H     1 <1>   0.0800 
 43 H        7.4300     0.9480    -0.4150 H     1 <1>   0.0800 
 44 H        6.9580     0.8340    -2.1000 H     1 <1>   0.0800 
 45 H        7.0680    -0.6130    -1.1260 H     1 <1>   0.0800 
 46 H       -2.4790    -7.9630     1.5370 H     1 <1>   0.0800 
 47 H       -1.1590    -8.8050     2.3360 H     1 <1>   0.0800 
 48 H       -1.8960    -9.4920     0.8960 H     1 <1>   0.0800 
@<TRIPOS>BOND
  1   1   2  2   
  2   2   3  am  
  3   2   4  1   
  4   3   5  1   
  5   3   6  1   
  6   4   7  ar  
  7   4   8  ar  
  8   5   9  1   
  9   5  10  1   
 10   5  26  1   
 11   6  11  1   
 12   6  27  1   
 13   6  28  1   
 14   7  12  ar  
 15   7  29  1   
 16   8  13  ar  
 17   8  30  1   
 18   9  14  1   
 19   9  31  1   
 20   9  32  1   
 21  10  15  1   
 22  10  33  1   
 23  10  34  1   
 24  11  16  1   
 25  11  17  1   
 26  11  35  1   
 27  12  18  ar  
 28  12  36  1   
 29  13  18  ar  
 30  13  37  1   
 31  14  16  1   
 32  15  17  1   
 33  15  19  1   
 34  15  38  1   
 35  16  39  1   
 36  16  40  1   
 37  17  41  1   
 38  17  42  1   
 39  18  20  1   
 40  19  43  1   
 41  19  44  1   
 42  19  45  1   
 43  20  21  1   
 44  20  22  2   
 45  21  23  2   
 46  22  24  1   
 47  23  24  1   
 48  24  25  1   
 49  25  46  1   
 50  25  47  1   
 51  25  48  1   
@<TRIPOS>SUBSTRUCTURE
  1 ****   4 GROUP 4 **** **** 0

# MOE 2024.06 (io_trps.svl 2023.06)
