@<TRIPOS>MOLECULE
NONAME
61 65 1 0 0 
SMALL
USER_CHARGES


@<TRIPOS>ATOM
  1 S       -0.5280    -1.3820     1.6180 S.o2  1 <1>   1.3330 
  2 O       -1.4790    -2.4630     1.6990 O.2   1 <1>  -0.6500 
  3 O        0.6080    -1.3210     2.5060 O.2   1 <1>  -0.6500 
  4 N        0.0410    -1.4670     0.0450 N.am  1 <1>  -0.9140 
  5 C       -1.3810     0.1790     1.6420 C.3   1 <1>  -0.1350 
  6 C        1.3490    -2.0950    -0.1120 C.3   1 <1>   0.1960 
  7 C        1.3310    -3.5940     0.2430 C.3   1 <1>  -0.0800 
  8 C        0.5840    -4.4290    -0.8090 C.3   1 <1>   0.2000 
  9 C        2.7140    -4.2800     0.2070 C.3   1 <1>  -0.0800 
 10 O        1.6060    -4.7100    -1.6900 O.3   1 <1>  -0.5600 
 11 C        0.2570    -5.8300    -0.2760 C.3   1 <1>  -0.1600 
 12 C        2.4930    -5.3570    -0.8460 C.3   1 <1>   0.2800 
 13 C        3.9330    -3.5190    -0.3240 C.3   1 <1>   0.2090 
 14 C        1.6320    -6.5070    -0.3210 C.3   1 <1>  -0.1600 
 15 C        3.8580    -5.6360    -1.4830 C.3   1 <1>   0.2090 
 16 N        4.7670    -4.5520    -0.9840 N.pl3 1 <1>  -0.8380 
 17 C        6.0400    -4.7740    -0.5840 C.ar  1 <1>   0.4100 
 18 N        6.2640    -5.8820     0.0920 N.ar  1 <1>  -0.6200 
 19 C        7.0650    -3.8380    -0.8610 C.ar  1 <1>  -0.1430 
 20 C        7.4870    -6.1030     0.5430 C.ar  1 <1>   0.7710 
 21 C        8.3080    -4.0880    -0.3730 C.ar  1 <1>   0.2180 
 22 C        6.7720    -2.5920    -1.7000 C.3   1 <1>  -0.0170 
 23 N        8.4850    -5.2310     0.3290 N.ar  1 <1>  -0.1790 
 24 N        7.7460    -7.2390     1.2510 N.pl3 1 <1>  -0.8380 
 25 C        9.5070    -3.1690    -0.5820 C.3   1 <1>  -0.0170 
 26 C        8.0500    -1.9210    -2.2230 C.3   1 <1>  -0.1600 
 27 C        6.6370    -8.1670     1.6570 C.3   1 <1>   0.1290 
 28 C        9.0890    -7.7650     1.6520 C.3   1 <1>   0.1290 
 29 C        9.0930    -1.7870    -1.1080 C.3   1 <1>  -0.1600 
 30 H       -0.6480    -2.0410    -0.4380 H     1 <1>   0.4200 
 31 H       -2.1560     0.1900     0.9010 H     1 <1>   0.0800 
 32 H       -0.6940     0.9760     1.4380 H     1 <1>   0.0800 
 33 H       -1.8220     0.3410     2.6060 H     1 <1>   0.0800 
 34 H        1.6550    -1.9780    -1.1380 H     1 <1>   0.0800 
 35 H        2.0650    -1.5790     0.5060 H     1 <1>   0.0800 
 36 H        0.8980    -3.7380     1.2160 H     1 <1>   0.0800 
 37 H       -0.2360    -3.9350    -1.3020 H     1 <1>   0.0800 
 38 H        2.9630    -4.7230     1.1550 H     1 <1>   0.0800 
 39 H       -0.1600    -5.7950     0.7160 H     1 <1>   0.0800 
 40 H       -0.4350    -6.3220    -0.9360 H     1 <1>   0.0800 
 41 H        4.4650    -3.0300     0.4750 H     1 <1>   0.0800 
 42 H        3.6560    -2.7970    -1.0720 H     1 <1>   0.0800 
 43 H        1.6370    -7.3250    -1.0200 H     1 <1>   0.0800 
 44 H        1.9620    -6.8490     0.6430 H     1 <1>   0.0800 
 45 H        3.7840    -5.6060    -2.5550 H     1 <1>   0.0800 
 46 H        4.2170    -6.6010    -1.1740 H     1 <1>   0.0800 
 47 H        6.1500    -2.8540    -2.5400 H     1 <1>   0.0800 
 48 H        6.2260    -1.8890    -1.0970 H     1 <1>   0.0800 
 49 H        9.3730    -5.4840     0.7390 H     1 <1>   0.4570 
 50 H       10.0450    -3.0380     0.3400 H     1 <1>   0.0800 
 51 H       10.1710    -3.6270    -1.2960 H     1 <1>   0.0800 
 52 H        8.4570    -2.5050    -3.0310 H     1 <1>   0.0800 
 53 H        7.8060    -0.9480    -2.6150 H     1 <1>   0.0800 
 54 H        6.8410    -8.5900     2.6260 H     1 <1>   0.0800 
 55 H        6.5490    -8.9650     0.9400 H     1 <1>   0.0800 
 56 H        5.6930    -7.6520     1.7170 H     1 <1>   0.0800 
 57 H        9.1250    -8.8300     1.4910 H     1 <1>   0.0800 
 58 H        9.2590    -7.5750     2.6990 H     1 <1>   0.0800 
 59 H        9.8830    -7.3240     1.0760 H     1 <1>   0.0800 
 60 H        8.6760    -1.2030    -0.3040 H     1 <1>   0.0800 
 61 H        9.9590    -1.2640    -1.4780 H     1 <1>   0.0800 
@<TRIPOS>BOND
  1   1   2  2   
  2   1   3  2   
  3   1   4  am  
  4   1   5  1   
  5   4   6  1   
  6   4  30  1   
  7   5  31  1   
  8   5  32  1   
  9   5  33  1   
 10   6   7  1   
 11   6  34  1   
 12   6  35  1   
 13   7   8  1   
 14   7   9  1   
 15   7  36  1   
 16   8  10  1   
 17   8  11  1   
 18   8  37  1   
 19   9  12  1   
 20   9  13  1   
 21   9  38  1   
 22  10  12  1   
 23  11  14  1   
 24  11  39  1   
 25  11  40  1   
 26  12  14  1   
 27  12  15  1   
 28  13  16  1   
 29  13  41  1   
 30  13  42  1   
 31  14  43  1   
 32  14  44  1   
 33  15  16  1   
 34  15  45  1   
 35  15  46  1   
 36  16  17  1   
 37  17  18  ar  
 38  17  19  ar  
 39  18  20  ar  
 40  19  21  ar  
 41  19  22  1   
 42  20  23  ar  
 43  20  24  1   
 44  21  23  ar  
 45  21  25  1   
 46  22  26  1   
 47  22  47  1   
 48  22  48  1   
 49  23  49  1   
 50  24  27  1   
 51  24  28  1   
 52  25  29  1   
 53  25  50  1   
 54  25  51  1   
 55  26  29  1   
 56  26  52  1   
 57  26  53  1   
 58  27  54  1   
 59  27  55  1   
 60  27  56  1   
 61  28  57  1   
 62  28  58  1   
 63  28  59  1   
 64  29  60  1   
 65  29  61  1   
@<TRIPOS>SUBSTRUCTURE
  1 ****  13 GROUP 4 **** **** 0

# MOE 2024.06 (io_trps.svl 2023.06)
