@<TRIPOS>MOLECULE
NONAME
44 46 1 0 0 
SMALL
USER_CHARGES


@<TRIPOS>ATOM
  1 CL       0.8930     0.4580    -1.1340 Cl    1 <1>  -0.1770 
  2 C        0.5450     1.9310    -0.2560 C.ar  1 <1>   0.1770 
  3 C        1.5390     2.6240     0.4320 C.ar  1 <1>  -0.1440 
  4 C       -0.7640     2.3760    -0.2770 C.ar  1 <1>  -0.1500 
  5 C        1.1760     3.7860     1.1030 C.ar  1 <1>  -0.1500 
  6 C        2.9950     2.1700     0.4800 C.3   1 <1>   0.3640 
  7 C       -1.1060     3.5340     0.3970 C.ar  1 <1>  -0.1500 
  8 C       -0.1340     4.2370     1.0860 C.ar  1 <1>  -0.1500 
  9 N        3.0750     0.8410     1.1280 N.am  1 <1>  -0.7300 
 10 C        3.6960     2.2170    -0.9060 C.3   1 <1>   0.2610 
 11 C        3.7460    -0.2080     0.6020 C.2   1 <1>   0.5690 
 12 O        4.8000     1.3220    -0.9790 O.3   1 <1>  -0.5600 
 13 C        4.0940     3.6690    -1.2260 C.2   1 <1>   0.5690 
 14 O        3.7840    -1.2660     1.1770 O.2   1 <1>  -0.5700 
 15 C        4.4590    -0.0280    -0.7400 C.3   1 <1>   0.1810 
 16 O        3.2720     4.3310    -1.8120 O.2   1 <1>  -0.5700 
 17 N        5.3060     4.2390    -0.8740 N.am  1 <1>  -0.6600 
 18 C        5.7180     5.5350    -1.5140 C.3   1 <1>   0.1400 
 19 C        6.3790     3.5460    -0.0840 C.3   1 <1>   0.1400 
 20 C        6.4950     6.4480    -0.5510 C.3   1 <1>   0.3430 
 21 C        7.1700     4.5110     0.8230 C.3   1 <1>   0.3430 
 22 N        7.6520     5.7300     0.0870 N.4   1 <1>  -0.9590 
 23 C        8.4240     6.6420     0.9860 C.3   1 <1>   0.2630 
 24 H       -1.5080     1.8190    -0.8180 H     1 <1>   0.1500 
 25 H        1.9070     4.3580     1.6480 H     1 <1>   0.1500 
 26 H        3.5270     2.8510     1.1210 H     1 <1>   0.0800 
 27 H       -2.1230     3.8880     0.3840 H     1 <1>   0.1500 
 28 H       -0.3990     5.1400     1.6090 H     1 <1>   0.1500 
 29 H        2.5160     0.6820     1.9690 H     1 <1>   0.3700 
 30 H        3.0040     1.9140    -1.6680 H     1 <1>   0.0800 
 31 H        3.8230    -0.3700    -1.5360 H     1 <1>   0.0800 
 32 H        5.3650    -0.6050    -0.7450 H     1 <1>   0.0800 
 33 H        6.3260     5.3200    -2.3750 H     1 <1>   0.0800 
 34 H        4.8540     6.0750    -1.8630 H     1 <1>   0.0800 
 35 H        5.9470     2.7900     0.5460 H     1 <1>   0.0800 
 36 H        7.0520     3.0540    -0.7660 H     1 <1>   0.0800 
 37 H        5.8170     6.7960     0.2110 H     1 <1>   0.0800 
 38 H        6.8500     7.3080    -1.0950 H     1 <1>   0.0800 
 39 H        8.0100     3.9820     1.2450 H     1 <1>   0.0800 
 40 H        6.5320     4.8130     1.6360 H     1 <1>   0.0800 
 41 H        8.2730     5.4100    -0.6720 H     1 <1>   0.4500 
 42 H        7.7990     6.9960     1.7900 H     1 <1>   0.0800 
 43 H        8.7880     7.4930     0.4330 H     1 <1>   0.0800 
 44 H        9.2700     6.1240     1.4100 H     1 <1>   0.0800 
@<TRIPOS>BOND
  1   1   2  1   
  2   2   3  ar  
  3   2   4  ar  
  4   3   5  ar  
  5   3   6  1   
  6   4   7  ar  
  7   4  24  1   
  8   5   8  ar  
  9   5  25  1   
 10   6   9  1   
 11   6  10  1   
 12   6  26  1   
 13   7   8  ar  
 14   7  27  1   
 15   8  28  1   
 16   9  11  am  
 17   9  29  1   
 18  10  12  1   
 19  10  13  1   
 20  10  30  1   
 21  11  14  2   
 22  11  15  1   
 23  12  15  1   
 24  13  16  2   
 25  13  17  am  
 26  15  31  1   
 27  15  32  1   
 28  17  18  1   
 29  17  19  1   
 30  18  20  1   
 31  18  33  1   
 32  18  34  1   
 33  19  21  1   
 34  19  35  1   
 35  19  36  1   
 36  20  22  1   
 37  20  37  1   
 38  20  38  1   
 39  21  22  1   
 40  21  39  1   
 41  21  40  1   
 42  22  23  1   
 43  22  41  1   
 44  23  42  1   
 45  23  43  1   
 46  23  44  1   
@<TRIPOS>SUBSTRUCTURE
  1 ****  10 GROUP 4 **** **** 0

# MOE 2024.06 (io_trps.svl 2023.06)
