@<TRIPOS>MOLECULE
NONAME
51 55 1 0 0 
SMALL
USER_CHARGES


@<TRIPOS>ATOM
  1 F       -2.7900     0.5200     1.0550 F     1 <1>  -0.3400 
  2 C       -4.0500     0.1740     1.3150 C.3   1 <1>   0.8560 
  3 F       -4.2410     0.5010     2.5920 F     1 <1>  -0.3400 
  4 N       -4.2410    -1.3030     1.1220 N.pl3 1 <1>   0.3140 
  5 N       -5.2700    -1.8310     0.4140 N.2   1 <1>  -0.7070 
  6 C       -3.4380    -2.2820     1.5930 C.2   1 <1>  -0.3020 
  7 C       -5.1040    -3.1460     0.4440 C.2   1 <1>   0.2030 
  8 C       -3.9520    -3.4540     1.1800 C.2   1 <1>  -0.1500 
  9 C       -5.9210    -4.1890    -0.1810 C.2   1 <1>   0.7160 
 10 O       -5.3820    -5.2420    -0.4900 O.2   1 <1>  -0.5700 
 11 N       -7.2810    -4.0830    -0.4360 N.am  1 <1>  -0.6600 
 12 C       -8.1740    -3.0250     0.1270 C.3   1 <1>   0.1400 
 13 C       -7.9860    -5.1490    -1.2140 C.3   1 <1>   0.1400 
 14 C       -8.9430    -2.2870    -0.9940 C.3   1 <1>   0.1430 
 15 C       -9.3920    -4.7160    -1.6640 C.3   1 <1>  -0.1600 
 16 C      -10.1050    -1.5630    -0.3360 C.ar  1 <1>   0.1670 
 17 C       -9.3970    -3.2500    -2.1230 C.3   1 <1>  -0.1600 
 18 C       -8.1190    -1.1060    -1.5690 C.3   1 <1>  -0.1600 
 19 N      -11.2150    -2.1230     0.0830 N.ar  1 <1>  -0.6200 
 20 C       -9.8560    -0.2310    -0.2070 C.ar  1 <1>  -0.1440 
 21 C       -8.5010     0.1400    -0.7540 C.3   1 <1>  -0.0170 
 22 C      -12.1140    -1.3000     0.6400 C.ar  1 <1>   0.6200 
 23 C      -10.8230     0.5450     0.3780 C.ar  1 <1>   0.1600 
 24 N      -11.9510     0.0220     0.8010 N.ar  1 <1>  -0.6200 
 25 C      -13.3630    -1.8870     1.1050 C.ar  1 <1>   0.0000 
 26 C      -13.4400    -3.2230     1.5120 C.ar  1 <1>  -0.1500 
 27 C      -14.5460    -1.1440     1.1670 C.ar  1 <1>  -0.1500 
 28 C      -14.6250    -3.7850     1.9530 C.ar  1 <1>  -0.1500 
 29 C      -15.7340    -1.6980     1.6070 C.ar  1 <1>  -0.1500 
 30 C      -15.7770    -3.0220     2.0020 C.ar  1 <1>  -0.1500 
 31 H       -4.7060     0.7630     0.7020 H     1 <1>   0.0800 
 32 H       -2.5590    -2.0860     2.1820 H     1 <1>   0.1500 
 33 H       -3.5840    -4.4510     1.3530 H     1 <1>   0.1500 
 34 H       -7.6370    -2.3240     0.7360 H     1 <1>   0.0800 
 35 H       -8.8860    -3.5090     0.7740 H     1 <1>   0.0800 
 36 H       -8.0500    -6.0430    -0.6170 H     1 <1>   0.0800 
 37 H       -7.3950    -5.3780    -2.0860 H     1 <1>   0.0800 
 38 H      -10.0870    -4.8430    -0.8510 H     1 <1>   0.0800 
 39 H       -9.7190    -5.3540    -2.4660 H     1 <1>   0.0800 
 40 H       -8.7220    -3.1730    -2.9580 H     1 <1>   0.0800 
 41 H      -10.3780    -2.9750    -2.4720 H     1 <1>   0.0800 
 42 H       -8.4130    -0.9300    -2.5900 H     1 <1>   0.0800 
 43 H       -7.0610    -1.2990    -1.5520 H     1 <1>   0.0800 
 44 H       -8.5430     1.0210    -1.3720 H     1 <1>   0.0800 
 45 H       -7.8100     0.2880     0.0570 H     1 <1>   0.0800 
 46 H      -10.6720     1.6040     0.5010 H     1 <1>   0.1500 
 47 H      -12.5540    -3.8330     1.4820 H     1 <1>   0.1500 
 48 H      -14.5330    -0.1110     0.8630 H     1 <1>   0.1500 
 49 H      -14.6500    -4.8160     2.2590 H     1 <1>   0.1500 
 50 H      -16.6270    -1.0980     1.6430 H     1 <1>   0.1500 
 51 H      -16.7000    -3.4560     2.3450 H     1 <1>   0.1500 
@<TRIPOS>BOND
  1   1   2  1   
  2   2   3  1   
  3   2   4  1   
  4   2  31  1   
  5   4   5  1   
  6   4   6  1   
  7   5   7  2   
  8   6   8  2   
  9   6  32  1   
 10   7   8  1   
 11   7   9  1   
 12   8  33  1   
 13   9  10  2   
 14   9  11  am  
 15  11  12  1   
 16  11  13  1   
 17  12  14  1   
 18  12  34  1   
 19  12  35  1   
 20  13  15  1   
 21  13  36  1   
 22  13  37  1   
 23  14  16  1   
 24  14  17  1   
 25  14  18  1   
 26  15  17  1   
 27  15  38  1   
 28  15  39  1   
 29  16  19  ar  
 30  16  20  ar  
 31  17  40  1   
 32  17  41  1   
 33  18  21  1   
 34  18  42  1   
 35  18  43  1   
 36  19  22  ar  
 37  20  21  1   
 38  20  23  ar  
 39  21  44  1   
 40  21  45  1   
 41  22  24  ar  
 42  22  25  1   
 43  23  24  ar  
 44  23  46  1   
 45  25  26  ar  
 46  25  27  ar  
 47  26  28  ar  
 48  26  47  1   
 49  27  29  ar  
 50  27  48  1   
 51  28  30  ar  
 52  28  49  1   
 53  29  30  ar  
 54  29  50  1   
 55  30  51  1   
@<TRIPOS>SUBSTRUCTURE
  1 ****  12 GROUP 4 **** **** 0

# MOE 2024.06 (io_trps.svl 2023.06)
