@<TRIPOS>MOLECULE
NONAME
41 42 1 0 0 
SMALL
USER_CHARGES


@<TRIPOS>ATOM
  1 O       -0.5780     1.3440     0.6340 O.3   1 <1>  -0.5160 
  2 C       -0.4610     2.5330    -0.1380 C.3   1 <1>   0.2580 
  3 C        0.6100     0.8240     0.0490 C.3   1 <1>   0.2580 
  4 C        1.0540     2.2790    -0.1730 C.3   1 <1>   0.0000 
  5 C        1.8000     2.8520     1.0450 C.3   1 <1>   0.2090 
  6 C        1.7240     2.5320    -1.5380 C.3   1 <1>  -0.2400 
  7 N        1.9090     4.3370     0.9580 N.pl3 1 <1>  -0.8690 
  8 C        3.0060     5.0600     0.6380 C.ar  1 <1>   0.4100 
  9 N        4.0940     4.3920     0.3200 N.ar  1 <1>  -0.6200 
 10 C        2.9590     6.4770     0.6510 C.ar  1 <1>  -0.1430 
 11 C        5.1850     5.0750     0.0230 C.ar  1 <1>   0.7710 
 12 C        4.1060     7.1530     0.3540 C.ar  1 <1>   0.2180 
 13 C        1.6300     7.1660     0.9860 C.3   1 <1>  -0.0960 
 14 N        5.1960     6.4150     0.0370 N.ar  1 <1>  -0.1790 
 15 N        6.3280     4.4090    -0.3080 N.pl3 1 <1>  -0.8380 
 16 C        4.2840     8.6670     0.3400 C.3   1 <1>  -0.0970 
 17 C        7.6990     4.9910    -0.4660 C.3   1 <1>   0.1290 
 18 C        6.3290     2.9180    -0.4870 C.3   1 <1>   0.1290 
 19 H       -0.7760     3.3870     0.4350 H     1 <1>   0.0000 
 20 H       -0.9690     2.4110    -1.0800 H     1 <1>   0.0000 
 21 H        0.3690     0.2750    -0.8460 H     1 <1>   0.0000 
 22 H        1.1790     0.2720     0.7760 H     1 <1>   0.0000 
 23 H        2.7790     2.4080     1.1010 H     1 <1>   0.0800 
 24 H        1.2780     2.5950     1.9520 H     1 <1>   0.0800 
 25 H        1.1700     2.0610    -2.3310 H     1 <1>   0.0800 
 26 H        2.7250     2.1380    -1.5360 H     1 <1>   0.0800 
 27 H        1.7730     3.5870    -1.7360 H     1 <1>   0.0800 
 28 H        1.0450     4.8210     1.2120 H     1 <1>   0.4000 
 29 H        0.8370     6.7470     0.3900 H     1 <1>   0.0800 
 30 H        1.6410     8.2210     0.7900 H     1 <1>   0.0800 
 31 H        1.3920     7.0170     2.0250 H     1 <1>   0.0800 
 32 H        6.0740     6.8360    -0.2290 H     1 <1>   0.4570 
 33 H        3.5930     9.1520     1.0050 H     1 <1>   0.0800 
 34 H        4.1290     9.0470    -0.6550 H     1 <1>   0.0800 
 35 H        5.2730     8.9390     0.6640 H     1 <1>   0.0800 
 36 H        7.7810     5.9590    -0.0040 H     1 <1>   0.0800 
 37 H        7.9440     5.0720    -1.5130 H     1 <1>   0.0800 
 38 H        8.4240     4.3450     0.0020 H     1 <1>   0.0800 
 39 H        5.3500     2.5510    -0.7480 H     1 <1>   0.0800 
 40 H        6.6420     2.4420     0.4270 H     1 <1>   0.0800 
 41 H        7.0050     2.6370    -1.2760 H     1 <1>   0.0800 
@<TRIPOS>BOND
  1   1   2  1   
  2   1   3  1   
  3   2   4  1   
  4   2  19  1   
  5   2  20  1   
  6   3   4  1   
  7   3  21  1   
  8   3  22  1   
  9   4   5  1   
 10   4   6  1   
 11   5   7  1   
 12   5  23  1   
 13   5  24  1   
 14   6  25  1   
 15   6  26  1   
 16   6  27  1   
 17   7   8  1   
 18   7  28  1   
 19   8   9  ar  
 20   8  10  ar  
 21   9  11  ar  
 22  10  12  ar  
 23  10  13  1   
 24  11  14  ar  
 25  11  15  1   
 26  12  14  ar  
 27  12  16  1   
 28  13  29  1   
 29  13  30  1   
 30  13  31  1   
 31  14  32  1   
 32  15  17  1   
 33  15  18  1   
 34  16  33  1   
 35  16  34  1   
 36  16  35  1   
 37  17  36  1   
 38  17  37  1   
 39  17  38  1   
 40  18  39  1   
 41  18  40  1   
 42  18  41  1   
@<TRIPOS>SUBSTRUCTURE
  1 ****   8 GROUP 4 **** **** 0

# MOE 2024.06 (io_trps.svl 2023.06)
