@<TRIPOS>MOLECULE
NONAME
40 42 1 0 0 
SMALL
USER_CHARGES


@<TRIPOS>ATOM
  1 F       -0.1140    -1.4780    -0.7040 F     1 <1>  -0.1900 
  2 C       -1.0240    -2.4150    -0.6280 C.ar  1 <1>   0.1900 
  3 C       -2.2890    -2.0810    -0.2070 C.ar  1 <1>  -0.1500 
  4 C       -0.6540    -3.7160    -0.9820 C.ar  1 <1>  -0.1500 
  5 C       -3.2320    -3.1030    -0.1370 C.ar  1 <1>   0.2270 
  6 C       -1.5900    -4.7250    -0.9120 C.ar  1 <1>  -0.1500 
  7 N       -4.5390    -3.0480     0.2460 N.2   1 <1>  -0.5650 
  8 C       -2.8820    -4.3980    -0.4860 C.ar  1 <1>  -0.1520 
  9 C       -4.9560    -4.2630     0.1300 C.2   1 <1>   0.0060 
 10 N       -4.0100    -5.1280    -0.3070 N.pl3 1 <1>   0.0330 
 11 C       -6.3610    -4.7550     0.4390 C.3   1 <1>   0.3890 
 12 N       -6.3070    -6.1550     0.9640 N.pl3 1 <1>  -0.8380 
 13 C       -7.3030    -7.0060     0.5470 C.ar  1 <1>   0.4100 
 14 C       -5.9450    -6.2240     2.4040 C.3   1 <1>   0.1290 
 15 N       -8.5380    -6.5710     0.6890 N.ar  1 <1>  -0.6200 
 16 C       -7.0330    -8.2600     0.0140 C.ar  1 <1>  -0.1430 
 17 C       -9.4890    -7.3970     0.3040 C.ar  1 <1>   0.4770 
 18 C       -8.1130    -9.0210    -0.3490 C.ar  1 <1>   0.1600 
 19 C       -5.6170    -8.7900    -0.1830 C.3   1 <1>  -0.0170 
 20 N       -9.3560    -8.6050    -0.2090 N.ar  1 <1>  -0.6200 
 21 C      -10.9080    -6.9100     0.4670 C.3   1 <1>  -0.0970 
 22 C       -5.1130    -8.4680    -1.5920 C.3   1 <1>  -0.2400 
 23 H       -2.5610    -1.0790     0.0620 H     1 <1>   0.1500 
 24 H        0.3550    -3.9050    -1.3030 H     1 <1>   0.1500 
 25 H       -1.3430    -5.7380    -1.1770 H     1 <1>   0.1500 
 26 H       -4.1500    -6.1370    -0.4070 H     1 <1>   0.2700 
 27 H       -6.9460    -4.7250    -0.4650 H     1 <1>   0.0800 
 28 H       -6.8260    -4.1060     1.1590 H     1 <1>   0.0800 
 29 H       -4.9660    -5.8030     2.5610 H     1 <1>   0.0800 
 30 H       -5.9430    -7.2480     2.7360 H     1 <1>   0.0800 
 31 H       -6.6630    -5.6740     2.9890 H     1 <1>   0.0800 
 32 H       -7.9680   -10.0010    -0.7700 H     1 <1>   0.1500 
 33 H       -5.6080    -9.8570    -0.0360 H     1 <1>   0.0800 
 34 H       -4.9540    -8.3630     0.5480 H     1 <1>   0.0800 
 35 H      -10.9230    -5.9200     0.8850 H     1 <1>   0.0800 
 36 H      -11.4410    -7.5750     1.1200 H     1 <1>   0.0800 
 37 H      -11.3920    -6.8930    -0.4920 H     1 <1>   0.0800 
 38 H       -5.7260    -8.9600    -2.3260 H     1 <1>   0.0800 
 39 H       -4.0980    -8.8040    -1.7110 H     1 <1>   0.0800 
 40 H       -5.1550    -7.4090    -1.7720 H     1 <1>   0.0800 
@<TRIPOS>BOND
  1   1   2  1   
  2   2   3  ar  
  3   2   4  ar  
  4   3   5  ar  
  5   3  23  1   
  6   4   6  ar  
  7   4  24  1   
  8   5   7  1   
  9   5   8  ar  
 10   6   8  ar  
 11   6  25  1   
 12   7   9  2   
 13   8  10  1   
 14   9  10  1   
 15   9  11  1   
 16  10  26  1   
 17  11  12  1   
 18  11  27  1   
 19  11  28  1   
 20  12  13  1   
 21  12  14  1   
 22  13  15  ar  
 23  13  16  ar  
 24  14  29  1   
 25  14  30  1   
 26  14  31  1   
 27  15  17  ar  
 28  16  18  ar  
 29  16  19  1   
 30  17  20  ar  
 31  17  21  1   
 32  18  20  ar  
 33  18  32  1   
 34  19  22  1   
 35  19  33  1   
 36  19  34  1   
 37  21  35  1   
 38  21  36  1   
 39  21  37  1   
 40  22  38  1   
 41  22  39  1   
 42  22  40  1   
@<TRIPOS>SUBSTRUCTURE
  1 ****  10 GROUP 4 **** **** 0

# MOE 2024.06 (io_trps.svl 2023.06)
