@<TRIPOS>MOLECULE
NONAME
45 46 1 0 0 
SMALL
USER_CHARGES


@<TRIPOS>ATOM
  1 O       -0.4620    -1.0540     1.1090 O.2   1 <1>  -0.5700 
  2 C       -1.1120    -0.0740     0.8220 C.2   1 <1>   0.5690 
  3 N       -2.0600    -0.1150    -0.1710 N.am  1 <1>  -0.6600 
  4 C       -0.8450     1.1920     1.6320 C.3   1 <1>   0.0440 
  5 C       -2.3300    -1.3850    -0.9150 C.3   1 <1>   0.3210 
  6 C       -2.8450     1.0800    -0.6330 C.3   1 <1>   0.1400 
  7 C       -0.0870     2.2670     0.8580 C.ar  1 <1>  -0.1440 
  8 C       -3.7430    -1.8860    -0.6410 C.2   1 <1>   0.0460 
  9 C       -4.2280     1.2140     0.0330 C.3   1 <1>   0.1200 
 10 C       -0.5080     3.5870     0.8980 C.ar  1 <1>  -0.1500 
 11 C        1.0310     1.9400     0.1090 C.ar  1 <1>  -0.1500 
 12 N       -4.7200    -1.7350    -1.5600 N.2   1 <1>  -0.5650 
 13 C       -4.2200    -2.4960     0.4720 C.2   1 <1>  -0.3320 
 14 O       -4.2140     0.6930     1.3190 O.3   1 <1>  -0.6800 
 15 C        0.1660     4.5750     0.1950 C.ar  1 <1>  -0.1430 
 16 C        1.7080     2.9180    -0.5950 C.ar  1 <1>  -0.1500 
 17 C       -5.7620    -2.2510    -0.9940 C.2   1 <1>   0.0360 
 18 N       -5.5250    -2.7300     0.2440 N.pl3 1 <1>   0.0330 
 19 C       -3.5250    -2.8830     1.7670 C.3   1 <1>  -0.0600 
 20 C        1.2840     4.2370    -0.5600 C.ar  1 <1>  -0.1430 
 21 C       -0.3370     6.0090     0.2710 C.3   1 <1>  -0.0970 
 22 C        2.0580     5.2840    -1.3480 C.3   1 <1>  -0.0970 
 23 H       -0.2640     0.9260     2.4960 H     1 <1>   0.0800 
 24 H       -1.7810     1.5760     1.9890 H     1 <1>   0.0800 
 25 H       -1.6330    -2.1520    -0.6280 H     1 <1>   0.0800 
 26 H       -2.2090    -1.2160    -1.9700 H     1 <1>   0.0800 
 27 H       -2.9790     1.0280    -1.7000 H     1 <1>   0.0800 
 28 H       -2.2900     1.9800    -0.4470 H     1 <1>   0.0800 
 29 H       -4.9670     0.6750    -0.5330 H     1 <1>   0.0800 
 30 H       -4.5260     2.2460     0.0860 H     1 <1>   0.0800 
 31 H       -1.3710     3.8480     1.4850 H     1 <1>   0.1500 
 32 H        1.3800     0.9220     0.0700 H     1 <1>   0.1500 
 33 H       -3.9190    -0.2430     1.2450 H     1 <1>   0.4000 
 34 H        2.5720     2.6410    -1.1720 H     1 <1>   0.1500 
 35 H       -6.7350    -2.3030    -1.4500 H     1 <1>   0.1500 
 36 H       -6.1990    -3.1770     0.8720 H     1 <1>   0.2700 
 37 H       -2.4760    -2.6510     1.7190 H     1 <1>   0.0800 
 38 H       -3.6270    -3.9390     1.9410 H     1 <1>   0.0800 
 39 H       -3.9540    -2.3480     2.5950 H     1 <1>   0.0800 
 40 H       -1.2100     6.0810     0.8950 H     1 <1>   0.0800 
 41 H       -0.5940     6.3620    -0.7110 H     1 <1>   0.0800 
 42 H        0.4250     6.6440     0.6850 H     1 <1>   0.0800 
 43 H        1.4160     5.7490    -2.0740 H     1 <1>   0.0800 
 44 H        2.8880     4.8390    -1.8670 H     1 <1>   0.0800 
 45 H        2.4410     6.0360    -0.6830 H     1 <1>   0.0800 
@<TRIPOS>BOND
  1   1   2  2   
  2   2   3  am  
  3   2   4  1   
  4   3   5  1   
  5   3   6  1   
  6   4   7  1   
  7   4  23  1   
  8   4  24  1   
  9   5   8  1   
 10   5  25  1   
 11   5  26  1   
 12   6   9  1   
 13   6  27  1   
 14   6  28  1   
 15   7  10  ar  
 16   7  11  ar  
 17   8  12  1   
 18   8  13  2   
 19   9  14  1   
 20   9  29  1   
 21   9  30  1   
 22  10  15  ar  
 23  10  31  1   
 24  11  16  ar  
 25  11  32  1   
 26  12  17  2   
 27  13  18  1   
 28  13  19  1   
 29  14  33  1   
 30  15  20  ar  
 31  15  21  1   
 32  16  20  ar  
 33  16  34  1   
 34  17  18  1   
 35  17  35  1   
 36  18  36  1   
 37  19  37  1   
 38  19  38  1   
 39  19  39  1   
 40  20  22  1   
 41  21  40  1   
 42  21  41  1   
 43  21  42  1   
 44  22  43  1   
 45  22  44  1   
 46  22  45  1   
@<TRIPOS>SUBSTRUCTURE
  1 ****   3 GROUP 4 **** **** 0

# MOE 2024.06 (io_trps.svl 2023.06)
