@<TRIPOS>MOLECULE
NONAME
64 66 1 0 0 
SMALL
USER_CHARGES


@<TRIPOS>ATOM
  1 O       -0.9670     1.9650     3.0970 O.2   1 <1>  -0.5700 
  2 C       -0.9380     2.6580     2.0900 C.2   1 <1>   0.7160 
  3 N       -2.1070     3.3170     1.7400 N.am  1 <1>  -0.6600 
  4 C        0.3130     2.7470     1.3330 C.2   1 <1>   0.2030 
  5 C       -3.4410     2.8740     2.2150 C.3   1 <1>   0.1400 
  6 C       -2.1830     4.4750     0.8170 C.3   1 <1>   0.1400 
  7 N        0.4810     3.0990     0.0670 N.2   1 <1>  -0.7070 
  8 C        1.5560     2.4240     1.8950 C.2   1 <1>  -0.1500 
  9 C       -4.2830     2.4610     1.0040 C.3   1 <1>  -0.1600 
 10 C       -2.9910     4.0670    -0.4160 C.3   1 <1>  -0.1600 
 11 N        1.7940     3.0020    -0.1730 N.pl3 1 <1>   0.3140 
 12 C        2.4660     2.5990     0.9190 C.2   1 <1>  -0.3020 
 13 C       -4.4170     3.5770    -0.0560 C.3   1 <1>   0.2800 
 14 C        2.3770     3.3110    -1.4940 C.3   1 <1>   0.0960 
 15 O       -5.0890     4.6380     0.5920 O.3   1 <1>  -0.5600 
 16 C       -5.2440     3.0590    -1.2920 C.3   1 <1>   0.2000 
 17 C        2.7090     2.0290    -2.2680 C.3   1 <1>  -0.2400 
 18 C       -5.6960     5.6050    -0.2070 C.3   1 <1>   0.1200 
 19 O       -4.7060     3.5420    -2.5000 O.3   1 <1>  -0.6800 
 20 C       -6.7470     3.4660    -1.2030 C.3   1 <1>   0.3000 
 21 C       -6.8440     4.9940    -1.0280 C.3   1 <1>  -0.1600 
 22 N       -7.4010     2.8600    -0.0230 N.am  1 <1>  -0.7300 
 23 C       -7.5600     3.0490    -2.4410 C.3   1 <1>  -0.2400 
 24 C       -7.6140     1.5490     0.2680 C.2   1 <1>   0.5690 
 25 O       -7.2900     0.6540    -0.4740 O.2   1 <1>  -0.5700 
 26 C       -8.2590     1.1960     1.6090 C.3   1 <1>   0.1810 
 27 O       -8.8810     2.3040     2.2230 O.3   1 <1>  -0.5600 
 28 C      -10.1370     2.6350     1.7250 C.3   1 <1>   0.2000 
 29 C      -10.3070     4.1370     1.9250 C.3   1 <1>  -0.2400 
 30 C      -11.1880     1.8490     2.5060 C.3   1 <1>  -0.2400 
 31 H       -3.3510     2.0420     2.8920 H     1 <1>   0.0800 
 32 H       -3.9180     3.6840     2.7400 H     1 <1>   0.0800 
 33 H       -2.6750     5.2890     1.3210 H     1 <1>   0.0800 
 34 H       -1.2050     4.8160     0.5330 H     1 <1>   0.0800 
 35 H        1.7040     2.1010     2.9100 H     1 <1>   0.1500 
 36 H       -5.2500     2.1660     1.3570 H     1 <1>   0.0800 
 37 H       -3.8280     1.5960     0.5570 H     1 <1>   0.0800 
 38 H       -2.4590     3.2780    -0.9190 H     1 <1>   0.0800 
 39 H       -3.0280     4.9000    -1.0900 H     1 <1>   0.0800 
 40 H        3.5310     2.4580     0.9370 H     1 <1>   0.1500 
 41 H        1.6660     3.8980    -2.0460 H     1 <1>   0.0800 
 42 H        3.2650     3.8990    -1.3460 H     1 <1>   0.0800 
 43 H       -5.1710     1.9870    -1.3550 H     1 <1>   0.0800 
 44 H        1.8150     1.4470    -2.4150 H     1 <1>   0.0800 
 45 H        3.4320     1.4410    -1.7320 H     1 <1>   0.0800 
 46 H        3.1160     2.2790    -3.2310 H     1 <1>   0.0800 
 47 H       -6.0710     6.3760     0.4430 H     1 <1>   0.0800 
 48 H       -4.9480     6.0370    -0.8470 H     1 <1>   0.0800 
 49 H       -4.6920     4.5150    -2.4920 H     1 <1>   0.4000 
 50 H       -7.7880     5.2570    -0.5850 H     1 <1>   0.0800 
 51 H       -6.8240     5.4700    -1.9910 H     1 <1>   0.0800 
 52 H       -7.5630     3.5160     0.7470 H     1 <1>   0.3700 
 53 H       -7.2100     3.5620    -3.3180 H     1 <1>   0.0800 
 54 H       -8.6010     3.2790    -2.3050 H     1 <1>   0.0800 
 55 H       -7.4530     1.9950    -2.6240 H     1 <1>   0.0800 
 56 H       -7.4900     0.8510     2.2750 H     1 <1>   0.0800 
 57 H       -8.9760     0.4060     1.4770 H     1 <1>   0.0800 
 58 H      -10.1860     2.4030     0.6720 H     1 <1>   0.0800 
 59 H      -10.2260     4.3860     2.9690 H     1 <1>   0.0800 
 60 H      -11.2720     4.4480     1.5710 H     1 <1>   0.0800 
 61 H       -9.5550     4.6700     1.3730 H     1 <1>   0.0800 
 62 H      -11.1020     2.0550     3.5580 H     1 <1>   0.0800 
 63 H      -11.0760     0.7930     2.3400 H     1 <1>   0.0800 
 64 H      -12.1720     2.1340     2.1810 H     1 <1>   0.0800 
@<TRIPOS>BOND
  1   1   2  2   
  2   2   3  am  
  3   2   4  1   
  4   3   5  1   
  5   3   6  1   
  6   4   7  2   
  7   4   8  1   
  8   5   9  1   
  9   5  31  1   
 10   5  32  1   
 11   6  10  1   
 12   6  33  1   
 13   6  34  1   
 14   7  11  1   
 15   8  12  2   
 16   8  35  1   
 17   9  13  1   
 18   9  36  1   
 19   9  37  1   
 20  10  13  1   
 21  10  38  1   
 22  10  39  1   
 23  11  12  1   
 24  11  14  1   
 25  12  40  1   
 26  13  15  1   
 27  13  16  1   
 28  14  17  1   
 29  14  41  1   
 30  14  42  1   
 31  15  18  1   
 32  16  19  1   
 33  16  20  1   
 34  16  43  1   
 35  17  44  1   
 36  17  45  1   
 37  17  46  1   
 38  18  21  1   
 39  18  47  1   
 40  18  48  1   
 41  19  49  1   
 42  20  21  1   
 43  20  22  1   
 44  20  23  1   
 45  21  50  1   
 46  21  51  1   
 47  22  24  am  
 48  22  52  1   
 49  23  53  1   
 50  23  54  1   
 51  23  55  1   
 52  24  25  2   
 53  24  26  1   
 54  26  27  1   
 55  26  56  1   
 56  26  57  1   
 57  27  28  1   
 58  28  29  1   
 59  28  30  1   
 60  28  58  1   
 61  29  59  1   
 62  29  60  1   
 63  29  61  1   
 64  30  62  1   
 65  30  63  1   
 66  30  64  1   
@<TRIPOS>SUBSTRUCTURE
  1 ****  13 GROUP 4 **** **** 0

# MOE 2024.06 (io_trps.svl 2023.06)
