@<TRIPOS>MOLECULE
NONAME
40 42 1 0 0 
SMALL
USER_CHARGES


@<TRIPOS>ATOM
  1 O       -0.5130     0.2220     0.8080 O.2   1 <1>  -0.5700 
  2 C       -1.4960     0.9170     0.6150 C.2   1 <1>   0.7160 
  3 N       -2.7380     0.3190     0.6180 N.am  1 <1>  -0.6600 
  4 C       -1.3370     2.3340     0.3570 C.2   1 <1>  -0.0860 
  5 C       -3.8940     0.8300    -0.1620 C.3   1 <1>   0.1400 
  6 C       -2.9420    -1.1180     0.9110 C.3   1 <1>   0.1400 
  7 C       -2.1770     3.3920     0.6150 C.2   1 <1>  -0.3020 
  8 C       -0.1990     2.9180    -0.2370 C.2   1 <1>  -0.1500 
  9 C       -4.8220    -0.3730    -0.3910 C.3   1 <1>   0.2000 
 10 C       -3.9200    -1.5900    -0.1640 C.3   1 <1>  -0.0800 
 11 N       -1.6180     4.5530     0.2070 N.pl3 1 <1>   0.0330 
 12 C       -0.4020     4.2560    -0.3180 C.2   1 <1>  -0.3020 
 13 O       -5.8360    -0.3790     0.5740 O.3   1 <1>  -0.5600 
 14 C       -4.6630    -2.8860     0.2060 C.3   1 <1>   0.0200 
 15 C       -6.9610     0.3800     0.2570 C.3   1 <1>   0.0400 
 16 C       -3.7550    -4.1040     0.2510 C.2   1 <1>  -0.0400 
 17 O       -4.2540    -5.2460     0.6430 O.3   1 <1>  -0.0190 
 18 C       -2.4600    -4.3060    -0.0440 C.2   1 <1>  -0.1500 
 19 N       -3.3660    -6.1980     0.6300 N.2   1 <1>  -0.4100 
 20 C       -2.2740    -5.6600     0.2210 C.2   1 <1>   0.1080 
 21 C       -0.9680    -6.4040     0.0530 C.3   1 <1>  -0.0590 
 22 H       -4.3990     1.6110     0.3780 H     1 <1>   0.0800 
 23 H       -3.5420     1.2090    -1.1060 H     1 <1>   0.0800 
 24 H       -2.0190    -1.6700     0.8840 H     1 <1>   0.0800 
 25 H       -3.3840    -1.2110     1.8890 H     1 <1>   0.0800 
 26 H       -3.1420     3.3580     1.0870 H     1 <1>   0.1500 
 27 H        0.6650     2.3580    -0.5550 H     1 <1>   0.1500 
 28 H       -5.2630    -0.3790    -1.3730 H     1 <1>   0.0800 
 29 H       -3.3600    -1.7560    -1.0670 H     1 <1>   0.0800 
 30 H       -2.0240     5.4930     0.2890 H     1 <1>   0.2700 
 31 H        0.2560     5.0100    -0.7140 H     1 <1>   0.1500 
 32 H       -5.4390    -3.0700    -0.5150 H     1 <1>   0.0800 
 33 H       -5.1330    -2.7750     1.1680 H     1 <1>   0.0800 
 34 H       -7.6530     0.3080     1.0790 H     1 <1>   0.0800 
 35 H       -7.4180    -0.0170    -0.6330 H     1 <1>   0.0800 
 36 H       -6.6780     1.4070     0.1140 H     1 <1>   0.0800 
 37 H       -1.7100    -3.6250    -0.4000 H     1 <1>   0.1500 
 38 H       -0.2040    -5.9360     0.6450 H     1 <1>   0.0800 
 39 H       -0.6750    -6.3960    -0.9800 H     1 <1>   0.0800 
 40 H       -1.0840    -7.4230     0.3750 H     1 <1>   0.0800 
@<TRIPOS>BOND
  1   1   2  2   
  2   2   3  am  
  3   2   4  1   
  4   3   5  1   
  5   3   6  1   
  6   4   7  2   
  7   4   8  1   
  8   5   9  1   
  9   5  22  1   
 10   5  23  1   
 11   6  10  1   
 12   6  24  1   
 13   6  25  1   
 14   7  11  1   
 15   7  26  1   
 16   8  12  2   
 17   8  27  1   
 18   9  10  1   
 19   9  13  1   
 20   9  28  1   
 21  10  14  1   
 22  10  29  1   
 23  11  12  1   
 24  11  30  1   
 25  12  31  1   
 26  13  15  1   
 27  14  16  1   
 28  14  32  1   
 29  14  33  1   
 30  15  34  1   
 31  15  35  1   
 32  15  36  1   
 33  16  17  1   
 34  16  18  2   
 35  17  19  1   
 36  18  20  1   
 37  18  37  1   
 38  19  20  2   
 39  20  21  1   
 40  21  38  1   
 41  21  39  1   
 42  21  40  1   
@<TRIPOS>SUBSTRUCTURE
  1 ****   6 GROUP 4 **** **** 0

# MOE 2024.06 (io_trps.svl 2023.06)
