@<TRIPOS>MOLECULE
NONAME
55 57 1 0 0 
SMALL
USER_CHARGES


@<TRIPOS>ATOM
  1 O        0.5210     1.0450     1.6550 O.2   1 <1>  -0.5700 
  2 C        0.1990     1.9210     0.8820 C.2   1 <1>   0.5690 
  3 N       -1.0040     1.8860     0.2140 N.am  1 <1>  -0.6600 
  4 C        1.1820     3.0750     0.6960 C.3   1 <1>   0.1810 
  5 C       -1.3760     2.8840    -0.8320 C.3   1 <1>   0.1400 
  6 C       -2.0170     0.8400     0.5100 C.3   1 <1>   0.1400 
  7 O        1.5930     3.2120    -0.6600 O.3   1 <1>  -0.3620 
  8 C       -2.8730     2.8390    -1.1740 C.3   1 <1>  -0.1600 
  9 C       -3.3750     1.4630     0.8720 C.3   1 <1>  -0.1600 
 10 C        2.9240     3.2550    -0.8810 C.ar  1 <1>   0.0830 
 11 C       -3.7500     2.7520     0.1000 C.3   1 <1>   0.2800 
 12 C        3.6950     2.0920    -0.9070 C.ar  1 <1>  -0.1440 
 13 C        3.5020     4.4970    -1.0820 C.ar  1 <1>  -0.1500 
 14 O       -3.3840     3.8230     0.9360 O.3   1 <1>  -0.5600 
 15 C       -5.3020     2.7780    -0.1490 C.3   1 <1>   0.2000 
 16 C        5.0700     2.2020    -1.1010 C.ar  1 <1>  -0.1430 
 17 C        3.0270     0.7280    -0.7260 C.3   1 <1>  -0.0970 
 18 C        4.8630     4.5970    -1.2880 C.ar  1 <1>  -0.1500 
 19 C       -3.6580     5.1420     0.5540 C.3   1 <1>   0.1200 
 20 O       -5.5930     2.2900    -1.4350 O.3   1 <1>  -0.6800 
 21 C       -5.9710     4.1650     0.0990 C.3   1 <1>   0.2800 
 22 C        5.6410     3.4530    -1.2920 C.ar  1 <1>  -0.1500 
 23 C        5.9840     0.9840    -1.1110 C.3   1 <1>  -0.0970 
 24 C       -4.9840     5.2910    -0.2110 C.3   1 <1>  -0.1600 
 25 O       -6.3030     4.2600     1.4380 O.3   1 <1>  -0.6800 
 26 C       -7.2960     4.3720    -0.6480 C.3   1 <1>  -0.2400 
 27 H        2.0480     2.9040     1.3110 H     1 <1>   0.0800 
 28 H        0.7210     3.9960     0.9960 H     1 <1>   0.0800 
 29 H       -1.1330     3.8680    -0.4730 H     1 <1>   0.0800 
 30 H       -0.7960     2.6980    -1.7200 H     1 <1>   0.0800 
 31 H       -2.1260     0.2230    -0.3650 H     1 <1>   0.0800 
 32 H       -1.6910     0.2040     1.3150 H     1 <1>   0.0800 
 33 H       -3.0490     1.9760    -1.7910 H     1 <1>   0.0800 
 34 H       -3.1260     3.6970    -1.7650 H     1 <1>   0.0800 
 35 H       -3.4040     1.6600     1.9290 H     1 <1>   0.0800 
 36 H       -4.1070     0.7000     0.6810 H     1 <1>   0.0800 
 37 H        2.8850     5.3760    -1.0760 H     1 <1>   0.1500 
 38 H       -5.7780     2.0880     0.5260 H     1 <1>   0.0800 
 39 H        3.5330    -0.0340    -1.2880 H     1 <1>   0.0800 
 40 H        2.0100     0.7500    -1.0730 H     1 <1>   0.0800 
 41 H        3.0290     0.4550     0.3140 H     1 <1>   0.0800 
 42 H        5.3170     5.5590    -1.4440 H     1 <1>   0.1500 
 43 H       -3.7000     5.7160     1.4630 H     1 <1>   0.0800 
 44 H       -2.8350     5.5050    -0.0360 H     1 <1>   0.0800 
 45 H       -5.2580     2.9050    -2.1120 H     1 <1>   0.4000 
 46 H        6.7010     3.5460    -1.4490 H     1 <1>   0.1500 
 47 H        7.0180     1.2770    -1.0860 H     1 <1>   0.0800 
 48 H        5.8150     0.4080    -2.0020 H     1 <1>   0.0800 
 49 H        5.7910     0.3690    -0.2500 H     1 <1>   0.0800 
 50 H       -4.7720     5.2870    -1.2640 H     1 <1>   0.0800 
 51 H       -5.4190     6.2490     0.0090 H     1 <1>   0.0800 
 52 H       -6.7140     5.1230     1.6190 H     1 <1>   0.4000 
 53 H       -7.1340     4.3860    -1.7100 H     1 <1>   0.0800 
 54 H       -7.7550     5.3040    -0.3700 H     1 <1>   0.0800 
 55 H       -7.9710     3.5640    -0.4250 H     1 <1>   0.0800 
@<TRIPOS>BOND
  1   1   2  2   
  2   2   3  am  
  3   2   4  1   
  4   3   5  1   
  5   3   6  1   
  6   4   7  1   
  7   4  27  1   
  8   4  28  1   
  9   5   8  1   
 10   5  29  1   
 11   5  30  1   
 12   6   9  1   
 13   6  31  1   
 14   6  32  1   
 15   7  10  1   
 16   8  11  1   
 17   8  33  1   
 18   8  34  1   
 19   9  11  1   
 20   9  35  1   
 21   9  36  1   
 22  10  12  ar  
 23  10  13  ar  
 24  11  14  1   
 25  11  15  1   
 26  12  16  ar  
 27  12  17  1   
 28  13  18  ar  
 29  13  37  1   
 30  14  19  1   
 31  15  20  1   
 32  15  21  1   
 33  15  38  1   
 34  16  22  ar  
 35  16  23  1   
 36  17  39  1   
 37  17  40  1   
 38  17  41  1   
 39  18  22  ar  
 40  18  42  1   
 41  19  24  1   
 42  19  43  1   
 43  19  44  1   
 44  20  45  1   
 45  21  24  1   
 46  21  25  1   
 47  21  26  1   
 48  22  46  1   
 49  23  47  1   
 50  23  48  1   
 51  23  49  1   
 52  24  50  1   
 53  24  51  1   
 54  25  52  1   
 55  26  53  1   
 56  26  54  1   
 57  26  55  1   
@<TRIPOS>SUBSTRUCTURE
  1 ****   5 GROUP 4 **** **** 0

# MOE 2024.06 (io_trps.svl 2023.06)
