@<TRIPOS>MOLECULE
NONAME
45 48 1 0 0 
SMALL
USER_CHARGES


@<TRIPOS>ATOM
  1 O       -0.4140     0.3820    -0.1880 O.2   1 <1>  -0.5700 
  2 C       -1.5150     0.8630    -0.0490 C.2   1 <1>   0.6300 
  3 N       -2.6200     0.0750     0.1450 N.am  1 <1>  -0.6600 
  4 C       -1.6250     2.3770    -0.0980 C.3   1 <1>   0.0000 
  5 C       -2.5350    -1.4180     0.1580 C.3   1 <1>   0.1400 
  6 C       -4.0080     0.5730     0.4090 C.3   1 <1>   0.1400 
  7 C       -1.7070     2.9190     1.3140 C.2   1 <1>   0.6300 
  8 C       -0.8510     3.1560    -1.1320 C.3   1 <1>  -0.2000 
  9 C       -2.3380     3.0580    -1.2400 C.3   1 <1>  -0.2000 
 10 C       -3.6390    -2.0460    -0.7130 C.3   1 <1>   0.3440 
 11 C       -5.0380    -0.1570    -0.4820 C.3   1 <1>   0.2950 
 12 O       -2.7700     3.2570     1.7710 O.2   1 <1>  -0.5700 
 13 N       -0.5860     3.0210     2.0500 N.am  1 <1>  -0.8000 
 14 O       -4.8960    -1.5420    -0.3430 O.3   1 <1>  -0.5600 
 15 C       -3.6340    -3.5650    -0.5710 C.ar  1 <1>  -0.1440 
 16 C       -6.5080     0.1740    -0.1690 C.3   1 <1>  -0.1950 
 17 C       -2.8700    -4.3320    -1.4400 C.ar  1 <1>  -0.1500 
 18 C       -4.3700    -4.2020     0.4190 C.ar  1 <1>  -0.1500 
 19 C       -6.9650     1.5020     0.3580 C.3   1 <1>  -0.2000 
 20 C       -7.0630     0.2730     1.2190 C.3   1 <1>  -0.2000 
 21 C       -2.8390    -5.7110    -1.3190 C.ar  1 <1>  -0.1500 
 22 C       -4.3400    -5.5810     0.5410 C.ar  1 <1>  -0.1500 
 23 C       -3.5740    -6.3360    -0.3280 C.ar  1 <1>  -0.1500 
 24 H       -1.5760    -1.7460    -0.2040 H     1 <1>   0.0800 
 25 H       -2.6420    -1.7710     1.1690 H     1 <1>   0.0800 
 26 H       -4.2440     0.4050     1.4440 H     1 <1>   0.0800 
 27 H       -4.0810     1.6280     0.2260 H     1 <1>   0.0800 
 28 H       -0.4180     4.1020    -0.8550 H     1 <1>   0.1000 
 29 H       -0.2390     2.6110    -1.8300 H     1 <1>   0.1000 
 30 H       -2.7570     2.4540    -2.0250 H     1 <1>   0.1000 
 31 H       -2.9370     3.9260    -1.0210 H     1 <1>   0.1000 
 32 H       -3.4720    -1.7880    -1.7440 H     1 <1>   0.0800 
 33 H       -4.8480     0.0960    -1.5110 H     1 <1>   0.0800 
 34 H       -0.6350     3.3720     3.0060 H     1 <1>   0.3700 
 35 H        0.3200     2.6780     1.7260 H     1 <1>   0.3700 
 36 H       -7.1510    -0.2850    -0.9000 H     1 <1>   0.1000 
 37 H       -2.2910    -3.8610    -2.2150 H     1 <1>   0.1500 
 38 H       -4.9720    -3.6230     1.0990 H     1 <1>   0.1500 
 39 H       -6.2600     2.2600     0.6510 H     1 <1>   0.1000 
 40 H       -7.8740     1.9250    -0.0330 H     1 <1>   0.1000 
 41 H       -8.0310    -0.1560     1.4090 H     1 <1>   0.1000 
 42 H       -6.4050     0.1750     2.0650 H     1 <1>   0.1000 
 43 H       -2.2430    -6.2970    -1.9970 H     1 <1>   0.1500 
 44 H       -4.9150    -6.0630     1.3110 H     1 <1>   0.1500 
 45 H       -3.5510    -7.4080    -0.2340 H     1 <1>   0.1500 
@<TRIPOS>BOND
  1   1   2  2   
  2   2   3  am  
  3   2   4  1   
  4   3   5  1   
  5   3   6  1   
  6   4   7  1   
  7   4   8  1   
  8   4   9  1   
  9   5  10  1   
 10   5  24  1   
 11   5  25  1   
 12   6  11  1   
 13   6  26  1   
 14   6  27  1   
 15   7  12  2   
 16   7  13  am  
 17   8   9  1   
 18   8  28  1   
 19   8  29  1   
 20   9  30  1   
 21   9  31  1   
 22  10  14  1   
 23  10  15  1   
 24  10  32  1   
 25  11  14  1   
 26  11  16  1   
 27  11  33  1   
 28  13  34  1   
 29  13  35  1   
 30  15  17  ar  
 31  15  18  ar  
 32  16  19  1   
 33  16  20  1   
 34  16  36  1   
 35  17  21  ar  
 36  17  37  1   
 37  18  22  ar  
 38  18  38  1   
 39  19  20  1   
 40  19  39  1   
 41  19  40  1   
 42  20  41  1   
 43  20  42  1   
 44  21  23  ar  
 45  21  43  1   
 46  22  23  ar  
 47  22  44  1   
 48  23  45  1   
@<TRIPOS>SUBSTRUCTURE
  1 ****   3 GROUP 4 **** **** 0

# MOE 2024.06 (io_trps.svl 2023.06)
