@<TRIPOS>MOLECULE
NONAME
38 40 1 0 0 
SMALL
USER_CHARGES


@<TRIPOS>ATOM
  1 CL       1.0890     0.8470    -0.7880 Cl    1 <1>  -0.1770 
  2 C        2.2390    -0.2550    -0.0610 C.ar  1 <1>   0.1770 
  3 C        2.1530    -1.6090    -0.3350 C.ar  1 <1>   0.1770 
  4 C        3.2370     0.2430     0.7720 C.ar  1 <1>   0.0860 
  5 CL       0.9030    -2.2300    -1.3880 Cl    1 <1>  -0.1770 
  6 C        3.0560    -2.5030     0.2120 C.ar  1 <1>  -0.1500 
  7 C        3.3460     1.6490     1.0770 C.2   1 <1>   0.5440 
  8 C        4.1410    -0.6720     1.3160 C.ar  1 <1>  -0.1500 
  9 C        4.0560    -2.0260     1.0420 C.ar  1 <1>  -0.1500 
 10 O        2.8930     2.0450     2.1340 O.2   1 <1>  -0.5700 
 11 N        3.9770     2.5400     0.2280 N.am  1 <1>  -0.6600 
 12 C        4.3520     3.9060     0.7220 C.3   1 <1>   0.1400 
 13 C        4.5110     2.1470    -1.1160 C.3   1 <1>   0.1400 
 14 C        5.8710     4.1340     0.9030 C.3   1 <1>   0.2200 
 15 C        6.0470     2.1770    -1.2470 C.3   1 <1>  -0.0190 
 16 N        6.5120     4.4760    -0.3990 N.am  1 <1>  -0.6600 
 17 C        6.6440     3.0080     1.6390 C.3   1 <1>   0.1200 
 18 C        6.5560     3.5880    -1.4330 C.2   1 <1>   0.5690 
 19 C        6.8710     1.4420    -0.1720 C.3   1 <1>   0.1200 
 20 C        7.0350     5.8660    -0.5290 C.3   1 <1>   0.0600 
 21 O        6.4650     1.7090     1.1350 O.3   1 <1>  -0.5600 
 22 O        7.0010     3.8850    -2.5170 O.2   1 <1>  -0.5700 
 23 H        2.9750    -3.5520    -0.0100 H     1 <1>   0.1500 
 24 H        4.9180    -0.3000     1.9650 H     1 <1>   0.1500 
 25 H        4.7680    -2.7090     1.4780 H     1 <1>   0.1500 
 26 H        3.9610     4.6430     0.0430 H     1 <1>   0.0800 
 27 H        3.8840     4.0870     1.6720 H     1 <1>   0.0800 
 28 H        4.1770     1.1580    -1.3660 H     1 <1>   0.0800 
 29 H        4.0880     2.8090    -1.8530 H     1 <1>   0.0800 
 30 H        5.9610     5.0050     1.5280 H     1 <1>   0.0800 
 31 H        6.2690     1.6760    -2.1710 H     1 <1>   0.0800 
 32 H        6.3050     2.9780     2.6590 H     1 <1>   0.0800 
 33 H        7.6970     3.2270     1.6450 H     1 <1>   0.0800 
 34 H        7.9170     1.6860    -0.2610 H     1 <1>   0.0800 
 35 H        6.7620     0.3810    -0.3120 H     1 <1>   0.0800 
 36 H        7.7750     6.0500     0.2300 H     1 <1>   0.0800 
 37 H        6.2290     6.5710    -0.4200 H     1 <1>   0.0800 
 38 H        7.4910     6.0160    -1.4920 H     1 <1>   0.0800 
@<TRIPOS>BOND
  1   1   2  1   
  2   2   3  ar  
  3   2   4  ar  
  4   3   5  1   
  5   3   6  ar  
  6   4   7  1   
  7   4   8  ar  
  8   6   9  ar  
  9   6  23  1   
 10   7  10  2   
 11   7  11  am  
 12   8   9  ar  
 13   8  24  1   
 14   9  25  1   
 15  11  12  1   
 16  11  13  1   
 17  12  14  1   
 18  12  26  1   
 19  12  27  1   
 20  13  15  1   
 21  13  28  1   
 22  13  29  1   
 23  14  16  1   
 24  14  17  1   
 25  14  30  1   
 26  15  18  1   
 27  15  19  1   
 28  15  31  1   
 29  16  18  am  
 30  16  20  1   
 31  17  21  1   
 32  17  32  1   
 33  17  33  1   
 34  18  22  2   
 35  19  21  1   
 36  19  34  1   
 37  19  35  1   
 38  20  36  1   
 39  20  37  1   
 40  20  38  1   
@<TRIPOS>SUBSTRUCTURE
  1 ****  11 GROUP 4 **** **** 0

# MOE 2024.06 (io_trps.svl 2023.06)
