@<TRIPOS>MOLECULE
NONAME
39 41 1 0 0 
SMALL
USER_CHARGES


@<TRIPOS>ATOM
  1 S        0.0560     0.4520    -0.0870 S.3   1 <1>  -0.0800 
  2 C        1.5510     1.0820     0.6140 C.2   1 <1>  -0.0450 
  3 C        0.6210    -1.2040    -0.0120 C.2   1 <1>  -0.1400 
  4 C        1.6860     2.5060     0.8110 C.2   1 <1>   0.7150 
  5 C        2.3780     0.0350     0.8660 C.2   1 <1>  -0.1500 
  6 C        1.8590    -1.2450     0.5140 C.2   1 <1>  -0.1500 
  7 C       -0.3330    -2.2680    -0.5270 C.3   1 <1>   0.0200 
  8 O        0.7350     3.2580     0.6930 O.2   1 <1>  -0.5700 
  9 N        2.9060     3.0420     1.1310 N.am  1 <1>  -0.5100 
 10 C        0.2560    -3.6770    -0.4190 C.3   1 <1>  -0.2400 
 11 C        3.2280     4.5090     1.1790 C.3   1 <1>   0.2250 
 12 C        4.1650     2.8090     0.3470 C.3   1 <1>   0.2250 
 13 C        4.1090     4.2960    -0.0650 C.3   1 <1>   0.0850 
 14 N        5.3940     5.0180     0.0330 N.pl3 1 <1>   0.4850 
 15 N        6.5770     4.3920     0.2070 N.2   1 <1>  -0.7070 
 16 C        5.5670     6.3590    -0.0670 C.2   1 <1>  -0.3320 
 17 C        7.4610     5.3380     0.2220 C.2   1 <1>   0.1080 
 18 C        6.8910     6.5930     0.0550 C.2   1 <1>  -0.1500 
 19 C        4.4560     7.3750    -0.2840 C.3   1 <1>  -0.0600 
 20 C        8.9360     5.0650     0.4010 C.3   1 <1>  -0.0590 
 21 H        3.3580     0.1220     1.3020 H     1 <1>   0.1500 
 22 H        2.4400    -2.1370     0.6740 H     1 <1>   0.1500 
 23 H       -0.5680    -2.0570    -1.5560 H     1 <1>   0.0800 
 24 H       -1.2470    -2.2190     0.0390 H     1 <1>   0.0800 
 25 H        1.1600    -3.7470    -0.9970 H     1 <1>   0.0800 
 26 H       -0.4480    -4.3990    -0.7920 H     1 <1>   0.0800 
 27 H        0.4770    -3.9100     0.6080 H     1 <1>   0.0800 
 28 H        3.7740     4.7520     2.0740 H     1 <1>   0.0000 
 29 H        2.3710     5.1320     0.9990 H     1 <1>   0.0000 
 30 H        4.0110     2.1290    -0.4720 H     1 <1>   0.0000 
 31 H        4.9690     2.5350     1.0080 H     1 <1>   0.0000 
 32 H        3.5980     4.4730    -0.9950 H     1 <1>   0.0000 
 33 H        7.4180     7.5300     0.0300 H     1 <1>   0.1500 
 34 H        3.9100     7.1470    -1.1820 H     1 <1>   0.0800 
 35 H        4.8720     8.3620    -0.3810 H     1 <1>   0.0800 
 36 H        3.7770     7.3740     0.5500 H     1 <1>   0.0800 
 37 H        9.0980     4.5780     1.3450 H     1 <1>   0.0800 
 38 H        9.4950     5.9810     0.3760 H     1 <1>   0.0800 
 39 H        9.2790     4.4200    -0.3870 H     1 <1>   0.0800 
@<TRIPOS>BOND
  1   1   2  1   
  2   1   3  1   
  3   2   4  1   
  4   2   5  2   
  5   3   6  2   
  6   3   7  1   
  7   4   8  2   
  8   4   9  am  
  9   5   6  1   
 10   5  21  1   
 11   6  22  1   
 12   7  10  1   
 13   7  23  1   
 14   7  24  1   
 15   9  11  1   
 16   9  12  1   
 17  10  25  1   
 18  10  26  1   
 19  10  27  1   
 20  11  13  1   
 21  11  28  1   
 22  11  29  1   
 23  12  13  1   
 24  12  30  1   
 25  12  31  1   
 26  13  14  1   
 27  13  32  1   
 28  14  15  1   
 29  14  16  1   
 30  15  17  2   
 31  16  18  2   
 32  16  19  1   
 33  17  18  1   
 34  17  20  1   
 35  18  33  1   
 36  19  34  1   
 37  19  35  1   
 38  19  36  1   
 39  20  37  1   
 40  20  38  1   
 41  20  39  1   
@<TRIPOS>SUBSTRUCTURE
  1 ****  12 GROUP 4 **** **** 0

# MOE 2024.06 (io_trps.svl 2023.06)
