@<TRIPOS>MOLECULE
NONAME
51 54 1 0 0 
SMALL
USER_CHARGES


@<TRIPOS>ATOM
  1 S       -3.7990    -0.1390     0.3920 S.3   1 <1>  -0.2420 
  2 C       -2.7110    -1.5150     0.1980 C.2   1 <1>   0.6510 
  3 C       -2.8060     0.8690    -0.6780 C.2   1 <1>  -0.0490 
  4 N       -2.9080    -2.6590     0.7750 N.2   1 <1>  -0.6210 
  5 N       -1.6860    -1.1660    -0.6410 N.am  1 <1>  -0.2290 
  6 C       -1.7550     0.1630    -1.1150 C.2   1 <1>  -0.0410 
  7 C       -1.9640    -3.6190     0.5200 C.2   1 <1>   0.0330 
  8 C       -0.7460    -2.1250    -0.9290 C.2   1 <1>   0.6160 
  9 C       -0.9100    -3.3880    -0.3070 C.2   1 <1>  -0.1360 
 10 C       -2.1750    -4.9620     1.2140 C.3   1 <1>   0.4810 
 11 O        0.1760    -1.8940    -1.6930 O.2   1 <1>  -0.5700 
 12 N       -3.6210    -5.3210     1.1310 N.4   1 <1>  -0.9590 
 13 C       -4.0020    -5.6590    -0.2850 C.3   1 <1>   0.3430 
 14 C       -3.9960    -6.3240     2.1630 C.3   1 <1>   0.3430 
 15 C       -4.6800    -7.0330    -0.4820 C.3   1 <1>   0.0000 
 16 C       -5.4530    -6.7560     1.9970 C.3   1 <1>  -0.1600 
 17 C       -5.8450    -7.0810     0.5450 C.3   1 <1>   0.2000 
 18 C       -5.2690    -7.0010    -1.9160 C.3   1 <1>   0.1200 
 19 C       -3.6820    -8.2360    -0.3380 C.3   1 <1>  -0.0170 
 20 O       -6.4900    -8.3070     0.5190 O.3   1 <1>  -0.6800 
 21 O       -5.9480    -8.1690    -2.2050 O.3   1 <1>  -0.6800 
 22 C       -2.1990    -7.8790    -0.4290 C.ar  1 <1>  -0.1440 
 23 C       -1.3610    -8.1080     0.6550 C.ar  1 <1>  -0.1500 
 24 C       -1.6630    -7.3430    -1.5910 C.ar  1 <1>  -0.1500 
 25 C       -0.0230    -7.7590     0.5950 C.ar  1 <1>  -0.1500 
 26 C       -0.3270    -6.9890    -1.6510 C.ar  1 <1>  -0.1500 
 27 C        0.4930    -7.1900    -0.5550 C.ar  1 <1>  -0.1500 
 28 H       -3.1360     1.8800    -0.8490 H     1 <1>   0.1500 
 29 H       -0.9770     0.5080    -1.7790 H     1 <1>   0.1500 
 30 H       -0.1600    -4.1250    -0.5290 H     1 <1>   0.1500 
 31 H       -1.8830    -4.8620     2.2470 H     1 <1>   0.0800 
 32 H       -1.5620    -5.7150     0.7520 H     1 <1>   0.0800 
 33 H       -4.0800    -4.4190     1.3520 H     1 <1>   0.4500 
 34 H       -4.6880    -4.9010    -0.6270 H     1 <1>   0.0800 
 35 H       -3.1360    -5.5920    -0.9210 H     1 <1>   0.0800 
 36 H       -3.3610    -7.1890     2.0660 H     1 <1>   0.0800 
 37 H       -3.8490    -5.9150     3.1500 H     1 <1>   0.0800 
 38 H       -6.0820    -5.9590     2.3510 H     1 <1>   0.0800 
 39 H       -5.6300    -7.6020     2.6400 H     1 <1>   0.0800 
 40 H       -6.5860    -6.3570     0.2430 H     1 <1>   0.0800 
 41 H       -4.4970    -6.8910    -2.6580 H     1 <1>   0.0800 
 42 H       -5.9690    -6.1890    -2.0300 H     1 <1>   0.0800 
 43 H       -3.8470    -8.7320     0.6010 H     1 <1>   0.0800 
 44 H       -3.8790    -8.9840    -1.0860 H     1 <1>   0.0800 
 45 H       -5.9350    -9.0320     0.8700 H     1 <1>   0.4000 
 46 H       -6.5650    -8.3960    -1.4680 H     1 <1>   0.4000 
 47 H       -1.7320    -8.5720     1.5530 H     1 <1>   0.1500 
 48 H       -2.2740    -7.2060    -2.4670 H     1 <1>   0.1500 
 49 H        0.6250    -7.9430     1.4360 H     1 <1>   0.1500 
 50 H        0.0820    -6.5710    -2.5570 H     1 <1>   0.1500 
 51 H        1.5360    -6.9230    -0.6070 H     1 <1>   0.1500 
@<TRIPOS>BOND
  1   1   2  1   
  2   1   3  1   
  3   2   4  2   
  4   2   5  1   
  5   3   6  2   
  6   3  28  1   
  7   4   7  1   
  8   5   6  1   
  9   5   8  am  
 10   6  29  1   
 11   7   9  2   
 12   7  10  1   
 13   8   9  1   
 14   8  11  2   
 15   9  30  1   
 16  10  12  1   
 17  10  31  1   
 18  10  32  1   
 19  12  13  1   
 20  12  14  1   
 21  12  33  1   
 22  13  15  1   
 23  13  34  1   
 24  13  35  1   
 25  14  16  1   
 26  14  36  1   
 27  14  37  1   
 28  15  17  1   
 29  15  18  1   
 30  15  19  1   
 31  16  17  1   
 32  16  38  1   
 33  16  39  1   
 34  17  20  1   
 35  17  40  1   
 36  18  21  1   
 37  18  41  1   
 38  18  42  1   
 39  19  22  1   
 40  19  43  1   
 41  19  44  1   
 42  20  45  1   
 43  21  46  1   
 44  22  23  ar  
 45  22  24  ar  
 46  23  25  ar  
 47  23  47  1   
 48  24  26  ar  
 49  24  48  1   
 50  25  27  ar  
 51  25  49  1   
 52  26  27  ar  
 53  26  50  1   
 54  27  51  1   
@<TRIPOS>SUBSTRUCTURE
  1 ****  13 GROUP 4 **** **** 0

# MOE 2024.06 (io_trps.svl 2023.06)
