@<TRIPOS>MOLECULE
NONAME
54 56 1 0 0 
SMALL
USER_CHARGES


@<TRIPOS>ATOM
  1 F        1.1120     0.2910     2.3580 F     1 <1>  -0.1900 
  2 C        1.8670     0.6980     1.3710 C.ar  1 <1>   0.1900 
  3 C        2.4560    -0.2380     0.5340 C.ar  1 <1>  -0.1440 
  4 C        2.0380     2.0600     1.2110 C.ar  1 <1>  -0.1500 
  5 C        3.2460     0.2710    -0.4860 C.ar  1 <1>   0.1900 
  6 C        2.2560    -1.7350     0.7240 C.3   1 <1>   0.2540 
  7 C        2.8300     2.5330     0.1760 C.ar  1 <1>   0.0830 
  8 F        3.8480    -0.5520    -1.3050 F     1 <1>  -0.1900 
  9 C        3.4440     1.6260    -0.6840 C.ar  1 <1>  -0.1500 
 10 N        1.2720    -2.2700    -0.2400 N.3   1 <1>  -0.8100 
 11 O        2.9590     3.8780     0.0700 O.3   1 <1>  -0.3630 
 12 C        1.2000    -3.7540    -0.1920 C.3   1 <1>   0.3330 
 13 C       -0.0720    -1.6930    -0.0190 C.3   1 <1>   0.1100 
 14 C        3.7480     4.4620    -0.9440 C.3   1 <1>   0.0400 
 15 C        2.5600    -4.3700    -0.5270 C.ar  1 <1>  -0.1430 
 16 C        0.1000    -4.2950    -1.1490 C.3   1 <1>   0.2000 
 17 C       -1.1140    -2.3030    -0.9720 C.3   1 <1>   0.1200 
 18 C        3.1010    -5.3490     0.2940 C.ar  1 <1>  -0.1500 
 19 C        3.2610    -3.9720    -1.6580 C.ar  1 <1>  -0.1500 
 20 O       -1.1320    -3.6950    -0.8440 O.3   1 <1>  -0.5600 
 21 C       -0.1040    -5.8170    -1.0590 C.3   1 <1>   0.1200 
 22 C        4.3170    -5.9350    -0.0110 C.ar  1 <1>   0.0830 
 23 C        4.4870    -4.5390    -1.9610 C.ar  1 <1>  -0.1500 
 24 O        0.9220    -6.5080    -1.6990 O.3   1 <1>  -0.6800 
 25 O        4.7550    -6.9200     0.8110 O.3   1 <1>  -0.3630 
 26 C        5.0300    -5.5090    -1.1370 C.ar  1 <1>   0.0830 
 27 C        4.8350    -8.2120     0.2480 C.3   1 <1>   0.0400 
 28 O        6.2490    -6.0020    -1.4670 O.3   1 <1>  -0.3630 
 29 C        7.3030    -5.7030    -0.5780 C.3   1 <1>   0.0400 
 30 H        1.5620     2.7510     1.8820 H     1 <1>   0.1500 
 31 H        1.9360    -1.9510     1.7290 H     1 <1>   0.0800 
 32 H        3.2100    -2.2130     0.5810 H     1 <1>   0.0800 
 33 H        4.0680     1.9410    -1.4970 H     1 <1>   0.1500 
 34 H        0.9290    -4.0490     0.8080 H     1 <1>   0.0800 
 35 H       -0.3860    -1.8600     0.9970 H     1 <1>   0.0800 
 36 H       -0.0440    -0.6310    -0.1900 H     1 <1>   0.0800 
 37 H        3.7000     5.5300    -0.8310 H     1 <1>   0.0800 
 38 H        3.3510     4.1790    -1.9030 H     1 <1>   0.0800 
 39 H        4.7640     4.1280    -0.8330 H     1 <1>   0.0800 
 40 H        0.3410    -4.0400    -2.1670 H     1 <1>   0.0800 
 41 H       -0.8870    -2.0500    -1.9930 H     1 <1>   0.0800 
 42 H       -2.0960    -1.9370    -0.7330 H     1 <1>   0.0800 
 43 H        2.5810    -5.6790     1.1760 H     1 <1>   0.1500 
 44 H        2.8530    -3.2090    -2.3000 H     1 <1>   0.1500 
 45 H       -1.0230    -6.0910    -1.5470 H     1 <1>   0.0800 
 46 H       -0.1370    -6.1360    -0.0320 H     1 <1>   0.0800 
 47 H        5.0290    -4.2230    -2.8330 H     1 <1>   0.1500 
 48 H        1.8010    -6.1730    -1.4150 H     1 <1>   0.4000 
 49 H        5.0820    -8.9050     1.0320 H     1 <1>   0.0800 
 50 H        5.5990    -8.2260    -0.5080 H     1 <1>   0.0800 
 51 H        3.8810    -8.4640    -0.1800 H     1 <1>   0.0800 
 52 H        8.2190    -6.0620    -1.0110 H     1 <1>   0.0800 
 53 H        7.1250    -6.1910     0.3630 H     1 <1>   0.0800 
 54 H        7.3500    -4.6360    -0.4440 H     1 <1>   0.0800 
@<TRIPOS>BOND
  1   1   2  1   
  2   2   3  ar  
  3   2   4  ar  
  4   3   5  ar  
  5   3   6  1   
  6   4   7  ar  
  7   4  30  1   
  8   5   8  1   
  9   5   9  ar  
 10   6  10  1   
 11   6  31  1   
 12   6  32  1   
 13   7   9  ar  
 14   7  11  1   
 15   9  33  1   
 16  10  12  1   
 17  10  13  1   
 18  11  14  1   
 19  12  15  1   
 20  12  16  1   
 21  12  34  1   
 22  13  17  1   
 23  13  35  1   
 24  13  36  1   
 25  14  37  1   
 26  14  38  1   
 27  14  39  1   
 28  15  18  ar  
 29  15  19  ar  
 30  16  20  1   
 31  16  21  1   
 32  16  40  1   
 33  17  20  1   
 34  17  41  1   
 35  17  42  1   
 36  18  22  ar  
 37  18  43  1   
 38  19  23  ar  
 39  19  44  1   
 40  21  24  1   
 41  21  45  1   
 42  21  46  1   
 43  22  25  1   
 44  22  26  ar  
 45  23  26  ar  
 46  23  47  1   
 47  24  48  1   
 48  25  27  1   
 49  26  28  1   
 50  27  49  1   
 51  27  50  1   
 52  27  51  1   
 53  28  29  1   
 54  29  52  1   
 55  29  53  1   
 56  29  54  1   
@<TRIPOS>SUBSTRUCTURE
  1 ****   6 GROUP 4 **** **** 0

# MOE 2024.06 (io_trps.svl 2023.06)
