@<TRIPOS>MOLECULE
NONAME
46 49 1 0 0 
SMALL
USER_CHARGES


@<TRIPOS>ATOM
  1 O        0.2860    -4.9870    -2.5690 O.2   1 <1>  -0.5700 
  2 C        1.3170    -4.7300    -2.0040 C.2   1 <1>   0.5690 
  3 N        2.5050    -5.1660    -2.4690 N.am  1 <1>  -0.7300 
  4 C        1.3200    -3.9110    -0.7310 C.3   1 <1>  -0.0990 
  5 C        3.7890    -4.8720    -1.8020 C.3   1 <1>   0.1400 
  6 C        2.4570    -2.8710    -0.7590 C.3   1 <1>  -0.0800 
  7 C        3.7990    -3.4090    -1.3180 C.3   1 <1>  -0.0800 
  8 C        2.7660    -2.2760     0.6220 C.3   1 <1>  -0.1600 
  9 C        4.8430    -3.1560    -0.2240 C.3   1 <1>  -0.1600 
 10 C        4.2670    -1.9970     0.5830 C.3   1 <1>   0.2200 
 11 N        4.9140    -1.8620     1.9260 N.am  1 <1>  -0.6600 
 12 C        5.8150    -0.8630     2.2310 C.2   1 <1>   0.5690 
 13 C        4.5820    -2.8900     2.9640 C.3   1 <1>   0.0600 
 14 O        6.3270    -0.7960     3.3260 O.2   1 <1>  -0.5700 
 15 C        6.2090     0.2230     1.2410 C.3   1 <1>   0.0820 
 16 C        6.9140    -0.3190     0.0110 C.2   1 <1>   0.1080 
 17 N        6.5650     0.0080    -1.1900 N.2   1 <1>  -0.7070 
 18 C        7.9980    -1.2180     0.0390 C.ar  1 <1>   0.0000 
 19 N        7.4220    -0.6600    -1.9960 N.pl3 1 <1>   0.3000 
 20 C        8.3010    -1.4250    -1.2900 C.ar  1 <1>  -0.1520 
 21 C        8.7430    -1.8810     1.0260 C.ar  1 <1>  -0.1500 
 22 C        9.3340    -2.2840    -1.6800 C.ar  1 <1>  -0.1500 
 23 C        9.7580    -2.7290     0.6510 C.ar  1 <1>  -0.1500 
 24 C       10.0540    -2.9310    -0.7050 C.ar  1 <1>  -0.1500 
 25 H        2.5020    -5.7480    -3.3090 H     1 <1>   0.3700 
 26 H        0.3710    -3.4210    -0.6160 H     1 <1>   0.0800 
 27 H        1.4510    -4.5920     0.0890 H     1 <1>   0.0800 
 28 H        3.8970    -5.5430    -0.9660 H     1 <1>   0.0800 
 29 H        4.6060    -5.0410    -2.4830 H     1 <1>   0.0800 
 30 H        2.1460    -2.0680    -1.4090 H     1 <1>   0.0800 
 31 H        4.0610    -2.7940    -2.1630 H     1 <1>   0.0800 
 32 H        2.5290    -2.9970     1.3810 H     1 <1>   0.0800 
 33 H        2.2060    -1.3750     0.7980 H     1 <1>   0.0800 
 34 H        5.7990    -2.9080    -0.6460 H     1 <1>   0.0800 
 35 H        4.9440    -4.0260     0.3970 H     1 <1>   0.0800 
 36 H        4.3990    -1.0970     0.0100 H     1 <1>   0.0800 
 37 H        4.4390    -3.8560     2.5170 H     1 <1>   0.0800 
 38 H        3.6830    -2.6020     3.4790 H     1 <1>   0.0800 
 39 H        5.3770    -2.9730     3.6850 H     1 <1>   0.0800 
 40 H        5.3310     0.7660     0.9490 H     1 <1>   0.0800 
 41 H        6.8700     0.9160     1.7270 H     1 <1>   0.0800 
 42 H        7.4010    -0.5760    -3.0180 H     1 <1>   0.2700 
 43 H        8.5100    -1.7190     2.0640 H     1 <1>   0.1500 
 44 H        9.5560    -2.4290    -2.7230 H     1 <1>   0.1500 
 45 H       10.3360    -3.2450     1.3960 H     1 <1>   0.1500 
 46 H       10.8550    -3.6000    -0.9690 H     1 <1>   0.1500 
@<TRIPOS>BOND
  1   1   2  2   
  2   2   3  am  
  3   2   4  1   
  4   3   5  1   
  5   3  25  1   
  6   4   6  1   
  7   4  26  1   
  8   4  27  1   
  9   5   7  1   
 10   5  28  1   
 11   5  29  1   
 12   6   7  1   
 13   6   8  1   
 14   6  30  1   
 15   7   9  1   
 16   7  31  1   
 17   8  10  1   
 18   8  32  1   
 19   8  33  1   
 20   9  10  1   
 21   9  34  1   
 22   9  35  1   
 23  10  11  1   
 24  10  36  1   
 25  11  12  am  
 26  11  13  1   
 27  12  14  2   
 28  12  15  1   
 29  13  37  1   
 30  13  38  1   
 31  13  39  1   
 32  15  16  1   
 33  15  40  1   
 34  15  41  1   
 35  16  17  2   
 36  16  18  1   
 37  17  19  1   
 38  18  20  ar  
 39  18  21  ar  
 40  19  20  1   
 41  19  42  1   
 42  20  22  ar  
 43  21  23  ar  
 44  21  43  1   
 45  22  24  ar  
 46  22  44  1   
 47  23  24  ar  
 48  23  45  1   
 49  24  46  1   
@<TRIPOS>SUBSTRUCTURE
  1 ****   9 GROUP 4 **** **** 0

# MOE 2024.06 (io_trps.svl 2023.06)
