@<TRIPOS>MOLECULE
NONAME
38 37 1 0 0 
SMALL
USER_CHARGES


@<TRIPOS>ATOM
  1 O        0.0460    -2.9950    -1.2590 O.2   1 <1>  -0.5700 
  2 C       -0.4210    -2.1080    -0.5810 C.2   1 <1>   0.7800 
  3 O        0.1930    -1.6390     0.5060 O.3   1 <1>  -0.4300 
  4 N       -1.5980    -1.5410    -0.9020 N.am  1 <1>  -0.7300 
  5 C        1.4350    -2.0620     1.0260 C.3   1 <1>   0.2800 
  6 C       -2.3320    -0.5040    -0.1240 C.3   1 <1>   0.2810 
  7 C        1.6640    -1.1960     2.2660 C.3   1 <1>  -0.2400 
  8 C        1.3620    -3.5350     1.4430 C.3   1 <1>  -0.2400 
  9 C        2.5520    -1.7950     0.0110 C.3   1 <1>  -0.2400 
 10 C       -3.8600    -0.6270    -0.2810 C.2   1 <1>   0.5690 
 11 C       -1.8380     0.8990    -0.5170 C.3   1 <1>   0.0400 
 12 O       -4.3290    -1.2280    -1.2220 O.2   1 <1>  -0.5700 
 13 N       -4.6720    -0.0660     0.6490 N.am  1 <1>  -0.7300 
 14 C       -2.1150     1.2500    -1.9420 C.1   1 <1>  -0.2000 
 15 C       -6.1160    -0.0910     0.5780 C.3   1 <1>   0.4200 
 16 C       -2.3410     1.5190    -3.0770 C.1   1 <1>  -0.1770 
 17 O       -6.5070     0.6600     1.6680 O.3   1 <1>  -0.5600 
 18 C       -7.8880     0.7830     1.7890 C.3   1 <1>   0.0400 
 19 H       -2.0950    -1.8970    -1.7220 H     1 <1>   0.3700 
 20 H       -2.1110    -0.6540     0.9170 H     1 <1>   0.0800 
 21 H        0.8760    -1.3530     2.9810 H     1 <1>   0.0800 
 22 H        1.6930    -0.1560     1.9950 H     1 <1>   0.0800 
 23 H        2.5990    -1.4510     2.7310 H     1 <1>   0.0800 
 24 H        0.5240    -3.6980     2.0960 H     1 <1>   0.0800 
 25 H        2.2590    -3.8130     1.9640 H     1 <1>   0.0800 
 26 H        1.2730    -4.1770     0.5870 H     1 <1>   0.0800 
 27 H        2.5290    -0.7700    -0.3130 H     1 <1>   0.0800 
 28 H        2.4610    -2.4380    -0.8450 H     1 <1>   0.0800 
 29 H        3.5090    -1.9890     0.4590 H     1 <1>   0.0800 
 30 H       -0.7800     0.9620    -0.3370 H     1 <1>   0.0800 
 31 H       -2.3170     1.6280     0.1110 H     1 <1>   0.0800 
 32 H       -4.3450     0.4490     1.4650 H     1 <1>   0.3700 
 33 H       -6.4900    -1.0980     0.6740 H     1 <1>   0.0800 
 34 H       -6.4660     0.3700    -0.3310 H     1 <1>   0.0800 
 35 H       -2.5490     1.7520    -4.1070 H     1 <1>   0.1770 
 36 H       -8.0950     1.3790     2.6610 H     1 <1>   0.0800 
 37 H       -8.3250    -0.1940     1.9080 H     1 <1>   0.0800 
 38 H       -8.2810     1.2720     0.9150 H     1 <1>   0.0800 
@<TRIPOS>BOND
  1   1   2  2   
  2   2   3  1   
  3   2   4  am  
  4   3   5  1   
  5   4   6  1   
  6   4  19  1   
  7   5   7  1   
  8   5   8  1   
  9   5   9  1   
 10   6  10  1   
 11   6  11  1   
 12   6  20  1   
 13   7  21  1   
 14   7  22  1   
 15   7  23  1   
 16   8  24  1   
 17   8  25  1   
 18   8  26  1   
 19   9  27  1   
 20   9  28  1   
 21   9  29  1   
 22  10  12  2   
 23  10  13  am  
 24  11  14  1   
 25  11  30  1   
 26  11  31  1   
 27  13  15  1   
 28  13  32  1   
 29  14  16  3   
 30  15  17  1   
 31  15  33  1   
 32  15  34  1   
 33  16  35  1   
 34  17  18  1   
 35  18  36  1   
 36  18  37  1   
 37  18  38  1   
@<TRIPOS>SUBSTRUCTURE
  1 ****   6 GROUP 4 **** **** 0

# MOE 2024.06 (io_trps.svl 2023.06)
