@<TRIPOS>MOLECULE
NONAME
41 43 1 0 0 
SMALL
USER_CHARGES


@<TRIPOS>ATOM
  1 CL      -1.0540     1.3810    -1.9260 Cl    1 <1>  -0.1770 
  2 C       -0.1920     2.7700    -1.3120 C.ar  1 <1>   0.1770 
  3 C       -0.7740     4.0210    -1.4030 C.ar  1 <1>  -0.1500 
  4 C        1.0580     2.5940    -0.7490 C.ar  1 <1>  -0.1500 
  5 C       -0.1000     5.1330    -0.9190 C.ar  1 <1>  -0.1440 
  6 C        1.7360     3.6980    -0.2610 C.ar  1 <1>  -0.1500 
  7 C        1.1550     4.9560    -0.3360 C.ar  1 <1>   0.0830 
  8 C       -0.7420     6.5090    -1.0460 C.3   1 <1>  -0.0960 
  9 O        1.8470     6.0030     0.1600 O.3   1 <1>  -0.3630 
 10 C        1.4690     6.4660     1.4510 C.3   1 <1>   0.2610 
 11 C        1.2790     7.9870     1.4240 C.2   1 <1>   0.5690 
 12 C        2.5610     6.0290     2.4340 C.3   1 <1>  -0.2400 
 13 O        0.6560     8.5080     2.3190 O.2   1 <1>  -0.5700 
 14 N        1.8290     8.6820     0.3790 N.am  1 <1>  -0.4940 
 15 C        1.8980    10.0630     0.0680 C.2   1 <1>  -0.0880 
 16 N        1.0330    11.0680     0.4130 N.pl3 1 <1>   0.3140 
 17 C        2.8640    10.6520    -0.6730 C.2   1 <1>  -0.1810 
 18 N        1.4330    12.2620    -0.0940 N.2   1 <1>  -0.7070 
 19 C       -0.2370    10.9900     1.1460 C.3   1 <1>   0.0160 
 20 C        2.5250    11.9880    -0.7320 C.2   1 <1>   0.1080 
 21 C        4.1250    10.2260    -1.3860 C.3   1 <1>   0.2510 
 22 C        3.4440    12.9040    -1.5050 C.3   1 <1>   0.2510 
 23 S        4.7370    11.7750    -2.1150 S.3   1 <1>  -0.4600 
 24 H       -1.7450     4.1120    -1.8540 H     1 <1>   0.1500 
 25 H        1.4890     1.6100    -0.6980 H     1 <1>   0.1500 
 26 H        2.7110     3.5870     0.1770 H     1 <1>   0.1500 
 27 H       -1.5630     6.4840    -1.7410 H     1 <1>   0.0800 
 28 H       -0.0240     7.2230    -1.4060 H     1 <1>   0.0800 
 29 H       -1.1150     6.8350    -0.0920 H     1 <1>   0.0800 
 30 H        0.5320     6.0120     1.7240 H     1 <1>   0.0800 
 31 H        3.5070     6.4590     2.1600 H     1 <1>   0.0800 
 32 H        2.6400     4.9570     2.4500 H     1 <1>   0.0800 
 33 H        2.3090     6.3650     3.4250 H     1 <1>   0.0800 
 34 H        2.3250     8.0690    -0.2730 H     1 <1>   0.3700 
 35 H       -0.7650    10.1040     0.8520 H     1 <1>   0.0800 
 36 H       -0.8300    11.8560     0.9180 H     1 <1>   0.0800 
 37 H       -0.0310    10.9640     2.1990 H     1 <1>   0.0800 
 38 H        3.9330     9.5330    -2.1850 H     1 <1>   0.0800 
 39 H        4.8740     9.8570    -0.7080 H     1 <1>   0.0800 
 40 H        3.9030    13.6420    -0.8720 H     1 <1>   0.0800 
 41 H        2.9520    13.3510    -2.3490 H     1 <1>   0.0800 
@<TRIPOS>BOND
  1   1   2  1   
  2   2   3  ar  
  3   2   4  ar  
  4   3   5  ar  
  5   3  24  1   
  6   4   6  ar  
  7   4  25  1   
  8   5   7  ar  
  9   5   8  1   
 10   6   7  ar  
 11   6  26  1   
 12   7   9  1   
 13   8  27  1   
 14   8  28  1   
 15   8  29  1   
 16   9  10  1   
 17  10  11  1   
 18  10  12  1   
 19  10  30  1   
 20  11  13  2   
 21  11  14  am  
 22  12  31  1   
 23  12  32  1   
 24  12  33  1   
 25  14  15  1   
 26  14  34  1   
 27  15  16  1   
 28  15  17  2   
 29  16  18  1   
 30  16  19  1   
 31  17  20  1   
 32  17  21  1   
 33  18  20  2   
 34  19  35  1   
 35  19  36  1   
 36  19  37  1   
 37  20  22  1   
 38  21  23  1   
 39  21  38  1   
 40  21  39  1   
 41  22  23  1   
 42  22  40  1   
 43  22  41  1   
@<TRIPOS>SUBSTRUCTURE
  1 ****  14 GROUP 4 **** **** 0

# MOE 2024.06 (io_trps.svl 2023.06)
