@<TRIPOS>MOLECULE
NONAME
60 63 1 0 0 
SMALL
USER_CHARGES


@<TRIPOS>ATOM
  1 O       -0.3480     0.4620    -1.4840 O.2   1 <1>  -0.5700 
  2 C       -1.3560     1.1420    -1.4720 C.2   1 <1>   0.5440 
  3 N       -2.5670     0.5330    -1.2210 N.am  1 <1>  -0.6600 
  4 C       -1.2470     2.5720    -1.6980 C.ar  1 <1>   0.0860 
  5 C       -3.7490     1.2410    -0.6360 C.3   1 <1>   0.1400 
  6 C       -2.7290    -0.9550    -1.2380 C.3   1 <1>   0.1400 
  7 C       -0.2570     3.3160    -1.0620 C.ar  1 <1>  -0.1500 
  8 C       -2.1150     3.2490    -2.5550 C.ar  1 <1>  -0.1500 
  9 C       -4.1800     0.5970     0.6970 C.3   1 <1>   0.2950 
 10 C       -3.2160    -1.4760     0.1310 C.3   1 <1>   0.2000 
 11 C       -0.1320     4.6870    -1.2390 C.ar  1 <1>   0.1170 
 12 C       -2.0090     4.6140    -2.7470 C.ar  1 <1>  -0.1500 
 13 O       -4.3640    -0.7810     0.5240 O.3   1 <1>  -0.5600 
 14 C       -5.4840     1.2310     1.2160 C.3   1 <1>  -0.1950 
 15 C       -3.5860    -2.9650     0.1130 C.3   1 <1>  -0.1600 
 16 N        0.8970     5.3630    -0.5690 N.am  1 <1>  -0.5470 
 17 C       -1.0240     5.3280    -2.0910 C.ar  1 <1>  -0.1500 
 18 C       -6.4090     0.5160     2.1520 C.3   1 <1>  -0.2000 
 19 C       -6.8350     0.7960     0.7380 C.3   1 <1>  -0.2000 
 20 C       -2.3830    -3.8820    -0.1620 C.3   1 <1>  -0.1600 
 21 C        0.9810     6.6660    -0.1540 C.2   1 <1>   0.5770 
 22 C       -2.7870    -5.3590    -0.0760 C.3   1 <1>  -0.1600 
 23 O        0.0920     7.4670    -0.3100 O.2   1 <1>  -0.5700 
 24 C        2.2690     7.1110     0.5280 C.3   1 <1>   0.0530 
 25 C       -1.5910    -6.2740    -0.3520 C.3   1 <1>  -0.2400 
 26 C        2.8050     6.1490     1.6240 C.3   1 <1>   0.0000 
 27 C        2.1030     8.1660     1.6580 C.3   1 <1>   0.0000 
 28 C        3.2250     7.4130     2.4170 C.3   1 <1>   0.0000 
 29 H       -3.5220     2.2760    -0.4570 H     1 <1>   0.0800 
 30 H       -4.5690     1.1920    -1.3290 H     1 <1>   0.0800 
 31 H       -3.4480    -1.2200    -1.9930 H     1 <1>   0.0800 
 32 H       -1.7990    -1.4290    -1.4930 H     1 <1>   0.0800 
 33 H        0.4260     2.8000    -0.4120 H     1 <1>   0.1500 
 34 H       -2.8760     2.6950    -3.0760 H     1 <1>   0.1500 
 35 H       -3.4070     0.7390     1.4330 H     1 <1>   0.0800 
 36 H       -2.4520    -1.3100     0.8720 H     1 <1>   0.0800 
 37 H       -2.6880     5.1230    -3.4090 H     1 <1>   0.1500 
 38 H       -5.3560     2.2840     1.3980 H     1 <1>   0.1000 
 39 H       -4.0000    -3.2170     1.0740 H     1 <1>   0.0800 
 40 H       -4.3440    -3.1310    -0.6330 H     1 <1>   0.0800 
 41 H        1.6930     4.7800    -0.3160 H     1 <1>   0.3700 
 42 H       -0.9480     6.3890    -2.2510 H     1 <1>   0.1500 
 43 H       -6.1940    -0.5030     2.4270 H     1 <1>   0.1000 
 44 H       -6.8700     1.0700     2.9510 H     1 <1>   0.1000 
 45 H       -7.5930     1.5390     0.5640 H     1 <1>   0.1000 
 46 H       -6.9090    -0.0380     0.0590 H     1 <1>   0.1000 
 47 H       -1.9870    -3.6870    -1.1440 H     1 <1>   0.0800 
 48 H       -1.6080    -3.6830     0.5580 H     1 <1>   0.0800 
 49 H       -3.1750    -5.5710     0.9060 H     1 <1>   0.0800 
 50 H       -3.5630    -5.5650    -0.7930 H     1 <1>   0.0800 
 51 H        3.0390     7.3910    -0.1720 H     1 <1>   0.0000 
 52 H       -0.8100    -6.1000     0.3680 H     1 <1>   0.0800 
 53 H       -1.2000    -6.0960    -1.3380 H     1 <1>   0.0800 
 54 H       -1.8930    -7.3040    -0.2850 H     1 <1>   0.0800 
 55 H        2.0270     5.5930     2.1210 H     1 <1>   0.0000 
 56 H        3.6320     5.5400     1.3040 H     1 <1>   0.0000 
 57 H        2.3700     9.1650     1.3640 H     1 <1>   0.0000 
 58 H        1.1540     8.1040     2.1640 H     1 <1>   0.0000 
 59 H        4.2100     7.7600     2.1550 H     1 <1>   0.0000 
 60 H        3.0610     7.3380     3.4770 H     1 <1>   0.0000 
@<TRIPOS>BOND
  1   1   2  2   
  2   2   3  am  
  3   2   4  1   
  4   3   5  1   
  5   3   6  1   
  6   4   7  ar  
  7   4   8  ar  
  8   5   9  1   
  9   5  29  1   
 10   5  30  1   
 11   6  10  1   
 12   6  31  1   
 13   6  32  1   
 14   7  11  ar  
 15   7  33  1   
 16   8  12  ar  
 17   8  34  1   
 18   9  13  1   
 19   9  14  1   
 20   9  35  1   
 21  10  13  1   
 22  10  15  1   
 23  10  36  1   
 24  11  16  1   
 25  11  17  ar  
 26  12  17  ar  
 27  12  37  1   
 28  14  18  1   
 29  14  19  1   
 30  14  38  1   
 31  15  20  1   
 32  15  39  1   
 33  15  40  1   
 34  16  21  am  
 35  16  41  1   
 36  17  42  1   
 37  18  19  1   
 38  18  43  1   
 39  18  44  1   
 40  19  45  1   
 41  19  46  1   
 42  20  22  1   
 43  20  47  1   
 44  20  48  1   
 45  21  23  2   
 46  21  24  1   
 47  22  25  1   
 48  22  49  1   
 49  22  50  1   
 50  24  26  1   
 51  24  27  1   
 52  24  51  1   
 53  25  52  1   
 54  25  53  1   
 55  25  54  1   
 56  26  28  1   
 57  26  55  1   
 58  26  56  1   
 59  27  28  1   
 60  27  57  1   
 61  27  58  1   
 62  28  59  1   
 63  28  60  1   
@<TRIPOS>SUBSTRUCTURE
  1 ****   2 GROUP 4 **** **** 0

# MOE 2024.06 (io_trps.svl 2023.06)
