@<TRIPOS>MOLECULE
NONAME
52 55 1 0 0 
SMALL
USER_CHARGES


@<TRIPOS>ATOM
  1 O       -3.2050     1.6660    -2.0310 O.2   1 <1>  -0.5700 
  2 C       -2.6610     1.5730    -0.9600 C.2   1 <1>   0.5690 
  3 N       -2.4530     0.3800    -0.3560 N.am  1 <1>  -0.7300 
  4 C       -2.1720     2.8290    -0.2780 C.3   1 <1>  -0.0990 
  5 C       -2.8150    -0.9360    -0.9240 C.3   1 <1>   0.2200 
  6 C       -0.8890     3.3420    -0.9440 C.3   1 <1>  -0.0220 
  7 C       -3.9070    -1.5620    -0.0710 C.3   1 <1>  -0.0800 
  8 C       -1.6620    -1.9040    -0.7010 C.3   1 <1>   0.1200 
  9 C       -0.3750     4.6040    -0.2420 C.2   1 <1>  -0.1240 
 10 C       -3.1110    -2.2720     1.0360 C.3   1 <1>   0.1200 
 11 C       -4.7690    -2.5410    -0.8900 C.3   1 <1>  -0.0160 
 12 O       -1.7710    -2.2920     0.6330 O.3   1 <1>  -0.5600 
 13 C       -0.7810     5.9010    -0.7200 C.2   1 <1>   0.3750 
 14 C        0.4650     4.5270     0.8370 C.2   1 <1>  -0.1690 
 15 C       -5.8680    -3.1620    -0.0410 C.ar  1 <1>  -0.1440 
 16 N       -0.3870     7.0090    -0.1870 N.2   1 <1>  -0.5760 
 17 C       -1.7170     6.0430    -1.9080 C.3   1 <1>  -0.1790 
 18 N        0.8840     5.7280     1.3910 N.pl3 1 <1>   0.6010 
 19 C        0.9950     3.2590     1.5120 C.3   1 <1>  -0.1020 
 20 C       -6.9850    -2.4440     0.3360 C.ar  1 <1>  -0.1500 
 21 C       -5.8100    -4.4710     0.3940 C.ar  1 <1>  -0.1500 
 22 C        0.4600     6.9160     0.8820 C.2   1 <1>   0.3120 
 23 N        1.6900     5.9700     2.4230 N.2   1 <1>  -0.7070 
 24 C       -7.9580    -3.0500     1.1140 C.ar  1 <1>   0.1600 
 25 C       -6.8390    -4.9810     1.1690 C.ar  1 <1>   0.1600 
 26 N        0.9640     7.9080     1.5470 N.2   1 <1>  -0.5650 
 27 C        1.6930     7.2660     2.4570 C.2   1 <1>   0.3660 
 28 N       -7.9110    -4.3010     1.5410 N.ar  1 <1>  -0.6200 
 29 H       -1.9870     0.3170     0.5510 H     1 <1>   0.3700 
 30 H       -2.9450     3.5730    -0.3450 H     1 <1>   0.0800 
 31 H       -1.9950     2.6310     0.7630 H     1 <1>   0.0800 
 32 H       -3.0810    -0.8430    -1.9650 H     1 <1>   0.0800 
 33 H       -1.0740     3.5230    -1.9880 H     1 <1>   0.0800 
 34 H       -0.1400     2.5720    -0.9190 H     1 <1>   0.0800 
 35 H       -4.5510    -0.8080     0.3460 H     1 <1>   0.0800 
 36 H       -0.7000    -1.4530    -0.8720 H     1 <1>   0.0800 
 37 H       -1.7700    -2.7820    -1.3120 H     1 <1>   0.0800 
 38 H       -3.4330    -3.2860     1.1960 H     1 <1>   0.0800 
 39 H       -3.1670    -1.7300     1.9630 H     1 <1>   0.0800 
 40 H       -4.1550    -3.3180    -1.3110 H     1 <1>   0.0800 
 41 H       -5.2260    -2.0120    -1.7090 H     1 <1>   0.0800 
 42 H       -2.6170     5.4790    -1.7530 H     1 <1>   0.0800 
 43 H       -1.2290     5.7070    -2.8040 H     1 <1>   0.0800 
 44 H       -1.9910     7.0740    -2.0450 H     1 <1>   0.0800 
 45 H        0.7950     3.3000     2.5690 H     1 <1>   0.0800 
 46 H        2.0610     3.1960     1.3780 H     1 <1>   0.0800 
 47 H        0.5520     2.3590     1.1330 H     1 <1>   0.0800 
 48 H       -7.1080    -1.4210     0.0340 H     1 <1>   0.1500 
 49 H       -4.9770    -5.1010     0.1400 H     1 <1>   0.1500 
 50 H       -8.8220    -2.4740     1.3990 H     1 <1>   0.1500 
 51 H       -6.7760    -6.0040     1.5000 H     1 <1>   0.1500 
 52 H        2.2590     7.8230     3.1890 H     1 <1>   0.1500 
@<TRIPOS>BOND
  1   1   2  2   
  2   2   3  am  
  3   2   4  1   
  4   3   5  1   
  5   3  29  1   
  6   4   6  1   
  7   4  30  1   
  8   4  31  1   
  9   5   7  1   
 10   5   8  1   
 11   5  32  1   
 12   6   9  1   
 13   6  33  1   
 14   6  34  1   
 15   7  10  1   
 16   7  11  1   
 17   7  35  1   
 18   8  12  1   
 19   8  36  1   
 20   8  37  1   
 21   9  13  1   
 22   9  14  2   
 23  10  12  1   
 24  10  38  1   
 25  10  39  1   
 26  11  15  1   
 27  11  40  1   
 28  11  41  1   
 29  13  16  2   
 30  13  17  1   
 31  14  18  1   
 32  14  19  1   
 33  15  20  ar  
 34  15  21  ar  
 35  16  22  1   
 36  17  42  1   
 37  17  43  1   
 38  17  44  1   
 39  18  22  1   
 40  18  23  1   
 41  19  45  1   
 42  19  46  1   
 43  19  47  1   
 44  20  24  ar  
 45  20  48  1   
 46  21  25  ar  
 47  21  49  1   
 48  22  26  2   
 49  23  27  2   
 50  24  28  ar  
 51  24  50  1   
 52  25  28  ar  
 53  25  51  1   
 54  26  27  1   
 55  27  52  1   
@<TRIPOS>SUBSTRUCTURE
  1 ****   3 GROUP 4 **** **** 0

# MOE 2024.06 (io_trps.svl 2023.06)
