@<TRIPOS>MOLECULE
NONAME
46 48 1 0 0 
SMALL
USER_CHARGES


@<TRIPOS>ATOM
  1 O       -1.7060     0.2600     3.4060 O.2   1 <1>  -0.5700 
  2 C       -1.7510     0.9140     2.3890 C.2   1 <1>   0.5690 
  3 N       -2.4510     0.4670     1.2970 N.am  1 <1>  -0.6600 
  4 C       -1.0380     2.2720     2.3990 C.3   1 <1>   0.1810 
  5 C       -2.6090     1.1750     0.0030 C.3   1 <1>   0.1400 
  6 C       -3.0620    -0.8840     1.2240 C.3   1 <1>   0.1400 
  7 O       -0.3620     2.5500     1.1990 O.3   1 <1>  -0.5600 
  8 C       -3.7370     0.4240    -0.7000 C.3   1 <1>   0.2000 
  9 C       -3.5970    -1.0210    -0.2130 C.3   1 <1>  -0.0800 
 10 C        0.3610     3.7390     1.2000 C.3   1 <1>   0.2640 
 11 O       -4.9450     0.9150    -0.2340 O.3   1 <1>  -0.6800 
 12 C       -2.6320    -1.8140    -1.1160 C.3   1 <1>  -0.0170 
 13 C        0.8660     3.9960    -0.2120 C.ar  1 <1>  -0.1440 
 14 C       -2.6320    -3.2970    -0.7800 C.ar  1 <1>   0.1670 
 15 C        1.5980     3.0260    -0.8790 C.ar  1 <1>  -0.1500 
 16 C        0.6040     5.2020    -0.8460 C.ar  1 <1>  -0.1500 
 17 N       -1.6860    -3.7190     0.0440 N.ar  1 <1>  -0.6200 
 18 C       -3.5980    -4.1220    -1.3370 C.ar  1 <1>  -0.1500 
 19 C        2.0660     3.2560    -2.1610 C.ar  1 <1>  -0.1500 
 20 C        1.0700     5.4340    -2.1290 C.ar  1 <1>  -0.1500 
 21 C       -1.7040    -5.0120     0.3270 C.ar  1 <1>   0.1600 
 22 C       -3.6050    -5.4670    -1.0350 C.ar  1 <1>  -0.1500 
 23 C        1.8020     4.4610    -2.7870 C.ar  1 <1>  -0.1500 
 24 C       -2.6250    -5.9150    -0.1760 C.ar  1 <1>  -0.1500 
 25 H       -0.3210     2.2760     3.2000 H     1 <1>   0.0800 
 26 H       -1.7660     3.0440     2.5680 H     1 <1>   0.0800 
 27 H       -2.8430     2.2170     0.1370 H     1 <1>   0.0800 
 28 H       -1.6950     1.0820    -0.5590 H     1 <1>   0.0800 
 29 H       -2.3310    -1.6370     1.4670 H     1 <1>   0.0800 
 30 H       -3.8680    -0.9420     1.9340 H     1 <1>   0.0800 
 31 H       -3.7170     0.5340    -1.7710 H     1 <1>   0.0800 
 32 H       -4.5510    -1.5180    -0.2180 H     1 <1>   0.0800 
 33 H       -0.2830     4.5380     1.5220 H     1 <1>   0.0800 
 34 H        1.1890     3.6380     1.8800 H     1 <1>   0.0800 
 35 H       -4.9150     0.9280     0.7440 H     1 <1>   0.4000 
 36 H       -1.6310    -1.4280    -1.0230 H     1 <1>   0.0800 
 37 H       -2.9270    -1.7010    -2.1430 H     1 <1>   0.0800 
 38 H        1.8000     2.0840    -0.3970 H     1 <1>   0.1500 
 39 H        0.0360     5.9680    -0.3470 H     1 <1>   0.1500 
 40 H       -4.3410    -3.7180    -2.0000 H     1 <1>   0.1500 
 41 H        2.6330     2.4960    -2.6700 H     1 <1>   0.1500 
 42 H        0.8640     6.3710    -2.6150 H     1 <1>   0.1500 
 43 H       -0.9410    -5.3700     0.9970 H     1 <1>   0.1500 
 44 H       -4.3400    -6.1360    -1.4490 H     1 <1>   0.1500 
 45 H        2.1640     4.6410    -3.7840 H     1 <1>   0.1500 
 46 H       -2.5710    -6.9510     0.1030 H     1 <1>   0.1500 
@<TRIPOS>BOND
  1   1   2  2   
  2   2   3  am  
  3   2   4  1   
  4   3   5  1   
  5   3   6  1   
  6   4   7  1   
  7   4  25  1   
  8   4  26  1   
  9   5   8  1   
 10   5  27  1   
 11   5  28  1   
 12   6   9  1   
 13   6  29  1   
 14   6  30  1   
 15   7  10  1   
 16   8   9  1   
 17   8  11  1   
 18   8  31  1   
 19   9  12  1   
 20   9  32  1   
 21  10  13  1   
 22  10  33  1   
 23  10  34  1   
 24  11  35  1   
 25  12  14  1   
 26  12  36  1   
 27  12  37  1   
 28  13  15  ar  
 29  13  16  ar  
 30  14  17  ar  
 31  14  18  ar  
 32  15  19  ar  
 33  15  38  1   
 34  16  20  ar  
 35  16  39  1   
 36  17  21  ar  
 37  18  22  ar  
 38  18  40  1   
 39  19  23  ar  
 40  19  41  1   
 41  20  23  ar  
 42  20  42  1   
 43  21  24  ar  
 44  21  43  1   
 45  22  24  ar  
 46  22  44  1   
 47  23  45  1   
 48  24  46  1   
@<TRIPOS>SUBSTRUCTURE
  1 ****   5 GROUP 4 **** **** 0

# MOE 2024.06 (io_trps.svl 2023.06)
