@<TRIPOS>MOLECULE
NONAME
49 51 1 0 0 
SMALL
USER_CHARGES


@<TRIPOS>ATOM
  1 N       -1.1800    -0.1870    -1.2980 N.ar  1 <1>  -0.6200 
  2 C       -1.4880    -0.2220    -0.0030 C.ar  1 <1>   0.1660 
  3 C       -0.5890     0.9240    -1.7170 C.ar  1 <1>   0.1600 
  4 C       -1.2320     0.8150     0.8830 C.ar  1 <1>  -0.1500 
  5 C       -2.1710    -1.4930     0.5090 C.3   1 <1>   0.4870 
  6 C       -0.2950     2.0080    -0.9090 C.ar  1 <1>  -0.1500 
  7 C       -0.6220     1.9640     0.4280 C.ar  1 <1>  -0.1500 
  8 N       -2.7990    -2.2260    -0.6400 N.4   1 <1>  -0.9590 
  9 C       -4.2450    -1.9890    -0.9030 C.3   1 <1>   0.4230 
 10 C       -2.4460    -3.6750    -0.6340 C.3   1 <1>   0.2630 
 11 C       -4.6150    -0.5230    -1.1170 C.3   1 <1>  -0.1600 
 12 C       -5.1750    -2.4390     0.2240 C.3   1 <1>  -0.1600 
 13 C       -6.1400    -0.4920    -0.9360 C.3   1 <1>  -0.0800 
 14 C       -6.4930    -1.6980    -0.0590 C.3   1 <1>  -0.0800 
 15 C       -6.7010     0.7560    -0.2320 C.3   1 <1>  -0.1600 
 16 C       -7.2300    -1.1460     1.1730 C.3   1 <1>  -0.1600 
 17 C       -7.7020     0.2670     0.8220 C.3   1 <1>   0.4230 
 18 N       -9.1240     0.2680     0.3460 N.4   1 <1>  -0.9590 
 19 C       -9.3840    -0.4290    -0.9550 C.3   1 <1>   0.2630 
 20 C       -9.6640     1.6630     0.2930 C.3   1 <1>   0.2630 
 21 H       -0.3220     0.9780    -2.7610 H     1 <1>   0.1500 
 22 H       -1.4980     0.7390     1.9230 H     1 <1>   0.1500 
 23 H       -2.9060    -1.2420     1.2540 H     1 <1>   0.0800 
 24 H       -1.4180    -2.1120     0.9670 H     1 <1>   0.0800 
 25 H        0.1870     2.8760    -1.3250 H     1 <1>   0.1500 
 26 H       -0.4050     2.7900     1.0850 H     1 <1>   0.1500 
 27 H       -2.2930    -1.7820    -1.4360 H     1 <1>   0.4500 
 28 H       -4.5270    -2.5240    -1.7970 H     1 <1>   0.0800 
 29 H       -2.9020    -4.1710     0.2070 H     1 <1>   0.0800 
 30 H       -1.3760    -3.7990    -0.5730 H     1 <1>   0.0800 
 31 H       -2.7890    -4.1470    -1.5410 H     1 <1>   0.0800 
 32 H       -4.1490     0.0990    -0.3760 H     1 <1>   0.0800 
 33 H       -4.3280    -0.1830    -2.0970 H     1 <1>   0.0800 
 34 H       -5.3240    -3.5040     0.2100 H     1 <1>   0.0800 
 35 H       -4.7790    -2.1460     1.1780 H     1 <1>   0.0800 
 36 H       -6.6110    -0.6130    -1.8990 H     1 <1>   0.0800 
 37 H       -7.1500    -2.3480    -0.6150 H     1 <1>   0.0800 
 38 H       -7.1270     1.4540    -0.9300 H     1 <1>   0.0800 
 39 H       -5.9110     1.2630     0.2920 H     1 <1>   0.0800 
 40 H       -6.5430    -1.0550     1.9960 H     1 <1>   0.0800 
 41 H       -8.0340    -1.7880     1.4870 H     1 <1>   0.0800 
 42 H       -7.6360     0.8900     1.7000 H     1 <1>   0.0800 
 43 H       -9.6640    -0.2320     1.0680 H     1 <1>   0.4500 
 44 H       -8.8380     0.0480    -1.7530 H     1 <1>   0.0800 
 45 H      -10.4350    -0.3960    -1.1930 H     1 <1>   0.0800 
 46 H       -9.0820    -1.4610    -0.8960 H     1 <1>   0.0800 
 47 H       -9.1440     2.2410    -0.4540 H     1 <1>   0.0800 
 48 H       -9.5440     2.1490     1.2480 H     1 <1>   0.0800 
 49 H      -10.7130     1.6500     0.0460 H     1 <1>   0.0800 
@<TRIPOS>BOND
  1   1   2  ar  
  2   1   3  ar  
  3   2   4  ar  
  4   2   5  1   
  5   3   6  ar  
  6   3  21  1   
  7   4   7  ar  
  8   4  22  1   
  9   5   8  1   
 10   5  23  1   
 11   5  24  1   
 12   6   7  ar  
 13   6  25  1   
 14   7  26  1   
 15   8   9  1   
 16   8  10  1   
 17   8  27  1   
 18   9  11  1   
 19   9  12  1   
 20   9  28  1   
 21  10  29  1   
 22  10  30  1   
 23  10  31  1   
 24  11  13  1   
 25  11  32  1   
 26  11  33  1   
 27  12  14  1   
 28  12  34  1   
 29  12  35  1   
 30  13  14  1   
 31  13  15  1   
 32  13  36  1   
 33  14  16  1   
 34  14  37  1   
 35  15  17  1   
 36  15  38  1   
 37  15  39  1   
 38  16  17  1   
 39  16  40  1   
 40  16  41  1   
 41  17  18  1   
 42  17  42  1   
 43  18  19  1   
 44  18  20  1   
 45  18  43  1   
 46  19  44  1   
 47  19  45  1   
 48  19  46  1   
 49  20  47  1   
 50  20  48  1   
 51  20  49  1   
@<TRIPOS>SUBSTRUCTURE
  1 ****  11 GROUP 4 **** **** 0

# MOE 2024.06 (io_trps.svl 2023.06)
