@<TRIPOS>MOLECULE
NONAME
42 43 1 0 0 
SMALL
USER_CHARGES


@<TRIPOS>ATOM
  1 O        0.4670    -0.1830     1.0100 O.2   1 <1>  -0.5760 
  2 C        1.3440    -0.5940     0.2950 C.2   1 <1>   0.8490 
  3 N        2.3700     0.2300    -0.0850 N.pl3 1 <1>  -0.7340 
  4 C        1.2770    -2.0790    -0.1770 C.3   1 <1>   0.3970 
  5 C        2.5480     1.5130     0.2710 C.cat 1 <1>   1.0680 
  6 N       -0.0120    -2.8530     0.0910 N.4   1 <1>  -0.9620 
  7 N        1.7660     2.2190     1.0650 N.pl3 1 <1>  -0.7050 
  8 N        3.5690     2.2680    -0.1390 N.pl3 1 <1>  -0.7680 
  9 C        0.0650    -4.3260    -0.1950 C.3   1 <1>   0.4160 
 10 C       -1.1730    -2.2280    -0.6170 C.3   1 <1>   0.3360 
 11 C        2.2860     3.4860     1.1870 C.2   1 <1>   0.1910 
 12 C        3.4040     3.5180     0.4410 C.2   1 <1>   0.1910 
 13 C        4.7260     1.9750    -1.0330 C.3   1 <1>   0.2660 
 14 C       -1.2410    -4.9900     0.2770 C.3   1 <1>  -0.1690 
 15 C        1.2960    -4.9530     0.4960 C.3   1 <1>  -0.1690 
 16 C       -2.4770    -2.8400    -0.1190 C.3   1 <1>  -0.1690 
 17 C       -2.4900    -4.3530    -0.3400 C.3   1 <1>  -0.1690 
 18 C        1.4120    -6.4750     0.3210 C.3   1 <1>  -0.2480 
 19 H        3.1020    -0.1290    -0.6840 H     1 <1>   0.4430 
 20 H        2.0880    -2.5840     0.3160 H     1 <1>   0.0710 
 21 H        1.4750    -2.1050    -1.2340 H     1 <1>   0.0710 
 22 H       -0.2380    -2.7850     1.0950 H     1 <1>   0.4430 
 23 H        0.9160     1.8420     1.5010 H     1 <1>   0.4430 
 24 H        0.1550    -4.4760    -1.2590 H     1 <1>   0.0710 
 25 H       -1.0860    -2.3890    -1.6800 H     1 <1>   0.0710 
 26 H       -1.2000    -1.1670    -0.4310 H     1 <1>   0.0710 
 27 H        1.8320     4.2620     1.7860 H     1 <1>   0.1410 
 28 H        4.0890     4.3400     0.2860 H     1 <1>   0.1410 
 29 H        4.6740     0.9750    -1.4250 H     1 <1>   0.0710 
 30 H        5.6470     2.0850    -0.4850 H     1 <1>   0.0710 
 31 H        4.7320     2.6680    -1.8580 H     1 <1>   0.0710 
 32 H       -1.3030    -4.9430     1.3510 H     1 <1>   0.0710 
 33 H       -1.2400    -6.0290     0.0020 H     1 <1>   0.0710 
 34 H        1.2740    -4.7360     1.5500 H     1 <1>   0.0710 
 35 H        2.1960    -4.5440     0.0770 H     1 <1>   0.0710 
 36 H       -3.3020    -2.3980    -0.6510 H     1 <1>   0.0710 
 37 H       -2.6090    -2.6160     0.9250 H     1 <1>   0.0710 
 38 H       -3.3750    -4.7800     0.1010 H     1 <1>   0.0710 
 39 H       -2.5150    -4.5620    -1.3970 H     1 <1>   0.0710 
 40 H        0.6410    -6.9940     0.8640 H     1 <1>   0.0710 
 41 H        2.3590    -6.8160     0.7020 H     1 <1>   0.0710 
 42 H        1.3510    -6.7490    -0.7190 H     1 <1>   0.0710 
@<TRIPOS>BOND
  1   1   2  2   
  2   2   3  1   
  3   2   4  1   
  4   3   5  ar  
  5   3  19  1   
  6   4   6  1   
  7   4  20  1   
  8   4  21  1   
  9   5   7  ar  
 10   5   8  ar  
 11   6   9  1   
 12   6  10  1   
 13   6  22  1   
 14   7  11  1   
 15   7  23  1   
 16   8  12  1   
 17   8  13  1   
 18   9  14  1   
 19   9  15  1   
 20   9  24  1   
 21  10  16  1   
 22  10  25  1   
 23  10  26  1   
 24  11  12  2   
 25  11  27  1   
 26  12  28  1   
 27  13  29  1   
 28  13  30  1   
 29  13  31  1   
 30  14  17  1   
 31  14  32  1   
 32  14  33  1   
 33  15  18  1   
 34  15  34  1   
 35  15  35  1   
 36  16  17  1   
 37  16  36  1   
 38  16  37  1   
 39  17  38  1   
 40  17  39  1   
 41  18  40  1   
 42  18  41  1   
 43  18  42  1   
@<TRIPOS>SUBSTRUCTURE
  1 ****   2 GROUP 4 **** **** 0

# MOE 2024.06 (io_trps.svl 2023.06)
