@<TRIPOS>MOLECULE
NONAME
50 51 1 0 0 
SMALL
USER_CHARGES


@<TRIPOS>ATOM
  1 F       -0.3510     0.6800     1.0090 F     1 <1>  -0.1900 
  2 C       -1.6210     0.8740     0.7570 C.ar  1 <1>   0.1900 
  3 C       -2.0560     1.8170    -0.1820 C.ar  1 <1>   0.0830 
  4 C       -2.5140     0.0990     1.4720 C.ar  1 <1>  -0.1500 
  5 O       -1.2780     2.6370    -0.9440 O.3   1 <1>  -0.3630 
  6 C       -3.4220     1.9480    -0.3730 C.ar  1 <1>  -0.1500 
  7 C       -3.8700     0.2570     1.2560 C.ar  1 <1>  -0.1500 
  8 C        0.1320     2.6090    -0.9110 C.3   1 <1>   0.0400 
  9 C       -4.3530     1.1790     0.3270 C.ar  1 <1>   0.0530 
 10 C       -5.7640     1.3610     0.0980 C.2   1 <1>   0.0870 
 11 O       -6.2480     2.5760     0.0570 O.3   1 <1>  -0.0190 
 12 C       -6.8080     0.5100    -0.1100 C.2   1 <1>  -0.0860 
 13 N       -7.5360     2.6090    -0.1450 N.2   1 <1>  -0.4100 
 14 C       -7.9010     1.3790    -0.2450 C.2   1 <1>   0.3720 
 15 C       -6.8480    -0.9210    -0.2090 C.2   1 <1>   0.7160 
 16 N       -9.2400     0.9980    -0.4420 N.pl3 1 <1>  -0.8210 
 17 O       -5.8800    -1.6090     0.0510 O.2   1 <1>  -0.5700 
 18 N       -7.9930    -1.5430    -0.6000 N.am  1 <1>  -0.7300 
 19 C       -9.9850     0.8390     0.8360 C.3   1 <1>   0.1290 
 20 C       -9.9840     1.8600    -1.4040 C.3   1 <1>   0.1290 
 21 C       -8.2610    -2.9920    -0.6390 C.3   1 <1>   0.1400 
 22 C       -9.5500    -3.2720     0.1330 C.3   1 <1>  -0.1600 
 23 C       -9.9490    -4.7500     0.0970 C.3   1 <1>   0.2000 
 24 O      -11.2100    -4.8270     0.6750 O.3   1 <1>  -0.5600 
 25 C       -8.9960    -5.6390     0.9020 C.3   1 <1>  -0.2400 
 26 C      -12.0090    -5.8850     0.2440 C.3   1 <1>   0.0400 
 27 H       -2.1510    -0.6180     2.1860 H     1 <1>   0.1500 
 28 H       -3.7720     2.6690    -1.0910 H     1 <1>   0.1500 
 29 H       -4.5670    -0.3440     1.8150 H     1 <1>   0.1500 
 30 H        0.4980     3.3320    -1.6170 H     1 <1>   0.0800 
 31 H        0.4700     1.6260    -1.1870 H     1 <1>   0.0800 
 32 H        0.4640     2.8690     0.0790 H     1 <1>   0.0800 
 33 H       -8.7860    -0.9090    -0.7800 H     1 <1>   0.3700 
 34 H       -9.4380     0.1950     1.5040 H     1 <1>   0.0800 
 35 H      -10.9500     0.3990     0.6490 H     1 <1>   0.0800 
 36 H      -10.1170     1.7980     1.3090 H     1 <1>   0.0800 
 37 H       -9.3920     2.0130    -2.2900 H     1 <1>   0.0800 
 38 H      -10.1950     2.8180    -0.9600 H     1 <1>   0.0800 
 39 H      -10.9090     1.3860    -1.6840 H     1 <1>   0.0800 
 40 H       -7.4340    -3.5250    -0.2010 H     1 <1>   0.0800 
 41 H       -8.3650    -3.3030    -1.6650 H     1 <1>   0.0800 
 42 H      -10.3450    -2.6990    -0.3100 H     1 <1>   0.0800 
 43 H       -9.4270    -2.9650     1.1560 H     1 <1>   0.0800 
 44 H      -10.0120    -5.0820    -0.9270 H     1 <1>   0.0800 
 45 H       -8.9560    -5.3080     1.9250 H     1 <1>   0.0800 
 46 H       -8.0050    -5.6010     0.4910 H     1 <1>   0.0800 
 47 H       -9.3190    -6.6630     0.8770 H     1 <1>   0.0800 
 48 H      -12.9530    -5.8180     0.7560 H     1 <1>   0.0800 
 49 H      -11.5350    -6.8190     0.4870 H     1 <1>   0.0800 
 50 H      -12.1670    -5.8020    -0.8170 H     1 <1>   0.0800 
@<TRIPOS>BOND
  1   1   2  1   
  2   2   3  ar  
  3   2   4  ar  
  4   3   5  1   
  5   3   6  ar  
  6   4   7  ar  
  7   4  27  1   
  8   5   8  1   
  9   6   9  ar  
 10   6  28  1   
 11   7   9  ar  
 12   7  29  1   
 13   8  30  1   
 14   8  31  1   
 15   8  32  1   
 16   9  10  1   
 17  10  11  1   
 18  10  12  2   
 19  11  13  1   
 20  12  14  1   
 21  12  15  1   
 22  13  14  2   
 23  14  16  1   
 24  15  17  2   
 25  15  18  am  
 26  16  19  1   
 27  16  20  1   
 28  18  21  1   
 29  18  33  1   
 30  19  34  1   
 31  19  35  1   
 32  19  36  1   
 33  20  37  1   
 34  20  38  1   
 35  20  39  1   
 36  21  22  1   
 37  21  40  1   
 38  21  41  1   
 39  22  23  1   
 40  22  42  1   
 41  22  43  1   
 42  23  24  1   
 43  23  25  1   
 44  23  44  1   
 45  24  26  1   
 46  25  45  1   
 47  25  46  1   
 48  25  47  1   
 49  26  48  1   
 50  26  49  1   
 51  26  50  1   
@<TRIPOS>SUBSTRUCTURE
  1 ****  15 GROUP 4 **** **** 0

# MOE 2024.06 (io_trps.svl 2023.06)
