@<TRIPOS>MOLECULE
NONAME
58 61 1 0 0 
SMALL
USER_CHARGES


@<TRIPOS>ATOM
  1 O        1.1880    -0.8030     1.1650 O.3   1 <1>  -0.6800 
  2 C        1.2470     0.0760     0.0410 C.3   1 <1>   0.4240 
  3 C        1.1940     1.0790    -1.1790 C.ar  1 <1>  -0.1440 
  4 C        2.5880     0.5900     0.5320 C.3   1 <1>  -0.0800 
  5 C       -0.0330    -0.5630    -0.4380 C.3   1 <1>  -0.1600 
  6 C        0.5580     2.2910    -0.9000 C.ar  1 <1>  -0.1500 
  7 C        1.6810     0.9090    -2.4790 C.ar  1 <1>  -0.1500 
  8 C        3.3290    -0.6480    -0.1970 C.3   1 <1>  -0.0800 
  9 C        3.3890     1.8340     0.0890 C.3   1 <1>   0.3430 
 10 C        0.8120    -1.7360    -1.1730 C.3   1 <1>  -0.1600 
 11 C        0.4490     3.2950    -1.8450 C.ar  1 <1>  -0.1500 
 12 C        1.5740     1.9100    -3.4280 C.ar  1 <1>  -0.1500 
 13 C        2.4560    -1.8070    -1.0000 C.3   1 <1>  -0.1600 
 14 C        4.4140    -0.0190    -1.0700 C.3   1 <1>   0.3430 
 15 N        4.6480     1.3270    -0.5090 N.4   1 <1>  -0.9590 
 16 C        0.9640     3.1080    -3.1120 C.ar  1 <1>  -0.1500 
 17 C        5.2650     2.3100    -1.4360 C.3   1 <1>   0.5240 
 18 C        6.0510     3.3010    -0.5850 C.2   1 <1>   0.1080 
 19 N        6.5050     3.0000     0.5990 N.2   1 <1>  -0.7070 
 20 C        6.3670     4.6030    -0.9540 C.2   1 <1>  -0.1500 
 21 N        7.1380     4.1210     1.0100 N.pl3 1 <1>   0.3000 
 22 C        7.0660     5.1060     0.0890 C.2   1 <1>  -0.3320 
 23 C        7.6960     6.4800     0.2970 C.3   1 <1>   0.1800 
 24 C        7.0780     7.1420     1.5330 C.3   1 <1>  -0.2400 
 25 C        7.4440     7.3740    -0.9230 C.3   1 <1>  -0.2400 
 26 C        9.2070     6.3230     0.4940 C.3   1 <1>  -0.2400 
 27 H        0.8080    -1.6470     0.8570 H     1 <1>   0.4000 
 28 H        2.7420     0.5660     1.6050 H     1 <1>   0.0800 
 29 H       -0.7450    -0.9430     0.2860 H     1 <1>   0.0800 
 30 H       -0.6610    -0.0720    -1.1700 H     1 <1>   0.0800 
 31 H        0.1360     2.4600     0.0780 H     1 <1>   0.1500 
 32 H        2.1380    -0.0040    -2.7970 H     1 <1>   0.1500 
 33 H        3.8590    -1.1710     0.5820 H     1 <1>   0.0800 
 34 H        3.6100     2.4580     0.9400 H     1 <1>   0.0800 
 35 H        2.8690     2.4370    -0.6330 H     1 <1>   0.0800 
 36 H        0.4020    -2.6840    -0.8660 H     1 <1>   0.0800 
 37 H        0.5950    -1.6740    -2.2260 H     1 <1>   0.0800 
 38 H       -0.0450     4.2200    -1.5970 H     1 <1>   0.1500 
 39 H        1.9530     1.7550    -4.4250 H     1 <1>   0.1500 
 40 H        2.8870    -1.9660    -1.9740 H     1 <1>   0.0800 
 41 H        2.6490    -2.7270    -0.4740 H     1 <1>   0.0800 
 42 H        4.0590     0.0700    -2.0820 H     1 <1>   0.0800 
 43 H        5.3160    -0.6100    -1.0620 H     1 <1>   0.0800 
 44 H        5.3390     1.2910     0.2650 H     1 <1>   0.4500 
 45 H        0.8760     3.8860    -3.8520 H     1 <1>   0.1500 
 46 H        5.9490     1.8130    -2.1010 H     1 <1>   0.0800 
 47 H        4.5100     2.8170    -2.0150 H     1 <1>   0.0800 
 48 H        6.1050     5.0880    -1.8780 H     1 <1>   0.1500 
 49 H        7.6130     4.1920     1.9200 H     1 <1>   0.2700 
 50 H        7.4840     8.1290     1.6730 H     1 <1>   0.0800 
 51 H        7.2770     6.5690     2.4200 H     1 <1>   0.0800 
 52 H        6.0120     7.2270     1.4140 H     1 <1>   0.0800 
 53 H        7.8880     8.3430    -0.7790 H     1 <1>   0.0800 
 54 H        6.3890     7.5070    -1.0810 H     1 <1>   0.0800 
 55 H        7.8730     6.9340    -1.8060 H     1 <1>   0.0800 
 56 H        9.6740     7.2850     0.6020 H     1 <1>   0.0800 
 57 H        9.6410     5.8290    -0.3580 H     1 <1>   0.0800 
 58 H        9.4250     5.7430     1.3710 H     1 <1>   0.0800 
@<TRIPOS>BOND
  1   1   2  1   
  2   1  27  1   
  3   2   3  1   
  4   2   4  1   
  5   2   5  1   
  6   3   6  ar  
  7   3   7  ar  
  8   4   8  1   
  9   4   9  1   
 10   4  28  1   
 11   5  10  1   
 12   5  29  1   
 13   5  30  1   
 14   6  11  ar  
 15   6  31  1   
 16   7  12  ar  
 17   7  32  1   
 18   8  13  1   
 19   8  14  1   
 20   8  33  1   
 21   9  15  1   
 22   9  34  1   
 23   9  35  1   
 24  10  13  1   
 25  10  36  1   
 26  10  37  1   
 27  11  16  ar  
 28  11  38  1   
 29  12  16  ar  
 30  12  39  1   
 31  13  40  1   
 32  13  41  1   
 33  14  15  1   
 34  14  42  1   
 35  14  43  1   
 36  15  17  1   
 37  15  44  1   
 38  16  45  1   
 39  17  18  1   
 40  17  46  1   
 41  17  47  1   
 42  18  19  2   
 43  18  20  1   
 44  19  21  1   
 45  20  22  2   
 46  20  48  1   
 47  21  22  1   
 48  21  49  1   
 49  22  23  1   
 50  23  24  1   
 51  23  25  1   
 52  23  26  1   
 53  24  50  1   
 54  24  51  1   
 55  24  52  1   
 56  25  53  1   
 57  25  54  1   
 58  25  55  1   
 59  26  56  1   
 60  26  57  1   
 61  26  58  1   
@<TRIPOS>SUBSTRUCTURE
  1 ****   9 GROUP 4 **** **** 0

# MOE 2024.06 (io_trps.svl 2023.06)
