@<TRIPOS>MOLECULE
NONAME
41 42 1 0 0 
SMALL
USER_CHARGES


@<TRIPOS>ATOM
  1 S        0.3780     0.7980    -0.8320 S.o2  1 <1>   1.3330 
  2 O        0.0010     1.6440    -1.9430 O.2   1 <1>  -0.6500 
  3 O        0.4710    -0.6280    -1.0470 O.2   1 <1>  -0.6500 
  4 N        1.8710     1.3130    -0.2140 N.am  1 <1>  -0.8490 
  5 C       -0.7890     1.0680     0.5140 C.3   1 <1>  -0.0550 
  6 C        2.7290     1.9570    -1.2140 C.3   1 <1>   0.1160 
  7 C        2.6140     0.2760     0.5050 C.3   1 <1>   0.1160 
  8 C       -1.0280     2.4990     1.0580 C.3   1 <1>  -0.0800 
  9 C       -1.4180     3.5380    -0.0010 C.3   1 <1>   0.2000 
 10 C        0.1740     3.1090     1.7940 C.3   1 <1>   0.2090 
 11 O       -2.3270     4.4030     0.5910 O.3   1 <1>  -0.6800 
 12 C       -0.1390     4.3270    -0.2890 C.3   1 <1>   0.2090 
 13 N        0.6580     4.2360     0.9620 N.pl3 1 <1>  -0.8380 
 14 C        1.9750     4.6290     1.0100 C.ar  1 <1>   0.7200 
 15 N        2.4760     5.1990    -0.0790 N.ar  1 <1>  -0.6200 
 16 N        2.6190     4.4060     2.1550 N.ar  1 <1>  -0.6200 
 17 C        3.7260     5.5780    -0.0080 C.ar  1 <1>   0.3930 
 18 C        3.8670     4.8000     2.2000 C.ar  1 <1>   0.1600 
 19 O        4.2130     6.1490    -1.1260 O.3   1 <1>  -0.3630 
 20 C        4.4820     5.4000     1.1340 C.ar  1 <1>  -0.1500 
 21 C        5.4880     6.7490    -1.1890 C.3   1 <1>   0.0400 
 22 H       -1.7390     0.6950     0.1850 H     1 <1>   0.0800 
 23 H       -0.4920     0.4490     1.3380 H     1 <1>   0.0800 
 24 H        3.6310     2.3190    -0.7510 H     1 <1>   0.0800 
 25 H        2.2250     2.8010    -1.6520 H     1 <1>   0.0800 
 26 H        2.9810     1.2610    -1.9950 H     1 <1>   0.0800 
 27 H        3.4860     0.7040     0.9700 H     1 <1>   0.0800 
 28 H        2.9220    -0.5030    -0.1730 H     1 <1>   0.0800 
 29 H        1.9960    -0.1570     1.2720 H     1 <1>   0.0800 
 30 H       -1.8310     2.4030     1.7680 H     1 <1>   0.0800 
 31 H       -1.8710     3.1240    -0.8860 H     1 <1>   0.0800 
 32 H        0.9550     2.3870     1.9560 H     1 <1>   0.0800 
 33 H       -0.1340     3.4990     2.7490 H     1 <1>   0.0800 
 34 H       -1.8360     4.9590     1.2320 H     1 <1>   0.4000 
 35 H       -0.3500     5.3520    -0.5430 H     1 <1>   0.0800 
 36 H        0.4080     3.8810    -1.0970 H     1 <1>   0.0800 
 37 H        4.4110     4.6370     3.1150 H     1 <1>   0.1500 
 38 H        5.5050     5.7090     1.2030 H     1 <1>   0.1500 
 39 H        5.6060     7.1770    -2.1680 H     1 <1>   0.0800 
 40 H        6.2390     5.9960    -1.0280 H     1 <1>   0.0800 
 41 H        5.5470     7.5230    -0.4440 H     1 <1>   0.0800 
@<TRIPOS>BOND
  1   1   2  2   
  2   1   3  2   
  3   1   4  am  
  4   1   5  1   
  5   4   6  1   
  6   4   7  1   
  7   5   8  1   
  8   5  22  1   
  9   5  23  1   
 10   6  24  1   
 11   6  25  1   
 12   6  26  1   
 13   7  27  1   
 14   7  28  1   
 15   7  29  1   
 16   8   9  1   
 17   8  10  1   
 18   8  30  1   
 19   9  11  1   
 20   9  12  1   
 21   9  31  1   
 22  10  13  1   
 23  10  32  1   
 24  10  33  1   
 25  11  34  1   
 26  12  13  1   
 27  12  35  1   
 28  12  36  1   
 29  13  14  1   
 30  14  15  ar  
 31  14  16  ar  
 32  15  17  ar  
 33  16  18  ar  
 34  17  19  1   
 35  17  20  ar  
 36  18  20  ar  
 37  18  37  1   
 38  19  21  1   
 39  20  38  1   
 40  21  39  1   
 41  21  40  1   
 42  21  41  1   
@<TRIPOS>SUBSTRUCTURE
  1 ****  13 GROUP 4 **** **** 0

# MOE 2024.06 (io_trps.svl 2023.06)
