@<TRIPOS>MOLECULE
NONAME
57 60 1 0 0 
SMALL
USER_CHARGES


@<TRIPOS>ATOM
  1 O        0.6470    -0.8990    -1.8980 O.2   1 <1>  -0.5700 
  2 C        1.3180    -1.1340    -0.9100 C.2   1 <1>   0.5440 
  3 N        0.8670    -2.0750    -0.0040 N.am  1 <1>  -0.6600 
  4 C        2.5740    -0.4320    -0.7260 C.ar  1 <1>   0.0860 
  5 C       -0.5170    -2.6260    -0.0760 C.3   1 <1>   0.1400 
  6 C        1.7540    -2.7630     0.9760 C.3   1 <1>   0.1400 
  7 C        2.8530     0.2720     0.4450 C.ar  1 <1>  -0.1500 
  8 C        3.5480    -0.4360    -1.7210 C.ar  1 <1>  -0.1500 
  9 C       -0.4570    -4.1120    -0.4250 C.3   1 <1>  -0.1600 
 10 C        1.8240    -4.2530     0.6380 C.3   1 <1>  -0.1600 
 11 C        4.0600     0.9250     0.6230 C.ar  1 <1>  -0.1500 
 12 C        4.7560     0.2150    -1.5500 C.ar  1 <1>  -0.1500 
 13 C        0.4240    -4.8600     0.5740 C.3   1 <1>   0.2890 
 14 C        5.0210     0.8970    -0.3740 C.ar  1 <1>  -0.1430 
 15 N        0.5380    -6.2680     0.1560 N.pl3 1 <1>  -0.8690 
 16 C        6.3460     1.6140    -0.1840 C.3   1 <1>  -0.0970 
 17 C       -0.3500    -7.2500     0.5270 C.ar  1 <1>   0.4100 
 18 N       -1.2380    -6.9730     1.4640 N.ar  1 <1>  -0.6200 
 19 C       -0.3110    -8.4840    -0.0710 C.ar  1 <1>  -0.1500 
 20 C       -2.0660    -7.9550     1.7610 C.ar  1 <1>   0.4700 
 21 C       -1.2220    -9.4340     0.3220 C.ar  1 <1>   0.4100 
 22 N       -2.1230    -9.1690     1.2520 N.ar  1 <1>  -0.6200 
 23 N       -1.2190   -10.6960    -0.2360 N.pl3 1 <1>  -0.8380 
 24 C       -0.0220   -11.5510    -0.0390 C.3   1 <1>   0.2090 
 25 C       -2.4950   -11.4560    -0.3290 C.3   1 <1>   0.2090 
 26 C        0.0920   -12.5450    -1.1990 C.3   1 <1>  -0.1600 
 27 C       -2.4110   -12.4560    -1.4860 C.3   1 <1>  -0.1600 
 28 C       -1.1890   -13.3780    -1.3570 C.3   1 <1>  -0.1600 
 29 H       -1.1000    -2.1030    -0.8160 H     1 <1>   0.0800 
 30 H       -0.9980    -2.4920     0.8770 H     1 <1>   0.0800 
 31 H        1.3550    -2.6270     1.9670 H     1 <1>   0.0800 
 32 H        2.7480    -2.3520     0.9550 H     1 <1>   0.0800 
 33 H        2.1090     0.3050     1.2210 H     1 <1>   0.1500 
 34 H        3.3450    -0.9570    -2.6400 H     1 <1>   0.1500 
 35 H       -0.0660    -4.2180    -1.4210 H     1 <1>   0.0800 
 36 H       -1.4500    -4.5210    -0.4010 H     1 <1>   0.0800 
 37 H        2.3970    -4.7610     1.3920 H     1 <1>   0.0800 
 38 H        2.3210    -4.3710    -0.3080 H     1 <1>   0.0800 
 39 H        4.2470     1.4590     1.5380 H     1 <1>   0.1500 
 40 H        5.4890     0.1920    -2.3380 H     1 <1>   0.1500 
 41 H       -0.0210    -4.8020     1.5540 H     1 <1>   0.0800 
 42 H        1.0040    -6.3920    -0.7420 H     1 <1>   0.4000 
 43 H        6.6110     1.6480     0.8570 H     1 <1>   0.0800 
 44 H        6.2710     2.6190    -0.5570 H     1 <1>   0.0800 
 45 H        7.1290     1.1040    -0.7160 H     1 <1>   0.0800 
 46 H        0.4040    -8.7080    -0.8330 H     1 <1>   0.1500 
 47 H       -2.7940    -7.7360     2.5230 H     1 <1>   0.1500 
 48 H       -0.1210   -12.0830     0.8920 H     1 <1>   0.0800 
 49 H        0.8660   -10.9450     0.0120 H     1 <1>   0.0800 
 50 H       -3.3120   -10.7750    -0.4960 H     1 <1>   0.0800 
 51 H       -2.6670   -11.9720     0.6000 H     1 <1>   0.0800 
 52 H        0.9290   -13.1980    -1.0270 H     1 <1>   0.0800 
 53 H        0.2820   -11.9960    -2.1040 H     1 <1>   0.0800 
 54 H       -2.3540   -11.9050    -2.4090 H     1 <1>   0.0800 
 55 H       -3.3100   -13.0450    -1.5100 H     1 <1>   0.0800 
 56 H       -1.3110   -14.0120    -0.4950 H     1 <1>   0.0800 
 57 H       -1.1120   -14.0060    -2.2270 H     1 <1>   0.0800 
@<TRIPOS>BOND
  1   1   2  2   
  2   2   3  am  
  3   2   4  1   
  4   3   5  1   
  5   3   6  1   
  6   4   7  ar  
  7   4   8  ar  
  8   5   9  1   
  9   5  29  1   
 10   5  30  1   
 11   6  10  1   
 12   6  31  1   
 13   6  32  1   
 14   7  11  ar  
 15   7  33  1   
 16   8  12  ar  
 17   8  34  1   
 18   9  13  1   
 19   9  35  1   
 20   9  36  1   
 21  10  13  1   
 22  10  37  1   
 23  10  38  1   
 24  11  14  ar  
 25  11  39  1   
 26  12  14  ar  
 27  12  40  1   
 28  13  15  1   
 29  13  41  1   
 30  14  16  1   
 31  15  17  1   
 32  15  42  1   
 33  16  43  1   
 34  16  44  1   
 35  16  45  1   
 36  17  18  ar  
 37  17  19  ar  
 38  18  20  ar  
 39  19  21  ar  
 40  19  46  1   
 41  20  22  ar  
 42  20  47  1   
 43  21  22  ar  
 44  21  23  1   
 45  23  24  1   
 46  23  25  1   
 47  24  26  1   
 48  24  48  1   
 49  24  49  1   
 50  25  27  1   
 51  25  50  1   
 52  25  51  1   
 53  26  28  1   
 54  26  52  1   
 55  26  53  1   
 56  27  28  1   
 57  27  54  1   
 58  27  55  1   
 59  28  56  1   
 60  28  57  1   
@<TRIPOS>SUBSTRUCTURE
  1 ****  13 GROUP 4 **** **** 0

# MOE 2024.06 (io_trps.svl 2023.06)
