@<TRIPOS>MOLECULE
NONAME
44 45 1 0 0 
SMALL
USER_CHARGES


@<TRIPOS>ATOM
  1 O       -1.5970     0.3120     1.7470 O.2   1 <1>  -0.5700 
  2 C       -2.2730     0.8520     0.8950 C.2   1 <1>   0.5690 
  3 N       -3.5900     0.4910     0.7320 N.am  1 <1>  -0.6600 
  4 C       -1.6260     1.9620     0.0370 C.3   1 <1>   0.2610 
  5 C       -4.2230    -0.4890     1.6650 C.3   1 <1>   0.3200 
  6 C       -4.4020     0.7910    -0.4850 C.3   1 <1>   0.1400 
  7 O       -1.3890     1.5570    -1.2820 O.3   1 <1>  -0.6800 
  8 C       -0.2970     2.4520     0.6240 C.3   1 <1>   0.1200 
  9 C       -3.9250    -1.9100     1.2220 C.2   1 <1>   0.0060 
 10 C       -5.2480     2.0500    -0.2720 C.3   1 <1>   0.1200 
 11 O        0.2750     3.4040    -0.2540 O.3   1 <1>  -0.3630 
 12 N       -4.8160    -2.7960     0.9080 N.2   1 <1>  -0.5650 
 13 N       -2.6570    -2.3600     1.1260 N.pl3 1 <1>   0.0330 
 14 O       -5.9440     2.3430    -1.4350 O.3   1 <1>  -0.6800 
 15 C        1.4580     4.0110     0.0300 C.ar  1 <1>   0.0820 
 16 C       -4.0870    -3.8840     0.5890 C.2   1 <1>   0.0770 
 17 C       -2.7640    -3.6360     0.7160 C.2   1 <1>  -0.3020 
 18 C        1.9190     4.9760    -0.8620 C.ar  1 <1>  -0.1430 
 19 C        2.2110     3.7030     1.1620 C.ar  1 <1>  -0.1500 
 20 C        3.1200     5.6210    -0.6130 C.ar  1 <1>  -0.1500 
 21 C        1.1180     5.3320    -2.1070 C.3   1 <1>  -0.0970 
 22 C        3.4080     4.3540     1.3990 C.ar  1 <1>  -0.1500 
 23 C        3.8630     5.3130     0.5130 C.ar  1 <1>  -0.1500 
 24 H       -2.3010     2.7960     0.0000 H     1 <1>   0.0800 
 25 H       -5.2890    -0.3380     1.6880 H     1 <1>   0.0800 
 26 H       -3.8480    -0.3420     2.6630 H     1 <1>   0.0800 
 27 H       -5.0510    -0.0440    -0.6950 H     1 <1>   0.0800 
 28 H       -3.7580     0.9220    -1.3340 H     1 <1>   0.0800 
 29 H       -0.6940     2.1440    -1.6540 H     1 <1>   0.4000 
 30 H        0.3870     1.6280     0.7320 H     1 <1>   0.0800 
 31 H       -0.4600     2.9180     1.5800 H     1 <1>   0.0800 
 32 H       -4.6330     2.8970    -0.0310 H     1 <1>   0.0800 
 33 H       -5.9710     1.8910     0.5100 H     1 <1>   0.0800 
 34 H       -1.8170    -1.7980     1.3210 H     1 <1>   0.2700 
 35 H       -5.3350     2.5290    -2.1760 H     1 <1>   0.4000 
 36 H       -4.5590    -4.8010     0.2790 H     1 <1>   0.1500 
 37 H       -1.9200    -4.2770     0.5410 H     1 <1>   0.1500 
 38 H        1.8890     2.9640     1.8690 H     1 <1>   0.1500 
 39 H        3.4860     6.3690    -1.2950 H     1 <1>   0.1500 
 40 H        1.0250     4.4680    -2.7390 H     1 <1>   0.0800 
 41 H        1.5960     6.1160    -2.6650 H     1 <1>   0.0800 
 42 H        0.1350     5.6650    -1.8250 H     1 <1>   0.0800 
 43 H        3.9880     4.1150     2.2740 H     1 <1>   0.1500 
 44 H        4.7950     5.8190     0.6970 H     1 <1>   0.1500 
@<TRIPOS>BOND
  1   1   2  2   
  2   2   3  am  
  3   2   4  1   
  4   3   5  1   
  5   3   6  1   
  6   4   7  1   
  7   4   8  1   
  8   4  24  1   
  9   5   9  1   
 10   5  25  1   
 11   5  26  1   
 12   6  10  1   
 13   6  27  1   
 14   6  28  1   
 15   7  29  1   
 16   8  11  1   
 17   8  30  1   
 18   8  31  1   
 19   9  12  2   
 20   9  13  1   
 21  10  14  1   
 22  10  32  1   
 23  10  33  1   
 24  11  15  1   
 25  12  16  1   
 26  13  17  1   
 27  13  34  1   
 28  14  35  1   
 29  15  18  ar  
 30  15  19  ar  
 31  16  17  2   
 32  16  36  1   
 33  17  37  1   
 34  18  20  ar  
 35  18  21  1   
 36  19  22  ar  
 37  19  38  1   
 38  20  23  ar  
 39  20  39  1   
 40  21  40  1   
 41  21  41  1   
 42  21  42  1   
 43  22  23  ar  
 44  22  43  1   
 45  23  44  1   
@<TRIPOS>SUBSTRUCTURE
  1 ****   4 GROUP 4 **** **** 0

# MOE 2024.06 (io_trps.svl 2023.06)
