@<TRIPOS>MOLECULE
NONAME
48 51 1 0 0 
SMALL
USER_CHARGES


@<TRIPOS>ATOM
  1 S        1.1650    -2.4910     3.3230 S.3   1 <1>  -0.0800 
  2 C        2.2480    -2.2110     1.9790 C.2   1 <1>  -0.1400 
  3 C       -0.1640    -2.7800     2.2210 C.2   1 <1>  -0.1100 
  4 C        1.6130    -2.3480     0.8060 C.2   1 <1>  -0.1810 
  5 C        3.7020    -1.8680     2.2130 C.3   1 <1>   0.0200 
  6 C        0.2150    -2.6810     0.9220 C.2   1 <1>  -0.0860 
  7 C        2.3350    -2.1640    -0.5190 C.3   1 <1>   0.0210 
  8 C        4.3180    -1.3600     0.8950 C.3   1 <1>  -0.1600 
  9 C       -0.6400    -2.8880    -0.2290 C.2   1 <1>   0.7160 
 10 C        3.8640    -2.1980    -0.3190 C.3   1 <1>  -0.1600 
 11 O       -0.9320    -1.9450    -0.9410 O.2   1 <1>  -0.5700 
 12 N       -1.1450    -4.1300    -0.5370 N.am  1 <1>  -0.6600 
 13 C       -0.6240    -5.3670     0.1380 C.3   1 <1>   0.3640 
 14 C       -2.2510    -4.2510    -1.5350 C.3   1 <1>   0.1400 
 15 C        0.8250    -5.6040    -0.2970 C.ar  1 <1>  -0.1440 
 16 C       -1.4510    -6.6700    -0.0950 C.3   1 <1>   0.2000 
 17 C       -2.5980    -5.7000    -1.8870 C.3   1 <1>   0.1200 
 18 C        1.1790    -5.6520    -1.6390 C.ar  1 <1>  -0.1500 
 19 C        1.8110    -5.7780     0.6630 C.ar  1 <1>  -0.1500 
 20 O       -2.6870    -6.4520    -0.7210 O.3   1 <1>  -0.5600 
 21 C       -1.7450    -7.4120     1.2160 C.3   1 <1>   0.1200 
 22 C        2.4920    -5.8780    -2.0130 C.ar  1 <1>  -0.1500 
 23 C        3.1250    -6.0030     0.2920 C.ar  1 <1>  -0.1500 
 24 O       -0.5700    -7.6930     1.9080 O.3   1 <1>  -0.6800 
 25 C        3.4660    -6.0560    -1.0470 C.ar  1 <1>  -0.1500 
 26 H       -1.1220    -3.0020     2.6540 H     1 <1>   0.1500 
 27 H        3.7870    -1.1120     2.9730 H     1 <1>   0.0800 
 28 H        4.2160    -2.7520     2.5460 H     1 <1>   0.0800 
 29 H        2.0510    -2.9410    -1.2050 H     1 <1>   0.0800 
 30 H        2.0390    -1.2190    -0.9410 H     1 <1>   0.0800 
 31 H        4.0110    -0.3400     0.7420 H     1 <1>   0.0800 
 32 H        5.3910    -1.3750     0.9720 H     1 <1>   0.0800 
 33 H        4.1670    -3.2190    -0.1670 H     1 <1>   0.0800 
 34 H        4.3460    -1.8410    -1.2120 H     1 <1>   0.0800 
 35 H       -0.6240    -5.1810     1.1970 H     1 <1>   0.0800 
 36 H       -3.1270    -3.7740    -1.1320 H     1 <1>   0.0800 
 37 H       -1.9810    -3.7240    -2.4340 H     1 <1>   0.0800 
 38 H       -0.8960    -7.3330    -0.7360 H     1 <1>   0.0800 
 39 H       -1.8570    -6.1340    -2.5350 H     1 <1>   0.0800 
 40 H       -3.5530    -5.7390    -2.3810 H     1 <1>   0.0800 
 41 H        0.4350    -5.5070    -2.4010 H     1 <1>   0.1500 
 42 H        1.5620    -5.7340     1.7110 H     1 <1>   0.1500 
 43 H       -2.2490    -8.3430     1.0170 H     1 <1>   0.0800 
 44 H       -2.3610    -6.8020     1.8540 H     1 <1>   0.0800 
 45 H        2.7570    -5.9140    -3.0560 H     1 <1>   0.1500 
 46 H        3.8800    -6.1340     1.0470 H     1 <1>   0.1500 
 47 H       -0.0100    -8.3230     1.4110 H     1 <1>   0.4000 
 48 H        4.4880    -6.2310    -1.3370 H     1 <1>   0.1500 
@<TRIPOS>BOND
  1   1   2  1   
  2   1   3  1   
  3   2   4  2   
  4   2   5  1   
  5   3   6  2   
  6   3  26  1   
  7   4   6  1   
  8   4   7  1   
  9   5   8  1   
 10   5  27  1   
 11   5  28  1   
 12   6   9  1   
 13   7  10  1   
 14   7  29  1   
 15   7  30  1   
 16   8  10  1   
 17   8  31  1   
 18   8  32  1   
 19   9  11  2   
 20   9  12  am  
 21  10  33  1   
 22  10  34  1   
 23  12  13  1   
 24  12  14  1   
 25  13  15  1   
 26  13  16  1   
 27  13  35  1   
 28  14  17  1   
 29  14  36  1   
 30  14  37  1   
 31  15  18  ar  
 32  15  19  ar  
 33  16  20  1   
 34  16  21  1   
 35  16  38  1   
 36  17  20  1   
 37  17  39  1   
 38  17  40  1   
 39  18  22  ar  
 40  18  41  1   
 41  19  23  ar  
 42  19  42  1   
 43  21  24  1   
 44  21  43  1   
 45  21  44  1   
 46  22  25  ar  
 47  22  45  1   
 48  23  25  ar  
 49  23  46  1   
 50  24  47  1   
 51  25  48  1   
@<TRIPOS>SUBSTRUCTURE
  1 ****  15 GROUP 4 **** **** 0

# MOE 2024.06 (io_trps.svl 2023.06)
