@<TRIPOS>MOLECULE
NONAME
45 48 1 0 0 
SMALL
USER_CHARGES


@<TRIPOS>ATOM
  1 O        2.1930    -0.8030    -3.0140 O.2   1 <1>  -0.5700 
  2 C        2.1490    -0.9270    -1.8030 C.2   1 <1>   0.5440 
  3 N        2.6700     0.1170    -1.0480 N.am  1 <1>  -0.6600 
  4 C        1.5940    -2.1580    -1.2280 C.ar  1 <1>   0.3960 
  5 C        2.3870     0.2660     0.4300 C.3   1 <1>   0.2200 
  6 C        3.5640     1.1220    -1.7100 C.3   1 <1>   0.1400 
  7 N        2.1090    -2.6790    -0.1270 N.ar  1 <1>  -0.6200 
  8 C        0.5100    -2.7730    -1.8920 C.ar  1 <1>  -0.1500 
  9 C        2.0660     1.7120     0.8440 C.3   1 <1>   0.1200 
 10 C        3.5630    -0.2960     1.2670 C.3   1 <1>   0.3430 
 11 C        4.5740     1.8110    -0.7720 C.3   1 <1>  -0.0800 
 12 C        1.5680    -3.8240     0.3580 C.ar  1 <1>   0.3100 
 13 C       -0.0510    -3.9190    -1.4210 C.ar  1 <1>  -0.1500 
 14 O        3.2360     2.4140     1.1440 O.3   1 <1>  -0.5600 
 15 N        4.8180    -0.4360     0.4490 N.4   1 <1>  -0.9590 
 16 C        3.9230     2.9300     0.0540 C.3   1 <1>   0.1200 
 17 C        5.4490     0.8760     0.0930 C.3   1 <1>   0.3430 
 18 C        0.4790    -4.4830    -0.2530 C.ar  1 <1>   0.0000 
 19 C        2.1110    -4.3860     1.5270 C.ar  1 <1>  -0.1500 
 20 C        5.7840    -1.3740     1.0840 C.3   1 <1>   0.2630 
 21 C       -0.0240    -5.6650     0.3240 C.ar  1 <1>  -0.1500 
 22 C        1.6070    -5.5360     2.0740 C.ar  1 <1>  -0.1500 
 23 C        0.5270    -6.1820     1.4650 C.ar  1 <1>  -0.1500 
 24 H        1.5050    -0.3010     0.6680 H     1 <1>   0.0800 
 25 H        4.1150     0.6280    -2.4940 H     1 <1>   0.0800 
 26 H        2.9460     1.8650    -2.1880 H     1 <1>   0.0800 
 27 H        0.1370    -2.3120    -2.7910 H     1 <1>   0.1500 
 28 H        1.4830     1.6970     1.7480 H     1 <1>   0.0800 
 29 H        1.5000     2.2300     0.0880 H     1 <1>   0.0800 
 30 H        3.2680    -1.2670     1.6290 H     1 <1>   0.0800 
 31 H        3.7380     0.3320     2.1240 H     1 <1>   0.0800 
 32 H        5.2560     2.3300    -1.4220 H     1 <1>   0.0800 
 33 H       -0.8770    -4.3960    -1.9190 H     1 <1>   0.1500 
 34 H        4.4750    -0.8430    -0.4390 H     1 <1>   0.4500 
 35 H        3.2470     3.5250    -0.5380 H     1 <1>   0.0800 
 36 H        4.6820     3.5840     0.4480 H     1 <1>   0.0800 
 37 H        5.7300     1.3960     0.9940 H     1 <1>   0.0800 
 38 H        6.3530     0.6730    -0.4580 H     1 <1>   0.0800 
 39 H        2.9410    -3.8880     1.9880 H     1 <1>   0.1500 
 40 H        6.1220    -0.9800     2.0280 H     1 <1>   0.0800 
 41 H        6.6370    -1.5220     0.4430 H     1 <1>   0.0800 
 42 H        5.3150    -2.3300     1.2550 H     1 <1>   0.0800 
 43 H       -0.8550    -6.1590    -0.1500 H     1 <1>   0.1500 
 44 H        2.0300    -5.9590     2.9700 H     1 <1>   0.1500 
 45 H        0.1400    -7.0860     1.9040 H     1 <1>   0.1500 
@<TRIPOS>BOND
  1   1   2  2   
  2   2   3  am  
  3   2   4  1   
  4   3   5  1   
  5   3   6  1   
  6   4   7  ar  
  7   4   8  ar  
  8   5   9  1   
  9   5  10  1   
 10   5  24  1   
 11   6  11  1   
 12   6  25  1   
 13   6  26  1   
 14   7  12  ar  
 15   8  13  ar  
 16   8  27  1   
 17   9  14  1   
 18   9  28  1   
 19   9  29  1   
 20  10  15  1   
 21  10  30  1   
 22  10  31  1   
 23  11  16  1   
 24  11  17  1   
 25  11  32  1   
 26  12  18  ar  
 27  12  19  ar  
 28  13  18  ar  
 29  13  33  1   
 30  14  16  1   
 31  15  17  1   
 32  15  20  1   
 33  15  34  1   
 34  16  35  1   
 35  16  36  1   
 36  17  37  1   
 37  17  38  1   
 38  18  21  ar  
 39  19  22  ar  
 40  19  39  1   
 41  20  40  1   
 42  20  41  1   
 43  20  42  1   
 44  21  23  ar  
 45  21  43  1   
 46  22  23  ar  
 47  22  44  1   
 48  23  45  1   
@<TRIPOS>SUBSTRUCTURE
  1 ****   7 GROUP 4 **** **** 0

# MOE 2024.06 (io_trps.svl 2023.06)
