@<TRIPOS>MOLECULE
NONAME
51 53 1 0 0 
SMALL
USER_CHARGES


@<TRIPOS>ATOM
  1 S        1.0940     0.0150    -0.3560 S.o2  1 <1>   1.3330 
  2 O        0.8970    -0.2360    -1.7630 O.2   1 <1>  -0.6500 
  3 O        2.4050     0.3920     0.1230 O.2   1 <1>  -0.6500 
  4 N        0.5080    -1.2910     0.5510 N.am  1 <1>  -0.8490 
  5 C        0.0090     1.3640     0.1050 C.3   1 <1>  -0.0550 
  6 C        1.5720    -2.2180     0.9530 C.3   1 <1>   0.1160 
  7 C       -0.5650    -2.0330    -0.1210 C.3   1 <1>   0.1160 
  8 C        0.3410     2.6660    -0.6600 C.3   1 <1>  -0.0800 
  9 C       -0.5080     3.8830    -0.2940 C.3   1 <1>   0.2000 
 10 C        1.7910     3.1390    -0.4620 C.3   1 <1>   0.3430 
 11 O       -0.6320     3.9650     1.0910 O.3   1 <1>  -0.6800 
 12 C        0.3670     5.0460    -0.7710 C.3   1 <1>   0.3430 
 13 N        1.7780     4.6320    -0.4830 N.4   1 <1>  -0.9590 
 14 C        2.2380     5.1760     0.8280 C.3   1 <1>   0.4860 
 15 C        2.3500     6.6830     0.7110 C.ar  1 <1>  -0.1440 
 16 C        3.4090     7.2720    -0.0220 C.ar  1 <1>   0.0000 
 17 C        1.4000     7.4650     1.3130 C.ar  1 <1>  -0.1500 
 18 C        3.4310     8.6820    -0.1770 C.ar  1 <1>   0.3100 
 19 C        4.4620     6.5370    -0.6100 C.ar  1 <1>  -0.1500 
 20 C        1.4410     8.8530     1.1870 C.ar  1 <1>  -0.1500 
 21 N        4.3860     9.3120    -0.9130 N.ar  1 <1>  -0.6200 
 22 C        2.4290     9.4540     0.4530 C.ar  1 <1>  -0.1440 
 23 C        5.4100     7.2060    -1.3220 C.ar  1 <1>  -0.1500 
 24 C        5.3230     8.5960    -1.4490 C.ar  1 <1>   0.1600 
 25 C        2.4460    10.9740     0.3220 C.3   1 <1>  -0.0970 
 26 H       -1.0060     1.0840    -0.1000 H     1 <1>   0.0800 
 27 H        0.0990     1.5240     1.1630 H     1 <1>   0.0800 
 28 H        1.1650    -3.0190     1.5480 H     1 <1>   0.0800 
 29 H        2.3090    -1.7030     1.5460 H     1 <1>   0.0800 
 30 H        2.0560    -2.6340     0.0850 H     1 <1>   0.0800 
 31 H       -0.9550    -2.7950     0.5330 H     1 <1>   0.0800 
 32 H       -0.1950    -2.5010    -1.0200 H     1 <1>   0.0800 
 33 H       -1.3700    -1.3690    -0.3850 H     1 <1>   0.0800 
 34 H        0.2120     2.4750    -1.7120 H     1 <1>   0.0800 
 35 H       -1.4880     3.8910    -0.7400 H     1 <1>   0.0800 
 36 H        2.4260     2.7420    -1.2390 H     1 <1>   0.0800 
 37 H        2.1590     2.7870     0.4890 H     1 <1>   0.0800 
 38 H       -1.4270     3.4850     1.4080 H     1 <1>   0.4000 
 39 H        0.0960     5.9670    -0.2830 H     1 <1>   0.0800 
 40 H        0.2400     5.1640    -1.8350 H     1 <1>   0.0800 
 41 H        2.4000     5.0120    -1.2080 H     1 <1>   0.4500 
 42 H        1.5330     4.9180     1.6030 H     1 <1>   0.0800 
 43 H        3.1970     4.7630     1.0920 H     1 <1>   0.0800 
 44 H        0.5970     7.0350     1.8920 H     1 <1>   0.1500 
 45 H        4.5380     5.4720    -0.4960 H     1 <1>   0.1500 
 46 H        0.6810     9.4400     1.6750 H     1 <1>   0.1500 
 47 H        6.2340     6.6970    -1.7900 H     1 <1>   0.1500 
 48 H        6.0810     9.1010    -2.0240 H     1 <1>   0.1500 
 49 H        1.6300    11.4250     0.8560 H     1 <1>   0.0800 
 50 H        2.3730    11.2530    -0.7140 H     1 <1>   0.0800 
 51 H        3.3680    11.3630     0.7150 H     1 <1>   0.0800 
@<TRIPOS>BOND
  1   1   2  2   
  2   1   3  2   
  3   1   4  am  
  4   1   5  1   
  5   4   6  1   
  6   4   7  1   
  7   5   8  1   
  8   5  26  1   
  9   5  27  1   
 10   6  28  1   
 11   6  29  1   
 12   6  30  1   
 13   7  31  1   
 14   7  32  1   
 15   7  33  1   
 16   8   9  1   
 17   8  10  1   
 18   8  34  1   
 19   9  11  1   
 20   9  12  1   
 21   9  35  1   
 22  10  13  1   
 23  10  36  1   
 24  10  37  1   
 25  11  38  1   
 26  12  13  1   
 27  12  39  1   
 28  12  40  1   
 29  13  14  1   
 30  13  41  1   
 31  14  15  1   
 32  14  42  1   
 33  14  43  1   
 34  15  16  ar  
 35  15  17  ar  
 36  16  18  ar  
 37  16  19  ar  
 38  17  20  ar  
 39  17  44  1   
 40  18  21  ar  
 41  18  22  ar  
 42  19  23  ar  
 43  19  45  1   
 44  20  22  ar  
 45  20  46  1   
 46  21  24  ar  
 47  22  25  1   
 48  23  24  ar  
 49  23  47  1   
 50  24  48  1   
 51  25  49  1   
 52  25  50  1   
 53  25  51  1   
@<TRIPOS>SUBSTRUCTURE
  1 ****  13 GROUP 4 **** **** 0

# MOE 2024.06 (io_trps.svl 2023.06)
