@<TRIPOS>MOLECULE
NONAME
40 42 1 0 0 
SMALL
USER_CHARGES


@<TRIPOS>ATOM
  1 F       -2.9450     0.2010    -1.9360 F     1 <1>  -0.1900 
  2 C       -2.8790     0.7840    -0.7700 C.ar  1 <1>   0.1900 
  3 C       -2.8010     0.0060     0.3830 C.ar  1 <1>   0.0860 
  4 C       -2.8910     2.1670    -0.7470 C.ar  1 <1>  -0.1500 
  5 C       -2.8000    -1.4390     0.3500 C.2   1 <1>   0.5440 
  6 C       -2.7150     0.6930     1.5940 C.ar  1 <1>  -0.1500 
  7 C       -2.8160     2.8180     0.4710 C.ar  1 <1>  -0.1500 
  8 O       -1.8050    -2.0440     0.7000 O.2   1 <1>  -0.5700 
  9 N       -3.9130    -2.1550    -0.0230 N.am  1 <1>  -0.6600 
 10 C       -2.7250     2.0780     1.6400 C.ar  1 <1>  -0.1500 
 11 C       -5.2430    -1.5840    -0.3540 C.3   1 <1>   0.1400 
 12 C       -3.9590    -3.6370    -0.0220 C.3   1 <1>   0.1400 
 13 C       -6.1040    -2.7900    -0.7300 C.3   1 <1>   0.2000 
 14 C       -5.4470    -3.9880    -0.0490 C.3   1 <1>  -0.0800 
 15 O       -7.4090    -2.6430    -0.2880 O.3   1 <1>  -0.6800 
 16 C       -5.7510    -5.3230    -0.7460 C.3   1 <1>   0.0210 
 17 C       -5.0050    -6.4630    -0.0810 C.2   1 <1>   0.1080 
 18 N       -5.2230    -6.8240     1.1450 N.2   1 <1>  -0.7070 
 19 C       -4.0150    -7.2290    -0.6870 C.2   1 <1>  -0.1500 
 20 N       -4.3680    -7.8420     1.3560 N.pl3 1 <1>   0.3000 
 21 C       -3.6240    -8.1060     0.2610 C.2   1 <1>  -0.3320 
 22 C       -2.5700    -9.1940     0.1880 C.3   1 <1>  -0.0600 
 23 H       -2.9560     2.7200    -1.6670 H     1 <1>   0.1500 
 24 H       -2.6360     0.1250     2.5050 H     1 <1>   0.1500 
 25 H       -2.8220     3.8940     0.5120 H     1 <1>   0.1500 
 26 H       -2.6590     2.5840     2.5890 H     1 <1>   0.1500 
 27 H       -5.6390    -1.0830     0.5110 H     1 <1>   0.0800 
 28 H       -5.1700    -0.9030    -1.1830 H     1 <1>   0.0800 
 29 H       -3.4570    -4.0000    -0.9020 H     1 <1>   0.0800 
 30 H       -3.4770    -4.0400     0.8540 H     1 <1>   0.0800 
 31 H       -6.1180    -2.9030    -1.8010 H     1 <1>   0.0800 
 32 H       -5.7720    -4.0460     0.9750 H     1 <1>   0.0800 
 33 H       -7.4450    -2.7200     0.6850 H     1 <1>   0.4000 
 34 H       -5.4740    -5.2710    -1.7830 H     1 <1>   0.0800 
 35 H       -6.8060    -5.5240    -0.6910 H     1 <1>   0.0800 
 36 H       -3.6560    -7.1220    -1.6950 H     1 <1>   0.1500 
 37 H       -4.3160    -8.3340     2.2560 H     1 <1>   0.2700 
 38 H       -2.1160    -9.2050    -0.7870 H     1 <1>   0.0800 
 39 H       -3.0140   -10.1560     0.3700 H     1 <1>   0.0800 
 40 H       -1.8020    -9.0170     0.9200 H     1 <1>   0.0800 
@<TRIPOS>BOND
  1   1   2  1   
  2   2   3  ar  
  3   2   4  ar  
  4   3   5  1   
  5   3   6  ar  
  6   4   7  ar  
  7   4  23  1   
  8   5   8  2   
  9   5   9  am  
 10   6  10  ar  
 11   6  24  1   
 12   7  10  ar  
 13   7  25  1   
 14   9  11  1   
 15   9  12  1   
 16  10  26  1   
 17  11  13  1   
 18  11  27  1   
 19  11  28  1   
 20  12  14  1   
 21  12  29  1   
 22  12  30  1   
 23  13  14  1   
 24  13  15  1   
 25  13  31  1   
 26  14  16  1   
 27  14  32  1   
 28  15  33  1   
 29  16  17  1   
 30  16  34  1   
 31  16  35  1   
 32  17  18  2   
 33  17  19  1   
 34  18  20  1   
 35  19  21  2   
 36  19  36  1   
 37  20  21  1   
 38  20  37  1   
 39  21  22  1   
 40  22  38  1   
 41  22  39  1   
 42  22  40  1   
@<TRIPOS>SUBSTRUCTURE
  1 ****   9 GROUP 4 **** **** 0

# MOE 2024.06 (io_trps.svl 2023.06)
