@<TRIPOS>MOLECULE
NONAME
51 54 1 0 0 
SMALL
USER_CHARGES


@<TRIPOS>ATOM
  1 CL       1.6300     1.2370     0.7130 Cl    1 <1>  -0.1770 
  2 C        2.0640    -0.4460     0.5680 C.ar  1 <1>   0.1770 
  3 C        1.2480    -1.4020     1.1580 C.ar  1 <1>  -0.1500 
  4 C        3.2080    -0.7910    -0.1330 C.ar  1 <1>  -0.1500 
  5 C        1.5760    -2.7480     1.0490 C.ar  1 <1>  -0.1440 
  6 C        3.5280    -2.1330    -0.2360 C.ar  1 <1>  -0.1440 
  7 C        2.7250    -3.0800     0.3460 C.ar  1 <1>   0.0830 
  8 C        0.7240    -3.8380     1.6670 C.3   1 <1>   0.4870 
  9 C        4.6800    -2.8180    -0.9220 C.3   1 <1>   0.1440 
 10 O        3.1670    -4.3330     0.1480 O.3   1 <1>  -0.3630 
 11 N        0.3650    -4.8100     0.6060 N.4   1 <1>  -0.9590 
 12 C        4.3950    -4.3000    -0.5730 C.3   1 <1>   0.1200 
 13 C        6.0180    -2.3440    -0.3410 C.3   1 <1>  -0.2400 
 14 C        4.6230    -2.5720    -2.4350 C.3   1 <1>  -0.2400 
 15 C       -0.4260    -4.2390    -0.5310 C.3   1 <1>   0.3430 
 16 C       -0.3270    -6.0370     1.0580 C.3   1 <1>   0.3430 
 17 C       -1.4870    -5.2970    -0.8830 C.3   1 <1>   0.2000 
 18 C       -0.9930    -6.5790    -0.2110 C.3   1 <1>  -0.0800 
 19 O       -2.7110    -4.9400    -0.3280 O.3   1 <1>  -0.6800 
 20 C       -0.0210    -7.3290    -1.1580 C.3   1 <1>  -0.0170 
 21 C        1.0320    -8.1520    -0.4330 C.ar  1 <1>   0.1670 
 22 N        2.0760    -7.4740     0.0220 N.ar  1 <1>  -0.6200 
 23 C        0.8770    -9.5280    -0.2810 C.ar  1 <1>   0.1600 
 24 C        2.9540    -8.2640     0.6230 C.ar  1 <1>   0.1600 
 25 N        1.7450   -10.3100     0.3360 N.ar  1 <1>  -0.6200 
 26 C        2.7930    -9.6360     0.7760 C.ar  1 <1>   0.1600 
 27 H        0.3740    -1.0730     1.6920 H     1 <1>   0.1500 
 28 H        3.8220    -0.0300    -0.5810 H     1 <1>   0.1500 
 29 H       -0.1640    -3.4140     2.1040 H     1 <1>   0.0800 
 30 H        1.2910    -4.3330     2.4390 H     1 <1>   0.0800 
 31 H        1.2840    -5.1210     0.2230 H     1 <1>   0.4500 
 32 H        5.1600    -4.7120     0.0610 H     1 <1>   0.0800 
 33 H        4.2870    -4.9100    -1.4520 H     1 <1>   0.0800 
 34 H        6.1660    -1.2990    -0.5450 H     1 <1>   0.0800 
 35 H        6.8340    -2.8950    -0.7750 H     1 <1>   0.0800 
 36 H        6.0350    -2.4860     0.7250 H     1 <1>   0.0800 
 37 H        4.7540    -1.5260    -2.6490 H     1 <1>   0.0800 
 38 H        3.6720    -2.8820    -2.8300 H     1 <1>   0.0800 
 39 H        5.4000    -3.1220    -2.9350 H     1 <1>   0.0800 
 40 H       -0.9020    -3.3100    -0.2630 H     1 <1>   0.0800 
 41 H        0.2270    -4.0720    -1.3720 H     1 <1>   0.0800 
 42 H        0.3570    -6.7430     1.5010 H     1 <1>   0.0800 
 43 H       -1.0850    -5.7840     1.7800 H     1 <1>   0.0800 
 44 H       -1.6300    -5.3940    -1.9470 H     1 <1>   0.0800 
 45 H       -1.8050    -7.2390     0.0440 H     1 <1>   0.0800 
 46 H       -2.7010    -4.8990     0.6470 H     1 <1>   0.4000 
 47 H        0.5050    -6.6340    -1.7900 H     1 <1>   0.0800 
 48 H       -0.5900    -7.9660    -1.8130 H     1 <1>   0.0800 
 49 H        0.0010   -10.0060    -0.6830 H     1 <1>   0.1500 
 50 H        3.8470    -7.8080     1.0150 H     1 <1>   0.1500 
 51 H        3.5600   -10.1960     1.2810 H     1 <1>   0.1500 
@<TRIPOS>BOND
  1   1   2  1   
  2   2   3  ar  
  3   2   4  ar  
  4   3   5  ar  
  5   3  27  1   
  6   4   6  ar  
  7   4  28  1   
  8   5   7  ar  
  9   5   8  1   
 10   6   7  ar  
 11   6   9  1   
 12   7  10  1   
 13   8  11  1   
 14   8  29  1   
 15   8  30  1   
 16   9  12  1   
 17   9  13  1   
 18   9  14  1   
 19  10  12  1   
 20  11  15  1   
 21  11  16  1   
 22  11  31  1   
 23  12  32  1   
 24  12  33  1   
 25  13  34  1   
 26  13  35  1   
 27  13  36  1   
 28  14  37  1   
 29  14  38  1   
 30  14  39  1   
 31  15  17  1   
 32  15  40  1   
 33  15  41  1   
 34  16  18  1   
 35  16  42  1   
 36  16  43  1   
 37  17  18  1   
 38  17  19  1   
 39  17  44  1   
 40  18  20  1   
 41  18  45  1   
 42  19  46  1   
 43  20  21  1   
 44  20  47  1   
 45  20  48  1   
 46  21  22  ar  
 47  21  23  ar  
 48  22  24  ar  
 49  23  25  ar  
 50  23  49  1   
 51  24  26  ar  
 52  24  50  1   
 53  25  26  ar  
 54  26  51  1   
@<TRIPOS>SUBSTRUCTURE
  1 ****  10 GROUP 4 **** **** 0

# MOE 2024.06 (io_trps.svl 2023.06)
