@<TRIPOS>MOLECULE
NONAME
43 45 1 0 0 
SMALL
USER_CHARGES


@<TRIPOS>ATOM
  1 F       -0.5940    -0.5880    -0.5790 F     1 <1>  -0.1900 
  2 C       -1.7520    -1.1470    -0.2920 C.ar  1 <1>   0.1900 
  3 C       -2.8670    -0.3910     0.0640 C.ar  1 <1>   0.4100 
  4 C       -1.8560    -2.5070    -0.3350 C.ar  1 <1>   0.1600 
  5 N       -3.9960    -1.0030     0.3590 N.ar  1 <1>  -0.6200 
  6 N       -2.8750     1.0020     0.1300 N.pl3 1 <1>  -0.8380 
  7 N       -2.9860    -3.1220    -0.0490 N.ar  1 <1>  -0.6200 
  8 C       -4.0090    -2.3310     0.2840 C.ar  1 <1>   0.7200 
  9 C       -2.2840     1.8270    -0.9570 C.3   1 <1>   0.1290 
 10 C       -3.8250     1.7150     1.0280 C.3   1 <1>   0.1290 
 11 N       -5.2040    -2.9590     0.5780 N.pl3 1 <1>  -0.8380 
 12 C       -5.2380    -4.4110     0.9490 C.3   1 <1>   0.2090 
 13 C       -6.5010    -2.2220     0.5120 C.3   1 <1>   0.2090 
 14 C       -5.4330    -5.3020    -0.2880 C.3   1 <1>   0.2090 
 15 C       -7.6580    -3.0320    -0.0870 C.3   1 <1>  -0.1600 
 16 N       -6.8410    -5.2470    -0.7940 N.pl3 1 <1>  -0.8380 
 17 C       -7.2660    -3.9070    -1.2820 C.3   1 <1>   0.2090 
 18 C       -7.7610    -6.2330    -0.5040 C.ar  1 <1>   0.7200 
 19 N       -7.4020    -7.1630     0.3820 N.ar  1 <1>  -0.6200 
 20 N       -8.9400    -6.1660    -1.1230 N.ar  1 <1>  -0.6200 
 21 C       -8.2880    -8.0910     0.6480 C.ar  1 <1>   0.1600 
 22 C       -9.8050    -7.1070    -0.8390 C.ar  1 <1>   0.1600 
 23 C       -9.5250    -8.1110     0.0550 C.ar  1 <1>  -0.1500 
 24 H       -1.0030    -3.1030    -0.6060 H     1 <1>   0.1500 
 25 H       -1.9900     1.2070    -1.7850 H     1 <1>   0.0800 
 26 H       -1.4200     2.3490    -0.5840 H     1 <1>   0.0800 
 27 H       -3.0060     2.5440    -1.3090 H     1 <1>   0.0800 
 28 H       -4.0490     1.1070     1.8880 H     1 <1>   0.0800 
 29 H       -4.7400     1.9200     0.5000 H     1 <1>   0.0800 
 30 H       -3.3900     2.6380     1.3650 H     1 <1>   0.0800 
 31 H       -6.0260    -4.6000     1.6560 H     1 <1>   0.0800 
 32 H       -4.3110    -4.6790     1.4250 H     1 <1>   0.0800 
 33 H       -6.3770    -1.3430    -0.0960 H     1 <1>   0.0800 
 34 H       -6.7650    -1.8940     1.5030 H     1 <1>   0.0800 
 35 H       -5.1650    -6.3120    -0.0360 H     1 <1>   0.0800 
 36 H       -4.7600    -4.9840    -1.0640 H     1 <1>   0.0800 
 37 H       -8.4030    -2.3310    -0.4140 H     1 <1>   0.0800 
 38 H       -8.1180    -3.6370     0.6740 H     1 <1>   0.0800 
 39 H       -6.4680    -3.4480    -1.8410 H     1 <1>   0.0800 
 40 H       -8.1060    -4.0090    -1.9470 H     1 <1>   0.0800 
 41 H       -8.0190    -8.8560     1.3570 H     1 <1>   0.1500 
 42 H      -10.7620    -7.0770    -1.3310 H     1 <1>   0.1500 
 43 H      -10.2420    -8.8770     0.2790 H     1 <1>   0.1500 
@<TRIPOS>BOND
  1   1   2  1   
  2   2   3  ar  
  3   2   4  ar  
  4   3   5  ar  
  5   3   6  1   
  6   4   7  ar  
  7   4  24  1   
  8   5   8  ar  
  9   6   9  1   
 10   6  10  1   
 11   7   8  ar  
 12   8  11  1   
 13   9  25  1   
 14   9  26  1   
 15   9  27  1   
 16  10  28  1   
 17  10  29  1   
 18  10  30  1   
 19  11  12  1   
 20  11  13  1   
 21  12  14  1   
 22  12  31  1   
 23  12  32  1   
 24  13  15  1   
 25  13  33  1   
 26  13  34  1   
 27  14  16  1   
 28  14  35  1   
 29  14  36  1   
 30  15  17  1   
 31  15  37  1   
 32  15  38  1   
 33  16  17  1   
 34  16  18  1   
 35  17  39  1   
 36  17  40  1   
 37  18  19  ar  
 38  18  20  ar  
 39  19  21  ar  
 40  20  22  ar  
 41  21  23  ar  
 42  21  41  1   
 43  22  23  ar  
 44  22  42  1   
 45  23  43  1   
@<TRIPOS>SUBSTRUCTURE
  1 ****  11 GROUP 4 **** **** 0

# MOE 2024.06 (io_trps.svl 2023.06)
