@<TRIPOS>MOLECULE
NONAME
42 44 1 0 0 
SMALL
USER_CHARGES


@<TRIPOS>ATOM
  1 N        0.4720     0.6150     1.1250 N.ar  1 <1>  -0.6200 
  2 C       -0.4360     0.3140     2.0260 C.ar  1 <1>   0.7710 
  3 C        0.1380     1.4580     0.1590 C.ar  1 <1>   0.4100 
  4 N       -1.6880     0.8020     2.0060 N.ar  1 <1>  -0.1790 
  5 N       -0.0560    -0.5210     2.9890 N.pl3 1 <1>  -0.9000 
  6 N        1.0920     1.8010    -0.7550 N.pl3 1 <1>  -0.6380 
  7 C       -1.1730     1.9790     0.0840 C.ar  1 <1>  -0.1500 
  8 C       -2.0890     1.6450     1.0250 C.ar  1 <1>   0.2170 
  9 C        0.9580     2.9150    -1.7300 C.3   1 <1>   0.0690 
 10 C        2.3250     0.9810    -0.9460 C.3   1 <1>   0.3470 
 11 C       -3.5180     2.1590     1.0300 C.3   1 <1>  -0.0970 
 12 C        1.9930     3.9950    -1.7560 C.3   1 <1>  -0.2000 
 13 C        0.6260     4.2890    -1.2330 C.3   1 <1>  -0.2000 
 14 C        3.4410     1.5160    -0.0700 C.2   1 <1>  -0.2880 
 15 C        4.6580     1.8900    -0.5040 C.2   1 <1>  -0.1780 
 16 C        5.7570     2.4160     0.2750 C.ar  1 <1>   0.0280 
 17 C        7.0390     2.4630    -0.2680 C.ar  1 <1>  -0.1500 
 18 C        5.5880     2.8940     1.5720 C.ar  1 <1>  -0.1500 
 19 C        8.1090     2.9620     0.4530 C.ar  1 <1>  -0.1500 
 20 C        6.6540     3.3940     2.3000 C.ar  1 <1>  -0.1500 
 21 C        7.9180     3.4280     1.7410 C.ar  1 <1>  -0.1500 
 22 H       -2.3130     0.5080     2.7490 H     1 <1>   0.4570 
 23 H       -0.5930    -0.8840     3.7770 H     1 <1>   0.4000 
 24 H        0.9120    -0.8580     2.9600 H     1 <1>   0.4000 
 25 H       -1.4280     2.6310    -0.7290 H     1 <1>   0.1500 
 26 H        0.5550     2.5910    -2.6770 H     1 <1>   0.1000 
 27 H        2.1280    -0.0450    -0.6880 H     1 <1>   0.0800 
 28 H        2.6190     1.0060    -1.9810 H     1 <1>   0.0800 
 29 H       -3.6850     2.8140     0.1930 H     1 <1>   0.0800 
 30 H       -3.7180     2.7120     1.9310 H     1 <1>   0.0800 
 31 H       -4.2140     1.3410     0.9580 H     1 <1>   0.0800 
 32 H        2.8020     3.9910    -1.0470 H     1 <1>   0.1000 
 33 H        2.2770     4.4230    -2.7010 H     1 <1>   0.1000 
 34 H       -0.0030     4.9300    -1.8250 H     1 <1>   0.1000 
 35 H        0.5310     4.4680    -0.1770 H     1 <1>   0.1000 
 36 H        3.1460     1.5630     0.9610 H     1 <1>   0.1500 
 37 H        4.8870     1.8060    -1.5530 H     1 <1>   0.1500 
 38 H        7.2030     2.1030    -1.2670 H     1 <1>   0.1500 
 39 H        4.6130     2.8840     2.0210 H     1 <1>   0.1500 
 40 H        9.0910     2.9870     0.0120 H     1 <1>   0.1500 
 41 H        6.4990     3.7570     3.3000 H     1 <1>   0.1500 
 42 H        8.7490     3.8160     2.3040 H     1 <1>   0.1500 
@<TRIPOS>BOND
  1   1   2  ar  
  2   1   3  ar  
  3   2   4  ar  
  4   2   5  1   
  5   3   6  1   
  6   3   7  ar  
  7   4   8  ar  
  8   4  22  1   
  9   5  23  1   
 10   5  24  1   
 11   6   9  1   
 12   6  10  1   
 13   7   8  ar  
 14   7  25  1   
 15   8  11  1   
 16   9  12  1   
 17   9  13  1   
 18   9  26  1   
 19  10  14  1   
 20  10  27  1   
 21  10  28  1   
 22  11  29  1   
 23  11  30  1   
 24  11  31  1   
 25  12  13  1   
 26  12  32  1   
 27  12  33  1   
 28  13  34  1   
 29  13  35  1   
 30  14  15  2   
 31  14  36  1   
 32  15  16  1   
 33  15  37  1   
 34  16  17  ar  
 35  16  18  ar  
 36  17  19  ar  
 37  17  38  1   
 38  18  20  ar  
 39  18  39  1   
 40  19  21  ar  
 41  19  40  1   
 42  20  21  ar  
 43  20  41  1   
 44  21  42  1   
@<TRIPOS>SUBSTRUCTURE
  1 ****  14 GROUP 4 **** **** 0

# MOE 2024.06 (io_trps.svl 2023.06)
