@<TRIPOS>MOLECULE
NONAME
20 20 1 0 0 
SMALL
USER_CHARGES


@<TRIPOS>ATOM
  1 C       -3.7530     6.2230     0.6490 C.2   1 <1>  -0.2880 
  2 C       -3.2450     4.9920     0.6150 C.2   1 <1>  -0.2880 
  3 C       -4.7660     6.7570    -0.3440 C.3   1 <1>  -0.0220 
  4 C       -3.6070     3.9470    -0.4220 C.3   1 <1>  -0.0220 
  5 C       -6.1930     6.4780     0.1260 C.3   1 <1>  -0.0220 
  6 C       -4.8060     3.1160     0.0330 C.3   1 <1>  -0.0220 
  7 C       -6.6910     5.0290     0.1980 C.2   1 <1>  -0.2880 
  8 C       -6.1780     3.7870     0.1630 C.2   1 <1>  -0.2880 
  9 H       -3.4960     6.9340     1.4160 H     1 <1>   0.1500 
 10 H       -2.5460     4.6330     1.3520 H     1 <1>   0.1500 
 11 H       -4.6340     6.3370    -1.3220 H     1 <1>   0.0800 
 12 H       -4.6230     7.8180    -0.4410 H     1 <1>   0.0800 
 13 H       -2.7590     3.3010    -0.5670 H     1 <1>   0.0800 
 14 H       -3.8280     4.3840    -1.3760 H     1 <1>   0.0800 
 15 H       -6.8490     7.0040    -0.5450 H     1 <1>   0.0800 
 16 H       -6.3220     6.9210     1.0980 H     1 <1>   0.0800 
 17 H       -4.5660     2.6650     0.9800 H     1 <1>   0.0800 
 18 H       -4.9130     2.3130    -0.6750 H     1 <1>   0.0800 
 19 H       -7.7590     5.0880     0.3270 H     1 <1>   0.1500 
 20 H       -6.8910     2.9860     0.2680 H     1 <1>   0.1500 
@<TRIPOS>BOND
  1   1   2  2   
  2   1   3  1   
  3   1   9  1   
  4   2   4  1   
  5   2  10  1   
  6   3   5  1   
  7   3  11  1   
  8   3  12  1   
  9   4   6  1   
 10   4  13  1   
 11   4  14  1   
 12   5   7  1   
 13   5  15  1   
 14   5  16  1   
 15   6   8  1   
 16   6  17  1   
 17   6  18  1   
 18   7   8  2   
 19   7  19  1   
 20   8  20  1   
@<TRIPOS>SUBSTRUCTURE
  1 ****   2 GROUP 4 **** **** 0

# MOE 2024.06 (io_trps.svl 2023.06)
