@<TRIPOS>MOLECULE
NONAME
48 51 1 0 0 
SMALL
USER_CHARGES


@<TRIPOS>ATOM
  1 O        2.3140    -1.0630    -1.2740 O.3   1 <1>  -0.2800 
  2 C        1.0460    -1.2080    -1.6600 C.ar  1 <1>   0.1400 
  3 C        2.3250    -0.9970     0.0560 C.2   1 <1>  -0.0400 
  4 C        0.2120    -1.2140    -0.5570 C.ar  1 <1>   0.0000 
  5 C        0.5620    -1.3250    -2.9550 C.ar  1 <1>  -0.1500 
  6 C        1.0740    -1.0790     0.5530 C.2   1 <1>  -0.1810 
  7 C        3.6710    -0.8280     0.7470 C.3   1 <1>   0.3890 
  8 C       -1.1650    -1.3330    -0.7460 C.ar  1 <1>  -0.1500 
  9 C       -0.8020    -1.4420    -3.1320 C.ar  1 <1>  -0.1500 
 10 C        0.5790    -1.0450     1.9890 C.3   1 <1>  -0.0590 
 11 N        4.1660     0.5800     0.6930 N.pl3 1 <1>  -0.8690 
 12 C       -1.6610    -1.4450    -2.0300 C.ar  1 <1>  -0.1500 
 13 C        3.8010     1.6810     0.0240 C.ar  1 <1>   0.7710 
 14 N        4.4820     2.7700     0.3170 N.ar  1 <1>  -0.6200 
 15 N        2.8100     1.6700    -0.8830 N.ar  1 <1>  -0.1790 
 16 C        4.1740     3.8880    -0.3170 C.ar  1 <1>   0.4100 
 17 C        2.4410     2.7930    -1.5380 C.ar  1 <1>   0.2110 
 18 N        4.9030     4.9990    -0.0300 N.pl3 1 <1>  -0.8380 
 19 C        3.1220     3.9290    -1.2560 C.ar  1 <1>  -0.1500 
 20 C        5.1830     6.1080    -1.0010 C.3   1 <1>   0.2090 
 21 C        5.5930     5.1940     1.2830 C.3   1 <1>   0.2090 
 22 C        4.7400     7.4570    -0.4110 C.3   1 <1>   0.2000 
 23 C        5.1540     6.5300     1.8980 C.3   1 <1>  -0.1600 
 24 O        5.0940     8.4820    -1.2700 O.3   1 <1>  -0.6800 
 25 C        5.3910     7.7200     0.9510 C.3   1 <1>  -0.1600 
 26 H        1.2410    -1.3310    -3.7890 H     1 <1>   0.1500 
 27 H        4.3920    -1.4850     0.2880 H     1 <1>   0.0800 
 28 H        3.5730    -1.1190     1.7790 H     1 <1>   0.0800 
 29 H       -1.8250    -1.3420     0.1040 H     1 <1>   0.1500 
 30 H       -1.2150    -1.5390    -4.1230 H     1 <1>   0.1500 
 31 H        1.3920    -0.9070     2.6780 H     1 <1>   0.0800 
 32 H        0.0840    -1.9710     2.2250 H     1 <1>   0.0800 
 33 H       -0.1210    -0.2390     2.1190 H     1 <1>   0.0800 
 34 H        4.9640     0.7450     1.3150 H     1 <1>   0.4000 
 35 H       -2.7220    -1.5410    -2.1920 H     1 <1>   0.1500 
 36 H        2.3690     0.7590    -1.0390 H     1 <1>   0.4570 
 37 H        1.6280     2.7480    -2.2450 H     1 <1>   0.1500 
 38 H        2.8670     4.8600    -1.7250 H     1 <1>   0.1500 
 39 H        4.6870     5.9430    -1.9390 H     1 <1>   0.0800 
 40 H        6.2430     6.1350    -1.1870 H     1 <1>   0.0800 
 41 H        6.6590     5.1910     1.1270 H     1 <1>   0.0800 
 42 H        5.3530     4.3990     1.9670 H     1 <1>   0.0800 
 43 H        3.6670     7.4680    -0.3210 H     1 <1>   0.0800 
 44 H        5.6920     6.6890     2.8160 H     1 <1>   0.0800 
 45 H        4.1080     6.4660     2.1430 H     1 <1>   0.0800 
 46 H        6.0500     8.6670    -1.2070 H     1 <1>   0.4000 
 47 H        4.9750     8.6120     1.3850 H     1 <1>   0.0800 
 48 H        6.4520     7.8550     0.8280 H     1 <1>   0.0800 
@<TRIPOS>BOND
  1   1   2  1   
  2   1   3  1   
  3   2   4  ar  
  4   2   5  ar  
  5   3   6  2   
  6   3   7  1   
  7   4   6  1   
  8   4   8  ar  
  9   5   9  ar  
 10   5  26  1   
 11   6  10  1   
 12   7  11  1   
 13   7  27  1   
 14   7  28  1   
 15   8  12  ar  
 16   8  29  1   
 17   9  12  ar  
 18   9  30  1   
 19  10  31  1   
 20  10  32  1   
 21  10  33  1   
 22  11  13  1   
 23  11  34  1   
 24  12  35  1   
 25  13  14  ar  
 26  13  15  ar  
 27  14  16  ar  
 28  15  17  ar  
 29  15  36  1   
 30  16  18  1   
 31  16  19  ar  
 32  17  19  ar  
 33  17  37  1   
 34  18  20  1   
 35  18  21  1   
 36  19  38  1   
 37  20  22  1   
 38  20  39  1   
 39  20  40  1   
 40  21  23  1   
 41  21  41  1   
 42  21  42  1   
 43  22  24  1   
 44  22  25  1   
 45  22  43  1   
 46  23  25  1   
 47  23  44  1   
 48  23  45  1   
 49  24  46  1   
 50  25  47  1   
 51  25  48  1   
@<TRIPOS>SUBSTRUCTURE
  1 ****  15 GROUP 4 **** **** 0

# MOE 2024.06 (io_trps.svl 2023.06)
