@<TRIPOS>MOLECULE
NONAME
43 45 1 0 0 
SMALL
USER_CHARGES


@<TRIPOS>ATOM
  1 O       -0.0960     0.1040     0.0770 O.2   1 <1>  -0.5700 
  2 C        1.1070     0.2440    -0.0850 C.2   1 <1>   0.6900 
  3 N        2.0720    -0.6430     0.2980 N.am  1 <1>  -0.4770 
  4 N        1.6840     1.3040    -0.6940 N.am  1 <1>  -0.5470 
  5 C        3.3000    -0.1170    -0.0970 C.ar  1 <1>   0.1170 
  6 C        1.8260    -1.9200     0.9930 C.3   1 <1>   0.1400 
  7 C        3.0540     1.0990    -0.7140 C.ar  1 <1>   0.1170 
  8 C        4.5970    -0.5950     0.0280 C.ar  1 <1>  -0.1500 
  9 C        1.6490    -3.0390    -0.0320 C.3   1 <1>  -0.0990 
 10 C        4.0920     1.8670    -1.2180 C.ar  1 <1>  -0.1500 
 11 C        5.6370     0.1690    -0.4740 C.ar  1 <1>  -0.1500 
 12 C        0.8970    -4.2010     0.5850 C.2   1 <1>   0.5690 
 13 C        5.3870     1.3920    -1.0930 C.ar  1 <1>  -0.1500 
 14 O        1.5470    -5.1750     0.8850 O.2   1 <1>  -0.5700 
 15 N       -0.4590    -4.1600     0.7890 N.am  1 <1>  -0.6600 
 16 C       -1.1500    -5.3420     1.3880 C.3   1 <1>   0.3200 
 17 C       -1.3880    -3.0990     0.2810 C.3   1 <1>   0.1400 
 18 C       -1.3960    -6.4030     0.3310 C.2   1 <1>   0.0060 
 19 C       -1.9530    -2.2580     1.4320 C.3   1 <1>   0.1200 
 20 N       -2.5620    -6.8100    -0.0620 N.2   1 <1>  -0.5650 
 21 N       -0.3700    -7.0190    -0.2910 N.pl3 1 <1>   0.0330 
 22 O       -2.4330    -1.0610     0.9290 O.3   1 <1>  -0.6800 
 23 C       -2.2770    -7.7420    -0.9940 C.2   1 <1>   0.0770 
 24 C       -0.9420    -7.8830    -1.1480 C.2   1 <1>  -0.3020 
 25 H        1.1550     2.0950    -1.0560 H     1 <1>   0.3700 
 26 H        0.9360    -1.8140     1.5880 H     1 <1>   0.0800 
 27 H        2.6440    -2.1430     1.6550 H     1 <1>   0.0800 
 28 H        4.7840    -1.5390     0.5060 H     1 <1>   0.1500 
 29 H        2.6190    -3.3780    -0.3490 H     1 <1>   0.0800 
 30 H        1.1300    -2.6930    -0.9040 H     1 <1>   0.0800 
 31 H        3.8870     2.8090    -1.6940 H     1 <1>   0.1500 
 32 H        6.6510    -0.1830    -0.3870 H     1 <1>   0.1500 
 33 H        6.2100     1.9710    -1.4770 H     1 <1>   0.1500 
 34 H       -2.0910    -5.0460     1.8180 H     1 <1>   0.0800 
 35 H       -0.5460    -5.7580     2.1760 H     1 <1>   0.0800 
 36 H       -2.2010    -3.5650    -0.2510 H     1 <1>   0.0800 
 37 H       -0.8820    -2.4490    -0.4070 H     1 <1>   0.0800 
 38 H       -1.1940    -2.0250     2.1570 H     1 <1>   0.0800 
 39 H       -2.7710    -2.7670     1.9110 H     1 <1>   0.0800 
 40 H        0.6260    -6.8170    -0.1210 H     1 <1>   0.2700 
 41 H       -1.6800    -0.5110     0.5860 H     1 <1>   0.4000 
 42 H       -3.0600    -8.2690    -1.5130 H     1 <1>   0.1500 
 43 H       -0.3840    -8.5290    -1.8000 H     1 <1>   0.1500 
@<TRIPOS>BOND
  1   1   2  2   
  2   2   3  am  
  3   2   4  am  
  4   3   5  1   
  5   3   6  1   
  6   4   7  1   
  7   4  25  1   
  8   5   7  ar  
  9   5   8  ar  
 10   6   9  1   
 11   6  26  1   
 12   6  27  1   
 13   7  10  ar  
 14   8  11  ar  
 15   8  28  1   
 16   9  12  1   
 17   9  29  1   
 18   9  30  1   
 19  10  13  ar  
 20  10  31  1   
 21  11  13  ar  
 22  11  32  1   
 23  12  14  2   
 24  12  15  am  
 25  13  33  1   
 26  15  16  1   
 27  15  17  1   
 28  16  18  1   
 29  16  34  1   
 30  16  35  1   
 31  17  19  1   
 32  17  36  1   
 33  17  37  1   
 34  18  20  2   
 35  18  21  1   
 36  19  22  1   
 37  19  38  1   
 38  19  39  1   
 39  20  23  1   
 40  21  24  1   
 41  21  40  1   
 42  22  41  1   
 43  23  24  2   
 44  23  42  1   
 45  24  43  1   
@<TRIPOS>SUBSTRUCTURE
  1 ****   9 GROUP 4 **** **** 0

# MOE 2024.06 (io_trps.svl 2023.06)
