@<TRIPOS>MOLECULE
NONAME
37 38 1 0 0 
SMALL
USER_CHARGES


@<TRIPOS>ATOM
  1 O        0.8280     0.3010     0.4410 O.2   1 <1>  -0.5700 
  2 C        1.6710    -0.5670     0.4870 C.2   1 <1>   0.5690 
  3 N        1.3890    -1.7090     1.1610 N.am  1 <1>  -0.7300 
  4 C        3.0320    -0.3740    -0.2190 C.3   1 <1>   0.3500 
  5 C        2.2140    -2.9280     1.2630 C.3   1 <1>   0.1400 
  6 N        3.1960     1.0010    -0.7640 N.pl3 1 <1>  -0.8690 
  7 C        3.2180    -1.3640    -1.3790 C.3   1 <1>  -0.1600 
  8 C        2.4810    -3.5170    -0.1260 C.3   1 <1>  -0.1600 
  9 C        4.2940     1.7600    -0.6450 C.ar  1 <1>   0.7200 
 10 C        3.5760    -2.7910    -0.9270 C.3   1 <1>  -0.1600 
 11 N        4.1000     3.0580    -0.8120 N.ar  1 <1>  -0.6200 
 12 N        5.4500     1.1630    -0.3780 N.ar  1 <1>  -0.6200 
 13 C        5.1470     3.8340    -0.6920 C.ar  1 <1>   0.1670 
 14 C        6.4800     1.9600    -0.2540 C.ar  1 <1>   0.1600 
 15 C        6.4090     3.3390    -0.3680 C.ar  1 <1>   0.0860 
 16 C        4.8810     5.3070    -0.9610 C.3   1 <1>  -0.0970 
 17 C        7.5990     4.1140    -0.1480 C.2   1 <1>   0.4230 
 18 O        8.6740     3.7770    -0.5710 O.2   1 <1>  -0.5700 
 19 C        7.5670     5.3700     0.7000 C.3   1 <1>  -0.1790 
 20 H        0.4580    -1.7480     1.5820 H     1 <1>   0.3700 
 21 H        3.8010    -0.5450     0.5120 H     1 <1>   0.0800 
 22 H        1.6800    -3.6500     1.8570 H     1 <1>   0.0800 
 23 H        3.1400    -2.7030     1.7640 H     1 <1>   0.0800 
 24 H        2.3160     1.5220    -0.7850 H     1 <1>   0.4000 
 25 H        4.0250    -1.0100    -1.9980 H     1 <1>   0.0800 
 26 H        2.3260    -1.3810    -1.9790 H     1 <1>   0.0800 
 27 H        1.5650    -3.5540    -0.6900 H     1 <1>   0.0800 
 28 H        2.8060    -4.5340     0.0130 H     1 <1>   0.0800 
 29 H        4.4860    -2.7630    -0.3500 H     1 <1>   0.0800 
 30 H        3.7840    -3.3720    -1.8090 H     1 <1>   0.0800 
 31 H        7.4370     1.5110    -0.0440 H     1 <1>   0.1500 
 32 H        4.0290     5.4120    -1.6100 H     1 <1>   0.0800 
 33 H        5.7200     5.7670    -1.4480 H     1 <1>   0.0800 
 34 H        4.6670     5.8170    -0.0400 H     1 <1>   0.0800 
 35 H        6.6980     5.3870     1.3300 H     1 <1>   0.0800 
 36 H        7.5780     6.2380     0.0680 H     1 <1>   0.0800 
 37 H        8.4410     5.3960     1.3260 H     1 <1>   0.0800 
@<TRIPOS>BOND
  1   1   2  2   
  2   2   3  am  
  3   2   4  1   
  4   3   5  1   
  5   3  20  1   
  6   4   6  1   
  7   4   7  1   
  8   4  21  1   
  9   5   8  1   
 10   5  22  1   
 11   5  23  1   
 12   6   9  1   
 13   6  24  1   
 14   7  10  1   
 15   7  25  1   
 16   7  26  1   
 17   8  10  1   
 18   8  27  1   
 19   8  28  1   
 20   9  11  ar  
 21   9  12  ar  
 22  10  29  1   
 23  10  30  1   
 24  11  13  ar  
 25  12  14  ar  
 26  13  15  ar  
 27  13  16  1   
 28  14  15  ar  
 29  14  31  1   
 30  15  17  1   
 31  16  32  1   
 32  16  33  1   
 33  16  34  1   
 34  17  18  2   
 35  17  19  1   
 36  19  35  1   
 37  19  36  1   
 38  19  37  1   
@<TRIPOS>SUBSTRUCTURE
  1 ****   9 GROUP 4 **** **** 0

# MOE 2024.06 (io_trps.svl 2023.06)
