@<TRIPOS>MOLECULE
NONAME
44 46 1 0 0 
SMALL
USER_CHARGES


@<TRIPOS>ATOM
  1 O        0.8150    -1.0850     1.2620 O.2   1 <1>  -0.5700 
  2 C        1.8480    -1.1570     0.6370 C.2   1 <1>   0.5690 
  3 N        2.6350    -0.0810     0.3300 N.am  1 <1>  -0.4940 
  4 C        2.3300    -2.5300     0.1520 C.3   1 <1>   0.2610 
  5 C        2.5750     1.3050     0.6010 C.2   1 <1>  -0.0880 
  6 O        3.6550    -2.4890    -0.3110 O.3   1 <1>  -0.5600 
  7 C        1.5460    -3.0760    -1.0360 C.3   1 <1>  -0.1600 
  8 N        1.4970     2.0740     0.9190 N.pl3 1 <1>   0.3140 
  9 C        3.6510     2.1410     0.5570 C.2   1 <1>  -0.0540 
 10 C        3.9010    -3.5670    -1.1580 C.3   1 <1>   0.1200 
 11 C        2.5480    -3.9860    -1.7280 C.3   1 <1>  -0.1600 
 12 N        1.8460     3.3680     1.0860 N.2   1 <1>  -0.7070 
 13 C        0.0830     1.6950     1.0250 C.3   1 <1>   0.0160 
 14 C        5.0240     1.7950     0.2690 C.ar  1 <1>   0.0540 
 15 C        3.1190     3.3970     0.8690 C.2   1 <1>   0.1080 
 16 C        5.7210     2.3090    -0.8320 C.ar  1 <1>   0.0820 
 17 C        5.6840     0.9040     1.1100 C.ar  1 <1>  -0.1500 
 18 C        3.9150     4.6790     0.9570 C.3   1 <1>  -0.0590 
 19 O        5.0580     3.1680    -1.6540 O.3   1 <1>  -0.3630 
 20 C        7.0420     1.9320    -1.0600 C.ar  1 <1>  -0.1500 
 21 C        6.9940     0.5290     0.8790 C.ar  1 <1>  -0.1500 
 22 C        5.6310     3.6620    -2.8430 C.3   1 <1>   0.0400 
 23 C        7.6750     1.0450    -0.2080 C.ar  1 <1>  -0.1500 
 24 H        3.5070    -0.3820    -0.1230 H     1 <1>   0.3700 
 25 H        2.2960    -3.2270     0.9710 H     1 <1>   0.0800 
 26 H        0.6580    -3.5930    -0.7190 H     1 <1>   0.0800 
 27 H        1.2680    -2.2640    -1.6850 H     1 <1>   0.0800 
 28 H        4.5850    -3.2480    -1.9260 H     1 <1>   0.0800 
 29 H        4.3430    -4.3580    -0.5760 H     1 <1>   0.0800 
 30 H        2.5220    -3.8620    -2.7970 H     1 <1>   0.0800 
 31 H        2.3610    -5.0190    -1.4930 H     1 <1>   0.0800 
 32 H       -0.1720     1.0430     0.2120 H     1 <1>   0.0800 
 33 H       -0.5240     2.5800     0.9800 H     1 <1>   0.0800 
 34 H       -0.0760     1.1960     1.9620 H     1 <1>   0.0800 
 35 H        5.1560     0.5040     1.9580 H     1 <1>   0.1500 
 36 H        4.9290     4.4710     1.2420 H     1 <1>   0.0800 
 37 H        3.4720     5.3310     1.6870 H     1 <1>   0.0800 
 38 H        3.9090     5.1680     0.0010 H     1 <1>   0.0800 
 39 H        7.5960     2.3150    -1.8950 H     1 <1>   0.1500 
 40 H        7.4820    -0.1620     1.5440 H     1 <1>   0.1500 
 41 H        4.9000     4.2810    -3.3320 H     1 <1>   0.0800 
 42 H        5.8900     2.8330    -3.4770 H     1 <1>   0.0800 
 43 H        6.4990     4.2480    -2.5960 H     1 <1>   0.0800 
 44 H        8.6950     0.7550    -0.3890 H     1 <1>   0.1500 
@<TRIPOS>BOND
  1   1   2  2   
  2   2   3  am  
  3   2   4  1   
  4   3   5  1   
  5   3  24  1   
  6   4   6  1   
  7   4   7  1   
  8   4  25  1   
  9   5   8  1   
 10   5   9  2   
 11   6  10  1   
 12   7  11  1   
 13   7  26  1   
 14   7  27  1   
 15   8  12  1   
 16   8  13  1   
 17   9  14  1   
 18   9  15  1   
 19  10  11  1   
 20  10  28  1   
 21  10  29  1   
 22  11  30  1   
 23  11  31  1   
 24  12  15  2   
 25  13  32  1   
 26  13  33  1   
 27  13  34  1   
 28  14  16  ar  
 29  14  17  ar  
 30  15  18  1   
 31  16  19  1   
 32  16  20  ar  
 33  17  21  ar  
 34  17  35  1   
 35  18  36  1   
 36  18  37  1   
 37  18  38  1   
 38  19  22  1   
 39  20  23  ar  
 40  20  39  1   
 41  21  23  ar  
 42  21  40  1   
 43  22  41  1   
 44  22  42  1   
 45  22  43  1   
 46  23  44  1   
@<TRIPOS>SUBSTRUCTURE
  1 ****   3 GROUP 4 **** **** 0

# MOE 2024.06 (io_trps.svl 2023.06)
