@<TRIPOS>MOLECULE
Untitled Document
44 47 1 0 0 
SMALL
USER_CHARGES


@<TRIPOS>ATOM
  1 S        0.0180    -0.0310     1.0490 S.3   1 <1>  -0.0800 
  2 C        0.9230     1.3270     0.4080 C.2   1 <1>   0.1240 
  3 C       -1.4920     0.7180     0.5320 C.2   1 <1>  -0.1400 
  4 N        2.2700     1.4650     0.4390 N.pl3 1 <1>  -0.5340 
  5 C        0.1220     2.2660    -0.1440 C.2   1 <1>  -0.0860 
  6 C       -1.2690     1.9040    -0.0580 C.2   1 <1>  -0.1810 
  7 C       -2.8170     0.0340     0.7680 C.3   1 <1>   0.5230 
  8 C        2.8590     2.5790    -0.1130 C.2   1 <1>   0.4140 
  9 C        0.7810     3.4090    -0.6920 C.2   1 <1>   0.8670 
 10 C       -2.4210     2.7480    -0.5740 C.3   1 <1>   0.0210 
 11 N       -3.8320     0.6930    -0.1240 N.4   1 <1>  -0.9590 
 12 N        2.1460     3.5230    -0.6520 N.2   1 <1>  -0.6610 
 13 C        4.3040     2.6690    -0.0620 C.ar  1 <1>   0.0860 
 14 O        0.1310     4.3080    -1.2070 O.2   1 <1>  -0.5700 
 15 C       -3.7660     2.2000    -0.0540 C.3   1 <1>   0.3430 
 16 C       -5.2090     0.1860     0.1510 C.3   1 <1>   0.2630 
 17 C        4.9370     3.8720     0.2500 C.ar  1 <1>  -0.1500 
 18 C        5.1150     1.5600    -0.3140 C.ar  1 <1>  -0.1500 
 19 C        6.3140     3.9720     0.3310 C.ar  1 <1>  -0.1430 
 20 C        6.4960     1.6300    -0.2390 C.ar  1 <1>  -0.1430 
 21 C        7.0910     2.8440     0.0900 C.ar  1 <1>   0.0830 
 22 C        6.9600     5.3060     0.6780 C.3   1 <1>  -0.0970 
 23 C        7.3290     0.3860    -0.5230 C.3   1 <1>  -0.0970 
 24 O        8.4270     2.9330     0.1720 O.3   1 <1>  -0.5330 
 25 H        2.8570     0.7690     0.9040 H     1 <1>   0.4000 
 26 H       -3.0960     0.1360     1.8040 H     1 <1>   0.0800 
 27 H       -2.7360    -1.0140     0.5290 H     1 <1>   0.0800 
 28 H       -2.4130     2.7530    -1.6500 H     1 <1>   0.0800 
 29 H       -2.3090     3.7660    -0.2430 H     1 <1>   0.0800 
 30 H       -3.5620     0.4340    -1.0840 H     1 <1>   0.4500 
 31 H       -4.5660     2.6350    -0.6320 H     1 <1>   0.0800 
 32 H       -3.8900     2.5110     0.9710 H     1 <1>   0.0800 
 33 H       -5.5110     0.4420     1.1550 H     1 <1>   0.0800 
 34 H       -5.2440    -0.8860     0.0430 H     1 <1>   0.0800 
 35 H       -5.9130     0.6210    -0.5400 H     1 <1>   0.0800 
 36 H        4.3260     4.7390     0.4300 H     1 <1>   0.1500 
 37 H        4.6500     0.6300    -0.5840 H     1 <1>   0.1500 
 38 H        6.2200     6.0710     0.8270 H     1 <1>   0.0800 
 39 H        7.6130     5.6110    -0.1190 H     1 <1>   0.0800 
 40 H        7.5390     5.2070     1.5780 H     1 <1>   0.0800 
 41 H        6.7000    -0.4530    -0.7610 H     1 <1>   0.0800 
 42 H        7.9180     0.1310     0.3390 H     1 <1>   0.0800 
 43 H        7.9810     0.5630    -1.3600 H     1 <1>   0.0800 
 44 H        8.8760     2.0950    -0.0300 H     1 <1>   0.4500 
@<TRIPOS>BOND
  1   1   2  1   
  2   1   3  1   
  3   2   4  1   
  4   2   5  2   
  5   3   6  2   
  6   3   7  1   
  7   4   8  1   
  8   4  25  1   
  9   5   6  1   
 10   5   9  1   
 11   6  10  1   
 12   7  11  1   
 13   7  26  1   
 14   7  27  1   
 15   8  12  2   
 16   8  13  1   
 17   9  12  1   
 18   9  14  2   
 19  10  15  1   
 20  10  28  1   
 21  10  29  1   
 22  11  15  1   
 23  11  16  1   
 24  11  30  1   
 25  13  17  ar  
 26  13  18  ar  
 27  15  31  1   
 28  15  32  1   
 29  16  33  1   
 30  16  34  1   
 31  16  35  1   
 32  17  19  ar  
 33  17  36  1   
 34  18  20  ar  
 35  18  37  1   
 36  19  21  ar  
 37  19  22  1   
 38  20  21  ar  
 39  20  23  1   
 40  21  24  1   
 41  22  38  1   
 42  22  39  1   
 43  22  40  1   
 44  23  41  1   
 45  23  42  1   
 46  23  43  1   
 47  24  44  1   
@<TRIPOS>SUBSTRUCTURE
  1 ****   4 GROUP 4 **** **** 0

# MOE 2024.06 (io_trps.svl 2023.06)
