@<TRIPOS>MOLECULE
NONAME
54 57 1 0 0 
SMALL
USER_CHARGES


@<TRIPOS>ATOM
  1 F       -6.4830     2.4520     2.1640 F     1 <1>  -0.1900 
  2 C       -6.3410     2.1370     0.9050 C.ar  1 <1>   0.1900 
  3 C       -6.3080     0.8020     0.5510 C.ar  1 <1>  -0.1500 
  4 C       -6.2390     3.1520    -0.0270 C.ar  1 <1>  -0.1500 
  5 C       -6.1780     0.4660    -0.7890 C.ar  1 <1>  -0.1440 
  6 C       -6.1040     2.8110    -1.3630 C.ar  1 <1>  -0.1500 
  7 C       -6.0760     1.4760    -1.7390 C.ar  1 <1>  -0.1500 
  8 C       -6.1680    -0.9970    -1.1960 C.3   1 <1>   0.2840 
  9 N       -7.5570    -1.4830    -1.1420 N.am  1 <1>  -0.7300 
 10 C       -8.0430    -2.2810    -0.1650 C.2   1 <1>   0.6900 
 11 O       -7.2680    -2.8970     0.5430 O.2   1 <1>  -0.5700 
 12 N       -9.3970    -2.3560     0.0380 N.am  1 <1>  -0.6600 
 13 C      -10.4010    -1.4180    -0.5520 C.3   1 <1>   0.1400 
 14 C       -9.9650    -3.1930     1.1300 C.3   1 <1>   0.1400 
 15 C      -10.9020    -0.4320     0.5220 C.3   1 <1>   0.1440 
 16 C      -10.4780    -2.2830     2.2540 C.3   1 <1>  -0.1600 
 17 C      -11.9750     0.4800    -0.0410 C.ar  1 <1>   0.1670 
 18 C      -11.4610    -1.2140     1.7340 C.3   1 <1>  -0.1600 
 19 C       -9.8030     0.5810     0.9430 C.3   1 <1>  -0.1600 
 20 N      -13.0080     0.0890    -0.7460 N.ar  1 <1>  -0.6200 
 21 C      -11.7430     1.7840     0.2760 C.ar  1 <1>  -0.1430 
 22 C      -10.4860     1.9490     1.0940 C.3   1 <1>  -0.0170 
 23 C      -13.8340     1.0640    -1.1350 C.ar  1 <1>   0.7200 
 24 C      -12.6430     2.7180    -0.1700 C.ar  1 <1>   0.1600 
 25 N      -13.6920     2.3680    -0.8770 N.ar  1 <1>  -0.6200 
 26 N      -14.9390     0.6880    -1.8740 N.pl3 1 <1>  -0.8380 
 27 C      -16.0840     1.6110    -2.1080 C.3   1 <1>   0.1290 
 28 C      -15.0720    -0.6710    -2.4690 C.3   1 <1>   0.1290 
 29 H       -6.3910     0.0410     1.3070 H     1 <1>   0.1500 
 30 H       -6.2630     4.1790     0.2880 H     1 <1>   0.1500 
 31 H       -6.0210     3.5830    -2.1090 H     1 <1>   0.1500 
 32 H       -5.9750     1.2270    -2.7810 H     1 <1>   0.1500 
 33 H       -5.5410    -1.5630    -0.5270 H     1 <1>   0.0800 
 34 H       -5.7860    -1.1140    -2.1950 H     1 <1>   0.0800 
 35 H       -8.2250    -0.9230    -1.6590 H     1 <1>   0.3700 
 36 H      -11.2340    -1.9920    -0.9190 H     1 <1>   0.0800 
 37 H       -9.9960    -0.8750    -1.3850 H     1 <1>   0.0800 
 38 H       -9.2240    -3.8710     1.5180 H     1 <1>   0.0800 
 39 H      -10.7750    -3.7800     0.7340 H     1 <1>   0.0800 
 40 H       -9.6320    -1.8150     2.7260 H     1 <1>   0.0800 
 41 H      -10.9660    -2.8860     2.9980 H     1 <1>   0.0800 
 42 H      -12.3690    -1.7050     1.4300 H     1 <1>   0.0800 
 43 H      -11.7140    -0.5320     2.5270 H     1 <1>   0.0800 
 44 H       -9.0810     0.6640     0.1510 H     1 <1>   0.0800 
 45 H       -9.2830     0.2930     1.8380 H     1 <1>   0.0800 
 46 H       -9.8640     2.7440     0.7210 H     1 <1>   0.0800 
 47 H      -10.7440     2.1340     2.1220 H     1 <1>   0.0800 
 48 H      -12.5020     3.7610     0.0540 H     1 <1>   0.1500 
 49 H      -16.1790     2.3090    -1.2930 H     1 <1>   0.0800 
 50 H      -17.0010     1.0540    -2.1830 H     1 <1>   0.0800 
 51 H      -15.9230     2.1600    -3.0190 H     1 <1>   0.0800 
 52 H      -14.1030    -1.0770    -2.7010 H     1 <1>   0.0800 
 53 H      -15.6450    -0.6230    -3.3770 H     1 <1>   0.0800 
 54 H      -15.5660    -1.3220    -1.7690 H     1 <1>   0.0800 
@<TRIPOS>BOND
  1   1   2  1   
  2   2   3  ar  
  3   2   4  ar  
  4   3   5  ar  
  5   3  29  1   
  6   4   6  ar  
  7   4  30  1   
  8   5   7  ar  
  9   5   8  1   
 10   6   7  ar  
 11   6  31  1   
 12   7  32  1   
 13   8   9  1   
 14   8  33  1   
 15   8  34  1   
 16   9  10  am  
 17   9  35  1   
 18  10  11  2   
 19  10  12  am  
 20  12  13  1   
 21  12  14  1   
 22  13  15  1   
 23  13  36  1   
 24  13  37  1   
 25  14  16  1   
 26  14  38  1   
 27  14  39  1   
 28  15  17  1   
 29  15  18  1   
 30  15  19  1   
 31  16  18  1   
 32  16  40  1   
 33  16  41  1   
 34  17  20  ar  
 35  17  21  ar  
 36  18  42  1   
 37  18  43  1   
 38  19  22  1   
 39  19  44  1   
 40  19  45  1   
 41  20  23  ar  
 42  21  22  1   
 43  21  24  ar  
 44  22  46  1   
 45  22  47  1   
 46  23  25  ar  
 47  23  26  1   
 48  24  25  ar  
 49  24  48  1   
 50  26  27  1   
 51  26  28  1   
 52  27  49  1   
 53  27  50  1   
 54  27  51  1   
 55  28  52  1   
 56  28  53  1   
 57  28  54  1   
@<TRIPOS>SUBSTRUCTURE
  1 ****  19 GROUP 4 **** **** 0

# MOE 2024.06 (io_trps.svl 2023.06)
