@<TRIPOS>MOLECULE
NONAME
48 51 1 0 0 
SMALL
USER_CHARGES


@<TRIPOS>ATOM
  1 F       -1.1520    -1.3430     1.9440 F     1 <1>  -0.1900 
  2 C       -1.8030    -1.5750     0.8320 C.ar  1 <1>   0.1900 
  3 C       -1.6880    -0.7280    -0.2750 C.ar  1 <1>   0.0830 
  4 C       -2.6070    -2.6970     0.8180 C.ar  1 <1>  -0.1500 
  5 O       -0.9340     0.3980    -0.3770 O.3   1 <1>  -0.3630 
  6 C       -2.4190    -1.0630    -1.4040 C.ar  1 <1>  -0.1500 
  7 C       -3.3470    -3.0330    -0.3170 C.ar  1 <1>   0.0860 
  8 C       -0.1120     0.8810     0.6620 C.3   1 <1>   0.0400 
  9 C       -3.2270    -2.1870    -1.4240 C.ar  1 <1>  -0.1500 
 10 C       -4.2000    -4.2090    -0.3320 C.2   1 <1>   0.5440 
 11 O       -4.2320    -4.9940     0.6010 O.2   1 <1>  -0.5700 
 12 N       -5.0490    -4.4840    -1.3760 N.am  1 <1>  -0.6600 
 13 C       -6.4750    -4.0570    -1.2160 C.3   1 <1>   0.1400 
 14 C       -4.9250    -5.8280    -2.0320 C.3   1 <1>   0.1400 
 15 C       -7.2790    -5.0680    -0.3500 C.3   1 <1>   0.4230 
 16 C       -5.9430    -6.8540    -1.4740 C.3   1 <1>   0.3430 
 17 N       -6.5400    -6.3760    -0.1810 N.4   1 <1>  -0.9590 
 18 C       -8.6970    -5.3040    -0.9200 C.3   1 <1>   0.1200 
 19 C       -7.3640    -7.3610     0.5790 C.3   1 <1>   0.5180 
 20 O       -9.3940    -6.2420    -0.1480 O.3   1 <1>  -0.5600 
 21 C       -6.6310    -8.7050     0.6620 C.3   1 <1>  -0.1950 
 22 C       -8.7770    -7.4980    -0.0290 C.3   1 <1>   0.1200 
 23 C       -6.6390    -9.4860     1.9400 C.3   1 <1>  -0.2000 
 24 C       -5.3670    -8.8560     1.4530 C.3   1 <1>  -0.2000 
 25 H       -2.6560    -3.3150     1.6970 H     1 <1>   0.1500 
 26 H       -2.3460    -0.4300    -2.2710 H     1 <1>   0.1500 
 27 H        0.3770     1.7730     0.3150 H     1 <1>   0.0800 
 28 H        0.6230     0.1340     0.9040 H     1 <1>   0.0800 
 29 H       -0.7250     1.1100     1.5160 H     1 <1>   0.0800 
 30 H       -3.7730    -2.4090    -2.3240 H     1 <1>   0.1500 
 31 H       -6.5160    -3.0850    -0.7530 H     1 <1>   0.0800 
 32 H       -6.9200    -3.9640    -2.1920 H     1 <1>   0.0800 
 33 H       -5.0570    -5.7250    -3.0960 H     1 <1>   0.0800 
 34 H       -3.9300    -6.2080    -1.8700 H     1 <1>   0.0800 
 35 H       -7.4030    -4.6240     0.6240 H     1 <1>   0.0800 
 36 H       -5.4350    -7.7920    -1.3290 H     1 <1>   0.0800 
 37 H       -6.7240    -7.0120    -2.1990 H     1 <1>   0.0800 
 38 H       -5.7120    -6.1320     0.4030 H     1 <1>   0.4500 
 39 H       -8.6590    -5.6570    -1.9350 H     1 <1>   0.0800 
 40 H       -9.2620    -4.3870    -0.8980 H     1 <1>   0.0800 
 41 H       -7.4830    -6.9930     1.5850 H     1 <1>   0.0800 
 42 H       -6.7350    -9.2930    -0.2340 H     1 <1>   0.1000 
 43 H       -9.3930    -8.1040     0.6130 H     1 <1>   0.0800 
 44 H       -8.7410    -7.9590    -1.0000 H     1 <1>   0.0800 
 45 H       -7.0950    -9.0770     2.8270 H     1 <1>   0.1000 
 46 H       -6.7220   -10.5600     1.9010 H     1 <1>   0.1000 
 47 H       -4.5890    -9.5060     1.0880 H     1 <1>   0.1000 
 48 H       -4.9700    -8.0230     2.0100 H     1 <1>   0.1000 
@<TRIPOS>BOND
  1   1   2  1   
  2   2   3  ar  
  3   2   4  ar  
  4   3   5  1   
  5   3   6  ar  
  6   4   7  ar  
  7   4  25  1   
  8   5   8  1   
  9   6   9  ar  
 10   6  26  1   
 11   7   9  ar  
 12   7  10  1   
 13   8  27  1   
 14   8  28  1   
 15   8  29  1   
 16   9  30  1   
 17  10  11  2   
 18  10  12  am  
 19  12  13  1   
 20  12  14  1   
 21  13  15  1   
 22  13  31  1   
 23  13  32  1   
 24  14  16  1   
 25  14  33  1   
 26  14  34  1   
 27  15  17  1   
 28  15  18  1   
 29  15  35  1   
 30  16  17  1   
 31  16  36  1   
 32  16  37  1   
 33  17  19  1   
 34  17  38  1   
 35  18  20  1   
 36  18  39  1   
 37  18  40  1   
 38  19  21  1   
 39  19  22  1   
 40  19  41  1   
 41  20  22  1   
 42  21  23  1   
 43  21  24  1   
 44  21  42  1   
 45  22  43  1   
 46  22  44  1   
 47  23  24  1   
 48  23  45  1   
 49  23  46  1   
 50  24  47  1   
 51  24  48  1   
@<TRIPOS>SUBSTRUCTURE
  1 ****  10 GROUP 4 **** **** 0

# MOE 2024.06 (io_trps.svl 2023.06)
