@<TRIPOS>MOLECULE
NONAME
52 55 1 0 0 
SMALL
USER_CHARGES


@<TRIPOS>ATOM
  1 O       -0.9970     0.9620    -1.7990 O.2   1 <1>  -0.5700 
  2 C       -0.6750     1.9370    -1.1690 C.2   1 <1>   0.5690 
  3 N       -1.5950     2.6510    -0.4860 N.am  1 <1>  -0.7300 
  4 C        0.7840     2.4020    -1.1720 C.3   1 <1>   0.1810 
  5 C       -1.2720     3.8610     0.3090 C.3   1 <1>   0.3640 
  6 O        1.0830     3.3140    -0.1350 O.3   1 <1>  -0.5600 
  7 C       -2.3070     4.9410     0.0000 C.ar  1 <1>  -0.1440 
  8 C        0.1570     4.3810     0.0080 C.3   1 <1>   0.2610 
  9 C       -2.8400     5.6970     1.0350 C.ar  1 <1>  -0.1500 
 10 C       -2.7210     5.1990    -1.3020 C.ar  1 <1>  -0.1500 
 11 C        0.6300     5.3800     1.0780 C.2   1 <1>   0.5690 
 12 C       -3.7670     6.6910     0.7770 C.ar  1 <1>  -0.1500 
 13 C       -3.6480     6.1940    -1.5610 C.ar  1 <1>  -0.1500 
 14 O        0.1410     5.3300     2.1870 O.2   1 <1>  -0.5700 
 15 N        1.5790     6.3260     0.7730 N.am  1 <1>  -0.6600 
 16 C       -4.1710     6.9410    -0.5210 C.ar  1 <1>  -0.1500 
 17 C        1.9540     7.3880     1.7630 C.3   1 <1>   0.1400 
 18 C        2.3530     6.3460    -0.5110 C.3   1 <1>   0.1400 
 19 C        2.3070     8.7130     1.0660 C.3   1 <1>   0.2090 
 20 C        3.6500     7.1680    -0.4150 C.3   1 <1>   0.2090 
 21 N        3.4040     8.5670     0.0530 N.pl3 1 <1>  -0.8380 
 22 C        4.5500     9.2870     0.3260 C.ar  1 <1>   0.4100 
 23 N        5.2320     8.8980     1.3980 N.ar  1 <1>  -0.6200 
 24 C        4.9360    10.3520    -0.4970 C.ar  1 <1>  -0.1430 
 25 C        6.3310     9.5810     1.6600 C.ar  1 <1>   0.1600 
 26 C        6.0870    11.0480    -0.2000 C.ar  1 <1>  -0.1500 
 27 C        4.1000    10.7470    -1.7080 C.3   1 <1>  -0.0970 
 28 C        6.7980    10.6440     0.9110 C.ar  1 <1>  -0.1500 
 29 H       -2.5680     2.3420    -0.4880 H     1 <1>   0.3700 
 30 H        1.0060     2.8740    -2.1110 H     1 <1>   0.0800 
 31 H        1.4280     1.5500    -1.0510 H     1 <1>   0.0800 
 32 H       -1.3390     3.5920     1.3490 H     1 <1>   0.0800 
 33 H        0.1250     4.9010    -0.9310 H     1 <1>   0.0800 
 34 H       -2.5300     5.5200     2.0530 H     1 <1>   0.1500 
 35 H       -2.3280     4.6270    -2.1240 H     1 <1>   0.1500 
 36 H       -4.1720     7.2710     1.5890 H     1 <1>   0.1500 
 37 H       -3.9640     6.3850    -2.5710 H     1 <1>   0.1500 
 38 H       -4.8930     7.7140    -0.7220 H     1 <1>   0.1500 
 39 H        1.1420     7.5590     2.4470 H     1 <1>   0.0800 
 40 H        2.8040     7.0570     2.3340 H     1 <1>   0.0800 
 41 H        2.6090     5.3400    -0.7940 H     1 <1>   0.0800 
 42 H        1.7380     6.7710    -1.2850 H     1 <1>   0.0800 
 43 H        2.5960     9.4320     1.8130 H     1 <1>   0.0800 
 44 H        1.4290     9.0920     0.5730 H     1 <1>   0.0800 
 45 H        4.1230     7.2040    -1.3800 H     1 <1>   0.0800 
 46 H        4.3260     6.6750     0.2630 H     1 <1>   0.0800 
 47 H        6.8940     9.2750     2.5250 H     1 <1>   0.1500 
 48 H        6.4250    11.8730    -0.8020 H     1 <1>   0.1500 
 49 H        4.5300    11.5880    -2.2210 H     1 <1>   0.0800 
 50 H        3.1060    11.0070    -1.3920 H     1 <1>   0.0800 
 51 H        4.0390     9.9200    -2.3910 H     1 <1>   0.0800 
 52 H        7.7040    11.1490     1.1910 H     1 <1>   0.1500 
@<TRIPOS>BOND
  1   1   2  2   
  2   2   3  am  
  3   2   4  1   
  4   3   5  1   
  5   3  29  1   
  6   4   6  1   
  7   4  30  1   
  8   4  31  1   
  9   5   7  1   
 10   5   8  1   
 11   5  32  1   
 12   6   8  1   
 13   7   9  ar  
 14   7  10  ar  
 15   8  11  1   
 16   8  33  1   
 17   9  12  ar  
 18   9  34  1   
 19  10  13  ar  
 20  10  35  1   
 21  11  14  2   
 22  11  15  am  
 23  12  16  ar  
 24  12  36  1   
 25  13  16  ar  
 26  13  37  1   
 27  15  17  1   
 28  15  18  1   
 29  16  38  1   
 30  17  19  1   
 31  17  39  1   
 32  17  40  1   
 33  18  20  1   
 34  18  41  1   
 35  18  42  1   
 36  19  21  1   
 37  19  43  1   
 38  19  44  1   
 39  20  21  1   
 40  20  45  1   
 41  20  46  1   
 42  21  22  1   
 43  22  23  ar  
 44  22  24  ar  
 45  23  25  ar  
 46  24  26  ar  
 47  24  27  1   
 48  25  28  ar  
 49  25  47  1   
 50  26  28  ar  
 51  26  48  1   
 52  27  49  1   
 53  27  50  1   
 54  27  51  1   
 55  28  52  1   
@<TRIPOS>SUBSTRUCTURE
  1 ****  15 GROUP 4 **** **** 0

# MOE 2024.06 (io_trps.svl 2023.06)
