@<TRIPOS>MOLECULE
NONAME
53 56 1 0 0 
SMALL
USER_CHARGES


@<TRIPOS>ATOM
  1 CL      -2.6360    -0.4550    -1.3420 Cl    1 <1>  -0.1770 
  2 C       -3.8910    -1.3080    -0.4790 C.ar  1 <1>   0.1770 
  3 C       -3.9390    -2.6880    -0.5390 C.ar  1 <1>  -0.1500 
  4 C       -4.8180    -0.5890     0.2530 C.ar  1 <1>  -0.1500 
  5 C       -4.9360    -3.3660     0.1430 C.ar  1 <1>  -0.1500 
  6 C       -5.8120    -1.2690     0.9340 C.ar  1 <1>  -0.1500 
  7 C       -5.8820    -2.6540     0.8800 C.ar  1 <1>   0.0830 
  8 O       -6.8990    -3.2320     1.5680 O.3   1 <1>  -0.3630 
  9 C       -6.9320    -4.6280     1.8490 C.3   1 <1>   0.1810 
 10 C       -7.4030    -5.4830     0.6700 C.2   1 <1>   0.5690 
 11 O       -6.6190    -6.3080     0.2560 O.2   1 <1>  -0.5700 
 12 N       -8.6630    -5.3620     0.1300 N.am  1 <1>  -0.6600 
 13 C       -9.6860    -4.3500     0.5520 C.3   1 <1>   0.1400 
 14 C       -9.1370    -6.2760    -0.9500 C.3   1 <1>   0.1400 
 15 C      -10.1560    -3.5010    -0.6450 C.3   1 <1>   0.1440 
 16 C       -9.6090    -5.4670    -2.1640 C.3   1 <1>  -0.1600 
 17 C      -11.2210    -2.5390    -0.1530 C.ar  1 <1>   0.1670 
 18 C      -10.6690    -4.4230    -1.7720 C.3   1 <1>  -0.1600 
 19 C       -9.0470    -2.5380    -1.1480 C.3   1 <1>  -0.1600 
 20 N      -12.4460    -2.8670     0.1750 N.ar  1 <1>  -0.6200 
 21 C      -10.7450    -1.2670    -0.0650 C.ar  1 <1>  -0.1440 
 22 C       -9.2970    -1.1770    -0.4780 C.3   1 <1>  -0.0170 
 23 C      -13.2130    -1.8580     0.5940 C.ar  1 <1>   0.7200 
 24 C      -11.6050    -0.2940     0.3760 C.ar  1 <1>   0.1600 
 25 N      -12.8420    -0.5780     0.7090 N.ar  1 <1>  -0.6200 
 26 N      -14.5120    -2.1680     0.9460 N.pl3 1 <1>  -0.8380 
 27 C      -15.3740    -1.2160     1.7010 C.3   1 <1>   0.1290 
 28 C      -15.1540    -3.4520     0.5550 C.3   1 <1>   0.1290 
 29 H       -3.2040    -3.2230    -1.1140 H     1 <1>   0.1500 
 30 H       -4.7550     0.4840     0.2870 H     1 <1>   0.1500 
 31 H       -4.9560    -4.4370     0.0800 H     1 <1>   0.1500 
 32 H       -6.5370    -0.7280     1.5140 H     1 <1>   0.1500 
 33 H       -7.6070    -4.7720     2.6710 H     1 <1>   0.0800 
 34 H       -5.9510    -4.9340     2.1630 H     1 <1>   0.0800 
 35 H       -9.3070    -3.7010     1.3190 H     1 <1>   0.0800 
 36 H      -10.5350    -4.8700     0.9620 H     1 <1>   0.0800 
 37 H       -9.9510    -6.8690    -0.5700 H     1 <1>   0.0800 
 38 H       -8.3530    -6.9490    -1.2530 H     1 <1>   0.0800 
 39 H      -10.0220    -6.1390    -2.8950 H     1 <1>   0.0800 
 40 H       -8.7580    -4.9840    -2.6110 H     1 <1>   0.0800 
 41 H      -10.9520    -3.8380    -2.6290 H     1 <1>   0.0800 
 42 H      -11.5510    -4.9350    -1.4270 H     1 <1>   0.0800 
 43 H       -9.1430    -2.4050    -2.2110 H     1 <1>   0.0800 
 44 H       -8.0570    -2.9070    -0.9480 H     1 <1>   0.0800 
 45 H       -9.1210    -0.3620    -1.1570 H     1 <1>   0.0800 
 46 H       -8.6830    -1.0680     0.3980 H     1 <1>   0.0800 
 47 H      -11.2750     0.7270     0.4610 H     1 <1>   0.1500 
 48 H      -14.7750    -0.5840     2.3330 H     1 <1>   0.0800 
 49 H      -16.0660    -1.7570     2.3220 H     1 <1>   0.0800 
 50 H      -15.9210    -0.6010     1.0080 H     1 <1>   0.0800 
 51 H      -14.7130    -3.8360    -0.3490 H     1 <1>   0.0800 
 52 H      -16.2050    -3.3030     0.3790 H     1 <1>   0.0800 
 53 H      -15.0230    -4.1740     1.3420 H     1 <1>   0.0800 
@<TRIPOS>BOND
  1   1   2  1   
  2   2   3  ar  
  3   2   4  ar  
  4   3   5  ar  
  5   3  29  1   
  6   4   6  ar  
  7   4  30  1   
  8   5   7  ar  
  9   5  31  1   
 10   6   7  ar  
 11   6  32  1   
 12   7   8  1   
 13   8   9  1   
 14   9  10  1   
 15   9  33  1   
 16   9  34  1   
 17  10  11  2   
 18  10  12  am  
 19  12  13  1   
 20  12  14  1   
 21  13  15  1   
 22  13  35  1   
 23  13  36  1   
 24  14  16  1   
 25  14  37  1   
 26  14  38  1   
 27  15  17  1   
 28  15  18  1   
 29  15  19  1   
 30  16  18  1   
 31  16  39  1   
 32  16  40  1   
 33  17  20  ar  
 34  17  21  ar  
 35  18  41  1   
 36  18  42  1   
 37  19  22  1   
 38  19  43  1   
 39  19  44  1   
 40  20  23  ar  
 41  21  22  1   
 42  21  24  ar  
 43  22  45  1   
 44  22  46  1   
 45  23  25  ar  
 46  23  26  1   
 47  24  25  ar  
 48  24  47  1   
 49  26  27  1   
 50  26  28  1   
 51  27  48  1   
 52  27  49  1   
 53  27  50  1   
 54  28  51  1   
 55  28  52  1   
 56  28  53  1   
@<TRIPOS>SUBSTRUCTURE
  1 ****  19 GROUP 4 **** **** 0

# MOE 2024.06 (io_trps.svl 2023.06)
