@<TRIPOS>MOLECULE
NONAME
30 29 1 0 0 
SMALL
USER_CHARGES


@<TRIPOS>ATOM
  1 O        0.2950    -1.0020    -1.2070 O.2   1 <1>  -0.5700 
  2 C        0.1510    -1.1390    -0.0100 C.2   1 <1>   0.7800 
  3 O       -1.0460    -1.2880     0.5520 O.3   1 <1>  -0.4300 
  4 N        1.1930    -1.1610     0.8490 N.am  1 <1>  -0.7300 
  5 C       -2.2940    -1.3170    -0.1070 C.3   1 <1>   0.2800 
  6 C        2.6250    -1.0280     0.4760 C.3   1 <1>   0.1400 
  7 C       -2.5550     0.0210    -0.8090 C.3   1 <1>  -0.2400 
  8 C       -3.3280    -1.5120     1.0040 C.3   1 <1>  -0.2400 
  9 C       -2.3590    -2.5070    -1.0710 C.3   1 <1>  -0.2400 
 10 C        3.3710    -2.3670     0.6010 C.3   1 <1>   0.1200 
 11 C        4.8250    -2.1470     0.3460 C.1   1 <1>  -0.2000 
 12 C        2.8370    -3.4240    -0.3750 C.3   1 <1>  -0.2400 
 13 C        5.9830    -1.9710     0.1420 C.1   1 <1>  -0.1770 
 14 H        0.9690    -1.2920     1.8340 H     1 <1>   0.3700 
 15 H        3.0840    -0.2980     1.1190 H     1 <1>   0.0800 
 16 H        2.7040    -0.6710    -0.5380 H     1 <1>   0.0800 
 17 H       -2.4320     0.8360    -0.1200 H     1 <1>   0.0800 
 18 H       -3.5590     0.0450    -1.1910 H     1 <1>   0.0800 
 19 H       -1.8900     0.1580    -1.6420 H     1 <1>   0.0800 
 20 H       -3.2800    -0.6980     1.7050 H     1 <1>   0.0800 
 21 H       -3.1460    -2.4350     1.5250 H     1 <1>   0.0800 
 22 H       -4.3190    -1.5460     0.5900 H     1 <1>   0.0800 
 23 H       -1.6940    -2.3690    -1.9030 H     1 <1>   0.0800 
 24 H       -3.3540    -2.6060    -1.4650 H     1 <1>   0.0800 
 25 H       -2.1020    -3.4170    -0.5600 H     1 <1>   0.0800 
 26 H        3.2660    -2.7290     1.6090 H     1 <1>   0.0800 
 27 H        2.9090    -3.0670    -1.3880 H     1 <1>   0.0800 
 28 H        1.8070    -3.6480    -0.1640 H     1 <1>   0.0800 
 29 H        3.4070    -4.3320    -0.2880 H     1 <1>   0.0800 
 30 H        7.0310    -1.8150    -0.0460 H     1 <1>   0.1770 
@<TRIPOS>BOND
  1   1   2  2   
  2   2   3  1   
  3   2   4  am  
  4   3   5  1   
  5   4   6  1   
  6   4  14  1   
  7   5   7  1   
  8   5   8  1   
  9   5   9  1   
 10   6  10  1   
 11   6  15  1   
 12   6  16  1   
 13   7  17  1   
 14   7  18  1   
 15   7  19  1   
 16   8  20  1   
 17   8  21  1   
 18   8  22  1   
 19   9  23  1   
 20   9  24  1   
 21   9  25  1   
 22  10  11  1   
 23  10  12  1   
 24  10  26  1   
 25  11  13  3   
 26  12  27  1   
 27  12  28  1   
 28  12  29  1   
 29  13  30  1   
@<TRIPOS>SUBSTRUCTURE
  1 ****   2 GROUP 4 **** **** 0

# MOE 2024.06 (io_trps.svl 2023.06)
