@<TRIPOS>MOLECULE
NONAME
51 53 1 0 0 
SMALL
USER_CHARGES


@<TRIPOS>ATOM
  1 O       -1.3310     1.4890    -2.6790 O.2   1 <1>  -0.5700 
  2 C       -1.3710     1.7210    -1.4840 C.2   1 <1>   0.5440 
  3 N       -2.1550     0.9150    -0.6850 N.am  1 <1>  -0.6600 
  4 C       -0.6650     2.8710    -0.9720 C.ar  1 <1>   0.0860 
  5 C       -2.8030    -0.3220    -1.2210 C.3   1 <1>   0.1400 
  6 C       -2.5660     1.2660     0.7020 C.3   1 <1>   0.1400 
  7 C        0.3720     2.7570    -0.0380 C.ar  1 <1>   0.3920 
  8 C       -0.9940     4.1460    -1.4100 C.ar  1 <1>  -0.1500 
  9 C       -4.2560    -0.0680    -1.6530 C.3   1 <1>   0.1400 
 10 C       -3.7430     2.2530     0.7040 C.3   1 <1>  -0.1600 
 11 O        0.7170     1.5190     0.3690 O.3   1 <1>  -0.3630 
 12 N        1.0430     3.7850     0.4820 N.ar  1 <1>  -0.6200 
 13 C       -0.3000     5.2140    -0.8870 C.ar  1 <1>  -0.1500 
 14 N       -5.0710     0.5640    -0.5660 N.am  1 <1>  -0.6600 
 15 C       -4.8010     2.0170    -0.3830 C.3   1 <1>   0.1400 
 16 C        1.7710     1.2950     1.2810 C.3   1 <1>   0.1200 
 17 C        0.6940     4.9810     0.0460 C.ar  1 <1>   0.1600 
 18 C       -6.0130    -0.1020     0.1970 C.2   1 <1>   0.7150 
 19 C        1.8740    -0.2080     1.5220 C.3   1 <1>  -0.2400 
 20 O       -6.7620     0.5650     0.8900 O.2   1 <1>  -0.5700 
 21 C       -6.1400    -1.5460     0.2100 C.2   1 <1>   0.0550 
 22 O       -5.0780    -2.3360     0.0970 O.3   1 <1>  -0.2800 
 23 C       -7.2350    -2.3250     0.3510 C.2   1 <1>   0.0460 
 24 C       -5.6160    -3.5350     0.1750 C.2   1 <1>   0.2980 
 25 N       -6.8840    -3.6050     0.3210 N.2   1 <1>  -0.5650 
 26 C       -8.6950    -1.9530     0.5230 C.3   1 <1>  -0.0590 
 27 C       -4.6950    -4.7290     0.0870 C.3   1 <1>  -0.0600 
 28 H       -2.7790    -1.0940    -0.4730 H     1 <1>   0.0800 
 29 H       -2.2450    -0.6850    -2.0680 H     1 <1>   0.0800 
 30 H       -1.7390     1.6810     1.2490 H     1 <1>   0.0800 
 31 H       -2.8650     0.3670     1.2150 H     1 <1>   0.0800 
 32 H       -1.7700     4.2830    -2.1440 H     1 <1>   0.1500 
 33 H       -4.7030    -0.9950    -1.9650 H     1 <1>   0.0800 
 34 H       -4.2480     0.5770    -2.5150 H     1 <1>   0.0800 
 35 H       -3.3620     3.2520     0.5980 H     1 <1>   0.0800 
 36 H       -4.2220     2.2050     1.6660 H     1 <1>   0.0800 
 37 H       -0.5230     6.2190    -1.1990 H     1 <1>   0.1500 
 38 H       -4.4520     2.4320    -1.3130 H     1 <1>   0.0800 
 39 H       -5.7100     2.5340    -0.1230 H     1 <1>   0.0800 
 40 H        1.5480     1.8180     2.1950 H     1 <1>   0.0800 
 41 H        2.6800     1.6810     0.8510 H     1 <1>   0.0800 
 42 H        1.2310     5.8240     0.4510 H     1 <1>   0.1500 
 43 H        0.9530    -0.5810     1.9330 H     1 <1>   0.0800 
 44 H        2.6690    -0.4110     2.2160 H     1 <1>   0.0800 
 45 H        2.0870    -0.7150     0.5980 H     1 <1>   0.0800 
 46 H       -8.8350    -0.8900     0.4630 H     1 <1>   0.0800 
 47 H       -9.0410    -2.2960     1.4800 H     1 <1>   0.0800 
 48 H       -9.2790    -2.4240    -0.2460 H     1 <1>   0.0800 
 49 H       -4.1780    -4.7180    -0.8540 H     1 <1>   0.0800 
 50 H       -5.2660    -5.6360     0.1650 H     1 <1>   0.0800 
 51 H       -3.9810    -4.6930     0.8870 H     1 <1>   0.0800 
@<TRIPOS>BOND
  1   1   2  2   
  2   2   3  am  
  3   2   4  1   
  4   3   5  1   
  5   3   6  1   
  6   4   7  ar  
  7   4   8  ar  
  8   5   9  1   
  9   5  28  1   
 10   5  29  1   
 11   6  10  1   
 12   6  30  1   
 13   6  31  1   
 14   7  11  1   
 15   7  12  ar  
 16   8  13  ar  
 17   8  32  1   
 18   9  14  1   
 19   9  33  1   
 20   9  34  1   
 21  10  15  1   
 22  10  35  1   
 23  10  36  1   
 24  11  16  1   
 25  12  17  ar  
 26  13  17  ar  
 27  13  37  1   
 28  14  15  1   
 29  14  18  am  
 30  15  38  1   
 31  15  39  1   
 32  16  19  1   
 33  16  40  1   
 34  16  41  1   
 35  17  42  1   
 36  18  20  2   
 37  18  21  1   
 38  19  43  1   
 39  19  44  1   
 40  19  45  1   
 41  21  22  1   
 42  21  23  2   
 43  22  24  1   
 44  23  25  1   
 45  23  26  1   
 46  24  25  2   
 47  24  27  1   
 48  26  46  1   
 49  26  47  1   
 50  26  48  1   
 51  27  49  1   
 52  27  50  1   
 53  27  51  1   
@<TRIPOS>SUBSTRUCTURE
  1 ****   3 GROUP 4 **** **** 0

# MOE 2024.06 (io_trps.svl 2023.06)
