@<TRIPOS>MOLECULE
NONAME
52 54 1 0 0 
SMALL
USER_CHARGES


@<TRIPOS>ATOM
  1 O        0.4270    -0.1230     0.9390 O.3   1 <1>  -0.5600 
  2 C        1.2620     0.6120     0.1080 C.3   1 <1>   0.1200 
  3 C        0.3110    -1.4630     0.5570 C.3   1 <1>   0.1200 
  4 C        2.6800     0.0260     0.1740 C.3   1 <1>   0.1900 
  5 C        1.6870    -2.1810     0.5440 C.3   1 <1>   0.1900 
  6 N        2.6870    -1.4020    -0.2490 N.3   1 <1>  -0.8100 
  7 C        3.6320     0.8670    -0.7000 C.3   1 <1>   0.3430 
  8 C        1.5410    -3.6080    -0.0300 C.3   1 <1>  -0.1600 
  9 C        4.0630    -1.9490    -0.1770 C.3   1 <1>   0.1100 
 10 N        5.0350     0.3230    -0.6860 N.4   1 <1>  -0.9590 
 11 C        0.4660    -4.4610     0.6670 C.3   1 <1>  -0.1600 
 12 C        5.0490    -1.1340    -1.0390 C.3   1 <1>   0.3430 
 13 C        5.9400     1.1220    -1.5420 C.3   1 <1>   0.5240 
 14 C        0.4940    -5.9040     0.1540 C.3   1 <1>  -0.2400 
 15 C        6.0550     2.4910    -0.9020 C.2   1 <1>  -0.1810 
 16 C        6.7400     2.8540     0.2170 C.2   1 <1>  -0.3320 
 17 C        5.4340     3.6430    -1.3900 C.2   1 <1>  -0.1500 
 18 N        6.5570     4.1890     0.4410 N.pl3 1 <1>   0.0480 
 19 C        7.6110     1.9860     1.1170 C.3   1 <1>  -0.0600 
 20 C        5.7530     4.6720    -0.5550 C.2   1 <1>  -0.1320 
 21 C        7.1470     5.0000     1.5340 C.3   1 <1>   0.0160 
 22 C        5.3560     6.0440    -0.6530 C.1   1 <1>   0.5370 
 23 N        5.0420     7.1380    -0.7060 N.1   1 <1>  -0.5570 
 24 H        0.8690     0.5820    -0.8950 H     1 <1>   0.0800 
 25 H        1.2510     1.6290     0.4600 H     1 <1>   0.0800 
 26 H       -0.3490    -1.9330     1.2640 H     1 <1>   0.0800 
 27 H       -0.1450    -1.5040    -0.4160 H     1 <1>   0.0800 
 28 H        3.0080     0.0980     1.1970 H     1 <1>   0.0800 
 29 H        2.0230    -2.2550     1.5650 H     1 <1>   0.0800 
 30 H        3.6320     1.8830    -0.3400 H     1 <1>   0.0800 
 31 H        3.2520     0.8700    -1.7080 H     1 <1>   0.0800 
 32 H        1.3090    -3.5430    -1.0790 H     1 <1>   0.0800 
 33 H        2.4700    -4.1340     0.0800 H     1 <1>   0.0800 
 34 H        4.3990    -1.9700     0.8460 H     1 <1>   0.0800 
 35 H        4.0780    -2.9560    -0.5510 H     1 <1>   0.0800 
 36 H        5.3860     0.4440     0.2710 H     1 <1>   0.4500 
 37 H        0.6340    -4.4640     1.7310 H     1 <1>   0.0800 
 38 H       -0.5150    -4.0580     0.4820 H     1 <1>   0.0800 
 39 H        4.7690    -1.2580    -2.0720 H     1 <1>   0.0800 
 40 H        6.0420    -1.5340    -0.9140 H     1 <1>   0.0800 
 41 H        6.9160     0.6670    -1.5830 H     1 <1>   0.0800 
 42 H        5.5490     1.2040    -2.5430 H     1 <1>   0.0800 
 43 H        1.4470    -6.3610     0.3570 H     1 <1>   0.0800 
 44 H        0.3140    -5.9310    -0.9060 H     1 <1>   0.0800 
 45 H       -0.2690    -6.4830     0.6440 H     1 <1>   0.0800 
 46 H        4.8200     3.7090    -2.2740 H     1 <1>   0.1500 
 47 H        7.6910     0.9840     0.7380 H     1 <1>   0.0800 
 48 H        7.2000     1.9460     2.1110 H     1 <1>   0.0800 
 49 H        8.6040     2.3980     1.1740 H     1 <1>   0.0800 
 50 H        7.4450     4.3670     2.3490 H     1 <1>   0.0800 
 51 H        6.4230     5.7080     1.8930 H     1 <1>   0.0800 
 52 H        8.0060     5.5270     1.1590 H     1 <1>   0.0800 
@<TRIPOS>BOND
  1   1   2  1   
  2   1   3  1   
  3   2   4  1   
  4   2  24  1   
  5   2  25  1   
  6   3   5  1   
  7   3  26  1   
  8   3  27  1   
  9   4   6  1   
 10   4   7  1   
 11   4  28  1   
 12   5   6  1   
 13   5   8  1   
 14   5  29  1   
 15   6   9  1   
 16   7  10  1   
 17   7  30  1   
 18   7  31  1   
 19   8  11  1   
 20   8  32  1   
 21   8  33  1   
 22   9  12  1   
 23   9  34  1   
 24   9  35  1   
 25  10  12  1   
 26  10  13  1   
 27  10  36  1   
 28  11  14  1   
 29  11  37  1   
 30  11  38  1   
 31  12  39  1   
 32  12  40  1   
 33  13  15  1   
 34  13  41  1   
 35  13  42  1   
 36  14  43  1   
 37  14  44  1   
 38  14  45  1   
 39  15  16  2   
 40  15  17  1   
 41  16  18  1   
 42  16  19  1   
 43  17  20  2   
 44  17  46  1   
 45  18  20  1   
 46  18  21  1   
 47  19  47  1   
 48  19  48  1   
 49  19  49  1   
 50  20  22  1   
 51  21  50  1   
 52  21  51  1   
 53  21  52  1   
 54  22  23  3   
@<TRIPOS>SUBSTRUCTURE
  1 ****   7 GROUP 4 **** **** 0

# MOE 2024.06 (io_trps.svl 2023.06)
