@<TRIPOS>MOLECULE
NONAME
50 52 1 0 0 
SMALL
USER_CHARGES


@<TRIPOS>ATOM
  1 O        0.8200    -0.3560     0.1250 O.2   1 <1>  -0.5700 
  2 C        1.7600    -0.7450     0.7750 C.2   1 <1>   0.5690 
  3 N        2.7340     0.1080     1.1880 N.am  1 <1>  -0.7300 
  4 C        1.8930    -2.2240     1.1360 C.3   1 <1>  -0.0190 
  5 C        2.7320     1.5660     0.9210 C.3   1 <1>   0.1400 
  6 C        2.8310    -2.9480     0.1530 C.3   1 <1>  -0.1600 
  7 C        0.5320    -2.9490     1.1940 C.3   1 <1>  -0.1600 
  8 C        3.2360     1.8390    -0.4960 C.3   1 <1>  -0.0170 
  9 C        2.9660    -4.4360     0.4880 C.3   1 <1>   0.1400 
 10 C        0.6960    -4.4360     1.5170 C.3   1 <1>   0.1400 
 11 C        3.2250     3.3290    -0.7760 C.ar  1 <1>   0.1660 
 12 N        1.6140    -5.0600     0.5230 N.am  1 <1>  -0.6600 
 13 N        4.1510     4.0480    -0.1610 N.ar  1 <1>  -0.6200 
 14 C        2.2720     3.8720    -1.6370 C.ar  1 <1>   0.1600 
 15 C        1.2910    -6.0860    -0.3380 C.2   1 <1>   0.5690 
 16 C        4.0640     5.3320    -0.4670 C.ar  1 <1>   0.1600 
 17 N        2.1850     5.1570    -1.9420 N.ar  1 <1>  -0.6200 
 18 O        2.1130    -6.5370    -1.1030 O.2   1 <1>  -0.5700 
 19 C       -0.1230    -6.6910    -0.3590 C.3   1 <1>  -0.0190 
 20 C        3.1140     5.8680    -1.3280 C.ar  1 <1>   0.1600 
 21 C       -0.2630    -8.0330    -1.0860 C.3   1 <1>  -0.1600 
 22 C       -1.1550    -5.8120    -1.0730 C.3   1 <1>  -0.1600 
 23 C       -1.7620    -8.1760    -1.3490 C.3   1 <1>  -0.1600 
 24 C       -2.3100    -6.7480    -1.4470 C.3   1 <1>  -0.1600 
 25 H        3.5410    -0.2480     1.7030 H     1 <1>   0.3700 
 26 H        2.3290    -2.2770     2.1170 H     1 <1>   0.0800 
 27 H        3.3590     2.0660     1.6400 H     1 <1>   0.0800 
 28 H        1.7290     1.9450     1.0250 H     1 <1>   0.0800 
 29 H        3.8060    -2.4940     0.1730 H     1 <1>   0.0800 
 30 H        2.4490    -2.8530    -0.8490 H     1 <1>   0.0800 
 31 H        0.0290    -2.8560     0.2460 H     1 <1>   0.0800 
 32 H       -0.0910    -2.4870     1.9380 H     1 <1>   0.0800 
 33 H        2.6090     1.3270    -1.2030 H     1 <1>   0.0800 
 34 H        4.2420     1.4730    -0.6010 H     1 <1>   0.0800 
 35 H        3.4340    -4.5600     1.4490 H     1 <1>   0.0800 
 36 H        3.5920    -4.9120    -0.2470 H     1 <1>   0.0800 
 37 H       -0.2690    -4.9060     1.5190 H     1 <1>   0.0800 
 38 H        1.1180    -4.5510     2.5010 H     1 <1>   0.0800 
 39 H        1.5500     3.2170    -2.0920 H     1 <1>   0.1500 
 40 H        4.7810     5.9940    -0.0130 H     1 <1>   0.1500 
 41 H       -0.4410    -6.8570     0.6530 H     1 <1>   0.0800 
 42 H        3.1250     6.9270    -1.5140 H     1 <1>   0.1500 
 43 H        0.1310    -8.8490    -0.5070 H     1 <1>   0.0800 
 44 H        0.2540    -7.9930    -2.0310 H     1 <1>   0.0800 
 45 H       -0.7140    -5.4170    -1.9730 H     1 <1>   0.0800 
 46 H       -1.4880    -4.9920    -0.4630 H     1 <1>   0.0800 
 47 H       -2.2260    -8.6820    -0.5190 H     1 <1>   0.0800 
 48 H       -1.9480    -8.7380    -2.2480 H     1 <1>   0.0800 
 49 H       -2.6550    -6.5350    -2.4450 H     1 <1>   0.0800 
 50 H       -3.1310    -6.6230    -0.7620 H     1 <1>   0.0800 
@<TRIPOS>BOND
  1   1   2  2   
  2   2   3  am  
  3   2   4  1   
  4   3   5  1   
  5   3  25  1   
  6   4   6  1   
  7   4   7  1   
  8   4  26  1   
  9   5   8  1   
 10   5  27  1   
 11   5  28  1   
 12   6   9  1   
 13   6  29  1   
 14   6  30  1   
 15   7  10  1   
 16   7  31  1   
 17   7  32  1   
 18   8  11  1   
 19   8  33  1   
 20   8  34  1   
 21   9  12  1   
 22   9  35  1   
 23   9  36  1   
 24  10  12  1   
 25  10  37  1   
 26  10  38  1   
 27  11  13  ar  
 28  11  14  ar  
 29  12  15  am  
 30  13  16  ar  
 31  14  17  ar  
 32  14  39  1   
 33  15  18  2   
 34  15  19  1   
 35  16  20  ar  
 36  16  40  1   
 37  17  20  ar  
 38  19  21  1   
 39  19  22  1   
 40  19  41  1   
 41  20  42  1   
 42  21  23  1   
 43  21  43  1   
 44  21  44  1   
 45  22  24  1   
 46  22  45  1   
 47  22  46  1   
 48  23  24  1   
 49  23  47  1   
 50  23  48  1   
 51  24  49  1   
 52  24  50  1   
@<TRIPOS>SUBSTRUCTURE
  1 ****   2 GROUP 4 **** **** 0

# MOE 2024.06 (io_trps.svl 2023.06)
