@<TRIPOS>MOLECULE
NONAME
54 55 1 0 0 
SMALL
USER_CHARGES


@<TRIPOS>ATOM
  1 F        1.2330     1.1430     1.1230 F     1 <1>  -0.1900 
  2 C        2.4790     1.5250     1.1890 C.ar  1 <1>   0.1900 
  3 C        2.9200     2.4960     0.3150 C.ar  1 <1>  -0.1500 
  4 C        3.3030     0.9440     2.1310 C.ar  1 <1>  -0.1500 
  5 C        4.2450     2.9290     0.3720 C.ar  1 <1>   0.0860 
  6 C        4.6250     1.3510     2.1950 C.ar  1 <1>  -0.1440 
  7 C        4.7460     3.9620    -0.5200 C.2   1 <1>   0.5440 
  8 C        5.0780     2.3290     1.3220 C.ar  1 <1>  -0.1500 
  9 C        5.5620     0.7270     3.2140 C.3   1 <1>  -0.0960 
 10 O        5.9320     4.0530    -0.7810 O.2   1 <1>  -0.5700 
 11 N        3.9270     4.9320    -1.0510 N.am  1 <1>  -0.6600 
 12 C        4.1410     5.4370    -2.4480 C.3   1 <1>   0.1400 
 13 C        3.1540     5.8310    -0.1580 C.3   1 <1>   0.1400 
 14 C        5.3230     6.4250    -2.5790 C.3   1 <1>   0.3430 
 15 C        4.0900     6.8570     0.4950 C.3   1 <1>  -0.1600 
 16 N        5.8620     6.8490    -1.2500 N.4   1 <1>  -0.9590 
 17 C        4.9120     7.7040    -0.4830 C.3   1 <1>   0.3430 
 18 C        7.2320     7.4080    -1.3610 C.3   1 <1>   0.3430 
 19 C        7.9500     7.2880    -0.0160 C.3   1 <1>  -0.1600 
 20 C        9.3990     7.7820    -0.1240 C.3   1 <1>  -0.1600 
 21 C       10.1290     7.6540     1.2190 C.3   1 <1>  -0.1600 
 22 C       11.5770     8.1510     1.1110 C.3   1 <1>  -0.1600 
 23 C       12.3030     8.0310     2.4510 C.3   1 <1>   0.1200 
 24 O       13.5850     8.5210     2.2950 O.3   1 <1>  -0.6800 
 25 H        2.2360     2.9050    -0.4050 H     1 <1>   0.1500 
 26 H        2.9140     0.1910     2.7930 H     1 <1>   0.1500 
 27 H        6.1080     2.6400     1.3710 H     1 <1>   0.1500 
 28 H        5.3710    -0.3280     3.2980 H     1 <1>   0.0800 
 29 H        5.4140     1.1830     4.1760 H     1 <1>   0.0800 
 30 H        6.5890     0.8600     2.9220 H     1 <1>   0.0800 
 31 H        3.2410     5.9070    -2.8020 H     1 <1>   0.0800 
 32 H        4.3280     4.5960    -3.0950 H     1 <1>   0.0800 
 33 H        2.6700     5.2510     0.6110 H     1 <1>   0.0800 
 34 H        2.3840     6.3300    -0.7220 H     1 <1>   0.0800 
 35 H        5.0210     7.2830    -3.1560 H     1 <1>   0.0800 
 36 H        6.1030     5.9230    -3.1270 H     1 <1>   0.0800 
 37 H        4.7510     6.3590     1.1830 H     1 <1>   0.0800 
 38 H        3.4840     7.5240     1.0820 H     1 <1>   0.0800 
 39 H        5.9430     5.9390    -0.7470 H     1 <1>   0.4500 
 40 H        5.4620     8.4390     0.0810 H     1 <1>   0.0800 
 41 H        4.2570     8.2290    -1.1590 H     1 <1>   0.0800 
 42 H        7.1930     8.4390    -1.6740 H     1 <1>   0.0800 
 43 H        7.7900     6.8500    -2.0950 H     1 <1>   0.0800 
 44 H        7.9560     6.2560     0.2910 H     1 <1>   0.0800 
 45 H        7.4420     7.8700     0.7320 H     1 <1>   0.0800 
 46 H        9.4100     8.8140    -0.4350 H     1 <1>   0.0800 
 47 H        9.9240     7.2040    -0.8670 H     1 <1>   0.0800 
 48 H       10.1300     6.6230     1.5330 H     1 <1>   0.0800 
 49 H        9.6120     8.2310     1.9680 H     1 <1>   0.0800 
 50 H       11.5770     9.1850     0.8070 H     1 <1>   0.0800 
 51 H       12.0980     7.5710     0.3700 H     1 <1>   0.0800 
 52 H       12.3670     7.0060     2.7750 H     1 <1>   0.0800 
 53 H       11.8150     8.6190     3.2100 H     1 <1>   0.0800 
 54 H       14.0660     8.0130     1.6140 H     1 <1>   0.4000 
@<TRIPOS>BOND
  1   1   2  1   
  2   2   3  ar  
  3   2   4  ar  
  4   3   5  ar  
  5   3  25  1   
  6   4   6  ar  
  7   4  26  1   
  8   5   7  1   
  9   5   8  ar  
 10   6   8  ar  
 11   6   9  1   
 12   7  10  2   
 13   7  11  am  
 14   8  27  1   
 15   9  28  1   
 16   9  29  1   
 17   9  30  1   
 18  11  12  1   
 19  11  13  1   
 20  12  14  1   
 21  12  31  1   
 22  12  32  1   
 23  13  15  1   
 24  13  33  1   
 25  13  34  1   
 26  14  16  1   
 27  14  35  1   
 28  14  36  1   
 29  15  17  1   
 30  15  37  1   
 31  15  38  1   
 32  16  17  1   
 33  16  18  1   
 34  16  39  1   
 35  17  40  1   
 36  17  41  1   
 37  18  19  1   
 38  18  42  1   
 39  18  43  1   
 40  19  20  1   
 41  19  44  1   
 42  19  45  1   
 43  20  21  1   
 44  20  46  1   
 45  20  47  1   
 46  21  22  1   
 47  21  48  1   
 48  21  49  1   
 49  22  23  1   
 50  22  50  1   
 51  22  51  1   
 52  23  24  1   
 53  23  52  1   
 54  23  53  1   
 55  24  54  1   
@<TRIPOS>SUBSTRUCTURE
  1 ****  10 GROUP 4 **** **** 0

# MOE 2024.06 (io_trps.svl 2023.06)
