@<TRIPOS>MOLECULE
NONAME
31 33 1 0 0 
SMALL
USER_CHARGES


@<TRIPOS>ATOM
  1 F       -1.1200     0.0130     1.1730 F     1 <1>  -0.1900 
  2 C       -2.0140     0.6050     0.4280 C.ar  1 <1>   0.1900 
  3 C       -2.9040    -0.1620    -0.3190 C.ar  1 <1>   0.0860 
  4 C       -2.0300     1.9880     0.4310 C.ar  1 <1>  -0.1500 
  5 C       -2.8760    -1.6060    -0.3180 C.2   1 <1>   0.5440 
  6 C       -3.8400     0.5370    -1.0830 C.ar  1 <1>  -0.1500 
  7 C       -2.9700     2.6510    -0.3380 C.ar  1 <1>  -0.1500 
  8 O       -1.9670    -2.1840    -0.8870 O.2   1 <1>  -0.5700 
  9 N       -3.8730    -2.3330     0.2770 N.am  1 <1>  -0.6600 
 10 C       -3.8760     1.9220    -1.0930 C.ar  1 <1>  -0.1500 
 11 C       -5.0500    -1.7680     0.9990 C.3   1 <1>   0.2350 
 12 C       -4.1710    -3.7490    -0.0860 C.3   1 <1>   0.2350 
 13 C       -6.2360    -2.5750     0.5100 C.3   1 <1>  -0.2420 
 14 C       -5.6900    -3.8230    -0.1430 C.3   1 <1>  -0.2420 
 15 C       -7.4530    -2.3080     1.3980 C.2   1 <1>   0.9470 
 16 C       -6.4670    -2.8220    -0.9610 C.3   1 <1>  -0.2000 
 17 C       -6.1700    -5.2750    -0.0890 C.2   1 <1>   0.9470 
 18 O       -7.3260    -2.3930     2.6270 O.co2 1 <1>  -0.9000 
 19 O       -8.4800    -1.8330     0.8930 O.co2 1 <1>  -0.9000 
 20 O       -6.8680    -5.7210    -1.0100 O.co2 1 <1>  -0.9000 
 21 O       -5.7270    -6.0210     0.7950 O.co2 1 <1>  -0.9000 
 22 H       -1.3180     2.5310     1.0260 H     1 <1>   0.1500 
 23 H       -4.5490    -0.0250    -1.6690 H     1 <1>   0.1500 
 24 H       -3.0010     3.7270    -0.3480 H     1 <1>   0.1500 
 25 H       -4.6130     2.4320    -1.6890 H     1 <1>   0.1500 
 26 H       -4.9190    -1.9190     2.0580 H     1 <1>   0.0800 
 27 H       -5.2020    -0.7230     0.8030 H     1 <1>   0.0800 
 28 H       -3.7380    -4.0150    -1.0340 H     1 <1>   0.0800 
 29 H       -3.7920    -4.4010     0.6820 H     1 <1>   0.0800 
 30 H       -5.9540    -2.2290    -1.6930 H     1 <1>   0.1000 
 31 H       -7.4600    -3.0980    -1.2750 H     1 <1>   0.1000 
@<TRIPOS>BOND
  1   1   2  1   
  2   2   3  ar  
  3   2   4  ar  
  4   3   5  1   
  5   3   6  ar  
  6   4   7  ar  
  7   4  22  1   
  8   5   8  2   
  9   5   9  am  
 10   6  10  ar  
 11   6  23  1   
 12   7  10  ar  
 13   7  24  1   
 14   9  11  1   
 15   9  12  1   
 16  10  25  1   
 17  11  13  1   
 18  11  26  1   
 19  11  27  1   
 20  12  14  1   
 21  12  28  1   
 22  12  29  1   
 23  13  14  1   
 24  13  15  1   
 25  13  16  1   
 26  14  16  1   
 27  14  17  1   
 28  15  18  ar  
 29  15  19  ar  
 30  16  30  1   
 31  16  31  1   
 32  17  20  ar  
 33  17  21  ar  
@<TRIPOS>SUBSTRUCTURE
  1 ****  11 GROUP 4 **** **** 0

# MOE 2024.06 (io_trps.svl 2023.06)
