@<TRIPOS>MOLECULE
NONAME
41 43 1 0 0 
SMALL
USER_CHARGES


@<TRIPOS>ATOM
  1 S       -0.3240     0.0580    -0.3300 S.3   1 <1>  -0.0800 
  2 C       -1.4830    -0.7990     0.6310 C.2   1 <1>   0.4420 
  3 C       -0.6660     1.4540     0.6340 C.2   1 <1>   0.1980 
  4 N       -2.0170    -0.0520     1.5270 N.2   1 <1>  -0.3380 
  5 N       -1.6720    -2.1280     0.3190 N.am  1 <1>  -0.4940 
  6 N       -1.5460     1.2320     1.5240 N.2   1 <1>  -0.3380 
  7 C        0.0820     2.7390     0.3350 C.3   1 <1>   0.1640 
  8 C       -2.5210    -3.0410     0.8760 C.2   1 <1>   0.5690 
  9 C        1.5880     2.5390     0.4410 C.ar  1 <1>  -0.1440 
 10 O       -3.2900    -2.7850     1.7650 O.2   1 <1>  -0.5700 
 11 C       -2.4910    -4.4680     0.3330 C.3   1 <1>  -0.0190 
 12 C        2.4010     2.6550    -0.6770 C.ar  1 <1>  -0.1500 
 13 C        2.1570     2.2310     1.6670 C.ar  1 <1>  -0.1500 
 14 C       -1.1220    -5.1420     0.5440 C.3   1 <1>  -0.1600 
 15 C       -2.8910    -4.5350    -1.1530 C.3   1 <1>  -0.1600 
 16 C        3.7700     2.4650    -0.5770 C.ar  1 <1>  -0.1430 
 17 C        3.5230     2.0420     1.7730 C.ar  1 <1>  -0.1500 
 18 C       -1.0890    -6.5230    -0.1160 C.3   1 <1>   0.1200 
 19 C       -2.7340    -5.9590    -1.6940 C.3   1 <1>   0.1200 
 20 C        4.3270     2.1600     0.6530 C.ar  1 <1>  -0.1500 
 21 C        4.6580     2.5940    -1.8020 C.3   1 <1>  -0.0970 
 22 O       -1.4290    -6.3880    -1.4610 O.3   1 <1>  -0.5600 
 23 H       -1.0840    -2.4800    -0.4300 H     1 <1>   0.3700 
 24 H       -0.2250     3.4940     1.0350 H     1 <1>   0.0800 
 25 H       -0.1850     3.0750    -0.6500 H     1 <1>   0.0800 
 26 H       -3.2180    -5.0340     0.8890 H     1 <1>   0.0800 
 27 H        1.9710     2.8940    -1.6340 H     1 <1>   0.1500 
 28 H        1.5390     2.1330     2.5440 H     1 <1>   0.1500 
 29 H       -0.9260    -5.2450     1.5980 H     1 <1>   0.0800 
 30 H       -0.3320    -4.5490     0.1190 H     1 <1>   0.0800 
 31 H       -2.2760    -3.8820    -1.7460 H     1 <1>   0.0800 
 32 H       -3.9140    -4.2200    -1.2680 H     1 <1>   0.0800 
 33 H        3.9610     1.8040     2.7260 H     1 <1>   0.1500 
 34 H       -1.7830    -7.2020     0.3500 H     1 <1>   0.0800 
 35 H       -0.1000    -6.9450    -0.0670 H     1 <1>   0.0800 
 36 H       -2.9040    -5.9830    -2.7560 H     1 <1>   0.0800 
 37 H       -3.4150    -6.6430    -1.2140 H     1 <1>   0.0800 
 38 H        5.3890     2.0130     0.7440 H     1 <1>   0.1500 
 39 H        4.0920     2.4310    -2.7010 H     1 <1>   0.0800 
 40 H        5.4510     1.8700    -1.7640 H     1 <1>   0.0800 
 41 H        5.0880     3.5790    -1.8360 H     1 <1>   0.0800 
@<TRIPOS>BOND
  1   1   2  1   
  2   1   3  1   
  3   2   4  2   
  4   2   5  1   
  5   3   6  2   
  6   3   7  1   
  7   4   6  1   
  8   5   8  am  
  9   5  23  1   
 10   7   9  1   
 11   7  24  1   
 12   7  25  1   
 13   8  10  2   
 14   8  11  1   
 15   9  12  ar  
 16   9  13  ar  
 17  11  14  1   
 18  11  15  1   
 19  11  26  1   
 20  12  16  ar  
 21  12  27  1   
 22  13  17  ar  
 23  13  28  1   
 24  14  18  1   
 25  14  29  1   
 26  14  30  1   
 27  15  19  1   
 28  15  31  1   
 29  15  32  1   
 30  16  20  ar  
 31  16  21  1   
 32  17  20  ar  
 33  17  33  1   
 34  18  22  1   
 35  18  34  1   
 36  18  35  1   
 37  19  22  1   
 38  19  36  1   
 39  19  37  1   
 40  20  38  1   
 41  21  39  1   
 42  21  40  1   
 43  21  41  1   
@<TRIPOS>SUBSTRUCTURE
  1 ****   1 GROUP 4 **** **** 0

# MOE 2024.06 (io_trps.svl 2023.06)
