@<TRIPOS>MOLECULE
NONAME
46 47 1 0 0 
SMALL
USER_CHARGES


@<TRIPOS>ATOM
  1 S        0.0400     0.2950    -0.2430 S.3   1 <1>  -0.4600 
  2 C        1.7170     0.2300     0.4440 C.3   1 <1>   0.2510 
  3 C       -0.7790    -1.1290     0.5180 C.3   1 <1>   0.0700 
  4 C        2.4930     1.4250    -0.0780 C.2   1 <1>  -0.1810 
  5 C       -2.2160    -1.1730    -0.0010 C.3   1 <1>  -0.1600 
  6 C        3.5650     1.4720    -0.9010 C.2   1 <1>  -0.0400 
  7 C        2.2030     2.7550     0.2320 C.2   1 <1>  -0.1500 
  8 C       -2.9870    -2.3560     0.5980 C.3   1 <1>  -0.1600 
  9 O        3.9340     2.7170    -1.0960 O.3   1 <1>  -0.2800 
 10 C        4.3510     0.3790    -1.5920 C.3   1 <1>  -0.0600 
 11 C        3.1190     3.5230    -0.4180 C.2   1 <1>   0.0550 
 12 C       -4.4250    -2.3960     0.0760 C.3   1 <1>  -0.2400 
 13 C        3.2920     4.9550    -0.4550 C.2   1 <1>   0.7150 
 14 O        2.5980     5.6990     0.2160 O.2   1 <1>  -0.5700 
 15 N        4.2640     5.5000    -1.2430 N.am  1 <1>  -0.7300 
 16 C        4.5640     6.9500    -1.3840 C.3   1 <1>   0.1400 
 17 C        5.2420     7.5180    -0.1280 C.3   1 <1>   0.2000 
 18 O        5.6990     8.8030    -0.3930 O.3   1 <1>  -0.5600 
 19 C        6.4920     6.7720     0.3250 C.3   1 <1>  -0.1600 
 20 C        6.6670     9.1610     0.5400 C.3   1 <1>   0.1200 
 21 C        7.3130     7.8570     1.0050 C.3   1 <1>  -0.1600 
 22 H        1.6300     0.2620     1.5150 H     1 <1>   0.0800 
 23 H        2.1550    -0.7000     0.1320 H     1 <1>   0.0800 
 24 H       -0.2290    -2.0100     0.2350 H     1 <1>   0.0800 
 25 H       -0.7470    -0.9900     1.5840 H     1 <1>   0.0800 
 26 H       -2.7110    -0.2520     0.2570 H     1 <1>   0.0800 
 27 H       -2.2010    -1.2580    -1.0740 H     1 <1>   0.0800 
 28 H        1.3990     3.0960     0.8610 H     1 <1>   0.1500 
 29 H       -2.4920    -3.2780     0.3410 H     1 <1>   0.0800 
 30 H       -3.0030    -2.2720     1.6720 H     1 <1>   0.0800 
 31 H        3.9410    -0.5880    -1.3690 H     1 <1>   0.0800 
 32 H        5.3750     0.4090    -1.2680 H     1 <1>   0.0800 
 33 H        4.3190     0.5310    -2.6560 H     1 <1>   0.0800 
 34 H       -4.4340    -2.5010    -0.9950 H     1 <1>   0.0800 
 35 H       -4.9460    -1.4920     0.3400 H     1 <1>   0.0800 
 36 H       -4.9510    -3.2310     0.5060 H     1 <1>   0.0800 
 37 H        4.8410     4.8470    -1.7770 H     1 <1>   0.3700 
 38 H        5.2090     7.0940    -2.2330 H     1 <1>   0.0800 
 39 H        3.6450     7.4850    -1.5530 H     1 <1>   0.0800 
 40 H        4.5300     7.5870     0.6770 H     1 <1>   0.0800 
 41 H        6.2480     5.9590     0.9850 H     1 <1>   0.0800 
 42 H        7.0200     6.3910    -0.5320 H     1 <1>   0.0800 
 43 H        7.3730     9.8210     0.0660 H     1 <1>   0.0800 
 44 H        6.1760     9.6660     1.3540 H     1 <1>   0.0800 
 45 H        8.3470     7.8110     0.7130 H     1 <1>   0.0800 
 46 H        7.2460     7.7820     2.0760 H     1 <1>   0.0800 
@<TRIPOS>BOND
  1   1   2  1   
  2   1   3  1   
  3   2   4  1   
  4   2  22  1   
  5   2  23  1   
  6   3   5  1   
  7   3  24  1   
  8   3  25  1   
  9   4   6  2   
 10   4   7  1   
 11   5   8  1   
 12   5  26  1   
 13   5  27  1   
 14   6   9  1   
 15   6  10  1   
 16   7  11  2   
 17   7  28  1   
 18   8  12  1   
 19   8  29  1   
 20   8  30  1   
 21   9  11  1   
 22  10  31  1   
 23  10  32  1   
 24  10  33  1   
 25  11  13  1   
 26  12  34  1   
 27  12  35  1   
 28  12  36  1   
 29  13  14  2   
 30  13  15  am  
 31  15  16  1   
 32  15  37  1   
 33  16  17  1   
 34  16  38  1   
 35  16  39  1   
 36  17  18  1   
 37  17  19  1   
 38  17  40  1   
 39  18  20  1   
 40  19  21  1   
 41  19  41  1   
 42  19  42  1   
 43  20  21  1   
 44  20  43  1   
 45  20  44  1   
 46  21  45  1   
 47  21  46  1   
@<TRIPOS>SUBSTRUCTURE
  1 ****  11 GROUP 4 **** **** 0

# MOE 2024.06 (io_trps.svl 2023.06)
