@<TRIPOS>MOLECULE
NONAME
20 20 1 0 0 
SMALL
USER_CHARGES


@<TRIPOS>ATOM
  1 F       -0.5650    -1.0670     1.4860 F     1 <1>  -0.3400 
  2 C       -0.8020    -1.2600     0.1960 C.3   1 <1>   0.6800 
  3 F       -0.8920    -0.0430    -0.3190 F     1 <1>  -0.3400 
  4 C        0.3870    -1.9970    -0.4300 C.3   1 <1>  -0.1600 
  5 C       -2.1400    -1.9880     0.0320 C.3   1 <1>  -0.1600 
  6 C        0.4540    -3.4660     0.0360 C.3   1 <1>  -0.1600 
  7 C       -2.0470    -3.4570     0.4940 C.3   1 <1>  -0.1600 
  8 C       -0.8820    -4.1970    -0.1880 C.3   1 <1>   0.1200 
  9 C       -0.7920    -5.5920     0.3320 C.1   1 <1>  -0.2000 
 10 C       -0.7200    -6.7040     0.7470 C.1   1 <1>  -0.1770 
 11 H        1.2980    -1.4850    -0.1780 H     1 <1>   0.0800 
 12 H        0.2710    -1.9820    -1.4980 H     1 <1>   0.0800 
 13 H       -2.4100    -1.9720    -1.0080 H     1 <1>   0.0800 
 14 H       -2.9000    -1.4700     0.5890 H     1 <1>   0.0800 
 15 H        0.6990    -3.4930     1.0850 H     1 <1>   0.0800 
 16 H        1.2380    -3.9770    -0.4950 H     1 <1>   0.0800 
 17 H       -2.9720    -3.9620     0.2750 H     1 <1>   0.0800 
 18 H       -1.9050    -3.4830     1.5620 H     1 <1>   0.0800 
 19 H       -1.0760    -4.2510    -1.2460 H     1 <1>   0.0800 
 20 H       -0.6540    -7.7100     1.1240 H     1 <1>   0.1770 
@<TRIPOS>BOND
  1   1   2  1   
  2   2   3  1   
  3   2   4  1   
  4   2   5  1   
  5   4   6  1   
  6   4  11  1   
  7   4  12  1   
  8   5   7  1   
  9   5  13  1   
 10   5  14  1   
 11   6   8  1   
 12   6  15  1   
 13   6  16  1   
 14   7   8  1   
 15   7  17  1   
 16   7  18  1   
 17   8   9  1   
 18   8  19  1   
 19   9  10  3   
 20  10  20  1   
@<TRIPOS>SUBSTRUCTURE
  1 ****   8 GROUP 4 **** **** 0

# MOE 2024.06 (io_trps.svl 2023.06)
