@<TRIPOS>MOLECULE
NONAME
50 53 1 0 0 
SMALL
USER_CHARGES


@<TRIPOS>ATOM
  1 O       -0.5320     0.4710    -0.2720 O.2   1 <1>  -0.5700 
  2 C       -1.5840     1.0630    -0.1930 C.2   1 <1>   0.5690 
  3 N       -2.7840     0.4270    -0.4150 N.am  1 <1>  -0.6600 
  4 C       -1.5460     2.5450     0.1590 C.3   1 <1>  -0.0990 
  5 C       -4.1090     1.0890    -0.2090 C.3   1 <1>   0.2200 
  6 C       -2.7840    -0.9930    -0.8880 C.3   1 <1>   0.0600 
  7 C       -0.1410     3.1610     0.1110 C.3   1 <1>   0.0210 
  8 C       -5.1660     0.2250     0.4820 C.3   1 <1>  -0.1600 
  9 C       -4.7610     1.5040    -1.5230 C.3   1 <1>  -0.1600 
 10 C       -0.1470     4.6490     0.4270 C.2   1 <1>  -0.1810 
 11 C       -6.4980     0.8890     0.1120 C.3   1 <1>  -0.0800 
 12 C       -6.2430     1.6960    -1.1750 C.3   1 <1>  -0.0800 
 13 C        1.0280     5.4360     0.4320 C.ar  1 <1>   0.0000 
 14 C       -1.1830     5.4670     0.7410 C.2   1 <1>  -0.3020 
 15 C       -6.9980     1.8910     1.1620 C.3   1 <1>  -0.1600 
 16 C       -6.6110     3.1520    -0.8530 C.3   1 <1>  -0.1600 
 17 C        0.6380     6.7310     0.7580 C.ar  1 <1>  -0.1520 
 18 C        2.3790     5.1640     0.1910 C.ar  1 <1>  -0.1500 
 19 N       -0.7190     6.7360     0.9440 N.pl3 1 <1>   0.0330 
 20 C       -7.5360     3.0590     0.3500 C.3   1 <1>   0.2000 
 21 C        1.5750     7.7640     0.8470 C.ar  1 <1>  -0.1500 
 22 C        3.3020     6.1810     0.2780 C.ar  1 <1>  -0.1500 
 23 O       -7.4760     4.2190     1.0880 O.3   1 <1>  -0.6800 
 24 C        2.9000     7.4820     0.6070 C.ar  1 <1>  -0.1500 
 25 H       -2.1680     3.0780    -0.5360 H     1 <1>   0.0800 
 26 H       -1.9420     2.6690     1.1490 H     1 <1>   0.0800 
 27 H       -3.9930     1.9700     0.3950 H     1 <1>   0.0800 
 28 H       -3.5540    -1.1470    -1.6220 H     1 <1>   0.0800 
 29 H       -2.9500    -1.6500    -0.0530 H     1 <1>   0.0800 
 30 H       -1.8390    -1.2450    -1.3380 H     1 <1>   0.0800 
 31 H        0.2790     3.0160    -0.8690 H     1 <1>   0.0800 
 32 H        0.4950     2.6590     0.8210 H     1 <1>   0.0800 
 33 H       -5.1750    -0.7710     0.0810 H     1 <1>   0.0800 
 34 H       -5.0090     0.1760     1.5440 H     1 <1>   0.0800 
 35 H       -4.3130     2.3930    -1.9300 H     1 <1>   0.0800 
 36 H       -4.6760     0.7100    -2.2430 H     1 <1>   0.0800 
 37 H       -7.2570     0.1440    -0.0640 H     1 <1>   0.0800 
 38 H       -6.8700     1.3320    -1.9720 H     1 <1>   0.0800 
 39 H       -2.2280     5.2310     0.8340 H     1 <1>   0.1500 
 40 H       -6.1810     2.2230     1.7790 H     1 <1>   0.0800 
 41 H       -7.7650     1.4620     1.7810 H     1 <1>   0.0800 
 42 H       -7.1020     3.6250    -1.6850 H     1 <1>   0.0800 
 43 H       -5.7290     3.7110    -0.5900 H     1 <1>   0.0800 
 44 H        2.6750     4.1620    -0.0600 H     1 <1>   0.1500 
 45 H       -1.2760     7.5590     1.1940 H     1 <1>   0.2700 
 46 H       -8.5550     2.8850     0.0450 H     1 <1>   0.0800 
 47 H        1.2580     8.7590     1.1000 H     1 <1>   0.1500 
 48 H        4.3430     5.9850     0.0950 H     1 <1>   0.1500 
 49 H       -6.5640     4.3730     1.3940 H     1 <1>   0.4000 
 50 H        3.6410     8.2590     0.6690 H     1 <1>   0.1500 
@<TRIPOS>BOND
  1   1   2  2   
  2   2   3  am  
  3   2   4  1   
  4   3   5  1   
  5   3   6  1   
  6   4   7  1   
  7   4  25  1   
  8   4  26  1   
  9   5   8  1   
 10   5   9  1   
 11   5  27  1   
 12   6  28  1   
 13   6  29  1   
 14   6  30  1   
 15   7  10  1   
 16   7  31  1   
 17   7  32  1   
 18   8  11  1   
 19   8  33  1   
 20   8  34  1   
 21   9  12  1   
 22   9  35  1   
 23   9  36  1   
 24  10  13  1   
 25  10  14  2   
 26  11  12  1   
 27  11  15  1   
 28  11  37  1   
 29  12  16  1   
 30  12  38  1   
 31  13  17  ar  
 32  13  18  ar  
 33  14  19  1   
 34  14  39  1   
 35  15  20  1   
 36  15  40  1   
 37  15  41  1   
 38  16  20  1   
 39  16  42  1   
 40  16  43  1   
 41  17  19  1   
 42  17  21  ar  
 43  18  22  ar  
 44  18  44  1   
 45  19  45  1   
 46  20  23  1   
 47  20  46  1   
 48  21  24  ar  
 49  21  47  1   
 50  22  24  ar  
 51  22  48  1   
 52  23  49  1   
 53  24  50  1   
@<TRIPOS>SUBSTRUCTURE
  1 ****   4 GROUP 4 **** **** 0

# MOE 2024.06 (io_trps.svl 2023.06)
