@<TRIPOS>MOLECULE
NONAME
50 52 1 0 0 
SMALL
USER_CHARGES


@<TRIPOS>ATOM
  1 F       -2.0130    -0.8200     2.4000 F     1 <1>  -0.1900 
  2 C       -2.1700    -1.1810     1.1510 C.ar  1 <1>   0.1900 
  3 C       -2.4620    -2.5070     0.8440 C.ar  1 <1>   0.0830 
  4 C       -2.0450    -0.2070     0.1800 C.ar  1 <1>  -0.1500 
  5 O       -2.6000    -3.4420     1.8120 O.3   1 <1>  -0.3630 
  6 C       -2.6420    -2.8710    -0.4930 C.ar  1 <1>   0.0860 
  7 C       -2.2220    -0.5670    -1.1460 C.ar  1 <1>  -0.1500 
  8 C       -1.4130    -3.9160     2.4080 C.3   1 <1>   0.0400 
  9 C       -2.9540    -4.2330    -0.8560 C.2   1 <1>   0.5440 
 10 C       -2.5160    -1.8810    -1.4710 C.ar  1 <1>  -0.1500 
 11 O       -2.0690    -5.0690    -0.9050 O.2   1 <1>  -0.5700 
 12 N       -4.2440    -4.6350    -1.1330 N.am  1 <1>  -0.6600 
 13 C       -4.5100    -6.0340    -1.5520 C.3   1 <1>   0.1400 
 14 C       -5.4220    -3.9710    -0.5110 C.3   1 <1>   0.1400 
 15 C       -4.8420    -6.8580    -0.2900 C.3   1 <1>   0.4230 
 16 C       -5.8040    -4.7630     0.7470 C.3   1 <1>  -0.1600 
 17 N       -4.9120    -8.3600    -0.5310 N.4   1 <1>  -0.9590 
 18 C       -6.0680    -6.2770     0.4820 C.3   1 <1>   0.0000 
 19 C       -5.6190    -9.1200     0.5510 C.3   1 <1>   0.3430 
 20 C       -5.4280    -8.7760    -1.8760 C.3   1 <1>   0.2630 
 21 C       -6.2020    -7.0080     1.8510 C.3   1 <1>  -0.1600 
 22 C       -7.3640    -6.4570    -0.3600 C.3   1 <1>   0.1200 
 23 C       -5.5200    -8.3900     1.8890 C.3   1 <1>  -0.1600 
 24 O       -8.4390    -5.7870     0.1990 O.3   1 <1>  -0.6800 
 25 H       -1.8170     0.8070     0.4560 H     1 <1>   0.1500 
 26 H       -2.1280     0.1750    -1.9220 H     1 <1>   0.1500 
 27 H       -1.6740    -4.6680     3.1300 H     1 <1>   0.0800 
 28 H       -0.9100    -3.1000     2.8960 H     1 <1>   0.0800 
 29 H       -0.7860    -4.3400     1.6430 H     1 <1>   0.0800 
 30 H       -2.6500    -2.1550    -2.5040 H     1 <1>   0.1500 
 31 H       -5.3200    -6.0370    -2.2570 H     1 <1>   0.0800 
 32 H       -3.6390    -6.4400    -2.0380 H     1 <1>   0.0800 
 33 H       -5.1930    -2.9530    -0.2440 H     1 <1>   0.0800 
 34 H       -6.2410    -3.9490    -1.2110 H     1 <1>   0.0800 
 35 H       -4.0000    -6.7000     0.3650 H     1 <1>   0.0800 
 36 H       -4.9940    -4.6530     1.4480 H     1 <1>   0.0800 
 37 H       -6.6610    -4.2990     1.2010 H     1 <1>   0.0800 
 38 H       -3.9250    -8.6590    -0.4880 H     1 <1>   0.4500 
 39 H       -6.6610    -9.2280     0.2980 H     1 <1>   0.0800 
 40 H       -5.1960   -10.1080     0.6410 H     1 <1>   0.0800 
 41 H       -6.4460    -8.4490    -2.0080 H     1 <1>   0.0800 
 42 H       -5.3970    -9.8500    -1.9710 H     1 <1>   0.0800 
 43 H       -4.8230    -8.3520    -2.6610 H     1 <1>   0.0800 
 44 H       -5.7680    -6.4170     2.6400 H     1 <1>   0.0800 
 45 H       -7.2400    -7.1250     2.1070 H     1 <1>   0.0800 
 46 H       -7.6400    -7.4930    -0.4400 H     1 <1>   0.0800 
 47 H       -7.2470    -6.0600    -1.3520 H     1 <1>   0.0800 
 48 H       -5.9820    -8.9890     2.6550 H     1 <1>   0.0800 
 49 H       -4.4820    -8.2830     2.1560 H     1 <1>   0.0800 
 50 H       -8.6330    -6.0910     1.1080 H     1 <1>   0.4000 
@<TRIPOS>BOND
  1   1   2  1   
  2   2   3  ar  
  3   2   4  ar  
  4   3   5  1   
  5   3   6  ar  
  6   4   7  ar  
  7   4  25  1   
  8   5   8  1   
  9   6   9  1   
 10   6  10  ar  
 11   7  10  ar  
 12   7  26  1   
 13   8  27  1   
 14   8  28  1   
 15   8  29  1   
 16   9  11  2   
 17   9  12  am  
 18  10  30  1   
 19  12  13  1   
 20  12  14  1   
 21  13  15  1   
 22  13  31  1   
 23  13  32  1   
 24  14  16  1   
 25  14  33  1   
 26  14  34  1   
 27  15  17  1   
 28  15  18  1   
 29  15  35  1   
 30  16  18  1   
 31  16  36  1   
 32  16  37  1   
 33  17  19  1   
 34  17  20  1   
 35  17  38  1   
 36  18  21  1   
 37  18  22  1   
 38  19  23  1   
 39  19  39  1   
 40  19  40  1   
 41  20  41  1   
 42  20  42  1   
 43  20  43  1   
 44  21  23  1   
 45  21  44  1   
 46  21  45  1   
 47  22  24  1   
 48  22  46  1   
 49  22  47  1   
 50  23  48  1   
 51  23  49  1   
 52  24  50  1   
@<TRIPOS>SUBSTRUCTURE
  1 ****  12 GROUP 4 **** **** 0

# MOE 2024.06 (io_trps.svl 2023.06)
