@<TRIPOS>MOLECULE
NONAME
51 54 1 0 0 
SMALL
USER_CHARGES


@<TRIPOS>ATOM
  1 O        0.4580     2.1260    -2.6220 O.3   1 <1>  -0.6800 
  2 C        0.1520     2.9440    -1.5540 C.3   1 <1>   0.2000 
  3 C       -0.6520     4.1390    -2.0650 C.3   1 <1>  -0.1600 
  4 C        1.4610     3.3940    -0.9090 C.3   1 <1>  -0.1600 
  5 C       -0.9150     5.1270    -0.9280 C.3   1 <1>   0.2090 
  6 C        1.1840     4.3850     0.2210 C.3   1 <1>   0.2090 
  7 N        0.3730     5.5190    -0.2940 N.pl3 1 <1>  -0.8380 
  8 C        0.4410     6.7190     0.3840 C.ar  1 <1>   0.4100 
  9 N       -0.6530     7.1520     0.9850 N.ar  1 <1>  -0.6200 
 10 C        1.6120     7.4350     0.4400 C.ar  1 <1>  -0.1500 
 11 C       -0.5250     8.2940     1.6310 C.ar  1 <1>   0.4700 
 12 C        1.6230     8.6160     1.1390 C.ar  1 <1>   0.4100 
 13 N        0.5410     9.0600     1.7510 N.ar  1 <1>  -0.6200 
 14 N        2.7670     9.3720     1.2210 N.pl3 1 <1>  -0.8690 
 15 C        2.7680    10.7830     1.6500 C.3   1 <1>   0.2090 
 16 C        3.9140    11.5040     0.9480 C.3   1 <1>  -0.1600 
 17 C        3.9140    12.9940     1.3020 C.3   1 <1>   0.0960 
 18 N        4.9890    13.6890     0.5680 N.pl3 1 <1>   0.0480 
 19 C        4.9470    14.0910    -0.7470 C.ar  1 <1>  -0.1520 
 20 C        6.2170    14.0210     1.0680 C.2   1 <1>  -0.3020 
 21 C        6.1670    14.6810    -1.0630 C.ar  1 <1>   0.0000 
 22 C        3.9370    13.9890    -1.7100 C.ar  1 <1>  -0.1500 
 23 C        6.9540    14.6250     0.1050 C.2   1 <1>  -0.1500 
 24 C        6.3870    15.1770    -2.3520 C.ar  1 <1>  -0.1500 
 25 C        4.1660    14.4800    -2.9740 C.ar  1 <1>  -0.1500 
 26 C        5.3920    15.0740    -3.2960 C.ar  1 <1>  -0.1500 
 27 H       -0.3560     1.8580    -3.0880 H     1 <1>   0.4000 
 28 H       -0.4310     2.3730    -0.8510 H     1 <1>   0.0800 
 29 H       -1.5930     3.8090    -2.4650 H     1 <1>   0.0800 
 30 H       -0.1040     4.6480    -2.8380 H     1 <1>   0.0800 
 31 H        2.0860     3.8710    -1.6420 H     1 <1>   0.0800 
 32 H        1.9810     2.5410    -0.5140 H     1 <1>   0.0800 
 33 H       -1.5530     4.6820    -0.1830 H     1 <1>   0.0800 
 34 H       -1.4070     6.0030    -1.3150 H     1 <1>   0.0800 
 35 H        2.1150     4.7460     0.6240 H     1 <1>   0.0800 
 36 H        0.6410     3.8990     1.0140 H     1 <1>   0.0800 
 37 H        2.4870     7.0770    -0.0580 H     1 <1>   0.1500 
 38 H       -1.4120     8.6490     2.1280 H     1 <1>   0.1500 
 39 H        3.5430     9.1030     0.6140 H     1 <1>   0.4000 
 40 H        2.8880    10.8270     2.7190 H     1 <1>   0.0800 
 41 H        1.8300    11.2440     1.3880 H     1 <1>   0.0800 
 42 H        3.7970    11.3940    -0.1160 H     1 <1>   0.0800 
 43 H        4.8500    11.0670     1.2520 H     1 <1>   0.0800 
 44 H        4.0720    13.1290     2.3570 H     1 <1>   0.0800 
 45 H        2.9750    13.4440     1.0350 H     1 <1>   0.0800 
 46 H        6.4970    13.8070     2.0840 H     1 <1>   0.1500 
 47 H        2.9970    13.5310    -1.4600 H     1 <1>   0.1500 
 48 H        7.9570    15.0060     0.1740 H     1 <1>   0.1500 
 49 H        7.3340    15.6300    -2.5830 H     1 <1>   0.1500 
 50 H        3.4030    14.4130    -3.7300 H     1 <1>   0.1500 
 51 H        5.5460    15.4510    -4.2910 H     1 <1>   0.1500 
@<TRIPOS>BOND
  1   1   2  1   
  2   1  27  1   
  3   2   3  1   
  4   2   4  1   
  5   2  28  1   
  6   3   5  1   
  7   3  29  1   
  8   3  30  1   
  9   4   6  1   
 10   4  31  1   
 11   4  32  1   
 12   5   7  1   
 13   5  33  1   
 14   5  34  1   
 15   6   7  1   
 16   6  35  1   
 17   6  36  1   
 18   7   8  1   
 19   8   9  ar  
 20   8  10  ar  
 21   9  11  ar  
 22  10  12  ar  
 23  10  37  1   
 24  11  13  ar  
 25  11  38  1   
 26  12  13  ar  
 27  12  14  1   
 28  14  15  1   
 29  14  39  1   
 30  15  16  1   
 31  15  40  1   
 32  15  41  1   
 33  16  17  1   
 34  16  42  1   
 35  16  43  1   
 36  17  18  1   
 37  17  44  1   
 38  17  45  1   
 39  18  19  1   
 40  18  20  1   
 41  19  21  ar  
 42  19  22  ar  
 43  20  23  2   
 44  20  46  1   
 45  21  23  1   
 46  21  24  ar  
 47  22  25  ar  
 48  22  47  1   
 49  23  48  1   
 50  24  26  ar  
 51  24  49  1   
 52  25  26  ar  
 53  25  50  1   
 54  26  51  1   
@<TRIPOS>SUBSTRUCTURE
  1 ****  14 GROUP 4 **** **** 0

# MOE 2024.06 (io_trps.svl 2023.06)
