@<TRIPOS>MOLECULE
NONAME
54 56 1 0 0 
SMALL
USER_CHARGES


@<TRIPOS>ATOM
  1 O        1.0580     1.1670    -0.9860 O.3   1 <1>  -0.5600 
  2 C        1.8000     2.2080    -1.5540 C.3   1 <1>   0.1200 
  3 C       -0.2160     1.5440    -0.5580 C.3   1 <1>   0.1200 
  4 C        2.0100     3.3410    -0.5330 C.3   1 <1>   0.2090 
  5 C       -0.1200     2.6350     0.5260 C.3   1 <1>   0.2090 
  6 N        0.6950     3.8070     0.0470 N.pl3 1 <1>  -0.8380 
  7 C        0.3520     5.1250     0.0700 C.ar  1 <1>   0.7710 
  8 N        1.1050     6.0040    -0.5720 N.ar  1 <1>  -0.6200 
  9 N       -0.7420     5.5060     0.7530 N.ar  1 <1>  -0.1790 
 10 C        0.7700     7.2800    -0.5370 C.ar  1 <1>   0.4100 
 11 C       -1.1430     6.7970     0.8040 C.ar  1 <1>   0.2180 
 12 N        1.5760     8.1580    -1.1960 N.pl3 1 <1>  -0.8380 
 13 C       -0.3840     7.7070     0.1480 C.ar  1 <1>  -0.1500 
 14 C       -2.4020     7.1490     1.5770 C.3   1 <1>  -0.0970 
 15 C        1.7840     9.5840    -0.7970 C.3   1 <1>   0.2090 
 16 C        2.3960     7.7150    -2.3680 C.3   1 <1>   0.1290 
 17 C        3.2400     9.8260    -0.3870 C.3   1 <1>  -0.1600 
 18 C        3.4390    11.2440     0.1590 C.3   1 <1>   0.0210 
 19 C        4.9010    11.4830     0.4920 C.2   1 <1>  -0.1810 
 20 C        5.8700    12.0310    -0.3480 C.2   1 <1>   0.1080 
 21 C        5.5560    11.2190     1.6440 C.2   1 <1>  -0.3320 
 22 N        7.0290    12.1100     0.2230 N.2   1 <1>  -0.7070 
 23 C        5.6490    12.4980    -1.7690 C.3   1 <1>  -0.0590 
 24 N        6.8340    11.6080     1.4540 N.pl3 1 <1>   0.3000 
 25 C        5.0610    10.6110     2.9450 C.3   1 <1>  -0.0600 
 26 H        1.2820     2.5710    -2.4250 H     1 <1>   0.0800 
 27 H        2.7490     1.8050    -1.8600 H     1 <1>   0.0800 
 28 H       -0.6980     0.6670    -0.1640 H     1 <1>   0.0800 
 29 H       -0.7750     1.8930    -1.4090 H     1 <1>   0.0800 
 30 H        2.5460     4.1380    -1.0180 H     1 <1>   0.0800 
 31 H        2.6370     2.9740     0.2620 H     1 <1>   0.0800 
 32 H        0.3490     2.2080     1.3980 H     1 <1>   0.0800 
 33 H       -1.1170     2.9290     0.7950 H     1 <1>   0.0800 
 34 H       -1.2340     4.7710     1.2400 H     1 <1>   0.4570 
 35 H       -0.6510     8.7450     0.1240 H     1 <1>   0.1500 
 36 H       -3.2530     6.6360     1.1640 H     1 <1>   0.0800 
 37 H       -2.5920     8.2070     1.5240 H     1 <1>   0.0800 
 38 H       -2.2970     6.8800     2.6130 H     1 <1>   0.0800 
 39 H        1.1550     9.8370     0.0360 H     1 <1>   0.0800 
 40 H        1.5220    10.2260    -1.6220 H     1 <1>   0.0800 
 41 H        1.9420     6.8650    -2.8470 H     1 <1>   0.0800 
 42 H        3.3830     7.4390    -2.0380 H     1 <1>   0.0800 
 43 H        2.4720     8.5080    -3.0910 H     1 <1>   0.0800 
 44 H        3.8890     9.6930    -1.2340 H     1 <1>   0.0800 
 45 H        3.5210     9.1170     0.3710 H     1 <1>   0.0800 
 46 H        2.8480    11.3830     1.0460 H     1 <1>   0.0800 
 47 H        3.1160    11.9710    -0.5660 H     1 <1>   0.0800 
 48 H        5.1660    11.7280    -2.3390 H     1 <1>   0.0800 
 49 H        6.5940    12.7270    -2.2270 H     1 <1>   0.0800 
 50 H        5.0400    13.3820    -1.7680 H     1 <1>   0.0800 
 51 H        7.5940    11.5420     2.1400 H     1 <1>   0.2700 
 52 H        4.0230    10.3470     2.8700 H     1 <1>   0.0800 
 53 H        5.1790    11.3140     3.7500 H     1 <1>   0.0800 
 54 H        5.6210     9.7210     3.1730 H     1 <1>   0.0800 
@<TRIPOS>BOND
  1   1   2  1   
  2   1   3  1   
  3   2   4  1   
  4   2  26  1   
  5   2  27  1   
  6   3   5  1   
  7   3  28  1   
  8   3  29  1   
  9   4   6  1   
 10   4  30  1   
 11   4  31  1   
 12   5   6  1   
 13   5  32  1   
 14   5  33  1   
 15   6   7  1   
 16   7   8  ar  
 17   7   9  ar  
 18   8  10  ar  
 19   9  11  ar  
 20   9  34  1   
 21  10  12  1   
 22  10  13  ar  
 23  11  13  ar  
 24  11  14  1   
 25  12  15  1   
 26  12  16  1   
 27  13  35  1   
 28  14  36  1   
 29  14  37  1   
 30  14  38  1   
 31  15  17  1   
 32  15  39  1   
 33  15  40  1   
 34  16  41  1   
 35  16  42  1   
 36  16  43  1   
 37  17  18  1   
 38  17  44  1   
 39  17  45  1   
 40  18  19  1   
 41  18  46  1   
 42  18  47  1   
 43  19  20  1   
 44  19  21  2   
 45  20  22  2   
 46  20  23  1   
 47  21  24  1   
 48  21  25  1   
 49  22  24  1   
 50  23  48  1   
 51  23  49  1   
 52  23  50  1   
 53  24  51  1   
 54  25  52  1   
 55  25  53  1   
 56  25  54  1   
@<TRIPOS>SUBSTRUCTURE
  1 ****  12 GROUP 4 **** **** 0

# MOE 2024.06 (io_trps.svl 2023.06)
