@<TRIPOS>MOLECULE
NONAME
61 64 1 0 0 
SMALL
USER_CHARGES


@<TRIPOS>ATOM
  1 O       -0.9480     1.7710    -2.3800 O.3   1 <1>  -0.6800 
  2 C       -0.1500     2.3610    -1.4230 C.3   1 <1>   0.2000 
  3 C       -1.0410     2.8260    -0.2700 C.3   1 <1>  -0.1600 
  4 C        0.5830     3.5310    -2.0760 C.3   1 <1>  -0.1600 
  5 C       -0.2170     3.6180     0.7460 C.3   1 <1>   0.2090 
  6 C        1.3730     4.3310    -1.0380 C.3   1 <1>   0.2090 
  7 N        0.4510     4.7590     0.0570 N.pl3 1 <1>  -0.8380 
  8 C        0.2950     6.0640     0.4010 C.ar  1 <1>   0.4100 
  9 N        1.3210     6.8760     0.2240 N.ar  1 <1>  -0.6200 
 10 C       -0.9250     6.5370     0.9220 C.ar  1 <1>  -0.1500 
 11 C        1.1990     8.1450     0.5830 C.ar  1 <1>   0.7710 
 12 C       -1.0370     7.8420     1.2600 C.ar  1 <1>   0.2110 
 13 N        0.0470     8.6320     1.0770 N.ar  1 <1>  -0.1790 
 14 N        2.2650     8.9710     0.4410 N.pl3 1 <1>  -0.8380 
 15 C        2.4560    10.3370     0.9950 C.3   1 <1>   0.4330 
 16 C        3.5330     8.5020    -0.1910 C.3   1 <1>   0.2090 
 17 C        1.2730    11.2640     0.7070 C.ar  1 <1>  -0.1430 
 18 C        3.7510    10.8370     0.3640 C.3   1 <1>  -0.1600 
 19 C        4.5690     9.5740     0.1260 C.3   1 <1>  -0.1600 
 20 C        0.7280    12.0320     1.7250 C.ar  1 <1>  -0.1500 
 21 C        0.7340    11.3620    -0.5680 C.ar  1 <1>  -0.1500 
 22 C       -0.3250    12.8950     1.4690 C.ar  1 <1>  -0.1500 
 23 C       -0.3190    12.2230    -0.8250 C.ar  1 <1>  -0.1500 
 24 C       -0.8470    13.0080     0.1890 C.ar  1 <1>  -0.1430 
 25 C       -1.9680    13.9970    -0.1050 C.3   1 <1>   0.4860 
 26 N       -1.4020    15.1760    -0.8220 N.4   1 <1>  -0.9590 
 27 C       -0.4640    15.9600     0.0430 C.3   1 <1>   0.2630 
 28 C       -2.4810    16.0540    -1.3700 C.3   1 <1>   0.2630 
 29 H       -1.4220     1.0040    -2.0080 H     1 <1>   0.4000 
 30 H        0.5600     1.6270    -1.0790 H     1 <1>   0.0800 
 31 H       -1.4790     1.9760     0.2200 H     1 <1>   0.0800 
 32 H       -1.8280     3.4560    -0.6450 H     1 <1>   0.0800 
 33 H       -0.1250     4.1880    -2.5500 H     1 <1>   0.0800 
 34 H        1.2580     3.1600    -2.8260 H     1 <1>   0.0800 
 35 H        0.5400     2.9800     1.1730 H     1 <1>   0.0800 
 36 H       -0.8430     3.9590     1.5500 H     1 <1>   0.0800 
 37 H        1.8230     5.1820    -1.5200 H     1 <1>   0.0800 
 38 H        2.1610     3.7260    -0.6240 H     1 <1>   0.0800 
 39 H       -1.7500     5.8580     1.0240 H     1 <1>   0.1500 
 40 H       -1.9450     8.2710     1.6540 H     1 <1>   0.1500 
 41 H        0.0420     9.6370     1.2380 H     1 <1>   0.4570 
 42 H        2.6120    10.2480     2.0580 H     1 <1>   0.0800 
 43 H        3.3910     8.4230    -1.2560 H     1 <1>   0.0800 
 44 H        3.8400     7.5440     0.1980 H     1 <1>   0.0800 
 45 H        4.2600    11.5370     1.0020 H     1 <1>   0.0800 
 46 H        3.5430    11.3150    -0.5770 H     1 <1>   0.0800 
 47 H        5.2800     9.6890    -0.6740 H     1 <1>   0.0800 
 48 H        5.0970     9.2980     1.0220 H     1 <1>   0.0800 
 49 H        1.1290    11.9810     2.7250 H     1 <1>   0.1500 
 50 H        1.1440    10.7720    -1.3750 H     1 <1>   0.1500 
 51 H       -0.7220    13.4850     2.2800 H     1 <1>   0.1500 
 52 H       -0.7110    12.2770    -1.8290 H     1 <1>   0.1500 
 53 H       -2.4370    14.3110     0.8140 H     1 <1>   0.0800 
 54 H       -2.7130    13.5150    -0.7180 H     1 <1>   0.0800 
 55 H       -0.8510    14.7990    -1.6080 H     1 <1>   0.4500 
 56 H       -0.9850    16.3590     0.8980 H     1 <1>   0.0800 
 57 H       -0.0390    16.7800    -0.5140 H     1 <1>   0.0800 
 58 H        0.3400    15.3320     0.3900 H     1 <1>   0.0800 
 59 H       -3.0790    16.4600    -0.5690 H     1 <1>   0.0800 
 60 H       -3.1240    15.4940    -2.0310 H     1 <1>   0.0800 
 61 H       -2.0510    16.8720    -1.9250 H     1 <1>   0.0800 
@<TRIPOS>BOND
  1   1   2  1   
  2   1  29  1   
  3   2   3  1   
  4   2   4  1   
  5   2  30  1   
  6   3   5  1   
  7   3  31  1   
  8   3  32  1   
  9   4   6  1   
 10   4  33  1   
 11   4  34  1   
 12   5   7  1   
 13   5  35  1   
 14   5  36  1   
 15   6   7  1   
 16   6  37  1   
 17   6  38  1   
 18   7   8  1   
 19   8   9  ar  
 20   8  10  ar  
 21   9  11  ar  
 22  10  12  ar  
 23  10  39  1   
 24  11  13  ar  
 25  11  14  1   
 26  12  13  ar  
 27  12  40  1   
 28  13  41  1   
 29  14  15  1   
 30  14  16  1   
 31  15  17  1   
 32  15  18  1   
 33  15  42  1   
 34  16  19  1   
 35  16  43  1   
 36  16  44  1   
 37  17  20  ar  
 38  17  21  ar  
 39  18  19  1   
 40  18  45  1   
 41  18  46  1   
 42  19  47  1   
 43  19  48  1   
 44  20  22  ar  
 45  20  49  1   
 46  21  23  ar  
 47  21  50  1   
 48  22  24  ar  
 49  22  51  1   
 50  23  24  ar  
 51  23  52  1   
 52  24  25  1   
 53  25  26  1   
 54  25  53  1   
 55  25  54  1   
 56  26  27  1   
 57  26  28  1   
 58  26  55  1   
 59  27  56  1   
 60  27  57  1   
 61  27  58  1   
 62  28  59  1   
 63  28  60  1   
 64  28  61  1   
@<TRIPOS>SUBSTRUCTURE
  1 ****  13 GROUP 4 **** **** 0

# MOE 2024.06 (io_trps.svl 2023.06)
