@<TRIPOS>MOLECULE
NONAME
45 46 1 0 0 
SMALL
USER_CHARGES


@<TRIPOS>ATOM
  1 S       -2.9500     1.9290     1.7640 S.3   1 <1>  -0.4600 
  2 C       -1.2160     1.7830     2.3000 C.3   1 <1>   0.2140 
  3 C       -3.6850     0.2900     2.1310 C.3   1 <1>   0.1310 
  4 C       -0.3550     1.4630     1.0880 C.ar  1 <1>  -0.1440 
  5 C       -2.7420    -0.8830     1.8730 C.2   1 <1>   0.5690 
  6 C        0.3930     0.2960     1.0510 C.ar  1 <1>  -0.1500 
  7 C       -0.3080     2.3330     0.0100 C.ar  1 <1>  -0.1500 
  8 O       -2.2670    -1.4130     2.8530 O.2   1 <1>  -0.5700 
  9 N       -2.4680    -1.3270     0.6040 N.am  1 <1>  -0.6600 
 10 C        1.1800    -0.0020    -0.0490 C.ar  1 <1>  -0.1430 
 11 C        0.4730     2.0450    -1.0970 C.ar  1 <1>  -0.1430 
 12 C       -1.6800    -2.5910     0.4170 C.3   1 <1>   0.1400 
 13 C       -2.7600    -0.5400    -0.6330 C.3   1 <1>   0.1400 
 14 C        1.2160     0.8760    -1.1190 C.ar  1 <1>  -0.1500 
 15 C        1.9920    -1.2850    -0.0870 C.3   1 <1>  -0.0970 
 16 C        0.5160     3.0010    -2.2740 C.3   1 <1>  -0.0970 
 17 C       -1.2440    -2.7900    -1.0350 C.3   1 <1>  -0.1860 
 18 C       -3.3040    -1.4470    -1.7440 C.3   1 <1>  -0.1600 
 19 C       -0.4850    -4.0870    -1.1780 C.2   1 <1>   0.9060 
 20 C       -2.4400    -2.6970    -1.9900 C.3   1 <1>   0.2000 
 21 O        0.7430    -4.0440    -1.2960 O.co2 1 <1>  -0.9000 
 22 O       -1.1120    -5.1550    -1.1780 O.co2 1 <1>  -0.9000 
 23 O       -3.2440    -3.8050    -1.8160 O.3   1 <1>  -0.6800 
 24 H       -0.9370     2.7320     2.7210 H     1 <1>   0.0800 
 25 H       -1.1600     1.0200     3.0560 H     1 <1>   0.0800 
 26 H       -3.9610     0.3050     3.1680 H     1 <1>   0.0800 
 27 H       -4.5710     0.1960     1.5330 H     1 <1>   0.0800 
 28 H        0.3550    -0.3930     1.8770 H     1 <1>   0.1500 
 29 H       -0.8880     3.2390     0.0360 H     1 <1>   0.1500 
 30 H       -0.8100    -2.5710     1.0500 H     1 <1>   0.0800 
 31 H       -2.2900    -3.4260     0.7200 H     1 <1>   0.0800 
 32 H       -3.4700     0.2420    -0.4410 H     1 <1>   0.0800 
 33 H       -1.8460    -0.0740    -0.9610 H     1 <1>   0.0800 
 34 H        1.8250     0.6410    -1.9730 H     1 <1>   0.1500 
 35 H        2.0410    -1.6720    -1.0900 H     1 <1>   0.0800 
 36 H        1.5420    -2.0410     0.5300 H     1 <1>   0.0800 
 37 H        2.9910    -1.1010     0.2630 H     1 <1>   0.0800 
 38 H        0.6890     2.4620    -3.1880 H     1 <1>   0.0800 
 39 H        1.3090     3.7130    -2.1340 H     1 <1>   0.0800 
 40 H       -0.4160     3.5300    -2.3620 H     1 <1>   0.0800 
 41 H       -0.5520    -2.0110    -1.2850 H     1 <1>   0.0800 
 42 H       -3.3470    -0.8760    -2.6520 H     1 <1>   0.0800 
 43 H       -4.3100    -1.7320    -1.4910 H     1 <1>   0.0800 
 44 H       -2.0860    -2.7200    -3.0070 H     1 <1>   0.0800 
 45 H       -2.6210    -4.5660    -1.6030 H     1 <1>   0.4000 
@<TRIPOS>BOND
  1   1   2  1   
  2   1   3  1   
  3   2   4  1   
  4   2  24  1   
  5   2  25  1   
  6   3   5  1   
  7   3  26  1   
  8   3  27  1   
  9   4   6  ar  
 10   4   7  ar  
 11   5   8  2   
 12   5   9  am  
 13   6  10  ar  
 14   6  28  1   
 15   7  11  ar  
 16   7  29  1   
 17   9  12  1   
 18   9  13  1   
 19  10  14  ar  
 20  10  15  1   
 21  11  14  ar  
 22  11  16  1   
 23  12  17  1   
 24  12  30  1   
 25  12  31  1   
 26  13  18  1   
 27  13  32  1   
 28  13  33  1   
 29  14  34  1   
 30  15  35  1   
 31  15  36  1   
 32  15  37  1   
 33  16  38  1   
 34  16  39  1   
 35  16  40  1   
 36  17  19  1   
 37  17  20  1   
 38  17  41  1   
 39  18  20  1   
 40  18  42  1   
 41  18  43  1   
 42  19  21  ar  
 43  19  22  ar  
 44  20  23  1   
 45  20  44  1   
 46  23  45  1   
@<TRIPOS>SUBSTRUCTURE
  1 ****   9 GROUP 4 **** **** 0

# MOE 2024.06 (io_trps.svl 2023.06)
