@<TRIPOS>MOLECULE
NONAME
41 42 1 0 0 
SMALL
USER_CHARGES


@<TRIPOS>ATOM
  1 S        0.2460    -0.0150     0.0140 S.3   1 <1>  -0.4600 
  2 C       -1.4220    -0.5190     0.5320 C.3   1 <1>   1.2500 
  3 C        0.1920     1.7910     0.1320 C.3   1 <1>   0.0700 
  4 F       -2.3120     0.0230    -0.2840 F     1 <1>  -0.3400 
  5 F       -1.6410    -0.0890     1.7650 F     1 <1>  -0.3400 
  6 F       -1.5330    -1.8360     0.4970 F     1 <1>  -0.3400 
  7 C        1.5700     2.3030    -0.3000 C.3   1 <1>   0.3430 
  8 N        1.6530     3.7990    -0.2310 N.4   1 <1>  -0.9060 
  9 C        2.9500     4.3600    -0.6930 C.3   1 <1>   0.4230 
 10 C        4.0690     4.0410     0.3070 C.3   1 <1>  -0.1600 
 11 C        2.7980     5.8730    -0.8590 C.3   1 <1>  -0.1600 
 12 C        5.3860     4.7190    -0.0860 C.3   1 <1>   0.3430 
 13 C        4.1240     6.5260    -1.2520 C.3   1 <1>   0.3430 
 14 N        5.1690     6.1820    -0.2450 N.4   1 <1>  -0.9590 
 15 C        6.4450     6.9070    -0.5470 C.3   1 <1>   0.5230 
 16 C        6.3730     8.2770     0.1000 C.2   1 <1>  -0.0400 
 17 O        5.3440     9.0610    -0.1630 O.3   1 <1>  -0.2800 
 18 C        7.2180     8.8840     0.9630 C.2   1 <1>  -0.1500 
 19 C        5.5100    10.1810     0.5130 C.2   1 <1>  -0.0100 
 20 C        6.6500    10.1350     1.2330 C.2   1 <1>  -0.1500 
 21 H       -0.0300     2.0340     1.1570 H     1 <1>   0.0800 
 22 H       -0.5920     2.1280    -0.5250 H     1 <1>   0.0800 
 23 H        1.7590     1.9710    -1.3090 H     1 <1>   0.0800 
 24 H        2.3150     1.8620     0.3420 H     1 <1>   0.0800 
 25 H        1.4600     4.1070     0.7320 H     1 <1>   0.4500 
 26 H        0.8970     4.1880    -0.8120 H     1 <1>   0.4500 
 27 H        3.2020     3.9320    -1.6520 H     1 <1>   0.0800 
 28 H        4.2450     2.9800     0.3400 H     1 <1>   0.0800 
 29 H        3.7980     4.3650     1.2970 H     1 <1>   0.0800 
 30 H        2.4500     6.3270     0.0530 H     1 <1>   0.0800 
 31 H        2.0810     6.0850    -1.6340 H     1 <1>   0.0800 
 32 H        5.7510     4.3020    -1.0120 H     1 <1>   0.0800 
 33 H        6.1280     4.5370     0.6770 H     1 <1>   0.0800 
 34 H        3.9930     7.5970    -1.3030 H     1 <1>   0.0800 
 35 H        4.4290     6.1840    -2.2290 H     1 <1>   0.0800 
 36 H        4.8820     6.5960     0.6560 H     1 <1>   0.4500 
 37 H        6.5850     7.0090    -1.6110 H     1 <1>   0.0800 
 38 H        7.2880     6.3770    -0.1370 H     1 <1>   0.0800 
 39 H        8.1460     8.5340     1.3850 H     1 <1>   0.1500 
 40 H        4.7740    10.9630     0.4280 H     1 <1>   0.1500 
 41 H        7.0650    10.8870     1.8830 H     1 <1>   0.1500 
@<TRIPOS>BOND
  1   1   2  1   
  2   1   3  1   
  3   2   4  1   
  4   2   5  1   
  5   2   6  1   
  6   3   7  1   
  7   3  21  1   
  8   3  22  1   
  9   7   8  1   
 10   7  23  1   
 11   7  24  1   
 12   8   9  1   
 13   8  25  1   
 14   8  26  1   
 15   9  10  1   
 16   9  11  1   
 17   9  27  1   
 18  10  12  1   
 19  10  28  1   
 20  10  29  1   
 21  11  13  1   
 22  11  30  1   
 23  11  31  1   
 24  12  14  1   
 25  12  32  1   
 26  12  33  1   
 27  13  14  1   
 28  13  34  1   
 29  13  35  1   
 30  14  15  1   
 31  14  36  1   
 32  15  16  1   
 33  15  37  1   
 34  15  38  1   
 35  16  17  1   
 36  16  18  2   
 37  17  19  1   
 38  18  20  1   
 39  18  39  1   
 40  19  20  2   
 41  19  40  1   
 42  20  41  1   
@<TRIPOS>SUBSTRUCTURE
  1 ****   9 GROUP 4 **** **** 0

# MOE 2024.06 (io_trps.svl 2023.06)
