@<TRIPOS>MOLECULE
NONAME
58 60 1 0 0 
SMALL
USER_CHARGES


@<TRIPOS>ATOM
  1 O        1.0300     0.4900    -1.9390 O.3   1 <1>  -0.5600 
  2 C        2.1630    -0.3270    -1.7820 C.3   1 <1>   0.2000 
  3 C        1.3460     1.8440    -2.0840 C.3   1 <1>   0.1200 
  4 C        2.9570     0.1050    -0.5160 C.3   1 <1>   0.3340 
  5 C        1.6680    -1.7820    -1.7380 C.3   1 <1>   0.1200 
  6 C        2.1050     2.3530    -0.8490 C.3   1 <1>   0.1100 
  7 N        3.3110     1.5450    -0.5810 N.3   1 <1>  -0.8100 
  8 C        4.2120    -0.7530    -0.3460 C.ar  1 <1>  -0.1440 
  9 O        2.7050    -2.6800    -1.9800 O.3   1 <1>  -0.6800 
 10 C        3.9950     2.0000     0.6530 C.3   1 <1>   0.2530 
 11 C        4.2500    -1.7530     0.6130 C.ar  1 <1>  -0.1500 
 12 C        5.3230    -0.5560    -1.1500 C.ar  1 <1>  -0.1500 
 13 C        4.4800     3.4460     0.5410 C.ar  1 <1>  -0.1430 
 14 C        5.3640    -2.5610     0.7670 C.ar  1 <1>   0.0830 
 15 C        6.4510    -1.3430    -1.0010 C.ar  1 <1>  -0.1500 
 16 C        3.7430     4.4860     1.1060 C.ar  1 <1>   0.0830 
 17 C        5.6730     3.7270    -0.1210 C.ar  1 <1>   0.0830 
 18 O        5.2500    -3.5200     1.7270 O.3   1 <1>  -0.3630 
 19 C        6.4940    -2.3500    -0.0400 C.ar  1 <1>   0.0830 
 20 O        2.5880     4.1750     1.7570 O.3   1 <1>  -0.3630 
 21 C        4.1970     5.7980     0.9920 C.ar  1 <1>  -0.1500 
 22 O        6.3790     2.6850    -0.6380 O.3   1 <1>  -0.3620 
 23 C        6.1140     5.0440    -0.2280 C.ar  1 <1>  -0.1500 
 24 C        5.8170    -4.7980     1.5340 C.3   1 <1>   0.0400 
 25 O        7.6110    -3.1140     0.1400 O.3   1 <1>  -0.3630 
 26 C        1.8180     5.1520     2.4210 C.3   1 <1>   0.0400 
 27 C        5.3760     6.0720     0.3260 C.ar  1 <1>  -0.1500 
 28 C        7.5120     2.8790    -1.4530 C.3   1 <1>   0.0400 
 29 C        8.8380    -2.7960    -0.4790 C.3   1 <1>   0.0400 
 30 H        2.7760    -0.2000    -2.6570 H     1 <1>   0.0800 
 31 H        1.9440     1.9700    -2.9700 H     1 <1>   0.0800 
 32 H        0.4260     2.3860    -2.2050 H     1 <1>   0.0800 
 33 H        2.3180    -0.0500     0.3360 H     1 <1>   0.0800 
 34 H        0.9290    -1.9390    -2.5050 H     1 <1>   0.0800 
 35 H        1.2400    -2.0100    -0.7780 H     1 <1>   0.0800 
 36 H        1.4480     2.3330     0.0040 H     1 <1>   0.0800 
 37 H        2.3900     3.3760    -1.0250 H     1 <1>   0.0800 
 38 H        3.4660    -2.4990    -1.3850 H     1 <1>   0.4000 
 39 H        3.3350     1.8880     1.4960 H     1 <1>   0.0800 
 40 H        4.8530     1.3810     0.8450 H     1 <1>   0.0800 
 41 H        3.4050    -1.9250     1.2560 H     1 <1>   0.1500 
 42 H        5.3090     0.2290    -1.8890 H     1 <1>   0.1500 
 43 H        7.2840    -1.1460    -1.6460 H     1 <1>   0.1500 
 44 H        3.6490     6.6190     1.4110 H     1 <1>   0.1500 
 45 H        7.0280     5.2880    -0.7330 H     1 <1>   0.1500 
 46 H        5.3000    -5.4930     2.1690 H     1 <1>   0.0800 
 47 H        6.8560    -4.7600     1.8060 H     1 <1>   0.0800 
 48 H        5.7030    -5.0830     0.5030 H     1 <1>   0.0800 
 49 H        0.9800     4.6620     2.8820 H     1 <1>   0.0800 
 50 H        1.4690     5.8710     1.7000 H     1 <1>   0.0800 
 51 H        2.4250     5.6230     3.1740 H     1 <1>   0.0800 
 52 H        5.7210     7.0880     0.2400 H     1 <1>   0.1500 
 53 H        7.8480     1.9150    -1.7880 H     1 <1>   0.0800 
 54 H        8.2820     3.3540    -0.8720 H     1 <1>   0.0800 
 55 H        7.2320     3.4830    -2.2980 H     1 <1>   0.0800 
 56 H        9.5830    -3.4780    -0.1110 H     1 <1>   0.0800 
 57 H        9.1070    -1.7870    -0.2210 H     1 <1>   0.0800 
 58 H        8.7330    -2.9100    -1.5430 H     1 <1>   0.0800 
@<TRIPOS>BOND
  1   1   2  1   
  2   1   3  1   
  3   2   4  1   
  4   2   5  1   
  5   2  30  1   
  6   3   6  1   
  7   3  31  1   
  8   3  32  1   
  9   4   7  1   
 10   4   8  1   
 11   4  33  1   
 12   5   9  1   
 13   5  34  1   
 14   5  35  1   
 15   6   7  1   
 16   6  36  1   
 17   6  37  1   
 18   7  10  1   
 19   8  11  ar  
 20   8  12  ar  
 21   9  38  1   
 22  10  13  1   
 23  10  39  1   
 24  10  40  1   
 25  11  14  ar  
 26  11  41  1   
 27  12  15  ar  
 28  12  42  1   
 29  13  16  ar  
 30  13  17  ar  
 31  14  18  1   
 32  14  19  ar  
 33  15  19  ar  
 34  15  43  1   
 35  16  20  1   
 36  16  21  ar  
 37  17  22  1   
 38  17  23  ar  
 39  18  24  1   
 40  19  25  1   
 41  20  26  1   
 42  21  27  ar  
 43  21  44  1   
 44  22  28  1   
 45  23  27  ar  
 46  23  45  1   
 47  24  46  1   
 48  24  47  1   
 49  24  48  1   
 50  25  29  1   
 51  26  49  1   
 52  26  50  1   
 53  26  51  1   
 54  27  52  1   
 55  28  53  1   
 56  28  54  1   
 57  28  55  1   
 58  29  56  1   
 59  29  57  1   
 60  29  58  1   
@<TRIPOS>SUBSTRUCTURE
  1 ****   7 GROUP 4 **** **** 0

# MOE 2024.06 (io_trps.svl 2023.06)
