@<TRIPOS>MOLECULE
NONAME
38 39 1 0 0 
SMALL
USER_CHARGES


@<TRIPOS>ATOM
  1 CL      -1.5630     0.0600    -1.5370 Cl    1 <1>  -0.1240 
  2 C       -2.6420     0.1530    -0.1620 C.2   1 <1>  -0.0280 
  3 N       -2.9380     1.3000     0.4730 N.pl3 1 <1>   0.3140 
  4 C       -3.3150    -0.8550     0.4250 C.2   1 <1>  -0.1810 
  5 N       -3.8130     1.0580     1.4680 N.2   1 <1>  -0.7070 
  6 C       -2.4260     2.6480     0.1910 C.3   1 <1>   0.0160 
  7 C       -4.0230    -0.2230     1.4460 C.2   1 <1>   0.1080 
  8 C       -3.3040    -2.3180     0.0570 C.3   1 <1>   0.5240 
  9 C       -4.9420    -0.8930     2.4460 C.3   1 <1>  -0.0590 
 10 N       -4.5350    -2.6280    -0.7150 N.4   1 <1>  -0.9590 
 11 C       -4.6950    -4.0940    -0.9270 C.3   1 <1>   0.5230 
 12 C       -4.6990    -1.8170    -1.9660 C.3   1 <1>   0.3430 
 13 C       -5.2070    -4.7250     0.3650 C.2   1 <1>   0.0070 
 14 C       -6.1790    -1.5500    -2.3070 C.3   1 <1>   0.1200 
 15 N       -5.3910    -4.0700     1.4720 N.2   1 <1>  -0.5650 
 16 N       -5.5290    -6.0370     0.4610 N.pl3 1 <1>   0.0330 
 17 O       -6.9090    -2.7360    -2.3230 O.3   1 <1>  -0.6800 
 18 C       -5.8520    -5.0000     2.3300 C.2   1 <1>   0.0770 
 19 C       -5.9410    -6.2050     1.7290 C.2   1 <1>  -0.3020 
 20 H       -1.3530     2.6360     0.2360 H     1 <1>   0.0800 
 21 H       -2.8080     3.3320     0.9270 H     1 <1>   0.0800 
 22 H       -2.7480     2.9540    -0.7860 H     1 <1>   0.0800 
 23 H       -3.2670    -2.9110     0.9570 H     1 <1>   0.0800 
 24 H       -2.4300    -2.5330    -0.5350 H     1 <1>   0.0800 
 25 H       -4.4710    -1.7630     2.8650 H     1 <1>   0.0800 
 26 H       -5.8640    -1.1770     1.9750 H     1 <1>   0.0800 
 27 H       -5.1640    -0.2100     3.2470 H     1 <1>   0.0800 
 28 H       -5.3130    -2.4100    -0.0740 H     1 <1>   0.4500 
 29 H       -3.7560    -4.5370    -1.2130 H     1 <1>   0.0800 
 30 H       -5.4110    -4.2830    -1.7070 H     1 <1>   0.0800 
 31 H       -4.2250    -2.3150    -2.7950 H     1 <1>   0.0800 
 32 H       -4.2170    -0.8610    -1.8490 H     1 <1>   0.0800 
 33 H       -6.2580    -1.0910    -3.2790 H     1 <1>   0.0800 
 34 H       -6.6170    -0.8910    -1.5760 H     1 <1>   0.0800 
 35 H       -5.4900    -6.7650    -0.2620 H     1 <1>   0.2700 
 36 H       -7.8500    -2.5640    -2.5480 H     1 <1>   0.4000 
 37 H       -6.1020    -4.7550     3.3510 H     1 <1>   0.1500 
 38 H       -6.2700    -7.1480     2.1300 H     1 <1>   0.1500 
@<TRIPOS>BOND
  1   1   2  1   
  2   2   3  1   
  3   2   4  2   
  4   3   5  1   
  5   3   6  1   
  6   4   7  1   
  7   4   8  1   
  8   5   7  2   
  9   6  20  1   
 10   6  21  1   
 11   6  22  1   
 12   7   9  1   
 13   8  10  1   
 14   8  23  1   
 15   8  24  1   
 16   9  25  1   
 17   9  26  1   
 18   9  27  1   
 19  10  11  1   
 20  10  12  1   
 21  10  28  1   
 22  11  13  1   
 23  11  29  1   
 24  11  30  1   
 25  12  14  1   
 26  12  31  1   
 27  12  32  1   
 28  13  15  2   
 29  13  16  1   
 30  14  17  1   
 31  14  33  1   
 32  14  34  1   
 33  15  18  1   
 34  16  19  1   
 35  16  35  1   
 36  17  36  1   
 37  18  19  2   
 38  18  37  1   
 39  19  38  1   
@<TRIPOS>SUBSTRUCTURE
  1 ****  10 GROUP 4 **** **** 0

# MOE 2024.06 (io_trps.svl 2023.06)
