@<TRIPOS>MOLECULE
NONAME
48 50 1 0 0 
SMALL
USER_CHARGES


@<TRIPOS>ATOM
  1 S       -0.8560    -1.3360     0.2740 S.3   1 <1>  -0.4600 
  2 C       -1.2880     0.3840    -0.0520 C.3   1 <1>   0.0700 
  3 C       -2.1870    -1.8870     1.3590 C.3   1 <1>   0.0700 
  4 C       -2.6830     0.3930    -0.6800 C.3   1 <1>  -0.1600 
  5 C       -3.5040    -1.6780     0.6080 C.3   1 <1>  -0.1600 
  6 C       -3.7420    -0.1990     0.2680 C.3   1 <1>   0.4230 
  7 N       -5.1160    -0.0540    -0.2960 N.4   1 <1>  -0.9590 
  8 C       -5.3140    -0.6410    -1.6670 C.3   1 <1>   0.3430 
  9 C       -5.6070     1.3490    -0.2380 C.3   1 <1>   0.3430 
 10 C       -6.6740    -1.3630    -1.7940 C.3   1 <1>   0.1400 
 11 C       -7.0940     1.3710     0.1150 C.3   1 <1>  -0.1600 
 12 N       -7.6720    -0.8850    -0.7810 N.am  1 <1>  -0.6600 
 13 C       -7.9980     0.5720    -0.8290 C.3   1 <1>   0.1400 
 14 C       -8.3360    -1.6940     0.1060 C.2   1 <1>   0.5690 
 15 O       -8.8020    -1.2380     1.1190 O.2   1 <1>  -0.5700 
 16 C       -8.4890    -3.1850    -0.1420 C.3   1 <1>  -0.0990 
 17 C       -9.7390    -3.7480     0.5530 C.3   1 <1>   0.0960 
 18 N       -9.9020    -5.1790     0.2350 N.pl3 1 <1>   0.0480 
 19 C       -9.4610    -6.2410     0.9110 C.2   1 <1>   0.0360 
 20 C      -10.5080    -5.7350    -0.8150 C.2   1 <1>   0.0360 
 21 N       -9.7640    -7.3440     0.3210 N.2   1 <1>  -0.3380 
 22 N      -10.4360    -7.0200    -0.7860 N.2   1 <1>  -0.3380 
 23 H       -0.5430     0.7740    -0.7250 H     1 <1>   0.0800 
 24 H       -1.2500     0.9140     0.8840 H     1 <1>   0.0800 
 25 H       -2.1300    -1.3100     2.2660 H     1 <1>   0.0800 
 26 H       -2.0090    -2.9270     1.5750 H     1 <1>   0.0800 
 27 H       -2.6340    -0.1640    -1.5980 H     1 <1>   0.0800 
 28 H       -2.9260     1.4140    -0.9130 H     1 <1>   0.0800 
 29 H       -4.2990    -2.0340     1.2380 H     1 <1>   0.0800 
 30 H       -3.4770    -2.2780    -0.2840 H     1 <1>   0.0800 
 31 H       -3.6990     0.3520     1.1940 H     1 <1>   0.0800 
 32 H       -5.7690    -0.5730     0.3140 H     1 <1>   0.4500 
 33 H       -4.5320    -1.3480    -1.8910 H     1 <1>   0.0800 
 34 H       -5.2560     0.1400    -2.4070 H     1 <1>   0.0800 
 35 H       -5.4400     1.8410    -1.1830 H     1 <1>   0.0800 
 36 H       -5.0690     1.8950     0.5220 H     1 <1>   0.0800 
 37 H       -6.4990    -2.4170    -1.6700 H     1 <1>   0.0800 
 38 H       -7.0660    -1.2200    -2.7860 H     1 <1>   0.0800 
 39 H       -7.4210     2.3960     0.0980 H     1 <1>   0.0800 
 40 H       -7.2360     1.0240     1.1240 H     1 <1>   0.0800 
 41 H       -7.9110     0.9380    -1.8380 H     1 <1>   0.0800 
 42 H       -9.0250     0.7110    -0.5260 H     1 <1>   0.0800 
 43 H       -7.6150    -3.6870     0.2290 H     1 <1>   0.0800 
 44 H       -8.5770    -3.3560    -1.1990 H     1 <1>   0.0800 
 45 H      -10.6160    -3.2180     0.2260 H     1 <1>   0.0800 
 46 H       -9.6560    -3.6360     1.6200 H     1 <1>   0.0800 
 47 H       -8.9190    -6.1710     1.8370 H     1 <1>   0.1500 
 48 H      -10.9950    -5.1690    -1.5880 H     1 <1>   0.1500 
@<TRIPOS>BOND
  1   1   2  1   
  2   1   3  1   
  3   2   4  1   
  4   2  23  1   
  5   2  24  1   
  6   3   5  1   
  7   3  25  1   
  8   3  26  1   
  9   4   6  1   
 10   4  27  1   
 11   4  28  1   
 12   5   6  1   
 13   5  29  1   
 14   5  30  1   
 15   6   7  1   
 16   6  31  1   
 17   7   8  1   
 18   7   9  1   
 19   7  32  1   
 20   8  10  1   
 21   8  33  1   
 22   8  34  1   
 23   9  11  1   
 24   9  35  1   
 25   9  36  1   
 26  10  12  1   
 27  10  37  1   
 28  10  38  1   
 29  11  13  1   
 30  11  39  1   
 31  11  40  1   
 32  12  13  1   
 33  12  14  am  
 34  13  41  1   
 35  13  42  1   
 36  14  15  2   
 37  14  16  1   
 38  16  17  1   
 39  16  43  1   
 40  16  44  1   
 41  17  18  1   
 42  17  45  1   
 43  17  46  1   
 44  18  19  1   
 45  18  20  1   
 46  19  21  2   
 47  19  47  1   
 48  20  22  2   
 49  20  48  1   
 50  21  22  1   
@<TRIPOS>SUBSTRUCTURE
  1 ****  12 GROUP 4 **** **** 0

# MOE 2024.06 (io_trps.svl 2023.06)
