@<TRIPOS>MOLECULE
NONAME
43 46 1 0 0 
SMALL
USER_CHARGES


@<TRIPOS>ATOM
  1 O        0.4490     0.6910     1.4750 O.3   1 <1>  -0.0190 
  2 N        1.3010    -0.2920     1.4390 N.2   1 <1>  -0.4100 
  3 C        0.7830     1.6590     0.6630 C.2   1 <1>  -0.0400 
  4 C        2.1990     0.0450     0.5860 C.2   1 <1>   0.1080 
  5 C        1.9220     1.2980     0.0480 C.2   1 <1>  -0.1500 
  6 C       -0.1090     2.8870     0.5840 C.3   1 <1>   0.0200 
  7 C        3.3910    -0.8130     0.2260 C.3   1 <1>  -0.0590 
  8 C        0.5070     4.0280    -0.2480 C.3   1 <1>  -0.0800 
  9 C       -0.4130     5.2270    -0.4870 C.3   1 <1>   0.2000 
 10 C        1.7750     4.6360     0.3790 C.3   1 <1>   0.1100 
 11 O       -1.1120     5.5130     0.6710 O.3   1 <1>  -0.6800 
 12 C        0.5860     6.3570    -0.6930 C.3   1 <1>   0.1100 
 13 N        1.6160     6.0980     0.3240 N.3   1 <1>  -0.8100 
 14 C        2.8840     6.8040     0.0560 C.3   1 <1>   0.2900 
 15 C        2.7500     8.3070     0.2440 C.2   1 <1>  -0.0400 
 16 O        3.7200     9.0760    -0.2460 O.3   1 <1>  -0.2800 
 17 C        1.8010     9.0520     0.8440 C.2   1 <1>  -0.1500 
 18 C        3.4010    10.3420     0.0310 C.ar  1 <1>   0.1400 
 19 C        2.2010    10.3970     0.7170 C.ar  1 <1>   0.0000 
 20 C        4.1170    11.4870    -0.2900 C.ar  1 <1>  -0.1500 
 21 C        1.6870    11.6350     1.1020 C.ar  1 <1>  -0.1500 
 22 C        3.6030    12.7100     0.0940 C.ar  1 <1>  -0.1500 
 23 C        2.3910    12.7810     0.7880 C.ar  1 <1>  -0.1500 
 24 H        2.5100     1.8120    -0.6880 H     1 <1>   0.1500 
 25 H       -1.0510     2.5970     0.1530 H     1 <1>   0.0800 
 26 H       -0.3030     3.2290     1.5860 H     1 <1>   0.0800 
 27 H        3.3830    -1.0250    -0.8270 H     1 <1>   0.0800 
 28 H        3.3530    -1.7400     0.7680 H     1 <1>   0.0800 
 29 H        4.3000    -0.2990     0.4790 H     1 <1>   0.0800 
 30 H        0.7750     3.6350    -1.2130 H     1 <1>   0.0800 
 31 H       -1.1080     5.0970    -1.2990 H     1 <1>   0.0800 
 32 H        2.6430     4.3190    -0.1750 H     1 <1>   0.0800 
 33 H        1.8890     4.3330     1.4070 H     1 <1>   0.0800 
 34 H       -0.4490     5.8490     1.3120 H     1 <1>   0.4000 
 35 H        0.1270     7.3230    -0.5670 H     1 <1>   0.0800 
 36 H        1.0100     6.2890    -1.6810 H     1 <1>   0.0800 
 37 H        3.6430     6.4490     0.7310 H     1 <1>   0.0800 
 38 H        3.2080     6.6010    -0.9510 H     1 <1>   0.0800 
 39 H        0.9040     8.7240     1.3360 H     1 <1>   0.1500 
 40 H        5.0450    11.4020    -0.8240 H     1 <1>   0.1500 
 41 H        0.7550    11.6800     1.6360 H     1 <1>   0.1500 
 42 H        4.1330    13.6170    -0.1390 H     1 <1>   0.1500 
 43 H        2.0080    13.7450     1.0780 H     1 <1>   0.1500 
@<TRIPOS>BOND
  1   1   2  1   
  2   1   3  1   
  3   2   4  2   
  4   3   5  2   
  5   3   6  1   
  6   4   5  1   
  7   4   7  1   
  8   5  24  1   
  9   6   8  1   
 10   6  25  1   
 11   6  26  1   
 12   7  27  1   
 13   7  28  1   
 14   7  29  1   
 15   8   9  1   
 16   8  10  1   
 17   8  30  1   
 18   9  11  1   
 19   9  12  1   
 20   9  31  1   
 21  10  13  1   
 22  10  32  1   
 23  10  33  1   
 24  11  34  1   
 25  12  13  1   
 26  12  35  1   
 27  12  36  1   
 28  13  14  1   
 29  14  15  1   
 30  14  37  1   
 31  14  38  1   
 32  15  16  1   
 33  15  17  2   
 34  16  18  1   
 35  17  19  1   
 36  17  39  1   
 37  18  19  ar  
 38  18  20  ar  
 39  19  21  ar  
 40  20  22  ar  
 41  20  40  1   
 42  21  23  ar  
 43  21  41  1   
 44  22  23  ar  
 45  22  42  1   
 46  23  43  1   
@<TRIPOS>SUBSTRUCTURE
  1 ****  13 GROUP 4 **** **** 0

# MOE 2024.06 (io_trps.svl 2023.06)
