@<TRIPOS>MOLECULE
NONAME
53 55 1 0 0 
SMALL
USER_CHARGES


@<TRIPOS>ATOM
  1 O       -1.9540     0.5900    -2.0100 O.2   1 <1>  -0.5700 
  2 C       -1.9660     0.8520    -0.8220 C.2   1 <1>   0.5440 
  3 N       -2.7300     0.0710     0.0090 N.am  1 <1>  -0.6600 
  4 C       -1.3200     2.0560    -0.3330 C.ar  1 <1>   0.0860 
  5 C       -2.7410    -1.4230    -0.0870 C.3   1 <1>   0.3640 
  6 C       -4.0870     0.5880     0.3240 C.3   1 <1>   0.1400 
  7 C       -0.3540     2.0650     0.6860 C.ar  1 <1>  -0.1440 
  8 C       -1.6780     3.2810    -0.9010 C.ar  1 <1>  -0.1500 
  9 C       -1.3330    -2.0130    -0.2380 C.ar  1 <1>  -0.1440 
 10 C       -3.8020    -1.8920    -1.1180 C.3   1 <1>   0.2000 
 11 C       -5.0930     0.0530    -0.7140 C.3   1 <1>   0.1200 
 12 C        0.1930     3.2610     1.1240 C.ar  1 <1>  -0.1500 
 13 C        0.1320     0.7680     1.3190 C.3   1 <1>  -0.0960 
 14 C       -1.1320     4.4720    -0.4650 C.ar  1 <1>  -0.1500 
 15 C       -0.6930    -2.5110     0.8870 C.ar  1 <1>  -0.1500 
 16 C       -0.6700    -2.0780    -1.4550 C.ar  1 <1>  -0.1500 
 17 O       -5.0550    -1.3470    -0.7660 O.3   1 <1>  -0.5600 
 18 C       -3.9870    -3.4190    -1.1570 C.3   1 <1>   0.1200 
 19 C       -0.1980     4.4600     0.5530 C.ar  1 <1>   0.0830 
 20 C        0.5780    -3.0570     0.8230 C.ar  1 <1>   0.0830 
 21 C        0.6030    -2.6120    -1.5400 C.ar  1 <1>  -0.1500 
 22 O       -2.9120    -4.0580    -1.7660 O.3   1 <1>  -0.6800 
 23 O        0.3260     5.6150     0.9750 O.3   1 <1>  -0.5330 
 24 O        1.0600    -3.5050     2.0170 O.3   1 <1>  -0.3620 
 25 C        1.2520    -3.0990    -0.4080 C.ar  1 <1>   0.0830 
 26 C        1.9790    -4.5730     2.0880 C.3   1 <1>   0.0400 
 27 O        2.5230    -3.5920    -0.4790 O.3   1 <1>  -0.3630 
 28 C        3.3080    -3.4720    -1.6460 C.3   1 <1>   0.0400 
 29 H       -3.1010    -1.7820     0.8610 H     1 <1>   0.0800 
 30 H       -4.3780     0.2730     1.3110 H     1 <1>   0.0800 
 31 H       -4.0870     1.6640     0.3030 H     1 <1>   0.0800 
 32 H       -2.3980     3.2890    -1.7000 H     1 <1>   0.1500 
 33 H       -3.5540    -1.5390    -2.1040 H     1 <1>   0.0800 
 34 H       -4.8660     0.4390    -1.6930 H     1 <1>   0.0800 
 35 H       -6.0930     0.3460    -0.4490 H     1 <1>   0.0800 
 36 H        0.9280     3.2630     1.9080 H     1 <1>   0.1500 
 37 H        0.9440     0.9430     2.0000 H     1 <1>   0.0800 
 38 H        0.4800     0.0960     0.5550 H     1 <1>   0.0800 
 39 H       -0.6680     0.2970     1.8620 H     1 <1>   0.0800 
 40 H       -1.4190     5.4090    -0.9080 H     1 <1>   0.1500 
 41 H       -1.1770    -2.4790     1.8460 H     1 <1>   0.1500 
 42 H       -1.1380    -1.7080    -2.3520 H     1 <1>   0.1500 
 43 H       -4.8650    -3.6620    -1.7300 H     1 <1>   0.0800 
 44 H       -4.0920    -3.8140    -0.1620 H     1 <1>   0.0800 
 45 H        1.0680    -2.6320    -2.5070 H     1 <1>   0.1500 
 46 H       -2.0630    -3.8100    -1.3370 H     1 <1>   0.4000 
 47 H        0.9890     5.5110     1.6800 H     1 <1>   0.4500 
 48 H        1.9560    -4.9690     3.0870 H     1 <1>   0.0800 
 49 H        2.9630    -4.1990     1.8680 H     1 <1>   0.0800 
 50 H        1.6910    -5.3320     1.3830 H     1 <1>   0.0800 
 51 H        4.2890    -3.8550    -1.4290 H     1 <1>   0.0800 
 52 H        3.3730    -2.4330    -1.9170 H     1 <1>   0.0800 
 53 H        2.8570    -4.0500    -2.4320 H     1 <1>   0.0800 
@<TRIPOS>BOND
  1   1   2  2   
  2   2   3  am  
  3   2   4  1   
  4   3   5  1   
  5   3   6  1   
  6   4   7  ar  
  7   4   8  ar  
  8   5   9  1   
  9   5  10  1   
 10   5  29  1   
 11   6  11  1   
 12   6  30  1   
 13   6  31  1   
 14   7  12  ar  
 15   7  13  1   
 16   8  14  ar  
 17   8  32  1   
 18   9  15  ar  
 19   9  16  ar  
 20  10  17  1   
 21  10  18  1   
 22  10  33  1   
 23  11  17  1   
 24  11  34  1   
 25  11  35  1   
 26  12  19  ar  
 27  12  36  1   
 28  13  37  1   
 29  13  38  1   
 30  13  39  1   
 31  14  19  ar  
 32  14  40  1   
 33  15  20  ar  
 34  15  41  1   
 35  16  21  ar  
 36  16  42  1   
 37  18  22  1   
 38  18  43  1   
 39  18  44  1   
 40  19  23  1   
 41  20  24  1   
 42  20  25  ar  
 43  21  25  ar  
 44  21  45  1   
 45  22  46  1   
 46  23  47  1   
 47  24  26  1   
 48  25  27  1   
 49  26  48  1   
 50  26  49  1   
 51  26  50  1   
 52  27  28  1   
 53  28  51  1   
 54  28  52  1   
 55  28  53  1   
@<TRIPOS>SUBSTRUCTURE
  1 ****   9 GROUP 4 **** **** 0

# MOE 2024.06 (io_trps.svl 2023.06)
