@<TRIPOS>MOLECULE
NONAME
48 49 1 0 0 
SMALL
USER_CHARGES


@<TRIPOS>ATOM
  1 N       -0.6380     1.9040    -0.2480 N.ar  1 <1>  -0.6200 
  2 C        0.5820     2.3040    -0.5480 C.ar  1 <1>   0.1600 
  3 C       -0.8680     1.6730     1.0340 C.ar  1 <1>   0.1600 
  4 C        1.6000     2.5220     0.3720 C.ar  1 <1>  -0.1440 
  5 C        0.0730     1.8350     2.0340 C.ar  1 <1>  -0.1500 
  6 C        1.3400     2.2680     1.7080 C.ar  1 <1>  -0.1500 
  7 C        2.9790     3.0250    -0.0440 C.3   1 <1>   0.5660 
  8 N        2.9600     4.4990    -0.2680 N.4   1 <1>  -0.9590 
  9 C        3.5820     2.2960    -1.2570 C.3   1 <1>  -0.1600 
 10 C        2.5870     5.2180     0.9770 C.3   1 <1>   0.5240 
 11 C        2.1080     4.9690    -1.4120 C.3   1 <1>   0.2630 
 12 C        3.7510     0.7810    -1.0380 C.3   1 <1>  -0.1600 
 13 C        3.0390     6.6470     0.8100 C.2   1 <1>  -0.1810 
 14 C        4.6930     0.4460     0.1280 C.3   1 <1>  -0.1600 
 15 C        4.2820     7.1820     0.8340 C.2   1 <1>  -0.3320 
 16 C        2.1900     7.7200     0.5730 C.2   1 <1>   0.1390 
 17 C        4.8930    -1.0670     0.2410 C.3   1 <1>  -0.2400 
 18 N        4.1320     8.5100     0.6090 N.pl3 1 <1>   0.3140 
 19 C        5.6340     6.5230     1.0730 C.3   1 <1>  -0.0600 
 20 N        2.8400     8.8290     0.4390 N.2   1 <1>  -0.7070 
 21 C        5.1780     9.5420     0.5560 C.3   1 <1>   0.0160 
 22 H        0.7640     2.4660    -1.5960 H     1 <1>   0.1500 
 23 H       -1.8570     1.3360     1.2990 H     1 <1>   0.1500 
 24 H       -0.1900     1.6180     3.0550 H     1 <1>   0.1500 
 25 H        2.0820     2.3900     2.4790 H     1 <1>   0.1500 
 26 H        3.6410     2.8330     0.7850 H     1 <1>   0.0800 
 27 H        3.9200     4.8070    -0.4620 H     1 <1>   0.4500 
 28 H        4.5500     2.7120    -1.4700 H     1 <1>   0.0800 
 29 H        2.9670     2.4340    -2.1260 H     1 <1>   0.0800 
 30 H        3.0930     4.7880     1.8260 H     1 <1>   0.0800 
 31 H        1.5230     5.1690     1.1440 H     1 <1>   0.0800 
 32 H        1.0680     4.7560    -1.2220 H     1 <1>   0.0800 
 33 H        2.4010     4.4860    -2.3290 H     1 <1>   0.0800 
 34 H        2.2180     6.0350    -1.5450 H     1 <1>   0.0800 
 35 H        4.1530     0.3500    -1.9400 H     1 <1>   0.0800 
 36 H        2.7920     0.3190    -0.8680 H     1 <1>   0.0800 
 37 H        4.2880     0.8010     1.0600 H     1 <1>   0.0800 
 38 H        5.6520     0.9110    -0.0270 H     1 <1>   0.0800 
 39 H        1.1150     7.6680     0.5000 H     1 <1>   0.1500 
 40 H        3.9540    -1.5630     0.4150 H     1 <1>   0.0800 
 41 H        5.5530    -1.2930     1.0600 H     1 <1>   0.0800 
 42 H        5.3280    -1.4610    -0.6620 H     1 <1>   0.0800 
 43 H        5.5260     5.4740     1.2770 H     1 <1>   0.0800 
 44 H        6.1190     6.9790     1.9200 H     1 <1>   0.0800 
 45 H        6.2670     6.6450     0.2120 H     1 <1>   0.0800 
 46 H        5.8900     9.2890    -0.2060 H     1 <1>   0.0800 
 47 H        5.6630     9.6040     1.5110 H     1 <1>   0.0800 
 48 H        4.7260    10.4890     0.3230 H     1 <1>   0.0800 
@<TRIPOS>BOND
  1   1   2  ar  
  2   1   3  ar  
  3   2   4  ar  
  4   2  22  1   
  5   3   5  ar  
  6   3  23  1   
  7   4   6  ar  
  8   4   7  1   
  9   5   6  ar  
 10   5  24  1   
 11   6  25  1   
 12   7   8  1   
 13   7   9  1   
 14   7  26  1   
 15   8  10  1   
 16   8  11  1   
 17   8  27  1   
 18   9  12  1   
 19   9  28  1   
 20   9  29  1   
 21  10  13  1   
 22  10  30  1   
 23  10  31  1   
 24  11  32  1   
 25  11  33  1   
 26  11  34  1   
 27  12  14  1   
 28  12  35  1   
 29  12  36  1   
 30  13  15  2   
 31  13  16  1   
 32  14  17  1   
 33  14  37  1   
 34  14  38  1   
 35  15  18  1   
 36  15  19  1   
 37  16  20  2   
 38  16  39  1   
 39  17  40  1   
 40  17  41  1   
 41  17  42  1   
 42  18  20  1   
 43  18  21  1   
 44  19  43  1   
 45  19  44  1   
 46  19  45  1   
 47  21  46  1   
 48  21  47  1   
 49  21  48  1   
@<TRIPOS>SUBSTRUCTURE
  1 ****   8 GROUP 4 **** **** 0

# MOE 2024.06 (io_trps.svl 2023.06)
