@<TRIPOS>MOLECULE
NONAME
39 39 1 0 0 
SMALL
USER_CHARGES


@<TRIPOS>ATOM
  1 O        2.4030    -0.1620     2.3750 O.2   1 <1>  -0.5700 
  2 C        1.9060    -0.6910     1.4100 C.2   1 <1>   0.5690 
  3 N        1.8550    -0.1350     0.1680 N.am  1 <1>  -0.4940 
  4 C        1.2680    -2.0740     1.5600 C.3   1 <1>   0.1710 
  5 C        2.2780     1.1020    -0.3240 C.2   1 <1>   0.2040 
  6 N        0.2290    -2.3750     0.5250 N.3   1 <1>  -0.8100 
  7 O        1.6900     1.5710    -1.3980 O.3   1 <1>  -0.0190 
  8 C        3.2070     2.0060     0.0540 C.2   1 <1>  -0.1810 
  9 C       -0.0310    -3.8310     0.4750 C.3   1 <1>   0.1100 
 10 C       -1.0090    -1.6240     0.8080 C.3   1 <1>   0.0300 
 11 N        2.1580     2.7400    -1.7470 N.2   1 <1>  -0.4100 
 12 C        3.0710     3.0260    -0.8880 C.2   1 <1>   0.1080 
 13 C        4.1960     1.9660     1.2090 C.3   1 <1>  -0.0590 
 14 C       -0.7720    -4.2370    -0.8010 C.3   1 <1>   0.1200 
 15 C        3.8690     4.3180    -0.9340 C.3   1 <1>   0.0210 
 16 O       -0.9140    -5.6230    -0.8010 O.3   1 <1>  -0.5600 
 17 C        5.1660     4.1440    -1.7330 C.3   1 <1>  -0.2400 
 18 C       -1.5500    -6.1250    -1.9310 C.3   1 <1>   0.0400 
 19 H        1.2750    -0.6900    -0.4690 H     1 <1>   0.3700 
 20 H        0.8420    -2.1570     2.5450 H     1 <1>   0.0800 
 21 H        2.0660    -2.7900     1.4860 H     1 <1>   0.0800 
 22 H       -0.5990    -4.1370     1.3370 H     1 <1>   0.0800 
 23 H        0.9070    -4.3610     0.4800 H     1 <1>   0.0800 
 24 H       -0.8030    -0.5690     0.8800 H     1 <1>   0.0800 
 25 H       -1.4470    -1.9520     1.7360 H     1 <1>   0.0800 
 26 H       -1.7230    -1.7650     0.0160 H     1 <1>   0.0800 
 27 H        4.4880     0.9510     1.4110 H     1 <1>   0.0800 
 28 H        3.7420     2.3770     2.0920 H     1 <1>   0.0800 
 29 H        5.0820     2.5250     0.9750 H     1 <1>   0.0800 
 30 H       -0.2010    -3.9490    -1.6670 H     1 <1>   0.0800 
 31 H       -1.7530    -3.7970    -0.8330 H     1 <1>   0.0800 
 32 H        4.0940     4.6370     0.0680 H     1 <1>   0.0800 
 33 H        3.2670     5.0810    -1.3940 H     1 <1>   0.0800 
 34 H        5.7840     3.3880    -1.2840 H     1 <1>   0.0800 
 35 H        5.7110     5.0700    -1.7620 H     1 <1>   0.0800 
 36 H        4.9350     3.8450    -2.7400 H     1 <1>   0.0800 
 37 H       -1.6090    -7.1950    -1.8340 H     1 <1>   0.0800 
 38 H       -0.9750    -5.8710    -2.8050 H     1 <1>   0.0800 
 39 H       -2.5410    -5.7120    -1.9950 H     1 <1>   0.0800 
@<TRIPOS>BOND
  1   1   2  2   
  2   2   3  am  
  3   2   4  1   
  4   3   5  1   
  5   3  19  1   
  6   4   6  1   
  7   4  20  1   
  8   4  21  1   
  9   5   7  1   
 10   5   8  2   
 11   6   9  1   
 12   6  10  1   
 13   7  11  1   
 14   8  12  1   
 15   8  13  1   
 16   9  14  1   
 17   9  22  1   
 18   9  23  1   
 19  10  24  1   
 20  10  25  1   
 21  10  26  1   
 22  11  12  2   
 23  12  15  1   
 24  13  27  1   
 25  13  28  1   
 26  13  29  1   
 27  14  16  1   
 28  14  30  1   
 29  14  31  1   
 30  15  17  1   
 31  15  32  1   
 32  15  33  1   
 33  16  18  1   
 34  17  34  1   
 35  17  35  1   
 36  17  36  1   
 37  18  37  1   
 38  18  38  1   
 39  18  39  1   
@<TRIPOS>SUBSTRUCTURE
  1 ****   3 GROUP 4 **** **** 0

# MOE 2024.06 (io_trps.svl 2023.06)
