@<TRIPOS>MOLECULE
NONAME
44 46 1 0 0 
SMALL
USER_CHARGES


@<TRIPOS>ATOM
  1 F        0.6430     0.5440    -0.1660 F     1 <1>  -0.3400 
  2 C        1.6120    -0.3640    -0.1700 C.3   1 <1>   1.1640 
  3 F        2.3320    -0.1340    -1.2610 F     1 <1>  -0.3400 
  4 F        2.3950    -0.0810     0.8620 F     1 <1>  -0.3400 
  5 C        1.0860    -1.8020    -0.1110 C.ar  1 <1>  -0.1440 
  6 C       -0.1500    -2.1180     0.4170 C.ar  1 <1>  -0.1500 
  7 C        1.8280    -2.8770    -0.5770 C.ar  1 <1>  -0.1500 
  8 C       -0.5960    -3.4350     0.4540 C.ar  1 <1>   0.4100 
  9 C        1.3090    -4.1560    -0.4940 C.ar  1 <1>   0.1600 
 10 N        0.1240    -4.4600     0.0070 N.ar  1 <1>  -0.6200 
 11 N       -1.8470    -3.7130     0.9710 N.pl3 1 <1>  -0.8380 
 12 C       -2.1090    -5.0600     1.5650 C.3   1 <1>   0.2090 
 13 C       -3.0420    -3.1490     0.2790 C.3   1 <1>   0.2090 
 14 C       -2.5260    -6.0530     0.4490 C.3   1 <1>   0.4230 
 15 C       -3.4960    -4.1200    -0.8210 C.3   1 <1>  -0.1600 
 16 N       -2.7230    -7.4730     0.9080 N.4   1 <1>  -0.9590 
 17 C       -3.7960    -5.5410    -0.2640 C.3   1 <1>  -0.1060 
 18 C       -2.9810    -8.3880    -0.2310 C.3   1 <1>   0.3430 
 19 C       -1.6740    -7.9860     1.8260 C.3   1 <1>   0.2630 
 20 C       -4.9490    -5.4960     0.7570 C.2   1 <1>   0.9060 
 21 C       -4.1410    -6.4760    -1.4490 C.3   1 <1>  -0.1600 
 22 C       -4.2260    -7.9430    -1.0020 C.3   1 <1>  -0.1600 
 23 O       -4.9820    -6.3460     1.6630 O.co2 1 <1>  -0.9000 
 24 O       -5.8070    -4.6200     0.6640 O.co2 1 <1>  -0.9000 
 25 H       -0.7950    -1.3580     0.8180 H     1 <1>   0.1500 
 26 H        2.8060    -2.7280    -1.0020 H     1 <1>   0.1500 
 27 H        1.9050    -4.9740    -0.8610 H     1 <1>   0.1500 
 28 H       -1.2100    -5.3960     2.0480 H     1 <1>   0.0800 
 29 H       -2.8820    -4.9730     2.3080 H     1 <1>   0.0800 
 30 H       -3.8340    -2.9950     0.9940 H     1 <1>   0.0800 
 31 H       -2.8060    -2.1950    -0.1600 H     1 <1>   0.0800 
 32 H       -1.7250    -6.0500    -0.2690 H     1 <1>   0.0800 
 33 H       -4.3820    -3.7200    -1.2840 H     1 <1>   0.0800 
 34 H       -2.7290    -4.1640    -1.5730 H     1 <1>   0.0800 
 35 H       -3.6370    -7.3840     1.4300 H     1 <1>   0.4500 
 36 H       -2.1300    -8.3890    -0.8920 H     1 <1>   0.0800 
 37 H       -3.1340    -9.3900     0.1350 H     1 <1>   0.0800 
 38 H       -0.7110    -7.9610     1.3420 H     1 <1>   0.0800 
 39 H       -1.8980    -9.0000     2.1140 H     1 <1>   0.0800 
 40 H       -1.6340    -7.3820     2.7180 H     1 <1>   0.0800 
 41 H       -5.0840    -6.1750    -1.8760 H     1 <1>   0.0800 
 42 H       -3.3880    -6.3860    -2.2130 H     1 <1>   0.0800 
 43 H       -4.3520    -8.5720    -1.8650 H     1 <1>   0.0800 
 44 H       -5.0930    -8.0830    -0.3780 H     1 <1>   0.0800 
@<TRIPOS>BOND
  1   1   2  1   
  2   2   3  1   
  3   2   4  1   
  4   2   5  1   
  5   5   6  ar  
  6   5   7  ar  
  7   6   8  ar  
  8   6  25  1   
  9   7   9  ar  
 10   7  26  1   
 11   8  10  ar  
 12   8  11  1   
 13   9  10  ar  
 14   9  27  1   
 15  11  12  1   
 16  11  13  1   
 17  12  14  1   
 18  12  28  1   
 19  12  29  1   
 20  13  15  1   
 21  13  30  1   
 22  13  31  1   
 23  14  16  1   
 24  14  17  1   
 25  14  32  1   
 26  15  17  1   
 27  15  33  1   
 28  15  34  1   
 29  16  18  1   
 30  16  19  1   
 31  16  35  1   
 32  17  20  1   
 33  17  21  1   
 34  18  22  1   
 35  18  36  1   
 36  18  37  1   
 37  19  38  1   
 38  19  39  1   
 39  19  40  1   
 40  20  23  ar  
 41  20  24  ar  
 42  21  22  1   
 43  21  41  1   
 44  21  42  1   
 45  22  43  1   
 46  22  44  1   
@<TRIPOS>SUBSTRUCTURE
  1 ****  11 GROUP 4 **** **** 0

# MOE 2024.06 (io_trps.svl 2023.06)
