@<TRIPOS>MOLECULE
NONAME
43 46 1 0 0 
SMALL
USER_CHARGES


@<TRIPOS>ATOM
  1 O        3.0980    -1.4430     2.2860 O.2   1 <1>  -0.5700 
  2 C        2.4100    -1.3600     1.2810 C.2   1 <1>   0.7160 
  3 N        2.3720    -0.1900     0.5840 N.am  1 <1>  -0.4930 
  4 C        1.6330    -2.4680     0.8000 C.2   1 <1>  -0.0860 
  5 C        3.0240     1.0510     0.8040 C.2   1 <1>   0.0630 
  6 C        0.8370    -2.5070    -0.3190 C.2   1 <1>  -0.0260 
  7 C        1.4980    -3.7490     1.3450 C.2   1 <1>   0.1080 
  8 C        3.0650     2.0800    -0.0770 C.2   1 <1>  -0.0680 
  9 C        3.7330     1.5040     1.9200 C.2   1 <1>   0.1390 
 10 N        0.5740    -1.5320    -1.2570 N.2   1 <1>  -0.5760 
 11 N        0.2920    -3.7650    -0.3690 N.pl3 1 <1>   0.6010 
 12 N        0.7100    -4.5240     0.6650 N.2   1 <1>  -0.7070 
 13 C        2.1770    -4.2480     2.6040 C.3   1 <1>  -0.0590 
 14 N        3.7560     3.0740     0.5400 N.pl3 1 <1>   0.3140 
 15 N        2.5400     2.1880    -1.3880 N.pl3 1 <1>  -0.8530 
 16 N        4.1820     2.7170     1.7740 N.2   1 <1>  -0.7070 
 17 C       -0.2400    -1.8530    -2.2120 C.2   1 <1>   0.3750 
 18 C       -0.5750    -4.1000    -1.3970 C.2   1 <1>  -0.1690 
 19 C        4.0820     4.3550    -0.1070 C.3   1 <1>   0.0960 
 20 C        3.0620     3.3140    -2.2050 C.3   1 <1>   0.2090 
 21 C       -0.8410    -3.1370    -2.3210 C.2   1 <1>  -0.1360 
 22 C       -0.5670    -0.8140    -3.2620 C.3   1 <1>  -0.1790 
 23 C       -1.1670    -5.5020    -1.4280 C.3   1 <1>  -0.1020 
 24 C        3.1850     4.5790    -1.3400 C.3   1 <1>  -0.1600 
 25 H        1.7430    -0.2170    -0.2260 H     1 <1>   0.3700 
 26 H        3.8900     0.9130     2.8060 H     1 <1>   0.1500 
 27 H        1.8860    -3.6410     3.4420 H     1 <1>   0.0800 
 28 H        3.2440    -4.1970     2.4880 H     1 <1>   0.0800 
 29 H        1.8970    -5.2670     2.7980 H     1 <1>   0.0800 
 30 H        2.5610     1.2960    -1.8980 H     1 <1>   0.4000 
 31 H        5.1150     4.3170    -0.3990 H     1 <1>   0.0800 
 32 H        3.9510     5.1450     0.6090 H     1 <1>   0.0800 
 33 H        2.3890     3.4980    -3.0250 H     1 <1>   0.0800 
 34 H        4.0260     3.0450    -2.6060 H     1 <1>   0.0800 
 35 H       -1.5030    -3.3150    -3.1490 H     1 <1>   0.1500 
 36 H       -1.6310    -0.6800    -3.3240 H     1 <1>   0.0800 
 37 H       -0.1910    -1.1300    -4.2170 H     1 <1>   0.0800 
 38 H       -0.1170     0.1290    -3.0070 H     1 <1>   0.0800 
 39 H       -1.7300    -5.6830    -0.5280 H     1 <1>   0.0800 
 40 H       -0.3790    -6.2320    -1.4880 H     1 <1>   0.0800 
 41 H       -1.8190    -5.6280    -2.2740 H     1 <1>   0.0800 
 42 H        3.5820     5.3840    -1.9300 H     1 <1>   0.0800 
 43 H        2.2010     4.8690    -1.0140 H     1 <1>   0.0800 
@<TRIPOS>BOND
  1   1   2  2   
  2   2   3  am  
  3   2   4  1   
  4   3   5  1   
  5   3  25  1   
  6   4   6  2   
  7   4   7  1   
  8   5   8  2   
  9   5   9  1   
 10   6  10  1   
 11   6  11  1   
 12   7  12  2   
 13   7  13  1   
 14   8  14  1   
 15   8  15  1   
 16   9  16  2   
 17   9  26  1   
 18  10  17  2   
 19  11  12  1   
 20  11  18  1   
 21  13  27  1   
 22  13  28  1   
 23  13  29  1   
 24  14  16  1   
 25  14  19  1   
 26  15  20  1   
 27  15  30  1   
 28  17  21  1   
 29  17  22  1   
 30  18  21  2   
 31  18  23  1   
 32  19  24  1   
 33  19  31  1   
 34  19  32  1   
 35  20  24  1   
 36  20  33  1   
 37  20  34  1   
 38  21  35  1   
 39  22  36  1   
 40  22  37  1   
 41  22  38  1   
 42  23  39  1   
 43  23  40  1   
 44  23  41  1   
 45  24  42  1   
 46  24  43  1   
@<TRIPOS>SUBSTRUCTURE
  1 ****   3 GROUP 4 **** **** 0

# MOE 2024.06 (io_trps.svl 2023.06)
