@<TRIPOS>MOLECULE
NONAME
49 51 1 0 0 
SMALL
USER_CHARGES


@<TRIPOS>ATOM
  1 F        0.5320    -1.2990    -0.6690 F     1 <1>  -0.1900 
  2 C       -0.2770    -2.2500    -0.2750 C.ar  1 <1>   0.1900 
  3 C        0.1320    -3.2540     0.6100 C.ar  1 <1>   0.0820 
  4 C       -1.5640    -2.2100    -0.7770 C.ar  1 <1>  -0.1500 
  5 O        1.3680    -3.4000     1.1710 O.3   1 <1>  -0.3630 
  6 C       -0.8010    -4.2130     0.9690 C.ar  1 <1>  -0.1500 
  7 C       -2.4690    -3.1820    -0.3960 C.ar  1 <1>  -0.1500 
  8 C        2.4540    -2.5520     0.8680 C.3   1 <1>   0.0400 
  9 C       -2.1120    -4.2080     0.4830 C.ar  1 <1>   0.0530 
 10 C       -3.0510    -5.2280     0.8850 C.2   1 <1>   0.0870 
 11 O       -2.8740    -5.8870     2.0070 O.3   1 <1>  -0.0190 
 12 C       -4.1840    -5.7210     0.3240 C.2   1 <1>  -0.2330 
 13 N       -3.8090    -6.7740     2.2300 N.2   1 <1>  -0.4100 
 14 C       -4.6150    -6.6870     1.2310 C.2   1 <1>   0.3720 
 15 C       -4.8240    -5.3910    -0.9030 C.2   1 <1>   1.0330 
 16 N       -5.7490    -7.4970     1.1280 N.pl3 1 <1>  -0.8210 
 17 O       -4.6120    -6.0520    -1.9320 O.co2 1 <1>  -0.9000 
 18 O       -5.6080    -4.4260    -0.9590 O.co2 1 <1>  -0.9000 
 19 C       -5.5650    -8.6510     0.2000 C.3   1 <1>   0.2090 
 20 C       -7.0210    -6.7830     0.8410 C.3   1 <1>   0.2090 
 21 C       -6.6880    -9.6730     0.4400 C.3   1 <1>   0.2000 
 22 C       -8.1910    -7.7400     1.1010 C.3   1 <1>  -0.1600 
 23 O       -6.5510   -10.7290    -0.4670 O.3   1 <1>  -0.5600 
 24 C       -8.0710    -9.0230     0.2550 C.3   1 <1>  -0.1600 
 25 C       -7.0610   -11.9480    -0.0350 C.3   1 <1>   0.1200 
 26 C       -6.8260   -12.9710    -1.1450 C.3   1 <1>  -0.1600 
 27 C       -7.3580   -14.3550    -0.7540 C.3   1 <1>  -0.2400 
 28 H       -1.8560    -1.4300    -1.4560 H     1 <1>   0.1500 
 29 H       -0.4990    -4.9910     1.6460 H     1 <1>   0.1500 
 30 H       -3.4720    -3.1400    -0.7860 H     1 <1>   0.1500 
 31 H        3.3120    -2.9020     1.4130 H     1 <1>   0.0800 
 32 H        2.2110    -1.5500     1.1740 H     1 <1>   0.0800 
 33 H        2.6490    -2.5980    -0.1880 H     1 <1>   0.0800 
 34 H       -4.6110    -9.1110     0.3870 H     1 <1>   0.0800 
 35 H       -5.5920    -8.3030    -0.8200 H     1 <1>   0.0800 
 36 H       -7.0470    -6.4640    -0.1880 H     1 <1>   0.0800 
 37 H       -7.0980    -5.9120     1.4700 H     1 <1>   0.0800 
 38 H       -6.5780   -10.0530     1.4410 H     1 <1>   0.0800 
 39 H       -9.1120    -7.2380     0.8700 H     1 <1>   0.0800 
 40 H       -8.2000    -7.9900     2.1470 H     1 <1>   0.0800 
 41 H       -8.8480    -9.7080     0.5370 H     1 <1>   0.0800 
 42 H       -8.1930    -8.7660    -0.7840 H     1 <1>   0.0800 
 43 H       -8.1130   -11.8400     0.1620 H     1 <1>   0.0800 
 44 H       -6.5440   -12.2390     0.8640 H     1 <1>   0.0800 
 45 H       -5.7700   -13.0370    -1.3420 H     1 <1>   0.0800 
 46 H       -7.3210   -12.6370    -2.0390 H     1 <1>   0.0800 
 47 H       -6.8620   -14.7120     0.1310 H     1 <1>   0.0800 
 48 H       -7.1780   -15.0540    -1.5520 H     1 <1>   0.0800 
 49 H       -8.4160   -14.3130    -0.5690 H     1 <1>   0.0800 
@<TRIPOS>BOND
  1   1   2  1   
  2   2   3  ar  
  3   2   4  ar  
  4   3   5  1   
  5   3   6  ar  
  6   4   7  ar  
  7   4  28  1   
  8   5   8  1   
  9   6   9  ar  
 10   6  29  1   
 11   7   9  ar  
 12   7  30  1   
 13   8  31  1   
 14   8  32  1   
 15   8  33  1   
 16   9  10  1   
 17  10  11  1   
 18  10  12  2   
 19  11  13  1   
 20  12  14  1   
 21  12  15  1   
 22  13  14  2   
 23  14  16  1   
 24  15  17  ar  
 25  15  18  ar  
 26  16  19  1   
 27  16  20  1   
 28  19  21  1   
 29  19  34  1   
 30  19  35  1   
 31  20  22  1   
 32  20  36  1   
 33  20  37  1   
 34  21  23  1   
 35  21  24  1   
 36  21  38  1   
 37  22  24  1   
 38  22  39  1   
 39  22  40  1   
 40  23  25  1   
 41  24  41  1   
 42  24  42  1   
 43  25  26  1   
 44  25  43  1   
 45  25  44  1   
 46  26  27  1   
 47  26  45  1   
 48  26  46  1   
 49  27  47  1   
 50  27  48  1   
 51  27  49  1   
@<TRIPOS>SUBSTRUCTURE
  1 ****  12 GROUP 4 **** **** 0

# MOE 2024.06 (io_trps.svl 2023.06)
