@<TRIPOS>MOLECULE
NONAME
49 52 1 0 0 
SMALL
USER_CHARGES


@<TRIPOS>ATOM
  1 O       -0.2620     0.6480     0.3510 O.2   1 <1>  -0.5700 
  2 C       -0.1250     1.8530     0.4310 C.2   1 <1>   0.7150 
  3 N       -1.2030     2.6340     0.7840 N.am  1 <1>  -0.6600 
  4 C        1.1600     2.4420     0.1650 C.2   1 <1>  -0.2370 
  5 C       -1.4270     3.9990     0.2320 C.3   1 <1>   0.1400 
  6 C       -2.3930     2.0500     1.4640 C.3   1 <1>   0.1400 
  7 N        1.6620     3.4860     0.9030 N.pl3 1 <1>   0.0330 
  8 C        2.0960     2.1120    -0.7730 C.2   1 <1>  -0.1500 
  9 C       -2.6000     3.9620    -0.7500 C.3   1 <1>  -0.1600 
 10 C       -3.5730     2.0090     0.4920 C.3   1 <1>  -0.1600 
 11 C        2.8980     3.8270     0.4200 C.ar  1 <1>  -0.1520 
 12 C        3.1970     2.9760    -0.6370 C.ar  1 <1>   0.0000 
 13 C       -3.8670     3.3900    -0.1000 C.3   1 <1>   0.4180 
 14 C        3.7960     4.8180     0.8220 C.ar  1 <1>  -0.1500 
 15 C        4.4150     3.1090    -1.3140 C.ar  1 <1>  -0.1500 
 16 O       -4.2460     4.2100     0.9790 O.3   1 <1>  -0.5600 
 17 C       -5.0020     3.2810    -1.1150 C.2   1 <1>  -0.2880 
 18 C        4.9890     4.9400     0.1490 C.ar  1 <1>  -0.1500 
 19 C        5.3060     4.0900    -0.9200 C.ar  1 <1>   0.0830 
 20 C       -4.9750     5.3690     0.6850 C.3   1 <1>   0.1200 
 21 C       -6.1290     3.9960    -1.0590 C.2   1 <1>  -0.2760 
 22 O        6.5140     4.3050    -1.5100 O.3   1 <1>  -0.3620 
 23 C       -6.3260     5.0140     0.0490 C.3   1 <1>  -0.0220 
 24 C       -7.2800     3.8650    -2.0400 C.3   1 <1>  -0.1020 
 25 C        6.9400     3.4940    -2.5820 C.3   1 <1>   0.0400 
 26 H       -0.5520     4.3540    -0.2840 H     1 <1>   0.0800 
 27 H       -1.6460     4.6760     1.0400 H     1 <1>   0.0800 
 28 H       -2.6450     2.6570     2.3170 H     1 <1>   0.0800 
 29 H       -2.1770     1.0560     1.8170 H     1 <1>   0.0800 
 30 H        1.1960     3.9140     1.7090 H     1 <1>   0.2700 
 31 H        2.0260     1.3240    -1.5020 H     1 <1>   0.1500 
 32 H       -2.3250     3.3440    -1.5850 H     1 <1>   0.0800 
 33 H       -2.7920     4.9450    -1.1350 H     1 <1>   0.0800 
 34 H       -4.4500     1.6470     0.9960 H     1 <1>   0.0800 
 35 H       -3.3410     1.3170    -0.2970 H     1 <1>   0.0800 
 36 H        3.5540     5.4690     1.6430 H     1 <1>   0.1500 
 37 H        4.6140     2.4350    -2.1230 H     1 <1>   0.1500 
 38 H       -4.8040     2.5560    -1.8830 H     1 <1>   0.1500 
 39 H        5.7050     5.6910     0.4290 H     1 <1>   0.1500 
 40 H       -4.3950     5.9810     0.0170 H     1 <1>   0.0800 
 41 H       -5.1260     5.9060     1.6040 H     1 <1>   0.0800 
 42 H       -6.7660     5.9120    -0.3450 H     1 <1>   0.0800 
 43 H       -6.9870     4.6150     0.7970 H     1 <1>   0.0800 
 44 H       -7.4480     4.8000    -2.5430 H     1 <1>   0.0800 
 45 H       -8.1780     3.5820    -1.5200 H     1 <1>   0.0800 
 46 H       -7.0630     3.1140    -2.7780 H     1 <1>   0.0800 
 47 H        7.9140     3.8290    -2.8880 H     1 <1>   0.0800 
 48 H        6.2450     3.5980    -3.3960 H     1 <1>   0.0800 
 49 H        6.9930     2.4730    -2.2470 H     1 <1>   0.0800 
@<TRIPOS>BOND
  1   1   2  2   
  2   2   3  am  
  3   2   4  1   
  4   3   5  1   
  5   3   6  1   
  6   4   7  1   
  7   4   8  2   
  8   5   9  1   
  9   5  26  1   
 10   5  27  1   
 11   6  10  1   
 12   6  28  1   
 13   6  29  1   
 14   7  11  1   
 15   7  30  1   
 16   8  12  1   
 17   8  31  1   
 18   9  13  1   
 19   9  32  1   
 20   9  33  1   
 21  10  13  1   
 22  10  34  1   
 23  10  35  1   
 24  11  12  ar  
 25  11  14  ar  
 26  12  15  ar  
 27  13  16  1   
 28  13  17  1   
 29  14  18  ar  
 30  14  36  1   
 31  15  19  ar  
 32  15  37  1   
 33  16  20  1   
 34  17  21  2   
 35  17  38  1   
 36  18  19  ar  
 37  18  39  1   
 38  19  22  1   
 39  20  23  1   
 40  20  40  1   
 41  20  41  1   
 42  21  23  1   
 43  21  24  1   
 44  22  25  1   
 45  23  42  1   
 46  23  43  1   
 47  24  44  1   
 48  24  45  1   
 49  24  46  1   
 50  25  47  1   
 51  25  48  1   
 52  25  49  1   
@<TRIPOS>SUBSTRUCTURE
  1 ****   5 GROUP 4 **** **** 0

# MOE 2024.06 (io_trps.svl 2023.06)
