@<TRIPOS>MOLECULE
NONAME
44 45 1 0 0 
SMALL
USER_CHARGES


@<TRIPOS>ATOM
  1 CL      -0.7840    -0.0200    -0.8100 Cl    1 <1>  -0.1770 
  2 C       -2.2940     0.4680    -0.0710 C.ar  1 <1>   0.1770 
  3 C       -3.3640    -0.4250    -0.0710 C.ar  1 <1>   0.0860 
  4 C       -2.3760     1.7290     0.5100 C.ar  1 <1>  -0.1440 
  5 C       -4.5220     0.0110     0.5640 C.ar  1 <1>   0.1900 
  6 C       -3.2830    -1.7210    -0.6880 C.2   1 <1>   0.5440 
  7 C       -3.5590     2.1190     1.1230 C.ar  1 <1>  -0.1500 
  8 C       -1.1900     2.6840     0.4860 C.3   1 <1>  -0.0970 
  9 F       -5.5580    -0.7820     0.6170 F     1 <1>  -0.1900 
 10 C       -4.6400     1.2550     1.1530 C.ar  1 <1>  -0.1500 
 11 O       -3.2360    -1.8330    -1.8960 O.2   1 <1>  -0.5700 
 12 N       -3.2900    -2.8530     0.0720 N.am  1 <1>  -0.7300 
 13 C       -3.1740    -4.2360    -0.4480 C.3   1 <1>   0.2200 
 14 C       -4.5420    -4.8940    -0.5440 C.3   1 <1>  -0.0800 
 15 C       -2.5270    -5.1040     0.6200 C.3   1 <1>   0.1200 
 16 C       -4.7890    -5.3600     0.8960 C.3   1 <1>   0.1200 
 17 C       -5.6500    -4.0090    -1.1560 C.3   1 <1>  -0.0550 
 18 O       -3.5450    -5.3650     1.5380 O.3   1 <1>  -0.5600 
 19 S       -7.2170    -4.8490    -1.3950 S.o2  1 <1>   1.3330 
 20 O       -8.1440    -3.9640    -2.0630 O.2   1 <1>  -0.6500 
 21 O       -6.9460    -6.1540    -1.9550 O.2   1 <1>  -0.6500 
 22 N       -7.8010    -5.0780     0.1850 N.am  1 <1>  -0.8490 
 23 C       -8.4100    -3.8720     0.7570 C.3   1 <1>   0.1160 
 24 C       -8.7490    -6.1940     0.2620 C.3   1 <1>   0.1160 
 25 H       -3.6440     3.0920     1.5790 H     1 <1>   0.1500 
 26 H       -1.4330     3.6190     0.9580 H     1 <1>   0.0800 
 27 H       -0.9000     2.8850    -0.5310 H     1 <1>   0.0800 
 28 H       -0.3550     2.2490     1.0040 H     1 <1>   0.0800 
 29 H       -5.5620     1.5430     1.6270 H     1 <1>   0.1500 
 30 H       -3.4120    -2.8050     1.0870 H     1 <1>   0.3700 
 31 H       -2.6320    -4.2520    -1.3800 H     1 <1>   0.0800 
 32 H       -4.4400    -5.7750    -1.1560 H     1 <1>   0.0800 
 33 H       -1.7040    -4.6180     1.1140 H     1 <1>   0.0800 
 34 H       -2.2050    -6.0440     0.2070 H     1 <1>   0.0800 
 35 H       -5.2090    -6.3510     0.9300 H     1 <1>   0.0800 
 36 H       -5.4260    -4.6780     1.4320 H     1 <1>   0.0800 
 37 H       -5.3050    -3.6630    -2.1110 H     1 <1>   0.0800 
 38 H       -5.8050    -3.1440    -0.5450 H     1 <1>   0.0800 
 39 H       -8.6870    -4.0490     1.7830 H     1 <1>   0.0800 
 40 H       -9.2900    -3.5920     0.2000 H     1 <1>   0.0800 
 41 H       -7.7120    -3.0530     0.7320 H     1 <1>   0.0800 
 42 H       -9.0920    -6.3240     1.2740 H     1 <1>   0.0800 
 43 H       -8.2700    -7.1070    -0.0500 H     1 <1>   0.0800 
 44 H       -9.5950    -6.0110    -0.3800 H     1 <1>   0.0800 
@<TRIPOS>BOND
  1   1   2  1   
  2   2   3  ar  
  3   2   4  ar  
  4   3   5  ar  
  5   3   6  1   
  6   4   7  ar  
  7   4   8  1   
  8   5   9  1   
  9   5  10  ar  
 10   6  11  2   
 11   6  12  am  
 12   7  10  ar  
 13   7  25  1   
 14   8  26  1   
 15   8  27  1   
 16   8  28  1   
 17  10  29  1   
 18  12  13  1   
 19  12  30  1   
 20  13  14  1   
 21  13  15  1   
 22  13  31  1   
 23  14  16  1   
 24  14  17  1   
 25  14  32  1   
 26  15  18  1   
 27  15  33  1   
 28  15  34  1   
 29  16  18  1   
 30  16  35  1   
 31  16  36  1   
 32  17  19  1   
 33  17  37  1   
 34  17  38  1   
 35  19  20  2   
 36  19  21  2   
 37  19  22  am  
 38  22  23  1   
 39  22  24  1   
 40  23  39  1   
 41  23  40  1   
 42  23  41  1   
 43  24  42  1   
 44  24  43  1   
 45  24  44  1   
@<TRIPOS>SUBSTRUCTURE
  1 ****  12 GROUP 4 **** **** 0

# MOE 2024.06 (io_trps.svl 2023.06)
