@<TRIPOS>MOLECULE
NONAME
46 48 1 0 0 
SMALL
USER_CHARGES


@<TRIPOS>ATOM
  1 S       -0.5270    -0.2510    -1.3090 S.o2  1 <1>   1.4470 
  2 O       -0.3720     0.9220    -2.1420 O.2   1 <1>  -0.6500 
  3 O       -0.8550    -1.5180    -1.9240 O.2   1 <1>  -0.6500 
  4 N       -1.7660     0.0940    -0.2030 N.am  1 <1>  -0.8490 
  5 C        0.9280    -0.4650    -0.2450 C.ar  1 <1>  -0.0090 
  6 C       -3.0880    -0.2220    -0.7620 C.3   1 <1>   0.1960 
  7 C       -1.6550     1.4240     0.4230 C.3   1 <1>   0.1960 
  8 C        2.1100     0.2210    -0.4980 C.ar  1 <1>  -0.1500 
  9 C        0.8930    -1.3260     0.8500 C.ar  1 <1>  -0.1500 
 10 C       -4.2060     0.4220     0.0600 C.3   1 <1>  -0.1600 
 11 C       -2.6470     2.4100    -0.1930 C.3   1 <1>  -0.1600 
 12 C        3.1980     0.0370     0.3330 C.ar  1 <1>   0.1900 
 13 C        1.9930    -1.5030     1.6770 C.ar  1 <1>  -0.1500 
 14 C       -4.0980     1.9660     0.0900 C.3   1 <1>   0.2800 
 15 F        4.2980     0.6920     0.0810 F     1 <1>  -0.1900 
 16 C        3.1650    -0.8130     1.4200 C.ar  1 <1>  -0.1500 
 17 O       -4.4100     2.3170     1.4130 O.3   1 <1>  -0.5600 
 18 C       -5.0840     2.6280    -0.9080 C.3   1 <1>  -0.1600 
 19 C       -4.8100     3.6360     1.6950 C.3   1 <1>   0.1200 
 20 C       -6.3970     3.0640    -0.2470 C.3   1 <1>   0.2800 
 21 C       -6.0600     4.0550     0.8980 C.3   1 <1>   0.2000 
 22 O       -7.1360     3.7440    -1.1970 O.3   1 <1>  -0.6800 
 23 C       -7.2720     1.8720     0.1740 C.3   1 <1>  -0.2400 
 24 O       -7.1430     4.2310     1.7560 O.3   1 <1>  -0.6800 
 25 H       -3.1480     0.1320    -1.7780 H     1 <1>   0.0800 
 26 H       -3.2160    -1.2920    -0.7770 H     1 <1>   0.0800 
 27 H       -1.8710     1.3280     1.4740 H     1 <1>   0.0800 
 28 H       -0.6520     1.8070     0.3330 H     1 <1>   0.0800 
 29 H        2.1870     0.8940    -1.3340 H     1 <1>   0.1500 
 30 H       -0.0150    -1.8680     1.0570 H     1 <1>   0.1500 
 31 H       -4.1430     0.0260     1.0590 H     1 <1>   0.0800 
 32 H       -5.1490     0.1110    -0.3460 H     1 <1>   0.0800 
 33 H       -2.4660     2.4510    -1.2520 H     1 <1>   0.0800 
 34 H       -2.4660     3.3950     0.1930 H     1 <1>   0.0800 
 35 H        1.9350    -2.1750     2.5160 H     1 <1>   0.1500 
 36 H        4.0330    -0.9310     2.0430 H     1 <1>   0.1500 
 37 H       -4.6180     3.5070    -1.3180 H     1 <1>   0.0800 
 38 H       -5.2720     1.9660    -1.7340 H     1 <1>   0.0800 
 39 H       -5.0060     3.6980     2.7510 H     1 <1>   0.0800 
 40 H       -3.9930     4.2920     1.4630 H     1 <1>   0.0800 
 41 H       -5.8540     5.0200     0.4680 H     1 <1>   0.0800 
 42 H       -7.4310     3.1210    -1.8870 H     1 <1>   0.4000 
 43 H       -6.8240     1.3600     1.0060 H     1 <1>   0.0800 
 44 H       -7.3860     1.1720    -0.6340 H     1 <1>   0.0800 
 45 H       -8.2450     2.2050     0.4880 H     1 <1>   0.0800 
 46 H       -7.9330     4.4220     1.2110 H     1 <1>   0.4000 
@<TRIPOS>BOND
  1   1   2  2   
  2   1   3  2   
  3   1   4  am  
  4   1   5  1   
  5   4   6  1   
  6   4   7  1   
  7   5   8  ar  
  8   5   9  ar  
  9   6  10  1   
 10   6  25  1   
 11   6  26  1   
 12   7  11  1   
 13   7  27  1   
 14   7  28  1   
 15   8  12  ar  
 16   8  29  1   
 17   9  13  ar  
 18   9  30  1   
 19  10  14  1   
 20  10  31  1   
 21  10  32  1   
 22  11  14  1   
 23  11  33  1   
 24  11  34  1   
 25  12  15  1   
 26  12  16  ar  
 27  13  16  ar  
 28  13  35  1   
 29  14  17  1   
 30  14  18  1   
 31  16  36  1   
 32  17  19  1   
 33  18  20  1   
 34  18  37  1   
 35  18  38  1   
 36  19  21  1   
 37  19  39  1   
 38  19  40  1   
 39  20  21  1   
 40  20  22  1   
 41  20  23  1   
 42  21  24  1   
 43  21  41  1   
 44  22  42  1   
 45  23  43  1   
 46  23  44  1   
 47  23  45  1   
 48  24  46  1   
@<TRIPOS>SUBSTRUCTURE
  1 ****   7 GROUP 4 **** **** 0

# MOE 2024.06 (io_trps.svl 2023.06)
