@<TRIPOS>MOLECULE
NONAME
51 53 1 0 0 
SMALL
USER_CHARGES


@<TRIPOS>ATOM
  1 O       -3.6810     2.2810     1.3500 O.2   1 <1>  -0.5700 
  2 C       -3.5300     1.9310     0.2020 C.2   1 <1>   0.5690 
  3 N       -4.2430     0.8730    -0.2950 N.am  1 <1>  -0.6600 
  4 C       -2.5420     2.7180    -0.6440 C.3   1 <1>   0.1570 
  5 C       -4.3790    -0.3290     0.5750 C.3   1 <1>   0.3210 
  6 C       -4.5590     0.6390    -1.7400 C.3   1 <1>   0.1400 
  7 N       -1.1550     2.3340    -0.2880 N.pl3 1 <1>   0.0480 
  8 C       -3.1610    -1.2190     0.3600 C.2   1 <1>   0.0460 
  9 C       -5.7930     1.4350    -2.1850 C.3   1 <1>   0.1200 
 10 C       -0.4180     1.3500    -0.8780 C.ar  1 <1>  -0.1520 
 11 C       -0.3350     2.8840     0.6590 C.2   1 <1>   0.0060 
 12 N       -3.1270    -2.1250    -0.6420 N.2   1 <1>  -0.5650 
 13 C       -1.9950    -1.2150     1.0480 C.2   1 <1>  -0.3320 
 14 O       -5.6790     2.7630    -1.7960 O.3   1 <1>  -0.6800 
 15 C        0.8120     1.3810    -0.2500 C.ar  1 <1>   0.2270 
 16 C       -0.6730     0.4160    -1.8870 C.ar  1 <1>  -0.1500 
 17 N        0.8370     2.3450     0.7040 N.2   1 <1>  -0.5650 
 18 C       -0.7650     4.0390     1.5690 C.3   1 <1>   0.1000 
 19 C       -1.9450    -2.6400    -0.5490 C.2   1 <1>   0.0360 
 20 N       -1.2060    -2.1280     0.4560 N.pl3 1 <1>   0.0330 
 21 C       -1.5270    -0.3820     2.2310 C.3   1 <1>  -0.0600 
 22 C        1.8180     0.4920    -0.6220 C.ar  1 <1>  -0.1500 
 23 C        0.3240    -0.4610    -2.2520 C.ar  1 <1>  -0.1500 
 24 C       -0.4000     5.3780     0.9200 C.3   1 <1>  -0.2400 
 25 C       -0.1230     3.9350     2.9590 C.3   1 <1>  -0.2400 
 26 C        1.5730    -0.4240    -1.6210 C.ar  1 <1>  -0.1500 
 27 H       -2.6780     3.7640    -0.4530 H     1 <1>   0.0800 
 28 H       -2.6930     2.5540    -1.6900 H     1 <1>   0.0800 
 29 H       -5.2760    -0.8700     0.3310 H     1 <1>   0.0800 
 30 H       -4.4340    -0.0390     1.6090 H     1 <1>   0.0800 
 31 H       -4.7430    -0.4080    -1.9110 H     1 <1>   0.0800 
 32 H       -3.7270     0.9070    -2.3610 H     1 <1>   0.0800 
 33 H       -6.6850     1.0280    -1.7410 H     1 <1>   0.0800 
 34 H       -5.8920     1.4060    -3.2570 H     1 <1>   0.0800 
 35 H       -5.7030     2.8090    -0.8160 H     1 <1>   0.4000 
 36 H       -1.6320     0.3740    -2.3650 H     1 <1>   0.1500 
 37 H       -1.8290     4.0060     1.7130 H     1 <1>   0.0800 
 38 H       -1.5620    -3.4030    -1.2030 H     1 <1>   0.1500 
 39 H       -0.2370    -2.3570     0.6960 H     1 <1>   0.2700 
 40 H       -2.2830     0.3210     2.5290 H     1 <1>   0.0800 
 41 H       -0.6420     0.1700     1.9700 H     1 <1>   0.0800 
 42 H       -1.3030    -1.0180     3.0680 H     1 <1>   0.0800 
 43 H        2.7640     0.5490    -0.1170 H     1 <1>   0.1500 
 44 H        0.1480    -1.1850    -3.0280 H     1 <1>   0.1500 
 45 H        0.6650     5.4370     0.7780 H     1 <1>   0.0800 
 46 H       -0.7130     6.1960     1.5430 H     1 <1>   0.0800 
 47 H       -0.8760     5.4710    -0.0390 H     1 <1>   0.0800 
 48 H        0.9480     4.0050     2.8840 H     1 <1>   0.0800 
 49 H       -0.3710     2.9870     3.4010 H     1 <1>   0.0800 
 50 H       -0.4800     4.7200     3.5990 H     1 <1>   0.0800 
 51 H        2.3400    -1.1150    -1.9260 H     1 <1>   0.1500 
@<TRIPOS>BOND
  1   1   2  2   
  2   2   3  am  
  3   2   4  1   
  4   3   5  1   
  5   3   6  1   
  6   4   7  1   
  7   4  27  1   
  8   4  28  1   
  9   5   8  1   
 10   5  29  1   
 11   5  30  1   
 12   6   9  1   
 13   6  31  1   
 14   6  32  1   
 15   7  10  1   
 16   7  11  1   
 17   8  12  1   
 18   8  13  2   
 19   9  14  1   
 20   9  33  1   
 21   9  34  1   
 22  10  15  ar  
 23  10  16  ar  
 24  11  17  2   
 25  11  18  1   
 26  12  19  2   
 27  13  20  1   
 28  13  21  1   
 29  14  35  1   
 30  15  17  1   
 31  15  22  ar  
 32  16  23  ar  
 33  16  36  1   
 34  18  24  1   
 35  18  25  1   
 36  18  37  1   
 37  19  20  1   
 38  19  38  1   
 39  20  39  1   
 40  21  40  1   
 41  21  41  1   
 42  21  42  1   
 43  22  26  ar  
 44  22  43  1   
 45  23  26  ar  
 46  23  44  1   
 47  24  45  1   
 48  24  46  1   
 49  24  47  1   
 50  25  48  1   
 51  25  49  1   
 52  25  50  1   
 53  26  51  1   
@<TRIPOS>SUBSTRUCTURE
  1 ****   7 GROUP 4 **** **** 0

# MOE 2024.06 (io_trps.svl 2023.06)
