@<TRIPOS>MOLECULE
NONAME
50 52 1 0 0 
SMALL
USER_CHARGES


@<TRIPOS>ATOM
  1 O       -2.1410     0.3920     1.6130 O.2   1 <1>  -0.5700 
  2 C       -2.3030     0.9890     0.5580 C.2   1 <1>   0.5440 
  3 N       -2.9200     0.2680    -0.4510 N.am  1 <1>  -0.6600 
  4 C       -1.8790     2.3890     0.4290 C.ar  1 <1>   0.3960 
  5 C       -2.8990    -1.2160    -0.4220 C.3   1 <1>   0.1400 
  6 C       -4.0260     0.8390    -1.2650 C.3   1 <1>   0.1400 
  7 N       -1.7430     2.9600    -0.7690 N.ar  1 <1>  -0.6200 
  8 C       -1.6020     3.1360     1.5610 C.ar  1 <1>  -0.1500 
  9 C       -4.2140    -1.7160     0.2130 C.3   1 <1>   0.4230 
 10 C       -5.3580     0.3520    -0.6740 C.3   1 <1>  -0.1600 
 11 C       -1.3490     4.2160    -0.7910 C.ar  1 <1>   0.4770 
 12 C       -1.2010     4.4400     1.4190 C.ar  1 <1>   0.1660 
 13 N       -4.2320    -3.2120     0.5010 N.4   1 <1>  -0.9590 
 14 C       -5.4680    -1.1980    -0.5560 C.3   1 <1>   0.0000 
 15 N       -1.0730     4.9930     0.2390 N.ar  1 <1>  -0.6200 
 16 C       -1.1950     4.8530    -2.1510 C.3   1 <1>  -0.0970 
 17 C       -0.8850     5.3060     2.6200 C.3   1 <1>  -0.0970 
 18 C       -5.6040    -3.7740     0.7210 C.3   1 <1>   0.3430 
 19 C       -3.4750    -4.0680    -0.4700 C.3   1 <1>   0.2630 
 20 C       -6.7480    -1.5470     0.2620 C.3   1 <1>  -0.1600 
 21 C       -5.5340    -1.8400    -1.9710 C.3   1 <1>   0.1200 
 22 C       -6.5550    -2.7070     1.2580 C.3   1 <1>  -0.1600 
 23 O       -6.5340    -1.2770    -2.7460 O.3   1 <1>  -0.6800 
 24 H       -2.7760    -1.5780    -1.4260 H     1 <1>   0.0800 
 25 H       -2.0600    -1.5500     0.1640 H     1 <1>   0.0800 
 26 H       -4.0030     1.9150    -1.2450 H     1 <1>   0.0800 
 27 H       -3.9230     0.5270    -2.2910 H     1 <1>   0.0800 
 28 H       -1.6990     2.6950     2.5350 H     1 <1>   0.1500 
 29 H       -4.2530    -1.2270     1.1730 H     1 <1>   0.0800 
 30 H       -5.4510     0.7990     0.3010 H     1 <1>   0.0800 
 31 H       -6.1630     0.7470    -1.2680 H     1 <1>   0.0800 
 32 H       -3.7460    -3.2920     1.4070 H     1 <1>   0.4500 
 33 H       -0.2300     5.3180    -2.2230 H     1 <1>   0.0800 
 34 H       -1.9550     5.5980    -2.2830 H     1 <1>   0.0800 
 35 H       -1.2850     4.1150    -2.9280 H     1 <1>   0.0800 
 36 H       -1.0200     4.7630     3.5370 H     1 <1>   0.0800 
 37 H       -1.5310     6.1650     2.6250 H     1 <1>   0.0800 
 38 H        0.1350     5.6420     2.5620 H     1 <1>   0.0800 
 39 H       -6.0000    -4.1450    -0.2110 H     1 <1>   0.0800 
 40 H       -5.5540    -4.6010     1.4120 H     1 <1>   0.0800 
 41 H       -3.9060    -3.9960    -1.4550 H     1 <1>   0.0800 
 42 H       -3.5030    -5.1000    -0.1580 H     1 <1>   0.0800 
 43 H       -2.4430    -3.7610    -0.5210 H     1 <1>   0.0800 
 44 H       -7.0810    -0.6920     0.8290 H     1 <1>   0.0800 
 45 H       -7.5580    -1.7910    -0.4030 H     1 <1>   0.0800 
 46 H       -5.7280    -2.8960    -1.9170 H     1 <1>   0.0800 
 47 H       -4.6160    -1.6910    -2.5110 H     1 <1>   0.0800 
 48 H       -7.5120    -3.1550     1.4650 H     1 <1>   0.0800 
 49 H       -6.1740    -2.3340     2.1940 H     1 <1>   0.0800 
 50 H       -7.4240    -1.4250    -2.3690 H     1 <1>   0.4000 
@<TRIPOS>BOND
  1   1   2  2   
  2   2   3  am  
  3   2   4  1   
  4   3   5  1   
  5   3   6  1   
  6   4   7  ar  
  7   4   8  ar  
  8   5   9  1   
  9   5  24  1   
 10   5  25  1   
 11   6  10  1   
 12   6  26  1   
 13   6  27  1   
 14   7  11  ar  
 15   8  12  ar  
 16   8  28  1   
 17   9  13  1   
 18   9  14  1   
 19   9  29  1   
 20  10  14  1   
 21  10  30  1   
 22  10  31  1   
 23  11  15  ar  
 24  11  16  1   
 25  12  15  ar  
 26  12  17  1   
 27  13  18  1   
 28  13  19  1   
 29  13  32  1   
 30  14  20  1   
 31  14  21  1   
 32  16  33  1   
 33  16  34  1   
 34  16  35  1   
 35  17  36  1   
 36  17  37  1   
 37  17  38  1   
 38  18  22  1   
 39  18  39  1   
 40  18  40  1   
 41  19  41  1   
 42  19  42  1   
 43  19  43  1   
 44  20  22  1   
 45  20  44  1   
 46  20  45  1   
 47  21  23  1   
 48  21  46  1   
 49  21  47  1   
 50  22  48  1   
 51  22  49  1   
 52  23  50  1   
@<TRIPOS>SUBSTRUCTURE
  1 ****   3 GROUP 4 **** **** 0

# MOE 2024.06 (io_trps.svl 2023.06)
