@<TRIPOS>MOLECULE
NONAME
48 49 1 0 0 
SMALL
USER_CHARGES


@<TRIPOS>ATOM
  1 S        0.0040    -0.4650    -1.2870 S.3   1 <1>  -0.4600 
  2 C       -1.4450    -0.9980    -0.3330 C.3   1 <1>   0.0700 
  3 C        1.4840    -0.7880    -0.2630 C.3   1 <1>   0.0700 
  4 C       -1.2780    -2.4950    -0.0570 C.3   1 <1>   0.4230 
  5 C        1.9700    -2.2340    -0.4560 C.3   1 <1>   0.0700 
  6 N       -2.5820    -3.2260     0.0380 N.4   1 <1>  -0.9060 
  7 C       -0.4060    -2.7080     1.1890 C.3   1 <1>   0.0700 
  8 S        1.1380    -3.4600     0.6270 S.3   1 <1>  -0.4600 
  9 C       -2.3750    -4.7030    -0.0190 C.3   1 <1>   0.3430 
 10 C       -3.7160    -5.4410     0.0660 C.3   1 <1>  -0.1600 
 11 C       -3.4980    -6.9620     0.0220 C.3   1 <1>   0.3430 
 12 N       -4.7800    -7.7080     0.2060 N.4   1 <1>  -0.9590 
 13 C       -4.4990    -9.1350     0.5890 C.3   1 <1>   0.4230 
 14 C       -5.7050    -7.5880    -0.9770 C.3   1 <1>   0.2630 
 15 C       -3.8600    -9.9500    -0.5490 C.3   1 <1>  -0.1600 
 16 C       -5.7870    -9.8740     0.9630 C.3   1 <1>  -0.1600 
 17 C       -4.8040   -11.1190    -0.8570 C.3   1 <1>  -0.1600 
 18 C       -6.1470   -10.7560    -0.2320 C.3   1 <1>  -0.1600 
 19 H       -2.2940    -0.7960    -0.9620 H     1 <1>   0.0800 
 20 H       -1.4890    -0.3990     0.5600 H     1 <1>   0.0800 
 21 H        1.2810    -0.5350     0.7620 H     1 <1>   0.0800 
 22 H        2.2350    -0.1120    -0.6350 H     1 <1>   0.0800 
 23 H       -0.7450    -2.8990    -0.9040 H     1 <1>   0.0800 
 24 H        3.0160    -2.3010    -0.2110 H     1 <1>   0.0800 
 25 H        1.8370    -2.5530    -1.4750 H     1 <1>   0.0800 
 26 H       -3.1680    -2.9260    -0.7540 H     1 <1>   0.4500 
 27 H       -3.0700    -2.9460     0.8990 H     1 <1>   0.4500 
 28 H       -0.8410    -3.3930     1.8940 H     1 <1>   0.0800 
 29 H       -0.1530    -1.7950     1.6970 H     1 <1>   0.0800 
 30 H       -1.7390    -5.0130     0.7970 H     1 <1>   0.0800 
 31 H       -1.8760    -4.9600    -0.9410 H     1 <1>   0.0800 
 32 H       -4.3320    -5.1430    -0.7640 H     1 <1>   0.0800 
 33 H       -4.2030    -5.1840     0.9900 H     1 <1>   0.0800 
 34 H       -2.8160    -7.2400     0.8110 H     1 <1>   0.0800 
 35 H       -3.0470    -7.2460    -0.9160 H     1 <1>   0.0800 
 36 H       -5.2760    -7.3160     1.0180 H     1 <1>   0.4500 
 37 H       -3.8430    -9.1470     1.4450 H     1 <1>   0.0800 
 38 H       -5.2630    -8.0330    -1.8540 H     1 <1>   0.0800 
 39 H       -5.9240    -6.5550    -1.1870 H     1 <1>   0.0800 
 40 H       -6.6370    -8.0910    -0.7760 H     1 <1>   0.0800 
 41 H       -2.9110   -10.3420    -0.2270 H     1 <1>   0.0800 
 42 H       -3.6990    -9.3690    -1.4380 H     1 <1>   0.0800 
 43 H       -6.5940    -9.2250     1.2530 H     1 <1>   0.0800 
 44 H       -5.5660   -10.5220     1.7940 H     1 <1>   0.0800 
 45 H       -4.4290   -12.0140    -0.3880 H     1 <1>   0.0800 
 46 H       -4.8930   -11.3030    -1.9150 H     1 <1>   0.0800 
 47 H       -6.7450   -10.2130    -0.9430 H     1 <1>   0.0800 
 48 H       -6.6940   -11.6350     0.0690 H     1 <1>   0.0800 
@<TRIPOS>BOND
  1   1   2  1   
  2   1   3  1   
  3   2   4  1   
  4   2  19  1   
  5   2  20  1   
  6   3   5  1   
  7   3  21  1   
  8   3  22  1   
  9   4   6  1   
 10   4   7  1   
 11   4  23  1   
 12   5   8  1   
 13   5  24  1   
 14   5  25  1   
 15   6   9  1   
 16   6  26  1   
 17   6  27  1   
 18   7   8  1   
 19   7  28  1   
 20   7  29  1   
 21   9  10  1   
 22   9  30  1   
 23   9  31  1   
 24  10  11  1   
 25  10  32  1   
 26  10  33  1   
 27  11  12  1   
 28  11  34  1   
 29  11  35  1   
 30  12  13  1   
 31  12  14  1   
 32  12  36  1   
 33  13  15  1   
 34  13  16  1   
 35  13  37  1   
 36  14  38  1   
 37  14  39  1   
 38  14  40  1   
 39  15  17  1   
 40  15  41  1   
 41  15  42  1   
 42  16  18  1   
 43  16  43  1   
 44  16  44  1   
 45  17  18  1   
 46  17  45  1   
 47  17  46  1   
 48  18  47  1   
 49  18  48  1   
@<TRIPOS>SUBSTRUCTURE
  1 ****   9 GROUP 4 **** **** 0

# MOE 2024.06 (io_trps.svl 2023.06)
