@<TRIPOS>MOLECULE
NONAME
65 67 1 0 0 
SMALL
USER_CHARGES


@<TRIPOS>ATOM
  1 O       -0.2930     0.2180    -0.2410 O.3   1 <1>  -0.5600 
  2 C       -1.4440    -0.5320    -0.4830 C.3   1 <1>   0.2640 
  3 C       -0.4610     1.5870    -0.3170 C.3   1 <1>   0.1200 
  4 C       -1.0980    -2.0040    -0.3400 C.ar  1 <1>  -0.1440 
  5 C        0.9010     2.1970     0.0050 C.3   1 <1>  -0.1600 
  6 C       -1.4670    -2.7070     0.7980 C.ar  1 <1>  -0.1500 
  7 C       -0.4120    -2.6610    -1.3500 C.ar  1 <1>  -0.1500 
  8 C        0.8530     3.7210    -0.0490 C.3   1 <1>   0.3430 
  9 C       -1.1580    -4.0510     0.9200 C.ar  1 <1>  -0.1500 
 10 C       -0.1030    -4.0040    -1.2290 C.ar  1 <1>  -0.1500 
 11 N        2.1570     4.2950     0.4010 N.4   1 <1>  -0.9590 
 12 C       -0.4770    -4.7010    -0.0940 C.ar  1 <1>  -0.1500 
 13 C        2.0080     5.7410     0.7190 C.3   1 <1>   0.3430 
 14 C        3.2440     4.0550    -0.5930 C.3   1 <1>   0.3430 
 15 C        3.3250     6.2980     1.2760 C.3   1 <1>  -0.1600 
 16 C        4.5720     4.5760    -0.0370 C.3   1 <1>  -0.1600 
 17 C        4.5230     6.0830     0.3220 C.3   1 <1>  -0.0800 
 18 C        5.8360     6.6950     0.9260 C.3   1 <1>   0.4230 
 19 N        6.1290     8.0340     0.3150 N.4   1 <1>  -0.9590 
 20 C        7.0720     5.7950     0.7640 C.3   1 <1>  -0.2400 
 21 C        7.4350     8.6830     0.7140 C.3   1 <1>   0.3430 
 22 C        5.0440     9.0740     0.4290 C.3   1 <1>   0.3430 
 23 C        7.7390     9.9130    -0.1770 C.3   1 <1>   0.1100 
 24 C        5.3630    10.3230    -0.4300 C.3   1 <1>   0.1100 
 25 N        6.6490    10.1790    -1.1440 N.3   1 <1>  -0.8100 
 26 C        6.9410    11.3610    -1.9660 C.3   1 <1>   0.0300 
 27 H       -1.7900    -0.3270    -1.4820 H     1 <1>   0.0800 
 28 H       -2.2000    -0.2500     0.2290 H     1 <1>   0.0800 
 29 H       -1.2050     1.8840     0.4050 H     1 <1>   0.0800 
 30 H       -0.7830     1.8400    -1.3140 H     1 <1>   0.0800 
 31 H        1.6070     1.8170    -0.7120 H     1 <1>   0.0800 
 32 H        1.1850     1.8760     0.9910 H     1 <1>   0.0800 
 33 H       -1.9930    -2.2130     1.5950 H     1 <1>   0.1500 
 34 H       -0.1120    -2.1240    -2.2330 H     1 <1>   0.1500 
 35 H        0.0650     4.0630     0.6040 H     1 <1>   0.0800 
 36 H        0.6260     4.0490    -1.0510 H     1 <1>   0.0800 
 37 H       -1.4470    -4.5910     1.8050 H     1 <1>   0.1500 
 38 H        0.4300    -4.5070    -2.0170 H     1 <1>   0.1500 
 39 H        2.4140     3.8020     1.2680 H     1 <1>   0.4500 
 40 H       -0.2360    -5.7450     0.0010 H     1 <1>   0.1500 
 41 H        1.2240     5.8780     1.4480 H     1 <1>   0.0800 
 42 H        1.7340     6.2820    -0.1740 H     1 <1>   0.0800 
 43 H        3.0130     4.5580    -1.5180 H     1 <1>   0.0800 
 44 H        3.3360     3.0000    -0.7970 H     1 <1>   0.0800 
 45 H        3.5220     5.8260     2.2240 H     1 <1>   0.0800 
 46 H        3.1810     7.3440     1.4740 H     1 <1>   0.0800 
 47 H        5.3240     4.4020    -0.7880 H     1 <1>   0.0800 
 48 H        4.8280     3.9850     0.8250 H     1 <1>   0.0800 
 49 H        4.3150     6.5930    -0.6040 H     1 <1>   0.0800 
 50 H        5.6820     6.8290     1.9850 H     1 <1>   0.0800 
 51 H        6.2510     7.9310    -0.7060 H     1 <1>   0.4500 
 52 H        7.3410     5.6840    -0.2710 H     1 <1>   0.0800 
 53 H        6.8930     4.8210     1.1800 H     1 <1>   0.0800 
 54 H        7.9130     6.1790     1.3120 H     1 <1>   0.0800 
 55 H        8.2520     7.9930     0.6020 H     1 <1>   0.0800 
 56 H        7.3990     8.9880     1.7460 H     1 <1>   0.0800 
 57 H        4.9230     9.3720     1.4570 H     1 <1>   0.0800 
 58 H        4.1060     8.6710     0.0890 H     1 <1>   0.0800 
 59 H        8.6540     9.7350    -0.7170 H     1 <1>   0.0800 
 60 H        7.8970    10.7760     0.4490 H     1 <1>   0.0800 
 61 H        5.3890    11.1940     0.2040 H     1 <1>   0.0800 
 62 H        4.5720    10.4690    -1.1470 H     1 <1>   0.0800 
 63 H        7.8640    11.2180    -2.5030 H     1 <1>   0.0800 
 64 H        7.0280    12.2430    -1.3530 H     1 <1>   0.0800 
 65 H        6.1550    11.5130    -2.6870 H     1 <1>   0.0800 
@<TRIPOS>BOND
  1   1   2  1   
  2   1   3  1   
  3   2   4  1   
  4   2  27  1   
  5   2  28  1   
  6   3   5  1   
  7   3  29  1   
  8   3  30  1   
  9   4   6  ar  
 10   4   7  ar  
 11   5   8  1   
 12   5  31  1   
 13   5  32  1   
 14   6   9  ar  
 15   6  33  1   
 16   7  10  ar  
 17   7  34  1   
 18   8  11  1   
 19   8  35  1   
 20   8  36  1   
 21   9  12  ar  
 22   9  37  1   
 23  10  12  ar  
 24  10  38  1   
 25  11  13  1   
 26  11  14  1   
 27  11  39  1   
 28  12  40  1   
 29  13  15  1   
 30  13  41  1   
 31  13  42  1   
 32  14  16  1   
 33  14  43  1   
 34  14  44  1   
 35  15  17  1   
 36  15  45  1   
 37  15  46  1   
 38  16  17  1   
 39  16  47  1   
 40  16  48  1   
 41  17  18  1   
 42  17  49  1   
 43  18  19  1   
 44  18  20  1   
 45  18  50  1   
 46  19  21  1   
 47  19  22  1   
 48  19  51  1   
 49  20  52  1   
 50  20  53  1   
 51  20  54  1   
 52  21  23  1   
 53  21  55  1   
 54  21  56  1   
 55  22  24  1   
 56  22  57  1   
 57  22  58  1   
 58  23  25  1   
 59  23  59  1   
 60  23  60  1   
 61  24  25  1   
 62  24  61  1   
 63  24  62  1   
 64  25  26  1   
 65  26  63  1   
 66  26  64  1   
 67  26  65  1   
@<TRIPOS>SUBSTRUCTURE
  1 ****  14 GROUP 4 **** **** 0

# MOE 2024.06 (io_trps.svl 2023.06)
