@<TRIPOS>MOLECULE
NONAME
45 47 1 0 0 
SMALL
USER_CHARGES


@<TRIPOS>ATOM
  1 O        0.0830    -1.2060     2.1970 O.2   1 <1>  -0.5700 
  2 C        0.4160    -1.9260     1.3020 C.2   1 <1>   0.8520 
  3 N       -0.3560    -2.9230     0.8190 N.pl3 1 <1>  -0.8600 
  4 C        1.7290    -1.9260     0.5020 C.3   1 <1>   0.3890 
  5 C        0.2430    -3.5690    -0.1610 C.cat 1 <1>   1.2000 
  6 N        1.4340    -3.0630    -0.4020 N.pl3 1 <1>  -0.8440 
  7 C        1.9250    -0.6450    -0.3220 C.3   1 <1>  -0.1600 
  8 C        2.9540    -2.2590     1.3670 C.3   1 <1>  -0.1600 
  9 N       -0.2960    -4.5990    -0.8150 N.pl3 1 <1>  -0.7220 
 10 C        3.2170    -0.6860    -1.1320 C.3   1 <1>   0.2090 
 11 C        4.2470    -2.2770     0.5530 C.3   1 <1>   0.2090 
 12 C        0.3840    -5.3360    -1.9270 C.3   1 <1>   0.0880 
 13 C       -1.6540    -5.1650    -0.5300 C.3   1 <1>   0.0880 
 14 N        4.3360    -1.0130    -0.2160 N.pl3 1 <1>  -0.8380 
 15 C        5.4090    -0.1580    -0.0600 C.ar  1 <1>   0.7200 
 16 N        6.5790    -0.7140     0.2410 N.ar  1 <1>  -0.6200 
 17 N        5.1690     1.1410    -0.2190 N.ar  1 <1>  -0.6200 
 18 C        7.5890     0.1050     0.3890 C.ar  1 <1>   0.1670 
 19 C        6.1920     1.9420    -0.0640 C.ar  1 <1>   0.1670 
 20 C        7.4430     1.4650     0.2450 C.ar  1 <1>  -0.1500 
 21 C        8.9300    -0.5100     0.7270 C.3   1 <1>  -0.0970 
 22 C        5.9370     3.4230    -0.2400 C.3   1 <1>  -0.0970 
 23 H       -1.2710    -3.1100     1.2000 H     1 <1>   0.4500 
 24 H        2.0950    -3.3820    -1.1040 H     1 <1>   0.4500 
 25 H        1.9840     0.1980     0.3460 H     1 <1>   0.0800 
 26 H        1.0880    -0.4780    -0.9760 H     1 <1>   0.0800 
 27 H        2.8260    -3.2010     1.8680 H     1 <1>   0.0800 
 28 H        3.0580    -1.5040     2.1270 H     1 <1>   0.0800 
 29 H        3.3740     0.2630    -1.6190 H     1 <1>   0.0800 
 30 H        3.1640    -1.4360    -1.9010 H     1 <1>   0.0800 
 31 H        4.2680    -3.1090    -0.1290 H     1 <1>   0.0800 
 32 H        5.0830    -2.3810     1.2260 H     1 <1>   0.0800 
 33 H       -0.2070    -5.2690    -2.8260 H     1 <1>   0.0800 
 34 H        0.4910    -6.3760    -1.6660 H     1 <1>   0.0800 
 35 H        1.3620    -4.9400    -2.1380 H     1 <1>   0.0800 
 36 H       -2.2690    -5.1020    -1.4130 H     1 <1>   0.0800 
 37 H       -2.1550    -4.6410     0.2650 H     1 <1>   0.0800 
 38 H       -1.5670    -6.2020    -0.2490 H     1 <1>   0.0800 
 39 H        8.2770     2.1290     0.3680 H     1 <1>   0.1500 
 40 H        9.2150    -1.1960    -0.0500 H     1 <1>   0.0800 
 41 H        8.8540    -1.0500     1.6540 H     1 <1>   0.0800 
 42 H        9.6890     0.2430     0.8230 H     1 <1>   0.0800 
 43 H        5.1950     3.7460     0.4670 H     1 <1>   0.0800 
 44 H        5.5710     3.6090    -1.2340 H     1 <1>   0.0800 
 45 H        6.8350     3.9920    -0.0870 H     1 <1>   0.0800 
@<TRIPOS>BOND
  1   1   2  2   
  2   2   3  1   
  3   2   4  1   
  4   3   5  ar  
  5   3  23  1   
  6   4   6  1   
  7   4   7  1   
  8   4   8  1   
  9   5   6  ar  
 10   5   9  ar  
 11   6  24  1   
 12   7  10  1   
 13   7  25  1   
 14   7  26  1   
 15   8  11  1   
 16   8  27  1   
 17   8  28  1   
 18   9  12  1   
 19   9  13  1   
 20  10  14  1   
 21  10  29  1   
 22  10  30  1   
 23  11  14  1   
 24  11  31  1   
 25  11  32  1   
 26  12  33  1   
 27  12  34  1   
 28  12  35  1   
 29  13  36  1   
 30  13  37  1   
 31  13  38  1   
 32  14  15  1   
 33  15  16  ar  
 34  15  17  ar  
 35  16  18  ar  
 36  17  19  ar  
 37  18  20  ar  
 38  18  21  1   
 39  19  20  ar  
 40  19  22  1   
 41  20  39  1   
 42  21  40  1   
 43  21  41  1   
 44  21  42  1   
 45  22  43  1   
 46  22  44  1   
 47  22  45  1   
@<TRIPOS>SUBSTRUCTURE
  1 ****  14 GROUP 4 **** **** 0

# MOE 2024.06 (io_trps.svl 2023.06)
