@<TRIPOS>MOLECULE
NONAME
47 48 1 0 0 
SMALL
USER_CHARGES


@<TRIPOS>ATOM
  1 O       -1.0160     0.0510    -1.1230 O.2   1 <1>  -0.5700 
  2 C       -1.7410     0.6390    -0.3320 C.2   1 <1>   0.7160 
  3 N       -2.8080    -0.0620     0.2070 N.am  1 <1>  -0.6600 
  4 C       -1.4390     2.0290     0.0190 C.2   1 <1>   0.2030 
  5 C       -3.3020    -1.3510    -0.3740 C.3   1 <1>   0.1400 
  6 C       -3.6260     0.4160     1.3570 C.3   1 <1>   0.1400 
  7 N       -2.3140     3.0210     0.1000 N.2   1 <1>  -0.7070 
  8 C       -0.1490     2.5130     0.3150 C.2   1 <1>  -0.1810 
  9 C       -4.7680    -1.1950    -0.8160 C.3   1 <1>   0.2000 
 10 C       -5.0800     0.5930     0.9030 C.3   1 <1>  -0.1600 
 11 N       -1.6020     4.1010     0.4340 N.pl3 1 <1>   0.3000 
 12 C       -0.2910     3.8290     0.5750 C.2   1 <1>  -0.3320 
 13 C        1.1200     1.6760     0.3230 C.3   1 <1>  -0.0590 
 14 O       -5.2130    -2.4040    -1.3230 O.3   1 <1>  -0.6800 
 15 C       -5.6830    -0.7330     0.3520 C.3   1 <1>  -0.1060 
 16 C        0.7280     4.8910     0.9540 C.3   1 <1>   0.0200 
 17 C       -5.7020    -1.8160     1.4590 C.2   1 <1>   0.9060 
 18 C       -7.1540    -0.5040    -0.1050 C.3   1 <1>  -0.1600 
 19 C        0.9280     5.8730    -0.2000 C.3   1 <1>  -0.2400 
 20 O       -5.7630    -1.4790     2.6480 O.co2 1 <1>  -0.9000 
 21 O       -5.6710    -3.0150     1.1400 O.co2 1 <1>  -0.9000 
 22 C       -7.3710     0.4870    -1.2630 C.3   1 <1>  -0.1600 
 23 C       -8.8600     0.6140    -1.5970 C.3   1 <1>  -0.2400 
 24 H       -2.7110    -1.6340    -1.2270 H     1 <1>   0.0800 
 25 H       -3.2240    -2.1230     0.3710 H     1 <1>   0.0800 
 26 H       -3.5720    -0.3090     2.1520 H     1 <1>   0.0800 
 27 H       -3.2500     1.3440     1.7450 H     1 <1>   0.0800 
 28 H       -4.7950    -0.4850    -1.6220 H     1 <1>   0.0800 
 29 H       -5.6630     0.9320     1.7410 H     1 <1>   0.0800 
 30 H       -5.0980     1.3660     0.1580 H     1 <1>   0.0800 
 31 H       -2.0350     5.0230     0.5580 H     1 <1>   0.2700 
 32 H        0.9950     0.8280     0.9730 H     1 <1>   0.0800 
 33 H        1.9630     2.2470     0.6610 H     1 <1>   0.0800 
 34 H        1.3240     1.3190    -0.6710 H     1 <1>   0.0800 
 35 H       -5.4480    -2.9490    -0.5110 H     1 <1>   0.4000 
 36 H        0.3940     5.4180     1.8320 H     1 <1>   0.0800 
 37 H        1.6700     4.4310     1.1910 H     1 <1>   0.0800 
 38 H       -7.5640    -1.4580    -0.3940 H     1 <1>   0.0800 
 39 H       -7.7190    -0.1730     0.7500 H     1 <1>   0.0800 
 40 H        0.0110     6.3870    -0.4270 H     1 <1>   0.0800 
 41 H        1.2540     5.3440    -1.0780 H     1 <1>   0.0800 
 42 H        1.6760     6.6010     0.0610 H     1 <1>   0.0800 
 43 H       -6.9930     1.4590    -1.0020 H     1 <1>   0.0800 
 44 H       -6.8500     0.1450    -2.1400 H     1 <1>   0.0800 
 45 H       -9.4050     0.9720    -0.7420 H     1 <1>   0.0800 
 46 H       -9.2580    -0.3430    -1.8870 H     1 <1>   0.0800 
 47 H       -8.9980     1.3050    -2.4090 H     1 <1>   0.0800 
@<TRIPOS>BOND
  1   1   2  2   
  2   2   3  am  
  3   2   4  1   
  4   3   5  1   
  5   3   6  1   
  6   4   7  2   
  7   4   8  1   
  8   5   9  1   
  9   5  24  1   
 10   5  25  1   
 11   6  10  1   
 12   6  26  1   
 13   6  27  1   
 14   7  11  1   
 15   8  12  2   
 16   8  13  1   
 17   9  14  1   
 18   9  15  1   
 19   9  28  1   
 20  10  15  1   
 21  10  29  1   
 22  10  30  1   
 23  11  12  1   
 24  11  31  1   
 25  12  16  1   
 26  13  32  1   
 27  13  33  1   
 28  13  34  1   
 29  14  35  1   
 30  15  17  1   
 31  15  18  1   
 32  16  19  1   
 33  16  36  1   
 34  16  37  1   
 35  17  20  ar  
 36  17  21  ar  
 37  18  22  1   
 38  18  38  1   
 39  18  39  1   
 40  19  40  1   
 41  19  41  1   
 42  19  42  1   
 43  22  23  1   
 44  22  43  1   
 45  22  44  1   
 46  23  45  1   
 47  23  46  1   
 48  23  47  1   
@<TRIPOS>SUBSTRUCTURE
  1 ****   3 GROUP 4 **** **** 0

# MOE 2024.06 (io_trps.svl 2023.06)
