@<TRIPOS>MOLECULE
NONAME
48 51 1 0 0 
SMALL
USER_CHARGES


@<TRIPOS>ATOM
  1 S       -0.3260    -0.0470     0.7920 S.o2  1 <1>   1.4470 
  2 O       -0.1670     1.1290     1.6240 O.2   1 <1>  -0.6500 
  3 O       -0.5360    -1.3370     1.4150 O.2   1 <1>  -0.6500 
  4 N       -1.6160     0.2360    -0.2790 N.am  1 <1>  -0.8490 
  5 C        1.0960    -0.1680    -0.3310 C.ar  1 <1>  -0.0090 
  6 C       -1.9780     1.6480    -0.4870 C.3   1 <1>   0.1960 
  7 C       -2.8090    -0.5920    -0.0990 C.3   1 <1>   0.1960 
  8 C        2.2990     0.4630    -0.0360 C.ar  1 <1>  -0.1500 
  9 C        1.0220    -0.9060    -1.5060 C.ar  1 <1>  -0.1500 
 10 C       -3.0220     2.2150     0.5210 C.3   1 <1>   0.1440 
 11 C       -3.5920    -0.2240     1.1700 C.3   1 <1>  -0.1600 
 12 C        3.3930     0.3740    -0.8810 C.ar  1 <1>  -0.1430 
 13 C        2.1070    -1.0050    -2.3600 C.ar  1 <1>  -0.1500 
 14 C       -4.2460     2.6600    -0.2690 C.ar  1 <1>   0.1660 
 15 C       -3.3890     1.2240     1.6520 C.3   1 <1>  -0.1600 
 16 C       -2.5380     3.5570     1.1340 C.3   1 <1>  -0.1600 
 17 C        3.2910    -0.3650    -2.0470 C.ar  1 <1>  -0.1500 
 18 C        4.6930     1.0750    -0.5290 C.3   1 <1>  -0.0970 
 19 N       -5.1580     1.8670    -0.7920 N.ar  1 <1>  -0.6200 
 20 C       -4.2900     4.0160    -0.4040 C.ar  1 <1>  -0.1430 
 21 C       -3.1200     4.6870     0.2700 C.3   1 <1>  -0.0170 
 22 C       -6.1260     2.4950    -1.4430 C.ar  1 <1>   0.4770 
 23 C       -5.3370     4.5610    -1.1030 C.ar  1 <1>   0.1600 
 24 N       -6.2710     3.7990    -1.6330 N.ar  1 <1>  -0.6200 
 25 C       -7.1900     1.6120    -2.0480 C.3   1 <1>  -0.0970 
 26 H       -2.3830     1.7330    -1.4810 H     1 <1>   0.0800 
 27 H       -1.0830     2.2450    -0.4800 H     1 <1>   0.0800 
 28 H       -2.5400    -1.6360    -0.0780 H     1 <1>   0.0800 
 29 H       -3.4510    -0.4450    -0.9520 H     1 <1>   0.0800 
 30 H        2.3780     1.0330     0.8750 H     1 <1>   0.1500 
 31 H        0.1030    -1.4090    -1.7550 H     1 <1>   0.1500 
 32 H       -3.3160    -0.8990     1.9610 H     1 <1>   0.0800 
 33 H       -4.6370    -0.3880     0.9690 H     1 <1>   0.0800 
 34 H        2.0290    -1.5810    -3.2660 H     1 <1>   0.1500 
 35 H       -4.2760     1.5600     2.1610 H     1 <1>   0.0800 
 36 H       -2.5950     1.2220     2.3770 H     1 <1>   0.0800 
 37 H       -1.4670     3.6160     1.2160 H     1 <1>   0.0800 
 38 H       -2.9470     3.6610     2.1240 H     1 <1>   0.0800 
 39 H        4.1330    -0.4470    -2.7130 H     1 <1>   0.1500 
 40 H        4.4970     1.9730     0.0300 H     1 <1>   0.0800 
 41 H        5.2320     1.3420    -1.4200 H     1 <1>   0.0800 
 42 H        5.3070     0.4230     0.0660 H     1 <1>   0.0800 
 43 H       -2.4080     5.0070    -0.4720 H     1 <1>   0.0800 
 44 H       -3.4290     5.5250     0.8700 H     1 <1>   0.0800 
 45 H       -5.4130     5.6270    -1.2330 H     1 <1>   0.1500 
 46 H       -7.4300     0.8150    -1.3700 H     1 <1>   0.0800 
 47 H       -6.8250     1.1970    -2.9680 H     1 <1>   0.0800 
 48 H       -8.0800     2.1810    -2.2460 H     1 <1>   0.0800 
@<TRIPOS>BOND
  1   1   2  2   
  2   1   3  2   
  3   1   4  am  
  4   1   5  1   
  5   4   6  1   
  6   4   7  1   
  7   5   8  ar  
  8   5   9  ar  
  9   6  10  1   
 10   6  26  1   
 11   6  27  1   
 12   7  11  1   
 13   7  28  1   
 14   7  29  1   
 15   8  12  ar  
 16   8  30  1   
 17   9  13  ar  
 18   9  31  1   
 19  10  14  1   
 20  10  15  1   
 21  10  16  1   
 22  11  15  1   
 23  11  32  1   
 24  11  33  1   
 25  12  17  ar  
 26  12  18  1   
 27  13  17  ar  
 28  13  34  1   
 29  14  19  ar  
 30  14  20  ar  
 31  15  35  1   
 32  15  36  1   
 33  16  21  1   
 34  16  37  1   
 35  16  38  1   
 36  17  39  1   
 37  18  40  1   
 38  18  41  1   
 39  18  42  1   
 40  19  22  ar  
 41  20  21  1   
 42  20  23  ar  
 43  21  43  1   
 44  21  44  1   
 45  22  24  ar  
 46  22  25  1   
 47  23  24  ar  
 48  23  45  1   
 49  25  46  1   
 50  25  47  1   
 51  25  48  1   
@<TRIPOS>SUBSTRUCTURE
  1 ****   6 GROUP 4 **** **** 0

# MOE 2024.06 (io_trps.svl 2023.06)
