@<TRIPOS>MOLECULE
NONAME
48 50 1 0 0 
SMALL
USER_CHARGES


@<TRIPOS>ATOM
  1 O        1.3070     0.3330    -1.7690 O.2   1 <1>  -0.5700 
  2 C        1.9610    -0.5010    -1.1850 C.2   1 <1>   0.5690 
  3 N        3.0150    -0.1390    -0.3800 N.am  1 <1>  -0.6600 
  4 C        1.5830    -1.9550    -1.4240 C.3   1 <1>   0.0810 
  5 C        3.9310    -1.0710     0.3570 C.3   1 <1>   0.1400 
  6 C        3.3070     1.2980    -0.1240 C.3   1 <1>   0.1400 
  7 C        0.6870    -2.5000    -0.3270 C.2   1 <1>  -0.0400 
  8 C        5.3290    -1.1490    -0.2800 C.3   1 <1>   0.1400 
  9 C        4.2340     1.8760    -1.2000 C.3   1 <1>  -0.1600 
 10 O        1.1760    -2.7650     0.8550 O.3   1 <1>  -0.0190 
 11 C       -0.6200    -2.8020    -0.3090 C.2   1 <1>  -0.1500 
 12 N        5.9520     0.2000    -0.4800 N.am  1 <1>  -0.6600 
 13 C        5.3900     0.9620    -1.6310 C.3   1 <1>   0.1400 
 14 N        0.2680    -3.2300     1.6620 N.2   1 <1>  -0.4100 
 15 C       -0.8260    -3.2610     0.9890 C.2   1 <1>   0.1080 
 16 C        6.9350     0.6530     0.3620 C.2   1 <1>   0.5690 
 17 C       -2.1530    -3.7320     1.5410 C.3   1 <1>  -0.0590 
 18 O        7.2940     0.0030     1.3160 O.2   1 <1>  -0.5700 
 19 C        7.5940     2.0020     0.1090 C.3   1 <1>  -0.0990 
 20 C        8.6700     2.3680     1.1410 C.3   1 <1>   0.0210 
 21 C        9.2700     3.7230     0.8150 C.2   1 <1>  -0.1810 
 22 C        8.6740     4.9650     1.0100 C.2   1 <1>   0.1390 
 23 C       10.4760     4.0030     0.2790 C.2   1 <1>  -0.3020 
 24 N        9.4360     5.9430     0.6250 N.2   1 <1>  -0.7070 
 25 N       10.5550     5.3450     0.1760 N.pl3 1 <1>   0.3000 
 26 H        2.4630    -2.5600    -1.5200 H     1 <1>   0.0800 
 27 H        1.0530    -2.0100    -2.3570 H     1 <1>   0.0800 
 28 H        3.5190    -2.0610     0.3960 H     1 <1>   0.0800 
 29 H        4.0330    -0.7390     1.3760 H     1 <1>   0.0800 
 30 H        3.7710     1.4020     0.8420 H     1 <1>   0.0800 
 31 H        2.3870     1.8580    -0.1010 H     1 <1>   0.0800 
 32 H        5.2600    -1.6520    -1.2270 H     1 <1>   0.0800 
 33 H        5.9590    -1.7530     0.3500 H     1 <1>   0.0800 
 34 H        4.6300     2.8080    -0.8420 H     1 <1>   0.0800 
 35 H        3.6440     2.1070    -2.0690 H     1 <1>   0.0800 
 36 H       -1.3590    -2.7190    -1.0840 H     1 <1>   0.1500 
 37 H        6.1580     1.5440    -2.1110 H     1 <1>   0.0800 
 38 H        5.0210     0.2640    -2.3630 H     1 <1>   0.0800 
 39 H       -2.5050    -4.5750     0.9760 H     1 <1>   0.0800 
 40 H       -2.8740    -2.9380     1.4830 H     1 <1>   0.0800 
 41 H       -2.0390    -4.0250     2.5700 H     1 <1>   0.0800 
 42 H        6.8350     2.7600     0.1190 H     1 <1>   0.0800 
 43 H        8.0470     1.9840    -0.8640 H     1 <1>   0.0800 
 44 H        9.4460     1.6220     1.1340 H     1 <1>   0.0800 
 45 H        8.2430     2.3930     2.1280 H     1 <1>   0.0800 
 46 H        7.6930     5.1130     1.4320 H     1 <1>   0.1500 
 47 H       11.2650     3.3410    -0.0270 H     1 <1>   0.1500 
 48 H       11.3500     5.8800    -0.1930 H     1 <1>   0.2700 
@<TRIPOS>BOND
  1   1   2  2   
  2   2   3  am  
  3   2   4  1   
  4   3   5  1   
  5   3   6  1   
  6   4   7  1   
  7   4  26  1   
  8   4  27  1   
  9   5   8  1   
 10   5  28  1   
 11   5  29  1   
 12   6   9  1   
 13   6  30  1   
 14   6  31  1   
 15   7  10  1   
 16   7  11  2   
 17   8  12  1   
 18   8  32  1   
 19   8  33  1   
 20   9  13  1   
 21   9  34  1   
 22   9  35  1   
 23  10  14  1   
 24  11  15  1   
 25  11  36  1   
 26  12  13  1   
 27  12  16  am  
 28  13  37  1   
 29  13  38  1   
 30  14  15  2   
 31  15  17  1   
 32  16  18  2   
 33  16  19  1   
 34  17  39  1   
 35  17  40  1   
 36  17  41  1   
 37  19  20  1   
 38  19  42  1   
 39  19  43  1   
 40  20  21  1   
 41  20  44  1   
 42  20  45  1   
 43  21  22  1   
 44  21  23  2   
 45  22  24  2   
 46  22  46  1   
 47  23  25  1   
 48  23  47  1   
 49  24  25  1   
 50  25  48  1   
@<TRIPOS>SUBSTRUCTURE
  1 ****   6 GROUP 4 **** **** 0

# MOE 2024.06 (io_trps.svl 2023.06)
