@<TRIPOS>MOLECULE
NONAME
52 55 1 0 0 
SMALL
USER_CHARGES


@<TRIPOS>ATOM
  1 O       -0.3650     0.0550     1.0640 O.3   1 <1>  -0.2800 
  2 C        0.7090    -0.5900     0.6410 C.2   1 <1>   0.4250 
  3 C       -1.1620    -0.8330     1.5810 C.2   1 <1>  -0.0400 
  4 N        0.6360    -1.8700     0.8590 N.2   1 <1>  -0.5650 
  5 C        1.7920     0.1380     0.0100 C.ar  1 <1>   0.0530 
  6 C       -0.5580    -2.0240     1.4660 C.2   1 <1>   0.0460 
  7 C       -2.4890    -0.3760     2.1520 C.3   1 <1>  -0.0600 
  8 C        2.9770    -0.5030    -0.3550 C.ar  1 <1>  -0.1500 
  9 C        1.6990     1.5040    -0.2620 C.ar  1 <1>  -0.1500 
 10 C       -1.0370    -3.4050     1.8820 C.3   1 <1>   0.5240 
 11 C        4.0130     0.1810    -0.9630 C.ar  1 <1>  -0.1500 
 12 C        2.7330     2.1920    -0.8700 C.ar  1 <1>  -0.1500 
 13 N       -0.7860    -4.3390     0.7500 N.4   1 <1>  -0.9590 
 14 C        3.8970     1.5350    -1.2270 C.ar  1 <1>  -0.1430 
 15 C       -1.7210    -4.0560    -0.3790 C.3   1 <1>   0.3430 
 16 C       -0.9800    -5.7640     1.1490 C.3   1 <1>   0.3430 
 17 C        5.0330     2.2900    -1.8930 C.3   1 <1>  -0.0970 
 18 C       -2.8140    -5.1220    -0.2680 C.3   1 <1>   0.2000 
 19 C       -2.0480    -6.3540     0.2110 C.3   1 <1>  -0.0800 
 20 O       -3.6980    -4.7420     0.7390 O.3   1 <1>  -0.6800 
 21 C       -1.4290    -7.1290    -0.9750 C.3   1 <1>  -0.0170 
 22 C       -0.7210    -8.3990    -0.5260 C.ar  1 <1>   0.1670 
 23 N        0.4600    -8.2380     0.0480 N.ar  1 <1>  -0.6200 
 24 C       -1.3130    -9.6440    -0.7330 C.ar  1 <1>   0.1600 
 25 C        1.0090    -9.3950     0.3890 C.ar  1 <1>   0.1600 
 26 N       -0.7720   -10.7960    -0.3800 N.ar  1 <1>  -0.6200 
 27 C        0.4120   -10.6330     0.1830 C.ar  1 <1>   0.1600 
 28 H       -3.0510    -1.2070     2.5360 H     1 <1>   0.0800 
 29 H       -3.0670     0.1100     1.3850 H     1 <1>   0.0800 
 30 H       -2.3190     0.3270     2.9480 H     1 <1>   0.0800 
 31 H        3.0900    -1.5540    -0.1570 H     1 <1>   0.1500 
 32 H        0.8050     2.0390     0.0050 H     1 <1>   0.1500 
 33 H       -2.0840    -3.3830     2.1330 H     1 <1>   0.0800 
 34 H       -0.4740    -3.7190     2.7450 H     1 <1>   0.0800 
 35 H        4.9140    -0.3440    -1.2300 H     1 <1>   0.1500 
 36 H        2.6280     3.2460    -1.0640 H     1 <1>   0.1500 
 37 H        0.1830    -4.1350     0.4530 H     1 <1>   0.4500 
 38 H       -2.1330    -3.0610    -0.3350 H     1 <1>   0.0800 
 39 H       -1.1990    -4.1790    -1.3130 H     1 <1>   0.0800 
 40 H       -0.0500    -6.3040     1.0950 H     1 <1>   0.0800 
 41 H       -1.3430    -5.8130     2.1630 H     1 <1>   0.0800 
 42 H        5.5960     1.6350    -2.5340 H     1 <1>   0.0800 
 43 H        5.6910     2.6920    -1.1430 H     1 <1>   0.0800 
 44 H        4.6490     3.0980    -2.4880 H     1 <1>   0.0800 
 45 H       -3.3630    -5.2580    -1.1850 H     1 <1>   0.0800 
 46 H       -2.6910    -7.0260     0.7520 H     1 <1>   0.0800 
 47 H       -4.5070    -5.2990     0.7300 H     1 <1>   0.4000 
 48 H       -0.7200    -6.5150    -1.5040 H     1 <1>   0.0800 
 49 H       -2.2060    -7.3920    -1.6710 H     1 <1>   0.0800 
 50 H       -2.2760    -9.6950    -1.2090 H     1 <1>   0.1500 
 51 H        1.9790    -9.3670     0.8550 H     1 <1>   0.1500 
 52 H        0.9340   -11.5200     0.4950 H     1 <1>   0.1500 
@<TRIPOS>BOND
  1   1   2  1   
  2   1   3  1   
  3   2   4  2   
  4   2   5  1   
  5   3   6  2   
  6   3   7  1   
  7   4   6  1   
  8   5   8  ar  
  9   5   9  ar  
 10   6  10  1   
 11   7  28  1   
 12   7  29  1   
 13   7  30  1   
 14   8  11  ar  
 15   8  31  1   
 16   9  12  ar  
 17   9  32  1   
 18  10  13  1   
 19  10  33  1   
 20  10  34  1   
 21  11  14  ar  
 22  11  35  1   
 23  12  14  ar  
 24  12  36  1   
 25  13  15  1   
 26  13  16  1   
 27  13  37  1   
 28  14  17  1   
 29  15  18  1   
 30  15  38  1   
 31  15  39  1   
 32  16  19  1   
 33  16  40  1   
 34  16  41  1   
 35  17  42  1   
 36  17  43  1   
 37  17  44  1   
 38  18  19  1   
 39  18  20  1   
 40  18  45  1   
 41  19  21  1   
 42  19  46  1   
 43  20  47  1   
 44  21  22  1   
 45  21  48  1   
 46  21  49  1   
 47  22  23  ar  
 48  22  24  ar  
 49  23  25  ar  
 50  24  26  ar  
 51  24  50  1   
 52  25  27  ar  
 53  25  51  1   
 54  26  27  ar  
 55  27  52  1   
@<TRIPOS>SUBSTRUCTURE
  1 ****  13 GROUP 4 **** **** 0

# MOE 2024.06 (io_trps.svl 2023.06)
