@<TRIPOS>MOLECULE
NONAME
47 48 1 0 0 
SMALL
USER_CHARGES


@<TRIPOS>ATOM
  1 S        0.9000     1.8600    -0.3570 S.o2  1 <1>   1.3330 
  2 O        2.1290     2.5070     0.0470 O.2   1 <1>  -0.6500 
  3 O        0.0300     2.5610    -1.2710 O.2   1 <1>  -0.6500 
  4 N        1.2370     0.3130    -0.9520 N.am  1 <1>  -0.8490 
  5 C       -0.0220     1.5590     1.1540 C.3   1 <1>  -0.0550 
  6 C        0.1510    -0.2530    -1.7630 C.3   1 <1>   0.1160 
  7 C        2.4960     0.2600    -1.7050 C.3   1 <1>   0.1160 
  8 C       -0.3980     2.8120     1.9900 C.3   1 <1>  -0.0800 
  9 C       -1.2410     3.8330     1.2160 C.3   1 <1>   0.2000 
 10 C        0.8140     3.6270     2.4570 C.3   1 <1>   0.3430 
 11 O       -2.1140     4.4420     2.1100 O.3   1 <1>  -0.6800 
 12 C       -0.2530     4.8800     0.6780 C.3   1 <1>   0.3430 
 13 N        1.0360     4.6630     1.4140 N.4   1 <1>  -0.9590 
 14 C        1.6970     5.9050     1.8930 C.3   1 <1>   0.4860 
 15 C        1.9390     6.8260     0.7150 C.ar  1 <1>  -0.1440 
 16 C        2.9370     6.5310    -0.1980 C.ar  1 <1>   0.1900 
 17 C        1.1810     7.9710     0.5150 C.ar  1 <1>  -0.1500 
 18 F        3.6500     5.4500     0.0030 F     1 <1>  -0.1900 
 19 C        3.2030     7.3270    -1.3070 C.ar  1 <1>   0.0820 
 20 C        1.4270     8.7830    -0.5810 C.ar  1 <1>  -0.1500 
 21 O        4.1980     6.9510    -2.1550 O.3   1 <1>  -0.3620 
 22 C        2.4270     8.4680    -1.4890 C.ar  1 <1>  -0.1500 
 23 C        4.5100     7.7020    -3.3080 C.3   1 <1>   0.0400 
 24 H       -0.9260     1.0370     0.9030 H     1 <1>   0.0800 
 25 H        0.5550     0.8980     1.7730 H     1 <1>   0.0800 
 26 H        0.3870    -1.2660    -2.0420 H     1 <1>   0.0800 
 27 H        0.0060     0.3310    -2.6580 H     1 <1>   0.0800 
 28 H       -0.7680    -0.2620    -1.2040 H     1 <1>   0.0800 
 29 H        2.6890    -0.7450    -2.0400 H     1 <1>   0.0800 
 30 H        3.3170     0.5660    -1.0780 H     1 <1>   0.0800 
 31 H        2.4510     0.9150    -2.5600 H     1 <1>   0.0800 
 32 H       -0.9410     2.4560     2.8490 H     1 <1>   0.0800 
 33 H       -1.8350     3.3970     0.4300 H     1 <1>   0.0800 
 34 H        1.6880     3.0060     2.5840 H     1 <1>   0.0800 
 35 H        0.5800     4.1030     3.3960 H     1 <1>   0.0800 
 36 H       -1.6700     4.8210     2.8920 H     1 <1>   0.4000 
 37 H       -0.6430     5.8720     0.8330 H     1 <1>   0.0800 
 38 H       -0.0940     4.7300    -0.3780 H     1 <1>   0.0800 
 39 H        1.7040     4.2410     0.7290 H     1 <1>   0.4500 
 40 H        1.0760     6.4010     2.6210 H     1 <1>   0.0800 
 41 H        2.6420     5.6640     2.3530 H     1 <1>   0.0800 
 42 H        0.3980     8.2480     1.2030 H     1 <1>   0.1500 
 43 H        0.8370     9.6730    -0.7320 H     1 <1>   0.1500 
 44 H        2.5860     9.1220    -2.3260 H     1 <1>   0.1500 
 45 H        5.3180     7.2090    -3.8180 H     1 <1>   0.0800 
 46 H        4.8160     8.6900    -3.0120 H     1 <1>   0.0800 
 47 H        3.6450     7.7390    -3.9470 H     1 <1>   0.0800 
@<TRIPOS>BOND
  1   1   2  2   
  2   1   3  2   
  3   1   4  am  
  4   1   5  1   
  5   4   6  1   
  6   4   7  1   
  7   5   8  1   
  8   5  24  1   
  9   5  25  1   
 10   6  26  1   
 11   6  27  1   
 12   6  28  1   
 13   7  29  1   
 14   7  30  1   
 15   7  31  1   
 16   8   9  1   
 17   8  10  1   
 18   8  32  1   
 19   9  11  1   
 20   9  12  1   
 21   9  33  1   
 22  10  13  1   
 23  10  34  1   
 24  10  35  1   
 25  11  36  1   
 26  12  13  1   
 27  12  37  1   
 28  12  38  1   
 29  13  14  1   
 30  13  39  1   
 31  14  15  1   
 32  14  40  1   
 33  14  41  1   
 34  15  16  ar  
 35  15  17  ar  
 36  16  18  1   
 37  16  19  ar  
 38  17  20  ar  
 39  17  42  1   
 40  19  21  1   
 41  19  22  ar  
 42  20  22  ar  
 43  20  43  1   
 44  21  23  1   
 45  22  44  1   
 46  23  45  1   
 47  23  46  1   
 48  23  47  1   
@<TRIPOS>SUBSTRUCTURE
  1 ****  13 GROUP 4 **** **** 0

# MOE 2024.06 (io_trps.svl 2023.06)
