@<TRIPOS>MOLECULE
NONAME
60 64 1 0 0 
SMALL
USER_CHARGES


@<TRIPOS>ATOM
  1 O        0.4220    -0.0970     1.3810 O.2   1 <1>  -0.5700 
  2 C        1.1790    -1.0460     1.3090 C.2   1 <1>   0.5440 
  3 N        2.4670    -0.9790     0.8260 N.am  1 <1>  -0.6600 
  4 C        0.8490    -2.3920     1.6760 C.ar  1 <1>   0.0860 
  5 C        3.1480     0.2180     0.2300 C.3   1 <1>   0.3000 
  6 C        3.0320    -2.3640     0.7790 C.3   1 <1>   0.2840 
  7 C        1.9220    -3.2050     1.3770 C.ar  1 <1>  -0.1440 
  8 C       -0.2980    -2.9420     2.2360 C.ar  1 <1>  -0.1500 
  9 C        3.1200     1.3680     1.2660 C.3   1 <1>  -0.1600 
 10 C        2.3210     0.6380    -1.0050 C.3   1 <1>  -0.1600 
 11 C        4.6510    -0.0690    -0.0830 C.3   1 <1>  -0.0990 
 12 C        1.8860    -4.5650     1.6240 C.ar  1 <1>  -0.1500 
 13 C       -0.3460    -4.3040     2.4890 C.ar  1 <1>  -0.1500 
 14 C        3.4930     2.7260     0.6690 C.3   1 <1>   0.3430 
 15 C        2.7870     1.9670    -1.5810 C.3   1 <1>   0.3430 
 16 C        4.9730    -0.7850    -1.3850 C.2   1 <1>   0.5690 
 17 C        0.7420    -5.1110     2.1840 C.ar  1 <1>  -0.1500 
 18 N        2.6480     3.0070    -0.5270 N.4   1 <1>  -0.9590 
 19 O        4.7570    -0.1960    -2.4150 O.2   1 <1>  -0.5700 
 20 N        5.5460    -2.0120    -1.4280 N.am  1 <1>  -0.5790 
 21 C        2.8820     4.3710    -1.0730 C.3   1 <1>   0.4860 
 22 C        6.2180    -2.7830    -0.3680 C.3   1 <1>   0.0490 
 23 C        2.5550     5.3890     0.0020 C.ar  1 <1>  -0.1430 
 24 C        7.3240    -2.1510     0.4170 C.3   1 <1>  -0.2000 
 25 C        7.6360    -3.1750    -0.6260 C.3   1 <1>  -0.2000 
 26 C        3.5730     6.1090     0.6110 C.ar  1 <1>  -0.1500 
 27 C        1.2400     5.6010     0.3920 C.ar  1 <1>  -0.1500 
 28 C        3.2790     7.0220     1.6090 C.ar  1 <1>  -0.1500 
 29 C        0.9490     6.5140     1.3900 C.ar  1 <1>  -0.1500 
 30 C        1.9670     7.2230     1.9990 C.ar  1 <1>  -0.1500 
 31 H        3.9210    -2.4370     1.3800 H     1 <1>   0.0800 
 32 H        3.2180    -2.6660    -0.2370 H     1 <1>   0.0800 
 33 H       -1.1330    -2.3040     2.4660 H     1 <1>   0.1500 
 34 H        3.7920     1.1440     2.0750 H     1 <1>   0.0800 
 35 H        2.1480     1.4890     1.7020 H     1 <1>   0.0800 
 36 H        1.2840     0.7500    -0.7530 H     1 <1>   0.0800 
 37 H        2.3640    -0.1200    -1.7640 H     1 <1>   0.0800 
 38 H        5.0950    -0.5770     0.7500 H     1 <1>   0.0800 
 39 H        5.1830     0.8570    -0.1620 H     1 <1>   0.0800 
 40 H        2.7270    -5.1940     1.3880 H     1 <1>   0.1500 
 41 H       -1.2300    -4.7380     2.9230 H     1 <1>   0.1500 
 42 H        4.5340     2.7370     0.3910 H     1 <1>   0.0800 
 43 H        3.3400     3.4890     1.4170 H     1 <1>   0.0800 
 44 H        2.1760     2.2160    -2.4340 H     1 <1>   0.0800 
 45 H        3.8120     1.8930    -1.9060 H     1 <1>   0.0800 
 46 H        0.6940    -6.1680     2.3840 H     1 <1>   0.1500 
 47 H        1.6730     2.9870    -0.1940 H     1 <1>   0.4500 
 48 H        5.7120    -2.3730    -2.3720 H     1 <1>   0.3700 
 49 H        2.2490     4.5420    -1.9280 H     1 <1>   0.0800 
 50 H        3.9090     4.4780    -1.3820 H     1 <1>   0.0800 
 51 H        5.5860    -3.5290     0.0860 H     1 <1>   0.1000 
 52 H        7.4660    -2.4300     1.4470 H     1 <1>   0.1000 
 53 H        7.6140    -1.1340     0.2200 H     1 <1>   0.1000 
 54 H        8.1200    -2.8510    -1.5310 H     1 <1>   0.1000 
 55 H        7.9830    -4.1390    -0.2950 H     1 <1>   0.1000 
 56 H        4.6010     5.9740     0.3210 H     1 <1>   0.1500 
 57 H        0.4280     5.0660    -0.0710 H     1 <1>   0.1500 
 58 H        4.0680     7.5810     2.0830 H     1 <1>   0.1500 
 59 H       -0.0720     6.6770     1.6940 H     1 <1>   0.1500 
 60 H        1.7390     7.9340     2.7750 H     1 <1>   0.1500 
@<TRIPOS>BOND
  1   1   2  2   
  2   2   3  am  
  3   2   4  1   
  4   3   5  1   
  5   3   6  1   
  6   4   7  ar  
  7   4   8  ar  
  8   5   9  1   
  9   5  10  1   
 10   5  11  1   
 11   6   7  1   
 12   6  31  1   
 13   6  32  1   
 14   7  12  ar  
 15   8  13  ar  
 16   8  33  1   
 17   9  14  1   
 18   9  34  1   
 19   9  35  1   
 20  10  15  1   
 21  10  36  1   
 22  10  37  1   
 23  11  16  1   
 24  11  38  1   
 25  11  39  1   
 26  12  17  ar  
 27  12  40  1   
 28  13  17  ar  
 29  13  41  1   
 30  14  18  1   
 31  14  42  1   
 32  14  43  1   
 33  15  18  1   
 34  15  44  1   
 35  15  45  1   
 36  16  19  2   
 37  16  20  am  
 38  17  46  1   
 39  18  21  1   
 40  18  47  1   
 41  20  22  1   
 42  20  48  1   
 43  21  23  1   
 44  21  49  1   
 45  21  50  1   
 46  22  24  1   
 47  22  25  1   
 48  22  51  1   
 49  23  26  ar  
 50  23  27  ar  
 51  24  25  1   
 52  24  52  1   
 53  24  53  1   
 54  25  54  1   
 55  25  55  1   
 56  26  28  ar  
 57  26  56  1   
 58  27  29  ar  
 59  27  57  1   
 60  28  30  ar  
 61  28  58  1   
 62  29  30  ar  
 63  29  59  1   
 64  30  60  1   
@<TRIPOS>SUBSTRUCTURE
  1 ****   5 GROUP 4 **** **** 0

# MOE 2024.06 (io_trps.svl 2023.06)
