@<TRIPOS>MOLECULE
NONAME
50 54 1 0 0 
SMALL
USER_CHARGES


@<TRIPOS>ATOM
  1 S       -0.8930     1.1200    -2.2040 S.3   1 <1>  -0.0800 
  2 C       -1.4970     1.5260    -0.5790 C.2   1 <1>  -0.0450 
  3 C       -1.5310    -0.5180    -2.1220 C.2   1 <1>  -0.1100 
  4 C       -2.1320     0.4350    -0.0770 C.2   1 <1>   0.0620 
  5 C       -1.2890     2.8470    -0.0620 C.2   1 <1>   0.7150 
  6 C       -2.1460    -0.7080    -0.9420 C.2   1 <1>   0.0620 
  7 O       -2.7100     0.3780     1.1400 O.3   1 <1>  -0.3420 
  8 O       -2.2500     3.5010     0.3050 O.2   1 <1>  -0.5700 
  9 N       -0.0290     3.4150     0.0170 N.am  1 <1>  -0.6600 
 10 O       -2.7420    -1.8700    -0.5620 O.3   1 <1>  -0.3420 
 11 C       -3.5990    -0.6940     1.3840 C.3   1 <1>   0.1200 
 12 C        1.2310     2.6120    -0.0340 C.3   1 <1>   0.1400 
 13 C        0.1550     4.8770     0.2350 C.3   1 <1>   0.1400 
 14 C       -3.0220    -2.0020     0.8210 C.3   1 <1>   0.1200 
 15 C        2.1230     3.0230    -1.2130 C.3   1 <1>   0.1400 
 16 C        0.5820     5.5390    -1.0780 C.3   1 <1>  -0.1600 
 17 N        2.8130     4.3190    -0.9370 N.am  1 <1>  -0.6600 
 18 C        2.1020     5.5800    -1.2960 C.3   1 <1>   0.1400 
 19 C        4.0810     4.3230    -0.3670 C.2   1 <1>   0.7160 
 20 O        4.4290     3.3010     0.2090 O.2   1 <1>  -0.5700 
 21 C        4.9970     5.4660    -0.4170 C.2   1 <1>   0.2030 
 22 N        4.9490     6.5260    -1.2220 N.2   1 <1>  -0.7070 
 23 C        6.1200     5.5880     0.4150 C.2   1 <1>  -0.1810 
 24 N        6.0150     7.2860    -0.9020 N.pl3 1 <1>   0.3000 
 25 C        6.7220     6.7230     0.0890 C.2   1 <1>  -0.3320 
 26 C        6.8380     4.8570     1.5140 C.3   1 <1>   0.0210 
 27 C        7.9620     7.0160     0.8830 C.3   1 <1>   0.0200 
 28 C        7.9760     5.8410     1.8920 C.3   1 <1>  -0.1600 
 29 H       -1.3820    -1.1680    -2.9640 H     1 <1>   0.1500 
 30 H       -4.5380    -0.4630     0.9130 H     1 <1>   0.0800 
 31 H       -3.7460    -0.7650     2.4470 H     1 <1>   0.0800 
 32 H        1.0020     1.5660    -0.1210 H     1 <1>   0.0800 
 33 H        1.7770     2.7390     0.8850 H     1 <1>   0.0800 
 34 H        0.8880     5.0460     1.0060 H     1 <1>   0.0800 
 35 H       -0.7700     5.3190     0.5660 H     1 <1>   0.0800 
 36 H       -2.1050    -2.2530     1.3250 H     1 <1>   0.0800 
 37 H       -3.7210    -2.8090     0.9400 H     1 <1>   0.0800 
 38 H        1.5420     3.0910    -2.1160 H     1 <1>   0.0800 
 39 H        2.8640     2.2570    -1.3650 H     1 <1>   0.0800 
 40 H        0.2370     6.5570    -1.0680 H     1 <1>   0.0800 
 41 H        0.0970     5.0590    -1.9090 H     1 <1>   0.0800 
 42 H        2.4880     6.3780    -0.6860 H     1 <1>   0.0800 
 43 H        2.3160     5.8240    -2.3230 H     1 <1>   0.0800 
 44 H        6.2330     8.1710    -1.3740 H     1 <1>   0.2700 
 45 H        7.2300     3.9270     1.1410 H     1 <1>   0.0800 
 46 H        6.1800     4.6700     2.3440 H     1 <1>   0.0800 
 47 H        7.8910     7.9650     1.3860 H     1 <1>   0.0800 
 48 H        8.8310     6.9930     0.2480 H     1 <1>   0.0800 
 49 H        8.9280     5.3400     1.8790 H     1 <1>   0.0800 
 50 H        7.8000     6.2210     2.8830 H     1 <1>   0.0800 
@<TRIPOS>BOND
  1   1   2  1   
  2   1   3  1   
  3   2   4  2   
  4   2   5  1   
  5   3   6  2   
  6   3  29  1   
  7   4   6  1   
  8   4   7  1   
  9   5   8  2   
 10   5   9  am  
 11   6  10  1   
 12   7  11  1   
 13   9  12  1   
 14   9  13  1   
 15  10  14  1   
 16  11  14  1   
 17  11  30  1   
 18  11  31  1   
 19  12  15  1   
 20  12  32  1   
 21  12  33  1   
 22  13  16  1   
 23  13  34  1   
 24  13  35  1   
 25  14  36  1   
 26  14  37  1   
 27  15  17  1   
 28  15  38  1   
 29  15  39  1   
 30  16  18  1   
 31  16  40  1   
 32  16  41  1   
 33  17  18  1   
 34  17  19  am  
 35  18  42  1   
 36  18  43  1   
 37  19  20  2   
 38  19  21  1   
 39  21  22  2   
 40  21  23  1   
 41  22  24  1   
 42  23  25  2   
 43  23  26  1   
 44  24  25  1   
 45  24  44  1   
 46  25  27  1   
 47  26  28  1   
 48  26  45  1   
 49  26  46  1   
 50  27  28  1   
 51  27  47  1   
 52  27  48  1   
 53  28  49  1   
 54  28  50  1   
@<TRIPOS>SUBSTRUCTURE
  1 ****  12 GROUP 4 **** **** 0

# MOE 2024.06 (io_trps.svl 2023.06)
