@<TRIPOS>MOLECULE
NONAME
52 55 1 0 0 
SMALL
USER_CHARGES


@<TRIPOS>ATOM
  1 CL      -2.7560     1.1750     1.9310 Cl    1 <1>  -0.1770 
  2 C       -2.1440     2.3390     0.7740 C.ar  1 <1>   0.1770 
  3 C       -2.4260     2.1630    -0.5800 C.ar  1 <1>   0.0860 
  4 C       -1.3950     3.4120     1.2400 C.ar  1 <1>  -0.1440 
  5 C       -3.2290     1.0650    -1.0660 C.2   1 <1>   0.5440 
  6 C       -1.9040     3.0980    -1.4710 C.ar  1 <1>  -0.1500 
  7 C       -0.9050     4.3310     0.3260 C.ar  1 <1>  -0.1500 
  8 C       -1.1070     3.5890     2.7240 C.3   1 <1>  -0.0960 
  9 O       -2.6950     0.1910    -1.7220 O.2   1 <1>  -0.5700 
 10 N       -4.5910     1.0040    -0.8540 N.am  1 <1>  -0.6600 
 11 C       -1.1560     4.1720    -1.0260 C.ar  1 <1>  -0.1500 
 12 C       -5.3770     2.0590    -0.1430 C.3   1 <1>   0.1400 
 13 C       -5.3920    -0.1510    -1.3630 C.3   1 <1>   0.1400 
 14 C       -6.4480     2.6700    -1.0740 C.3   1 <1>   0.1430 
 15 C       -6.8950     0.1710    -1.4320 C.3   1 <1>  -0.1600 
 16 C       -7.4290     3.4210    -0.1910 C.ar  1 <1>   0.1670 
 17 C       -7.1320     1.5950    -1.9620 C.3   1 <1>  -0.1600 
 18 C       -5.8520     3.8140    -1.9370 C.3   1 <1>  -0.1600 
 19 N       -8.3540     2.8710     0.5560 N.ar  1 <1>  -0.6200 
 20 C       -7.2230     4.7660    -0.2450 C.ar  1 <1>  -0.1430 
 21 C       -6.0850     5.1240    -1.1660 C.3   1 <1>  -0.0170 
 22 C       -9.1000     3.7230     1.2640 C.ar  1 <1>   0.7200 
 23 C       -8.0370     5.5660     0.5160 C.ar  1 <1>   0.1600 
 24 N       -8.9790     5.0550     1.2720 N.ar  1 <1>  -0.6200 
 25 N      -10.0900     3.1740     2.0590 N.pl3 1 <1>  -0.8380 
 26 C      -10.4370     1.7280     1.9710 C.3   1 <1>   0.1290 
 27 C      -11.0550     4.0280     2.8080 C.3   1 <1>   0.1290 
 28 H       -2.0900     2.9710    -2.5240 H     1 <1>   0.1500 
 29 H       -0.3200     5.1720     0.6590 H     1 <1>   0.1500 
 30 H       -0.5580     2.7410     3.0950 H     1 <1>   0.0800 
 31 H       -2.0280     3.6710     3.2720 H     1 <1>   0.0800 
 32 H       -0.5240     4.4750     2.9040 H     1 <1>   0.0800 
 33 H       -0.7630     4.8850    -1.7310 H     1 <1>   0.1500 
 34 H       -4.7450     2.8380     0.2400 H     1 <1>   0.0800 
 35 H       -5.8620     1.6010     0.7030 H     1 <1>   0.0800 
 36 H       -5.2260    -1.0040    -0.7270 H     1 <1>   0.0800 
 37 H       -5.0430    -0.4020    -2.3500 H     1 <1>   0.0800 
 38 H       -7.3300     0.0730    -0.4520 H     1 <1>   0.0800 
 39 H       -7.3810    -0.5450    -2.0710 H     1 <1>   0.0800 
 40 H       -6.7290     1.6360    -2.9580 H     1 <1>   0.0800 
 41 H       -8.1890     1.7910    -2.0310 H     1 <1>   0.0800 
 42 H       -6.3950     3.8830    -2.8640 H     1 <1>   0.0800 
 43 H       -4.8130     3.6560    -2.1640 H     1 <1>   0.0800 
 44 H       -6.3430     5.9330    -1.8270 H     1 <1>   0.0800 
 45 H       -5.2160     5.3860    -0.5860 H     1 <1>   0.0800 
 46 H       -7.9150     6.6350     0.5060 H     1 <1>   0.1500 
 47 H       -9.5420     1.1310     2.0240 H     1 <1>   0.0800 
 48 H      -10.9310     1.5330     1.0350 H     1 <1>   0.0800 
 49 H      -11.0830     1.4420     2.7810 H     1 <1>   0.0800 
 50 H      -10.5520     4.8820     3.2280 H     1 <1>   0.0800 
 51 H      -11.4990     3.4720     3.6150 H     1 <1>   0.0800 
 52 H      -11.8270     4.3680     2.1420 H     1 <1>   0.0800 
@<TRIPOS>BOND
  1   1   2  1   
  2   2   3  ar  
  3   2   4  ar  
  4   3   5  1   
  5   3   6  ar  
  6   4   7  ar  
  7   4   8  1   
  8   5   9  2   
  9   5  10  am  
 10   6  11  ar  
 11   6  28  1   
 12   7  11  ar  
 13   7  29  1   
 14   8  30  1   
 15   8  31  1   
 16   8  32  1   
 17  10  12  1   
 18  10  13  1   
 19  11  33  1   
 20  12  14  1   
 21  12  34  1   
 22  12  35  1   
 23  13  15  1   
 24  13  36  1   
 25  13  37  1   
 26  14  16  1   
 27  14  17  1   
 28  14  18  1   
 29  15  17  1   
 30  15  38  1   
 31  15  39  1   
 32  16  19  ar  
 33  16  20  ar  
 34  17  40  1   
 35  17  41  1   
 36  18  21  1   
 37  18  42  1   
 38  18  43  1   
 39  19  22  ar  
 40  20  21  1   
 41  20  23  ar  
 42  21  44  1   
 43  21  45  1   
 44  22  24  ar  
 45  22  25  1   
 46  23  24  ar  
 47  23  46  1   
 48  25  26  1   
 49  25  27  1   
 50  26  47  1   
 51  26  48  1   
 52  26  49  1   
 53  27  50  1   
 54  27  51  1   
 55  27  52  1   
@<TRIPOS>SUBSTRUCTURE
  1 ****  12 GROUP 4 **** **** 0

# MOE 2024.06 (io_trps.svl 2023.06)
