@<TRIPOS>MOLECULE
NONAME
49 52 1 0 0 
SMALL
USER_CHARGES


@<TRIPOS>ATOM
  1 F        0.6150    -0.1570     1.6060 F     1 <1>  -0.1900 
  2 C        1.5080    -0.8790     0.9850 C.ar  1 <1>   0.1900 
  3 C        1.4870    -2.2490     1.1530 C.ar  1 <1>  -0.1500 
  4 C        2.4370    -0.2510     0.1830 C.ar  1 <1>  -0.1500 
  5 C        2.4270    -3.0280     0.4930 C.ar  1 <1>  -0.1440 
  6 C        3.3750    -1.0280    -0.4710 C.ar  1 <1>  -0.1500 
  7 C        3.3890    -2.4170    -0.3280 C.ar  1 <1>  -0.0230 
  8 C        2.3670    -4.5370     0.7010 C.3   1 <1>   0.4870 
  9 N        4.3860    -3.1630    -1.0240 N.pl3 1 <1>   0.5930 
 10 N        1.8130    -5.1960    -0.5090 N.4   1 <1>  -0.9590 
 11 N        4.1040    -4.2140    -1.8420 N.2   1 <1>  -0.7070 
 12 C        5.7230    -2.9530    -0.9940 C.2   1 <1>  -0.3020 
 13 C        0.4290    -4.7450    -0.8340 C.3   1 <1>   0.3430 
 14 C        1.7480    -6.6710    -0.3050 C.3   1 <1>   0.3430 
 15 C        5.2510    -4.6110    -2.3040 C.2   1 <1>   0.1390 
 16 C        6.3050    -3.8600    -1.8040 C.2   1 <1>  -0.1500 
 17 C       -0.4940    -5.7460    -0.1370 C.3   1 <1>   0.2000 
 18 C        0.2650    -7.0650    -0.3070 C.3   1 <1>  -0.0800 
 19 O       -0.5760    -5.4050     1.2120 O.3   1 <1>  -0.6800 
 20 C       -0.0530    -8.1700     0.7190 C.3   1 <1>   0.0210 
 21 C        0.7640    -9.4170     0.4440 C.2   1 <1>   0.1080 
 22 N        2.0580    -9.4460     0.5420 N.2   1 <1>  -0.7070 
 23 C        0.2380   -10.6470     0.0650 C.2   1 <1>  -0.1500 
 24 N        2.3940   -10.7170     0.2380 N.pl3 1 <1>   0.3000 
 25 C        1.3070   -11.4590    -0.0600 C.2   1 <1>  -0.3320 
 26 C        1.3580   -12.9260    -0.4460 C.3   1 <1>  -0.0600 
 27 H        0.7370    -2.6830     1.7940 H     1 <1>   0.1500 
 28 H        2.4210     0.8200     0.0760 H     1 <1>   0.1500 
 29 H        4.1030    -0.5450    -1.1030 H     1 <1>   0.1500 
 30 H        1.7450    -4.7600     1.5540 H     1 <1>   0.0800 
 31 H        3.3580    -4.9110     0.8980 H     1 <1>   0.0800 
 32 H        2.4730    -4.9640    -1.2810 H     1 <1>   0.4500 
 33 H        6.1710    -2.1750    -0.4040 H     1 <1>   0.1500 
 34 H        0.2330    -3.7360    -0.5120 H     1 <1>   0.0800 
 35 H        0.2780    -4.8090    -1.8990 H     1 <1>   0.0800 
 36 H        2.2720    -7.1960    -1.0880 H     1 <1>   0.0800 
 37 H        2.1950    -6.9400     0.6390 H     1 <1>   0.0800 
 38 H        5.3720    -5.4300    -2.9970 H     1 <1>   0.1500 
 39 H        7.3490    -3.9960    -2.0340 H     1 <1>   0.1500 
 40 H       -1.4850    -5.7560    -0.5590 H     1 <1>   0.0800 
 41 H        0.0470    -7.4530    -1.2870 H     1 <1>   0.0800 
 42 H       -1.3060    -5.8860     1.6550 H     1 <1>   0.4000 
 43 H       -1.0980    -8.4160     0.6810 H     1 <1>   0.0800 
 44 H        0.1780    -7.8410     1.7170 H     1 <1>   0.0800 
 45 H       -0.8010   -10.8800    -0.0860 H     1 <1>   0.1500 
 46 H        3.3660   -11.0520     0.2470 H     1 <1>   0.2700 
 47 H        0.3650   -13.2960    -0.6320 H     1 <1>   0.0800 
 48 H        1.7940   -13.5060     0.3490 H     1 <1>   0.0800 
 49 H        1.9440   -13.0590    -1.3380 H     1 <1>   0.0800 
@<TRIPOS>BOND
  1   1   2  1   
  2   2   3  ar  
  3   2   4  ar  
  4   3   5  ar  
  5   3  27  1   
  6   4   6  ar  
  7   4  28  1   
  8   5   7  ar  
  9   5   8  1   
 10   6   7  ar  
 11   6  29  1   
 12   7   9  1   
 13   8  10  1   
 14   8  30  1   
 15   8  31  1   
 16   9  11  1   
 17   9  12  1   
 18  10  13  1   
 19  10  14  1   
 20  10  32  1   
 21  11  15  2   
 22  12  16  2   
 23  12  33  1   
 24  13  17  1   
 25  13  34  1   
 26  13  35  1   
 27  14  18  1   
 28  14  36  1   
 29  14  37  1   
 30  15  16  1   
 31  15  38  1   
 32  16  39  1   
 33  17  18  1   
 34  17  19  1   
 35  17  40  1   
 36  18  20  1   
 37  18  41  1   
 38  19  42  1   
 39  20  21  1   
 40  20  43  1   
 41  20  44  1   
 42  21  22  2   
 43  21  23  1   
 44  22  24  1   
 45  23  25  2   
 46  23  45  1   
 47  24  25  1   
 48  24  46  1   
 49  25  26  1   
 50  26  47  1   
 51  26  48  1   
 52  26  49  1   
@<TRIPOS>SUBSTRUCTURE
  1 ****  10 GROUP 4 **** **** 0

# MOE 2024.06 (io_trps.svl 2023.06)
