@<TRIPOS>MOLECULE
NONAME
60 62 1 0 0 
SMALL
USER_CHARGES


@<TRIPOS>ATOM
  1 O       -2.2340     2.1950     2.0030 O.2   1 <1>  -0.5700 
  2 C       -2.5320     1.8580     0.8770 C.2   1 <1>   0.5690 
  3 N       -3.6250     1.0630     0.6250 N.am  1 <1>  -0.6600 
  4 C       -1.5940     2.3510    -0.2590 C.3   1 <1>   0.4840 
  5 C       -4.1040     0.6360    -0.7240 C.3   1 <1>   0.1400 
  6 C       -4.5210     0.6050     1.7290 C.3   1 <1>   0.1400 
  7 N       -0.1600     2.5190     0.2090 N.4   1 <1>  -0.9590 
  8 C       -2.1270     3.6770    -0.8180 C.3   1 <1>  -0.2400 
  9 C       -4.1860    -0.8910    -0.7700 C.3   1 <1>  -0.1600 
 10 C       -4.6220    -0.9220     1.7060 C.3   1 <1>  -0.1600 
 11 C        0.7600     3.1560    -0.7760 C.3   1 <1>   0.3430 
 12 C        0.3740     1.2130     0.7210 C.3   1 <1>   0.2630 
 13 C       -5.0950    -1.4440     0.3380 C.3   1 <1>   0.4240 
 14 C        2.0570     3.5740    -0.0910 C.3   1 <1>  -0.2400 
 15 O       -6.3620    -0.8920     0.0750 O.3   1 <1>  -0.5600 
 16 C       -5.1170    -2.9860     0.2950 C.ar  1 <1>  -0.1430 
 17 C       -7.4720    -1.5470     0.6100 C.3   1 <1>   0.1200 
 18 C       -6.3010    -3.6840     0.1030 C.ar  1 <1>  -0.1430 
 19 C       -3.9450    -3.7140     0.4550 C.ar  1 <1>  -0.1500 
 20 C       -7.6010    -2.9170    -0.0490 C.3   1 <1>  -0.0170 
 21 C       -6.3030    -5.0680     0.0500 C.ar  1 <1>  -0.1500 
 22 C       -3.9270    -5.0980     0.4160 C.ar  1 <1>   0.0820 
 23 C       -5.1250    -5.7960     0.1950 C.ar  1 <1>   0.0820 
 24 O       -2.6900    -5.6450     0.6030 O.3   1 <1>  -0.3630 
 25 O       -5.1260    -7.1600     0.1120 O.3   1 <1>  -0.3620 
 26 C       -2.5110    -6.9710     1.0470 C.3   1 <1>   0.0400 
 27 C       -6.2430    -7.8830    -0.3560 C.3   1 <1>   0.0400 
 28 H       -1.6150     1.6140    -1.0420 H     1 <1>   0.0800 
 29 H       -3.4560     0.9830    -1.5070 H     1 <1>   0.0800 
 30 H       -5.0820     1.0550    -0.8970 H     1 <1>   0.0800 
 31 H       -5.4990     1.0380     1.5940 H     1 <1>   0.0800 
 32 H       -4.1490     0.9240     2.6880 H     1 <1>   0.0800 
 33 H       -0.2440     3.1380     1.0340 H     1 <1>   0.4500 
 34 H       -2.0010     4.4690    -0.1010 H     1 <1>   0.0800 
 35 H       -3.1800     3.5840    -1.0190 H     1 <1>   0.0800 
 36 H       -1.6520     3.9370    -1.7460 H     1 <1>   0.0800 
 37 H       -3.1960    -1.2950    -0.6730 H     1 <1>   0.0800 
 38 H       -4.5720    -1.2090    -1.7220 H     1 <1>   0.0800 
 39 H       -5.2890    -1.2580     2.4770 H     1 <1>   0.0800 
 40 H       -3.6540    -1.3280     1.9340 H     1 <1>   0.0800 
 41 H        0.3040     4.0410    -1.1890 H     1 <1>   0.0800 
 42 H        0.9710     2.4750    -1.5860 H     1 <1>   0.0800 
 43 H        0.4630     0.5000    -0.0830 H     1 <1>   0.0800 
 44 H       -0.2820     0.8070     1.4740 H     1 <1>   0.0800 
 45 H        1.3450     1.3520     1.1680 H     1 <1>   0.0800 
 46 H        1.8570     4.2130     0.7510 H     1 <1>   0.0800 
 47 H        2.6590     4.1280    -0.7890 H     1 <1>   0.0800 
 48 H        2.6320     2.7230     0.2260 H     1 <1>   0.0800 
 49 H       -8.3400    -0.9470     0.4040 H     1 <1>   0.0800 
 50 H       -7.3510    -1.6390     1.6750 H     1 <1>   0.0800 
 51 H       -3.0100    -3.2140     0.6180 H     1 <1>   0.1500 
 52 H       -7.8290    -2.7930    -1.0920 H     1 <1>   0.0800 
 53 H       -8.4080    -3.4560     0.4130 H     1 <1>   0.0800 
 54 H       -7.2410    -5.5640    -0.1050 H     1 <1>   0.1500 
 55 H       -1.4920    -7.0830     1.3690 H     1 <1>   0.0800 
 56 H       -2.7090    -7.6400     0.2290 H     1 <1>   0.0800 
 57 H       -3.1810    -7.1600     1.8670 H     1 <1>   0.0800 
 58 H       -5.9610    -8.9180    -0.4360 H     1 <1>   0.0800 
 59 H       -6.5230    -7.5060    -1.3240 H     1 <1>   0.0800 
 60 H       -7.0480    -7.7790     0.3490 H     1 <1>   0.0800 
@<TRIPOS>BOND
  1   1   2  2   
  2   2   3  am  
  3   2   4  1   
  4   3   5  1   
  5   3   6  1   
  6   4   7  1   
  7   4   8  1   
  8   4  28  1   
  9   5   9  1   
 10   5  29  1   
 11   5  30  1   
 12   6  10  1   
 13   6  31  1   
 14   6  32  1   
 15   7  11  1   
 16   7  12  1   
 17   7  33  1   
 18   8  34  1   
 19   8  35  1   
 20   8  36  1   
 21   9  13  1   
 22   9  37  1   
 23   9  38  1   
 24  10  13  1   
 25  10  39  1   
 26  10  40  1   
 27  11  14  1   
 28  11  41  1   
 29  11  42  1   
 30  12  43  1   
 31  12  44  1   
 32  12  45  1   
 33  13  15  1   
 34  13  16  1   
 35  14  46  1   
 36  14  47  1   
 37  14  48  1   
 38  15  17  1   
 39  16  18  ar  
 40  16  19  ar  
 41  17  20  1   
 42  17  49  1   
 43  17  50  1   
 44  18  20  1   
 45  18  21  ar  
 46  19  22  ar  
 47  19  51  1   
 48  20  52  1   
 49  20  53  1   
 50  21  23  ar  
 51  21  54  1   
 52  22  23  ar  
 53  22  24  1   
 54  23  25  1   
 55  24  26  1   
 56  25  27  1   
 57  26  55  1   
 58  26  56  1   
 59  26  57  1   
 60  27  58  1   
 61  27  59  1   
 62  27  60  1   
@<TRIPOS>SUBSTRUCTURE
  1 ****   9 GROUP 4 **** **** 0

# MOE 2024.06 (io_trps.svl 2023.06)
