@<TRIPOS>MOLECULE
NONAME
48 49 1 0 0 
SMALL
USER_CHARGES


@<TRIPOS>ATOM
  1 O       -3.2920     2.1940    -3.0030 O.2   1 <1>  -0.5700 
  2 C       -3.0220     2.1340    -1.8180 C.2   1 <1>   0.5440 
  3 N       -3.4200     1.0260    -1.1010 N.am  1 <1>  -0.6600 
  4 C       -2.3080     3.2410    -1.2050 C.ar  1 <1>   0.0860 
  5 C       -4.0140    -0.1590    -1.8130 C.3   1 <1>   0.1400 
  6 C       -3.4550     0.9820     0.3980 C.3   1 <1>   0.1400 
  7 C       -1.1590     3.0480    -0.4400 C.ar  1 <1>  -0.1500 
  8 C       -2.7530     4.5500    -1.3800 C.ar  1 <1>  -0.1500 
  9 C       -4.0850    -1.3780    -0.8840 C.3   1 <1>   0.2000 
 10 C       -4.7710     0.3500     0.8580 C.3   1 <1>  -0.1600 
 11 C       -0.4840     4.1080     0.1390 C.ar  1 <1>   0.0820 
 12 C       -2.0910     5.6200    -0.8050 C.ar  1 <1>  -0.1500 
 13 O       -4.5420    -2.5040    -1.5510 O.3   1 <1>  -0.6800 
 14 C       -4.9100    -1.1410     0.4090 C.3   1 <1>  -0.1060 
 15 O        0.6230     3.8080     0.8620 O.3   1 <1>  -0.3630 
 16 C       -0.9580     5.4050    -0.0430 C.ar  1 <1>  -0.1500 
 17 C       -4.2540    -2.1070     1.4120 C.2   1 <1>   0.9060 
 18 C       -6.4330    -1.4910     0.3130 C.3   1 <1>  -0.1600 
 19 C        1.4150     4.8140     1.4480 C.3   1 <1>   0.1200 
 20 O       -3.6620    -1.6740     2.4080 O.co2 1 <1>  -0.9000 
 21 O       -4.2900    -3.3200     1.1570 O.co2 1 <1>  -0.9000 
 22 C       -7.2330    -0.8430    -0.8350 C.3   1 <1>  -0.1600 
 23 C        2.5940     4.1420     2.1460 C.3   1 <1>  -0.2400 
 24 C       -8.7150    -1.2190    -0.7430 C.3   1 <1>  -0.2400 
 25 H       -4.9970     0.1020    -2.1570 H     1 <1>   0.0800 
 26 H       -3.4030    -0.3990    -2.6650 H     1 <1>   0.0800 
 27 H       -2.6260     0.4000     0.7670 H     1 <1>   0.0800 
 28 H       -3.3830     1.9740     0.8070 H     1 <1>   0.0800 
 29 H       -0.7830     2.0510    -0.2970 H     1 <1>   0.1500 
 30 H       -3.6310     4.7190    -1.9800 H     1 <1>   0.1500 
 31 H       -3.0670    -1.6020    -0.6090 H     1 <1>   0.0800 
 32 H       -4.8440     0.4190     1.9290 H     1 <1>   0.0800 
 33 H       -5.5640     0.9550     0.4640 H     1 <1>   0.0800 
 34 H       -2.4580     6.6210    -0.9540 H     1 <1>   0.1500 
 35 H       -4.5820    -3.2120    -0.8570 H     1 <1>   0.4000 
 36 H       -0.4610     6.2500     0.3940 H     1 <1>   0.1500 
 37 H       -6.5350    -2.5580     0.2150 H     1 <1>   0.0800 
 38 H       -6.8900    -1.2310     1.2520 H     1 <1>   0.0800 
 39 H        1.7610     5.4720     0.6690 H     1 <1>   0.0800 
 40 H        0.8120     5.3550     2.1560 H     1 <1>   0.0800 
 41 H       -7.1470     0.2270    -0.8130 H     1 <1>   0.0800 
 42 H       -6.8510    -1.1900    -1.7790 H     1 <1>   0.0800 
 43 H        3.1760     3.5860     1.4330 H     1 <1>   0.0800 
 44 H        2.2380     3.4790     2.9140 H     1 <1>   0.0800 
 45 H        3.2220     4.8870     2.5990 H     1 <1>   0.0800 
 46 H       -9.1340    -0.8690     0.1840 H     1 <1>   0.0800 
 47 H       -8.8310    -2.2880    -0.7940 H     1 <1>   0.0800 
 48 H       -9.2580    -0.7750    -1.5570 H     1 <1>   0.0800 
@<TRIPOS>BOND
  1   1   2  2   
  2   2   3  am  
  3   2   4  1   
  4   3   5  1   
  5   3   6  1   
  6   4   7  ar  
  7   4   8  ar  
  8   5   9  1   
  9   5  25  1   
 10   5  26  1   
 11   6  10  1   
 12   6  27  1   
 13   6  28  1   
 14   7  11  ar  
 15   7  29  1   
 16   8  12  ar  
 17   8  30  1   
 18   9  13  1   
 19   9  14  1   
 20   9  31  1   
 21  10  14  1   
 22  10  32  1   
 23  10  33  1   
 24  11  15  1   
 25  11  16  ar  
 26  12  16  ar  
 27  12  34  1   
 28  13  35  1   
 29  14  17  1   
 30  14  18  1   
 31  15  19  1   
 32  16  36  1   
 33  17  20  ar  
 34  17  21  ar  
 35  18  22  1   
 36  18  37  1   
 37  18  38  1   
 38  19  23  1   
 39  19  39  1   
 40  19  40  1   
 41  22  24  1   
 42  22  41  1   
 43  22  42  1   
 44  23  43  1   
 45  23  44  1   
 46  23  45  1   
 47  24  46  1   
 48  24  47  1   
 49  24  48  1   
@<TRIPOS>SUBSTRUCTURE
  1 ****   6 GROUP 4 **** **** 0

# MOE 2024.06 (io_trps.svl 2023.06)
