@<TRIPOS>MOLECULE
NONAME
47 50 1 0 0 
SMALL
USER_CHARGES


@<TRIPOS>ATOM
  1 O        3.5440    -2.1560     2.1720 O.2   1 <1>  -0.5700 
  2 C        2.9530    -1.8910     1.1440 C.2   1 <1>   0.5440 
  3 N        3.1940    -0.6640     0.5670 N.am  1 <1>  -0.6600 
  4 C        2.0980    -2.8800     0.5200 C.ar  1 <1>   0.0860 
  5 C        3.7720     0.4500     1.4150 C.3   1 <1>   0.2200 
  6 C        3.1680    -0.5090    -0.9210 C.3   1 <1>   0.1400 
  7 C        0.7530    -2.5830     0.1580 C.ar  1 <1>   0.0000 
  8 C        2.6020    -4.1360     0.2490 C.ar  1 <1>  -0.1500 
  9 C        3.2050     1.8290     1.0440 C.3   1 <1>   0.1200 
 10 C        5.3190     0.4460     1.3840 C.3   1 <1>   0.3430 
 11 C        4.1660     0.5220    -1.4820 C.3   1 <1>  -0.0800 
 12 C        0.0000    -3.5480    -0.5520 C.ar  1 <1>   0.3100 
 13 C        0.0990    -1.3750     0.4780 C.ar  1 <1>  -0.1500 
 14 C        1.8480    -5.0990    -0.4190 C.ar  1 <1>  -0.1500 
 15 O        3.9300     2.4190     0.0090 O.3   1 <1>  -0.5600 
 16 N        5.8580    -0.3570     0.2360 N.4   1 <1>  -0.9590 
 17 C        3.6770     1.9650    -1.2760 C.3   1 <1>   0.1200 
 18 C        5.6450     0.3420    -1.0720 C.3   1 <1>   0.3430 
 19 N       -1.2650    -3.3260    -0.9880 N.ar  1 <1>  -0.6200 
 20 C        0.5750    -4.7980    -0.8180 C.ar  1 <1>  -0.1500 
 21 C       -1.1810    -1.1870     0.0510 C.ar  1 <1>  -0.1500 
 22 C        7.3500    -0.5640     0.4520 C.3   1 <1>   0.2370 
 23 C       -1.8160    -2.1920    -0.6860 C.ar  1 <1>   0.1600 
 24 C        8.1780     0.7250     0.4400 C.2   1 <1>   0.9060 
 25 O        8.5580     1.1520    -0.6540 O.co2 1 <1>  -0.9000 
 26 O        8.3130     1.3360     1.5030 O.co2 1 <1>  -0.9000 
 27 H        3.4750     0.2790     2.4350 H     1 <1>   0.0800 
 28 H        3.3820    -1.4630    -1.3720 H     1 <1>   0.0800 
 29 H        2.1700    -0.2350    -1.2210 H     1 <1>   0.0800 
 30 H        3.6030    -4.3880     0.5550 H     1 <1>   0.1500 
 31 H        3.3060     2.4850     1.8910 H     1 <1>   0.0800 
 32 H        2.1630     1.7760     0.7800 H     1 <1>   0.0800 
 33 H        5.6700     0.0170     2.3080 H     1 <1>   0.0800 
 34 H        5.6950     1.4570     1.3410 H     1 <1>   0.0800 
 35 H        4.1470     0.3900    -2.5490 H     1 <1>   0.0800 
 36 H        0.5960    -0.6180     1.0570 H     1 <1>   0.1500 
 37 H        2.2720    -6.0690    -0.6170 H     1 <1>   0.1500 
 38 H        5.3480    -1.2470     0.2570 H     1 <1>   0.4500 
 39 H        2.6240     2.0640    -1.4800 H     1 <1>   0.0800 
 40 H        4.2090     2.6230    -1.9420 H     1 <1>   0.0800 
 41 H        6.1220     1.3100    -1.0400 H     1 <1>   0.0800 
 42 H        6.1450    -0.2240    -1.8400 H     1 <1>   0.0800 
 43 H       -0.0250    -5.5190    -1.3440 H     1 <1>   0.1500 
 44 H       -1.7210    -0.2830     0.2690 H     1 <1>   0.1500 
 45 H        7.5180    -1.0390     1.4010 H     1 <1>   0.0800 
 46 H        7.7450    -1.1970    -0.3200 H     1 <1>   0.0800 
 47 H       -2.8250    -2.0140    -1.0200 H     1 <1>   0.1500 
@<TRIPOS>BOND
  1   1   2  2   
  2   2   3  am  
  3   2   4  1   
  4   3   5  1   
  5   3   6  1   
  6   4   7  ar  
  7   4   8  ar  
  8   5   9  1   
  9   5  10  1   
 10   5  27  1   
 11   6  11  1   
 12   6  28  1   
 13   6  29  1   
 14   7  12  ar  
 15   7  13  ar  
 16   8  14  ar  
 17   8  30  1   
 18   9  15  1   
 19   9  31  1   
 20   9  32  1   
 21  10  16  1   
 22  10  33  1   
 23  10  34  1   
 24  11  17  1   
 25  11  18  1   
 26  11  35  1   
 27  12  19  ar  
 28  12  20  ar  
 29  13  21  ar  
 30  13  36  1   
 31  14  20  ar  
 32  14  37  1   
 33  15  17  1   
 34  16  18  1   
 35  16  22  1   
 36  16  38  1   
 37  17  39  1   
 38  17  40  1   
 39  18  41  1   
 40  18  42  1   
 41  19  23  ar  
 42  20  43  1   
 43  21  23  ar  
 44  21  44  1   
 45  22  24  1   
 46  22  45  1   
 47  22  46  1   
 48  23  47  1   
 49  24  25  ar  
 50  24  26  ar  
@<TRIPOS>SUBSTRUCTURE
  1 ****   3 GROUP 4 **** **** 0

# MOE 2024.06 (io_trps.svl 2023.06)
