@<TRIPOS>MOLECULE
NONAME
43 45 1 0 0 
SMALL
USER_CHARGES


@<TRIPOS>ATOM
  1 CL       0.5090     0.4090    -1.2520 Cl    1 <1>  -0.1230 
  2 C        2.0490    -0.1270    -0.5990 C.2   1 <1>   0.1230 
  3 C        3.2390     0.6030    -0.5950 C.2   1 <1>   0.2030 
  4 C        2.2910    -1.3040     0.0020 C.2   1 <1>  -0.3320 
  5 N        4.1860    -0.1100     0.0090 N.2   1 <1>  -0.7070 
  6 C        3.3940     1.9270    -1.1780 C.2   1 <1>   0.7160 
  7 N        3.5940    -1.2700     0.3560 N.pl3 1 <1>   0.3140 
  8 C        1.3420    -2.4660     0.2590 C.3   1 <1>  -0.0600 
  9 O        2.8490     2.2060    -2.2310 O.2   1 <1>  -0.5700 
 10 N        4.2180     2.8940    -0.6160 N.am  1 <1>  -0.6600 
 11 C        4.3320    -2.3460     1.0360 C.3   1 <1>   0.0160 
 12 C        4.7060     2.7830     0.8090 C.3   1 <1>   0.2200 
 13 C        4.6970     4.0330    -1.4600 C.3   1 <1>   0.1400 
 14 C        4.6770     4.1230     1.5630 C.3   1 <1>   0.1200 
 15 C        6.1220     2.1580     0.8540 C.3   1 <1>   0.3430 
 16 C        6.0590     4.6200    -1.0390 C.3   1 <1>  -0.0800 
 17 O        5.8620     4.8340     1.3570 O.3   1 <1>  -0.5600 
 18 N        6.8160     2.2240    -0.4800 N.4   1 <1>  -0.9590 
 19 C        5.9320     5.5540     0.1740 C.3   1 <1>   0.1200 
 20 C        7.2190     3.6100    -0.8830 C.3   1 <1>   0.3430 
 21 C        7.9530     1.2660    -0.5410 C.3   1 <1>   0.2630 
 22 H        0.3610    -2.2390    -0.1220 H     1 <1>   0.0800 
 23 H        1.2580    -2.6560     1.3140 H     1 <1>   0.0800 
 24 H        1.6960    -3.3550    -0.2320 H     1 <1>   0.0800 
 25 H        3.8730    -2.5440     1.9860 H     1 <1>   0.0800 
 26 H        5.3510    -2.0430     1.1840 H     1 <1>   0.0800 
 27 H        4.3060    -3.2300     0.4280 H     1 <1>   0.0800 
 28 H        4.0390     2.1360     1.3500 H     1 <1>   0.0800 
 29 H        4.7770     3.6980    -2.4820 H     1 <1>   0.0800 
 30 H        3.9480     4.8080    -1.4470 H     1 <1>   0.0800 
 31 H        4.6220     3.9290     2.6200 H     1 <1>   0.0800 
 32 H        3.8260     4.7220     1.2870 H     1 <1>   0.0800 
 33 H        6.0120     1.1260     1.1420 H     1 <1>   0.0800 
 34 H        6.7130     2.6460     1.6110 H     1 <1>   0.0800 
 35 H        6.3470     5.2730    -1.8430 H     1 <1>   0.0800 
 36 H        6.0830     1.9200    -1.1440 H     1 <1>   0.4500 
 37 H        5.0690     6.1950     0.0990 H     1 <1>   0.0800 
 38 H        6.8050     6.1810     0.2450 H     1 <1>   0.0800 
 39 H        7.9250     4.0010    -0.1670 H     1 <1>   0.0800 
 40 H        7.7270     3.5480    -1.8320 H     1 <1>   0.0800 
 41 H        8.7130     1.5410     0.1720 H     1 <1>   0.0800 
 42 H        8.3870     1.2620    -1.5280 H     1 <1>   0.0800 
 43 H        7.6090     0.2690    -0.3160 H     1 <1>   0.0800 
@<TRIPOS>BOND
  1   1   2  1   
  2   2   3  1   
  3   2   4  2   
  4   3   5  2   
  5   3   6  1   
  6   4   7  1   
  7   4   8  1   
  8   5   7  1   
  9   6   9  2   
 10   6  10  am  
 11   7  11  1   
 12   8  22  1   
 13   8  23  1   
 14   8  24  1   
 15  10  12  1   
 16  10  13  1   
 17  11  25  1   
 18  11  26  1   
 19  11  27  1   
 20  12  14  1   
 21  12  15  1   
 22  12  28  1   
 23  13  16  1   
 24  13  29  1   
 25  13  30  1   
 26  14  17  1   
 27  14  31  1   
 28  14  32  1   
 29  15  18  1   
 30  15  33  1   
 31  15  34  1   
 32  16  19  1   
 33  16  20  1   
 34  16  35  1   
 35  17  19  1   
 36  18  20  1   
 37  18  21  1   
 38  18  36  1   
 39  19  37  1   
 40  19  38  1   
 41  20  39  1   
 42  20  40  1   
 43  21  41  1   
 44  21  42  1   
 45  21  43  1   
@<TRIPOS>SUBSTRUCTURE
  1 ****  10 GROUP 4 **** **** 0

# MOE 2024.06 (io_trps.svl 2023.06)
