@<TRIPOS>MOLECULE
NONAME
41 43 1 0 0 
SMALL
USER_CHARGES


@<TRIPOS>ATOM
  1 CL      -0.5560    -1.3790    -1.3420 Cl    1 <1>  -0.1770 
  2 C       -2.1630    -1.5520    -0.6760 C.ar  1 <1>   0.1770 
  3 C       -2.7440    -2.8060    -0.5880 C.ar  1 <1>   0.1600 
  4 C       -2.8390    -0.4350    -0.2410 C.ar  1 <1>  -0.1500 
  5 N       -3.9590    -3.0470    -0.1010 N.ar  1 <1>  -0.6200 
  6 C       -4.0930    -0.6780     0.2630 C.ar  1 <1>   0.1900 
  7 C       -4.6390    -1.9760     0.3240 C.ar  1 <1>   0.4100 
  8 F       -4.7760     0.3530     0.7010 F     1 <1>  -0.1900 
  9 N       -5.9170    -2.2270     0.8200 N.pl3 1 <1>  -0.8380 
 10 C       -6.2260    -3.5510     1.4410 C.3   1 <1>   0.2090 
 11 C       -7.0870    -1.6390     0.1050 C.3   1 <1>   0.2090 
 12 C       -6.6720    -4.5570     0.3480 C.3   1 <1>   0.4230 
 13 C       -7.5630    -2.6200    -0.9760 C.3   1 <1>  -0.1600 
 14 N       -6.9260    -5.9570     0.8420 N.4   1 <1>  -0.9590 
 15 C       -7.9160    -4.0170    -0.3900 C.3   1 <1>  -0.1060 
 16 C       -7.2160    -6.8930    -0.2730 C.3   1 <1>   0.3430 
 17 C       -5.9070    -6.4870     1.7830 C.3   1 <1>   0.2630 
 18 C       -9.0790    -3.9090     0.6140 C.2   1 <1>   0.9060 
 19 C       -8.2820    -4.9680    -1.5540 C.3   1 <1>  -0.1600 
 20 C       -8.4340    -6.4170    -1.0680 C.3   1 <1>  -0.1600 
 21 O       -9.1300    -4.7090     1.5630 O.co2 1 <1>  -0.9000 
 22 O       -9.9340    -3.0390     0.4580 O.co2 1 <1>  -0.9000 
 23 H       -2.1760    -3.6500    -0.9390 H     1 <1>   0.1500 
 24 H       -2.4170     0.5520    -0.2910 H     1 <1>   0.1500 
 25 H       -5.3420    -3.9070     1.9390 H     1 <1>   0.0800 
 26 H       -6.9990    -3.4210     2.1790 H     1 <1>   0.0800 
 27 H       -7.8800    -1.4450     0.8100 H     1 <1>   0.0800 
 28 H       -6.8190    -0.7020    -0.3520 H     1 <1>   0.0800 
 29 H       -5.8650    -4.6030    -0.3630 H     1 <1>   0.0800 
 30 H       -8.4310    -2.2020    -1.4560 H     1 <1>   0.0800 
 31 H       -6.7920    -2.7070    -1.7200 H     1 <1>   0.0800 
 32 H       -7.8380    -5.8150     1.3560 H     1 <1>   0.4500 
 33 H       -6.3600    -6.9510    -0.9250 H     1 <1>   0.0800 
 34 H       -7.4150    -7.8760     0.1210 H     1 <1>   0.0800 
 35 H       -4.9410    -6.5200     1.3070 H     1 <1>   0.0800 
 36 H       -6.1780    -7.4800     2.1010 H     1 <1>   0.0800 
 37 H       -5.8460    -5.8580     2.6560 H     1 <1>   0.0800 
 38 H       -9.2070    -4.6420    -2.0020 H     1 <1>   0.0800 
 39 H       -7.5180    -4.9290    -2.3110 H     1 <1>   0.0800 
 40 H       -8.5780    -7.0640    -1.9150 H     1 <1>   0.0800 
 41 H       -9.3110    -6.5040    -0.4500 H     1 <1>   0.0800 
@<TRIPOS>BOND
  1   1   2  1   
  2   2   3  ar  
  3   2   4  ar  
  4   3   5  ar  
  5   3  23  1   
  6   4   6  ar  
  7   4  24  1   
  8   5   7  ar  
  9   6   7  ar  
 10   6   8  1   
 11   7   9  1   
 12   9  10  1   
 13   9  11  1   
 14  10  12  1   
 15  10  25  1   
 16  10  26  1   
 17  11  13  1   
 18  11  27  1   
 19  11  28  1   
 20  12  14  1   
 21  12  15  1   
 22  12  29  1   
 23  13  15  1   
 24  13  30  1   
 25  13  31  1   
 26  14  16  1   
 27  14  17  1   
 28  14  32  1   
 29  15  18  1   
 30  15  19  1   
 31  16  20  1   
 32  16  33  1   
 33  16  34  1   
 34  17  35  1   
 35  17  36  1   
 36  17  37  1   
 37  18  21  ar  
 38  18  22  ar  
 39  19  20  1   
 40  19  38  1   
 41  19  39  1   
 42  20  40  1   
 43  20  41  1   
@<TRIPOS>SUBSTRUCTURE
  1 ****   9 GROUP 4 **** **** 0

# MOE 2024.06 (io_trps.svl 2023.06)
