@<TRIPOS>MOLECULE
NONAME
65 68 1 0 0 
SMALL
USER_CHARGES


@<TRIPOS>ATOM
  1 F       -7.8250     0.1050    -4.9010 F     1 <1>  -0.1900 
  2 C       -7.3410    -0.3720    -3.7860 C.ar  1 <1>   0.1900 
  3 C       -7.4390     0.3890    -2.6370 C.ar  1 <1>  -0.1500 
  4 C       -6.7490    -1.6210    -3.7970 C.ar  1 <1>  -0.1500 
  5 C       -6.9290    -0.1150    -1.4490 C.ar  1 <1>  -0.1440 
  6 C       -6.2400    -2.1200    -2.6100 C.ar  1 <1>  -0.1500 
  7 C       -6.3320    -1.3700    -1.4460 C.ar  1 <1>  -0.1500 
  8 C       -7.0250     0.7030    -0.1700 C.3   1 <1>   0.2640 
  9 O       -8.3880     0.9850     0.0750 O.3   1 <1>  -0.3630 
 10 C       -8.7640     1.3080     1.3360 C.ar  1 <1>   0.0830 
 11 C       -8.1520     2.2990     2.1090 C.ar  1 <1>   0.0830 
 12 C       -9.8380     0.6080     1.8550 C.ar  1 <1>  -0.1500 
 13 O       -7.1170     3.0380     1.6500 O.3   1 <1>  -0.3620 
 14 C       -8.6130     2.5520     3.3900 C.ar  1 <1>  -0.1500 
 15 C      -10.3260     0.8860     3.1260 C.ar  1 <1>  -0.1430 
 16 C       -7.4590     4.1070     0.7960 C.3   1 <1>   0.0400 
 17 C       -9.6980     1.8550     3.8960 C.ar  1 <1>  -0.1500 
 18 C      -11.5530     0.1570     3.6500 C.3   1 <1>   0.4860 
 19 N      -12.6230     0.2990     2.6320 N.4   1 <1>  -0.9590 
 20 C      -13.0160     1.7030     2.3420 C.3   1 <1>   0.3430 
 21 C      -13.7950    -0.5880     2.7750 C.3   1 <1>   0.3430 
 22 C      -13.9630     1.7430     1.1360 C.3   1 <1>  -0.1600 
 23 C      -14.5260    -0.6550     1.4260 C.3   1 <1>  -0.1600 
 24 C      -14.0720     0.3950     0.3760 C.3   1 <1>   0.2800 
 25 O      -12.7850    -0.0240    -0.0420 O.3   1 <1>  -0.5600 
 26 C      -15.0360     0.4200    -0.8570 C.3   1 <1>   0.2000 
 27 C      -12.1570     0.7070    -1.0650 C.3   1 <1>   0.1200 
 28 O      -15.3450    -0.8980    -1.2180 O.3   1 <1>  -0.6800 
 29 C      -14.4330     1.1550    -2.0890 C.3   1 <1>   0.2800 
 30 C      -13.0020     0.6680    -2.3420 C.3   1 <1>  -0.1600 
 31 O      -14.3700     2.5090    -1.8280 O.3   1 <1>  -0.6800 
 32 C      -15.2950     1.0330    -3.3520 C.3   1 <1>  -0.2400 
 33 H       -7.9090     1.3550    -2.6750 H     1 <1>   0.1500 
 34 H       -6.6880    -2.1830    -4.7110 H     1 <1>   0.1500 
 35 H       -5.7740    -3.0900    -2.5900 H     1 <1>   0.1500 
 36 H       -5.9310    -1.7750    -0.5320 H     1 <1>   0.1500 
 37 H       -6.4930     1.6300    -0.2850 H     1 <1>   0.0800 
 38 H       -6.6290     0.1600     0.6700 H     1 <1>   0.0800 
 39 H      -10.2780    -0.1550     1.2360 H     1 <1>   0.1500 
 40 H       -8.1200     3.3020     3.9840 H     1 <1>   0.1500 
 41 H       -6.5530     4.6040     0.4990 H     1 <1>   0.0800 
 42 H       -8.0950     4.7900     1.3310 H     1 <1>   0.0800 
 43 H       -7.9680     3.7190    -0.0690 H     1 <1>   0.0800 
 44 H      -10.0410     2.0830     4.8910 H     1 <1>   0.1500 
 45 H      -11.8700     0.5800     4.5880 H     1 <1>   0.0800 
 46 H      -11.3140    -0.8830     3.7980 H     1 <1>   0.0800 
 47 H      -12.2010    -0.0060     1.7320 H     1 <1>   0.4500 
 48 H      -13.4920     2.1470     3.2010 H     1 <1>   0.0800 
 49 H      -12.1350     2.2790     2.1090 H     1 <1>   0.0800 
 50 H      -13.4840    -1.5790     3.0620 H     1 <1>   0.0800 
 51 H      -14.4550    -0.2000     3.5350 H     1 <1>   0.0800 
 52 H      -13.6500     2.5450     0.4980 H     1 <1>   0.0800 
 53 H      -14.9420     2.0160     1.4860 H     1 <1>   0.0800 
 54 H      -15.5780    -0.5350     1.6150 H     1 <1>   0.0800 
 55 H      -14.4020    -1.6450     1.0240 H     1 <1>   0.0800 
 56 H      -15.9680     0.8850    -0.5890 H     1 <1>   0.0800 
 57 H      -11.9980     1.7200    -0.7360 H     1 <1>   0.0800 
 58 H      -11.1950     0.2580    -1.2460 H     1 <1>   0.0800 
 59 H      -14.5180    -1.3700    -1.4440 H     1 <1>   0.4000 
 60 H      -13.0210    -0.3450    -2.7030 H     1 <1>   0.0800 
 61 H      -12.5340     1.2650    -3.1040 H     1 <1>   0.0800 
 62 H      -14.2120     2.9900    -2.6630 H     1 <1>   0.4000 
 63 H      -15.3640     0.0060    -3.6610 H     1 <1>   0.0800 
 64 H      -14.8710     1.5920    -4.1660 H     1 <1>   0.0800 
 65 H      -16.2920     1.3860    -3.1560 H     1 <1>   0.0800 
@<TRIPOS>BOND
  1   1   2  1   
  2   2   3  ar  
  3   2   4  ar  
  4   3   5  ar  
  5   3  33  1   
  6   4   6  ar  
  7   4  34  1   
  8   5   7  ar  
  9   5   8  1   
 10   6   7  ar  
 11   6  35  1   
 12   7  36  1   
 13   8   9  1   
 14   8  37  1   
 15   8  38  1   
 16   9  10  1   
 17  10  11  ar  
 18  10  12  ar  
 19  11  13  1   
 20  11  14  ar  
 21  12  15  ar  
 22  12  39  1   
 23  13  16  1   
 24  14  17  ar  
 25  14  40  1   
 26  15  17  ar  
 27  15  18  1   
 28  16  41  1   
 29  16  42  1   
 30  16  43  1   
 31  17  44  1   
 32  18  19  1   
 33  18  45  1   
 34  18  46  1   
 35  19  20  1   
 36  19  21  1   
 37  19  47  1   
 38  20  22  1   
 39  20  48  1   
 40  20  49  1   
 41  21  23  1   
 42  21  50  1   
 43  21  51  1   
 44  22  24  1   
 45  22  52  1   
 46  22  53  1   
 47  23  24  1   
 48  23  54  1   
 49  23  55  1   
 50  24  25  1   
 51  24  26  1   
 52  25  27  1   
 53  26  28  1   
 54  26  29  1   
 55  26  56  1   
 56  27  30  1   
 57  27  57  1   
 58  27  58  1   
 59  28  59  1   
 60  29  30  1   
 61  29  31  1   
 62  29  32  1   
 63  30  60  1   
 64  30  61  1   
 65  31  62  1   
 66  32  63  1   
 67  32  64  1   
 68  32  65  1   
@<TRIPOS>SUBSTRUCTURE
  1 ****  27 GROUP 4 **** **** 0

# MOE 2024.06 (io_trps.svl 2023.06)
