@<TRIPOS>MOLECULE
NONAME
43 45 1 0 0 
SMALL
USER_CHARGES


@<TRIPOS>ATOM
  1 CL       0.9300    -0.0670    -1.7820 Cl    1 <1>  -0.1770 
  2 C        1.5430    -1.1830    -0.5760 C.ar  1 <1>   0.1770 
  3 C        0.8860    -2.4000    -0.3140 C.ar  1 <1>   0.4100 
  4 C        2.6870    -0.8350     0.0990 C.ar  1 <1>  -0.1500 
  5 N        1.3320    -3.2820     0.5850 N.ar  1 <1>  -0.6200 
  6 N       -0.2850    -2.7630    -0.9720 N.pl3 1 <1>  -0.8380 
  7 C        3.1310    -1.7510     1.0270 C.ar  1 <1>   0.1770 
  8 C        2.4410    -2.9330     1.2320 C.ar  1 <1>   0.1600 
  9 C       -0.5040    -4.1950    -1.3060 C.3   1 <1>   0.2090 
 10 C       -1.5240    -2.0060    -0.6420 C.3   1 <1>   0.2090 
 11 CL       4.5790    -1.4120     1.9460 Cl    1 <1>  -0.1770 
 12 C       -1.2440    -4.9150    -0.1490 C.3   1 <1>   0.4230 
 13 C       -2.2420    -2.7050     0.5180 C.3   1 <1>  -0.1600 
 14 N       -1.3850    -6.4230    -0.3400 N.4   1 <1>  -0.9590 
 15 C       -2.5720    -4.1980     0.2380 C.3   1 <1>   0.0000 
 16 C       -2.4280    -7.0550     0.5320 C.3   1 <1>   0.3430 
 17 C       -1.5570    -6.8800    -1.7570 C.3   1 <1>   0.2630 
 18 C       -3.1400    -4.8320     1.5430 C.3   1 <1>  -0.1600 
 19 C       -3.6030    -4.3170    -0.9210 C.3   1 <1>   0.1200 
 20 C       -2.6230    -6.2570     1.8190 C.3   1 <1>  -0.1600 
 21 O       -4.7140    -3.5200    -0.7000 O.3   1 <1>  -0.6800 
 22 H        3.2040     0.0890    -0.0840 H     1 <1>   0.1500 
 23 H        2.8260    -3.6200     1.9660 H     1 <1>   0.1500 
 24 H       -1.0650    -4.2460    -2.2210 H     1 <1>   0.0800 
 25 H        0.4520    -4.6640    -1.4690 H     1 <1>   0.0800 
 26 H       -1.2760    -0.9970    -0.3530 H     1 <1>   0.0800 
 27 H       -2.1590    -1.9500    -1.5100 H     1 <1>   0.0800 
 28 H       -0.6020    -4.7820     0.7060 H     1 <1>   0.0800 
 29 H       -1.6020    -2.6270     1.3810 H     1 <1>   0.0800 
 30 H       -3.1370    -2.1540     0.7480 H     1 <1>   0.0800 
 31 H       -0.4820    -6.7980    -0.0130 H     1 <1>   0.4500 
 32 H       -3.3700    -7.0900     0.0070 H     1 <1>   0.0800 
 33 H       -2.1430    -8.0680     0.7690 H     1 <1>   0.0800 
 34 H       -2.4670    -6.4810    -2.1760 H     1 <1>   0.0800 
 35 H       -1.6050    -7.9570    -1.7990 H     1 <1>   0.0800 
 36 H       -0.7260    -6.5580    -2.3630 H     1 <1>   0.0800 
 37 H       -2.8850    -4.2290     2.3990 H     1 <1>   0.0800 
 38 H       -4.2150    -4.8530     1.5060 H     1 <1>   0.0800 
 39 H       -3.9510    -5.3270    -1.0380 H     1 <1>   0.0800 
 40 H       -3.1810    -3.9930    -1.8550 H     1 <1>   0.0800 
 41 H       -3.3260    -6.7700     2.4520 H     1 <1>   0.0800 
 42 H       -1.6890    -6.2160     2.3540 H     1 <1>   0.0800 
 43 H       -5.1960    -3.7720     0.1120 H     1 <1>   0.4000 
@<TRIPOS>BOND
  1   1   2  1   
  2   2   3  ar  
  3   2   4  ar  
  4   3   5  ar  
  5   3   6  1   
  6   4   7  ar  
  7   4  22  1   
  8   5   8  ar  
  9   6   9  1   
 10   6  10  1   
 11   7   8  ar  
 12   7  11  1   
 13   8  23  1   
 14   9  12  1   
 15   9  24  1   
 16   9  25  1   
 17  10  13  1   
 18  10  26  1   
 19  10  27  1   
 20  12  14  1   
 21  12  15  1   
 22  12  28  1   
 23  13  15  1   
 24  13  29  1   
 25  13  30  1   
 26  14  16  1   
 27  14  17  1   
 28  14  31  1   
 29  15  18  1   
 30  15  19  1   
 31  16  20  1   
 32  16  32  1   
 33  16  33  1   
 34  17  34  1   
 35  17  35  1   
 36  17  36  1   
 37  18  20  1   
 38  18  37  1   
 39  18  38  1   
 40  19  21  1   
 41  19  39  1   
 42  19  40  1   
 43  20  41  1   
 44  20  42  1   
 45  21  43  1   
@<TRIPOS>SUBSTRUCTURE
  1 ****   6 GROUP 4 **** **** 0

# MOE 2024.06 (io_trps.svl 2023.06)
