@<TRIPOS>MOLECULE
NONAME
50 53 1 0 0 
SMALL
USER_CHARGES


@<TRIPOS>ATOM
  1 O        0.0040     0.5060    -0.8090 O.2   1 <1>  -0.5700 
  2 C       -0.1170     1.6650    -0.4420 C.2   1 <1>   0.7150 
  3 N       -1.2960     2.3220    -0.7520 N.am  1 <1>  -0.6600 
  4 C        0.9700     2.2940     0.2820 C.2   1 <1>   0.1020 
  5 C       -2.5320     1.5930    -1.1520 C.3   1 <1>   0.1400 
  6 C       -1.4970     3.7910    -0.6250 C.3   1 <1>   0.1400 
  7 N        0.8500     3.0930     1.3130 N.2   1 <1>  -0.3380 
  8 N        2.2780     2.1190     0.0000 N.pl3 1 <1>   0.0480 
  9 C       -3.6140     1.8370    -0.0970 C.3   1 <1>  -0.1600 
 10 C       -2.5530     4.0530     0.4500 C.3   1 <1>  -0.1600 
 11 N        2.0660     3.4380     1.7080 N.2   1 <1>  -0.3380 
 12 C        2.8990     2.8460     0.9230 C.2   1 <1>   0.0060 
 13 C        2.9240     1.3430    -1.0870 C.3   1 <1>   0.0960 
 14 C       -3.8700     3.3310     0.1270 C.3   1 <1>   0.4180 
 15 C        4.4070     2.9620     1.0520 C.3   1 <1>   0.0200 
 16 C        3.8130     0.2260    -0.5260 C.3   1 <1>  -0.1600 
 17 O       -4.3860     3.8220    -1.0880 O.3   1 <1>  -0.5600 
 18 C       -4.8870     3.5150     1.2500 C.2   1 <1>  -0.2880 
 19 C        5.0690     1.5960     1.2830 C.3   1 <1>  -0.1600 
 20 C        5.1630     0.7180     0.0240 C.3   1 <1>  -0.1600 
 21 C       -5.1000     5.0260    -1.0450 C.3   1 <1>   0.1200 
 22 C       -6.0290     4.1960     1.1240 C.2   1 <1>  -0.2760 
 23 C       -6.3660     4.8720    -0.1910 C.3   1 <1>  -0.0220 
 24 C       -7.0650     4.3500     2.2240 C.3   1 <1>  -0.1020 
 25 H       -2.3460     0.5360    -1.2400 H     1 <1>   0.0800 
 26 H       -2.8630     1.9560    -2.1100 H     1 <1>   0.0800 
 27 H       -1.8380     4.1800    -1.5700 H     1 <1>   0.0800 
 28 H       -0.5810     4.2960    -0.3770 H     1 <1>   0.0800 
 29 H       -3.2990     1.3840     0.8260 H     1 <1>   0.0800 
 30 H       -4.5300     1.3630    -0.3960 H     1 <1>   0.0800 
 31 H       -2.7210     5.1080     0.5550 H     1 <1>   0.0800 
 32 H       -2.1740     3.6990     1.3910 H     1 <1>   0.0800 
 33 H        3.5090     2.0140    -1.6900 H     1 <1>   0.0800 
 34 H        2.1710     0.9130    -1.7200 H     1 <1>   0.0800 
 35 H        4.6220     3.5960     1.8950 H     1 <1>   0.0800 
 36 H        4.8140     3.4370     0.1780 H     1 <1>   0.0800 
 37 H        4.0180    -0.4610    -1.3280 H     1 <1>   0.0800 
 38 H        3.2740    -0.3230     0.2290 H     1 <1>   0.0800 
 39 H       -4.5890     3.0290     2.1610 H     1 <1>   0.1500 
 40 H        4.5390     1.0690     2.0590 H     1 <1>   0.0800 
 41 H        6.0690     1.7690     1.6430 H     1 <1>   0.0800 
 42 H        5.6940     1.2510    -0.7470 H     1 <1>   0.0800 
 43 H        5.7540    -0.1480     0.2700 H     1 <1>   0.0800 
 44 H       -5.3600     5.2910    -2.0540 H     1 <1>   0.0800 
 45 H       -4.4630     5.7910    -0.6390 H     1 <1>   0.0800 
 46 H       -7.0960     4.2900    -0.7240 H     1 <1>   0.0800 
 47 H       -6.7790     5.8490    -0.0130 H     1 <1>   0.0800 
 48 H       -8.0070     3.9430     1.9040 H     1 <1>   0.0800 
 49 H       -7.1970     5.3890     2.4670 H     1 <1>   0.0800 
 50 H       -6.7510     3.8290     3.1110 H     1 <1>   0.0800 
@<TRIPOS>BOND
  1   1   2  2   
  2   2   3  am  
  3   2   4  1   
  4   3   5  1   
  5   3   6  1   
  6   4   7  2   
  7   4   8  1   
  8   5   9  1   
  9   5  25  1   
 10   5  26  1   
 11   6  10  1   
 12   6  27  1   
 13   6  28  1   
 14   7  11  1   
 15   8  12  1   
 16   8  13  1   
 17   9  14  1   
 18   9  29  1   
 19   9  30  1   
 20  10  14  1   
 21  10  31  1   
 22  10  32  1   
 23  11  12  2   
 24  12  15  1   
 25  13  16  1   
 26  13  33  1   
 27  13  34  1   
 28  14  17  1   
 29  14  18  1   
 30  15  19  1   
 31  15  35  1   
 32  15  36  1   
 33  16  20  1   
 34  16  37  1   
 35  16  38  1   
 36  17  21  1   
 37  18  22  2   
 38  18  39  1   
 39  19  20  1   
 40  19  40  1   
 41  19  41  1   
 42  20  42  1   
 43  20  43  1   
 44  21  23  1   
 45  21  44  1   
 46  21  45  1   
 47  22  23  1   
 48  22  24  1   
 49  23  46  1   
 50  23  47  1   
 51  24  48  1   
 52  24  49  1   
 53  24  50  1   
@<TRIPOS>SUBSTRUCTURE
  1 ****   3 GROUP 4 **** **** 0

# MOE 2024.06 (io_trps.svl 2023.06)
