@<TRIPOS>MOLECULE
NONAME
41 43 1 0 0 
SMALL
USER_CHARGES


@<TRIPOS>ATOM
  1 F       -0.6310     0.1930     1.2890 F     1 <1>  -0.1900 
  2 C       -1.5940     0.9710     0.8750 C.ar  1 <1>   0.1900 
  3 C       -1.2630     2.0850     0.1330 C.ar  1 <1>  -0.1500 
  4 C       -2.8990     0.6530     1.2030 C.ar  1 <1>  -0.1500 
  5 C       -2.2660     2.9540    -0.3000 C.ar  1 <1>   0.0860 
  6 C       -3.9060     1.4860     0.7500 C.ar  1 <1>  -0.1500 
  7 C       -3.5920     2.6090    -0.0020 C.ar  1 <1>   0.0830 
  8 C       -1.9570     4.1740    -1.0180 C.2   1 <1>   0.5440 
  9 O       -4.6040     3.3610    -0.4610 O.3   1 <1>  -0.5320 
 10 O       -2.5830     4.4390    -2.0260 O.2   1 <1>  -0.5700 
 11 N       -0.9930     5.0740    -0.5960 N.am  1 <1>  -0.6600 
 12 C       -0.5570     5.1550     0.8510 C.3   1 <1>   0.2200 
 13 C       -0.6330     6.2020    -1.5220 C.3   1 <1>   0.1400 
 14 C       -0.9140     6.5010     1.5040 C.3   1 <1>   0.1200 
 15 C        0.9540     4.8520     1.0040 C.3   1 <1>   0.3430 
 16 C        0.5150     7.1190    -1.0570 C.3   1 <1>  -0.0800 
 17 O        0.0990     7.4370     1.2930 O.3   1 <1>  -0.5600 
 18 N        1.7040     4.9900    -0.2940 N.4   1 <1>  -0.9590 
 19 C        0.0770     8.0750     0.0620 C.3   1 <1>   0.1200 
 20 C        1.8480     6.4160    -0.7310 C.3   1 <1>   0.3430 
 21 C        3.0300     4.3060    -0.2380 C.3   1 <1>   0.2630 
 22 H       -0.2350     2.2690    -0.1090 H     1 <1>   0.1500 
 23 H       -3.1170    -0.2240     1.7870 H     1 <1>   0.1500 
 24 H       -4.9380     1.2670     0.9680 H     1 <1>   0.1500 
 25 H       -4.3220     3.9760    -1.1800 H     1 <1>   0.4500 
 26 H       -1.0950     4.4190     1.4210 H     1 <1>   0.0800 
 27 H       -0.3730     5.7790    -2.4790 H     1 <1>   0.0800 
 28 H       -1.5150     6.8020    -1.6830 H     1 <1>   0.0800 
 29 H       -0.9860     6.3680     2.5700 H     1 <1>   0.0800 
 30 H       -1.8580     6.8820     1.1510 H     1 <1>   0.0800 
 31 H        1.0530     3.8410     1.3630 H     1 <1>   0.0800 
 32 H        1.3800     5.5010     1.7520 H     1 <1>   0.0800 
 33 H        0.7200     7.7650    -1.8920 H     1 <1>   0.0800 
 34 H        1.0970     4.5400    -0.9990 H     1 <1>   0.4500 
 35 H       -0.9080     8.4780    -0.1130 H     1 <1>   0.0800 
 36 H        0.7660     8.9000     0.1280 H     1 <1>   0.0800 
 37 H        2.3660     6.9790     0.0300 H     1 <1>   0.0800 
 38 H        2.4570     6.4380    -1.6200 H     1 <1>   0.0800 
 39 H        3.6600     4.7730     0.5020 H     1 <1>   0.0800 
 40 H        3.5210     4.3620    -1.1950 H     1 <1>   0.0800 
 41 H        2.9050     3.2670     0.0220 H     1 <1>   0.0800 
@<TRIPOS>BOND
  1   1   2  1   
  2   2   3  ar  
  3   2   4  ar  
  4   3   5  ar  
  5   3  22  1   
  6   4   6  ar  
  7   4  23  1   
  8   5   7  ar  
  9   5   8  1   
 10   6   7  ar  
 11   6  24  1   
 12   7   9  1   
 13   8  10  2   
 14   8  11  am  
 15   9  25  1   
 16  11  12  1   
 17  11  13  1   
 18  12  14  1   
 19  12  15  1   
 20  12  26  1   
 21  13  16  1   
 22  13  27  1   
 23  13  28  1   
 24  14  17  1   
 25  14  29  1   
 26  14  30  1   
 27  15  18  1   
 28  15  31  1   
 29  15  32  1   
 30  16  19  1   
 31  16  20  1   
 32  16  33  1   
 33  17  19  1   
 34  18  20  1   
 35  18  21  1   
 36  18  34  1   
 37  19  35  1   
 38  19  36  1   
 39  20  37  1   
 40  20  38  1   
 41  21  39  1   
 42  21  40  1   
 43  21  41  1   
@<TRIPOS>SUBSTRUCTURE
  1 ****  11 GROUP 4 **** **** 0

# MOE 2024.06 (io_trps.svl 2023.06)
