@<TRIPOS>MOLECULE
NONAME
54 57 1 0 0 
SMALL
USER_CHARGES


@<TRIPOS>ATOM
  1 CL       0.1440     0.1430     0.0640 Cl    1 <1>  -0.1770 
  2 C        1.6670    -0.5450     0.5830 C.ar  1 <1>   0.1770 
  3 C        2.0060    -1.8630     0.2650 C.ar  1 <1>   0.0530 
  4 C        2.4990     0.2700     1.3290 C.ar  1 <1>  -0.1500 
  5 C        1.1690    -2.7390    -0.5240 C.2   1 <1>   0.0870 
  6 C        3.2290    -2.3290     0.7510 C.ar  1 <1>  -0.1500 
  7 C        3.7080    -0.2200     1.7910 C.ar  1 <1>  -0.1500 
  8 O        1.1120    -4.0310    -0.2240 O.3   1 <1>  -0.2800 
  9 C        0.3740    -2.5130    -1.6030 C.2   1 <1>  -0.1500 
 10 C        4.0690    -1.5240     1.5000 C.ar  1 <1>  -0.1500 
 11 C        0.2990    -4.6320    -1.0670 C.2   1 <1>  -0.0400 
 12 C       -0.1900    -3.7400    -1.9540 C.2   1 <1>  -0.1500 
 13 C        0.0750    -6.1260    -0.9060 C.3   1 <1>   0.2900 
 14 N       -1.1240    -6.6020    -1.6410 N.3   1 <1>  -0.8100 
 15 C       -1.1440    -8.0520    -1.8850 C.3   1 <1>   0.1100 
 16 C       -2.3980    -6.0910    -1.0950 C.3   1 <1>   0.1100 
 17 C       -1.5620    -8.8640    -0.6320 C.3   1 <1>   0.4230 
 18 C       -2.8090    -6.8480     0.1760 C.3   1 <1>  -0.1600 
 19 N       -1.4770   -10.3740    -0.8240 N.4   1 <1>  -0.9590 
 20 C       -2.9160    -8.3820    -0.0380 C.3   1 <1>   0.0000 
 21 C       -2.2490   -11.1620     0.1920 C.3   1 <1>   0.3430 
 22 C       -1.8100   -10.8640    -2.2030 C.3   1 <1>   0.2630 
 23 C       -3.1420    -9.0710     1.3400 C.3   1 <1>  -0.1600 
 24 C       -4.0850    -8.7090    -1.0130 C.3   1 <1>   0.1200 
 25 C       -2.3700   -10.3950     1.5070 C.3   1 <1>  -0.1600 
 26 O       -5.2750    -8.1310    -0.6030 O.3   1 <1>  -0.6800 
 27 H        2.1990     1.2780     1.5490 H     1 <1>   0.1500 
 28 H        3.5230    -3.3400     0.5320 H     1 <1>   0.1500 
 29 H        4.3610     0.4080     2.3730 H     1 <1>   0.1500 
 30 H        0.1950    -1.5840    -2.1140 H     1 <1>   0.1500 
 31 H        5.0060    -1.9130     1.8580 H     1 <1>   0.1500 
 32 H       -0.8700    -3.9150    -2.7690 H     1 <1>   0.1500 
 33 H       -0.0140    -6.3530     0.1410 H     1 <1>   0.0800 
 34 H        0.9530    -6.6230    -1.2820 H     1 <1>   0.0800 
 35 H       -1.8340    -8.2320    -2.6900 H     1 <1>   0.0800 
 36 H       -0.1670    -8.3630    -2.2140 H     1 <1>   0.0800 
 37 H       -2.3140    -5.0400    -0.8740 H     1 <1>   0.0800 
 38 H       -3.1660    -6.1910    -1.8430 H     1 <1>   0.0800 
 39 H       -0.8290    -8.6170     0.1170 H     1 <1>   0.0800 
 40 H       -2.0930    -6.6240     0.9470 H     1 <1>   0.0800 
 41 H       -3.7490    -6.4500     0.5170 H     1 <1>   0.0800 
 42 H       -0.4860   -10.6030    -0.6630 H     1 <1>   0.4500 
 43 H       -3.2420   -11.3600    -0.1780 H     1 <1>   0.0800 
 44 H       -1.7660   -12.1110     0.3650 H     1 <1>   0.0800 
 45 H       -2.8290   -10.6190    -2.4560 H     1 <1>   0.0800 
 46 H       -1.6930   -11.9350    -2.2580 H     1 <1>   0.0800 
 47 H       -1.1570   -10.4160    -2.9340 H     1 <1>   0.0800 
 48 H       -2.8390    -8.4190     2.1440 H     1 <1>   0.0800 
 49 H       -4.1910    -9.2570     1.4920 H     1 <1>   0.0800 
 50 H       -4.2550    -9.7670    -1.0850 H     1 <1>   0.0800 
 51 H       -3.8880    -8.3300    -2.0000 H     1 <1>   0.0800 
 52 H       -2.8790   -11.0090     2.2310 H     1 <1>   0.0800 
 53 H       -1.3850   -10.2040     1.8960 H     1 <1>   0.0800 
 54 H       -5.5480    -8.4310     0.2860 H     1 <1>   0.4000 
@<TRIPOS>BOND
  1   1   2  1   
  2   2   3  ar  
  3   2   4  ar  
  4   3   5  1   
  5   3   6  ar  
  6   4   7  ar  
  7   4  27  1   
  8   5   8  1   
  9   5   9  2   
 10   6  10  ar  
 11   6  28  1   
 12   7  10  ar  
 13   7  29  1   
 14   8  11  1   
 15   9  12  1   
 16   9  30  1   
 17  10  31  1   
 18  11  12  2   
 19  11  13  1   
 20  12  32  1   
 21  13  14  1   
 22  13  33  1   
 23  13  34  1   
 24  14  15  1   
 25  14  16  1   
 26  15  17  1   
 27  15  35  1   
 28  15  36  1   
 29  16  18  1   
 30  16  37  1   
 31  16  38  1   
 32  17  19  1   
 33  17  20  1   
 34  17  39  1   
 35  18  20  1   
 36  18  40  1   
 37  18  41  1   
 38  19  21  1   
 39  19  22  1   
 40  19  42  1   
 41  20  23  1   
 42  20  24  1   
 43  21  25  1   
 44  21  43  1   
 45  21  44  1   
 46  22  45  1   
 47  22  46  1   
 48  22  47  1   
 49  23  25  1   
 50  23  48  1   
 51  23  49  1   
 52  24  26  1   
 53  24  50  1   
 54  24  51  1   
 55  25  52  1   
 56  25  53  1   
 57  26  54  1   
@<TRIPOS>SUBSTRUCTURE
  1 ****  13 GROUP 4 **** **** 0

# MOE 2024.06 (io_trps.svl 2023.06)
