@<TRIPOS>MOLECULE
NONAME
56 59 1 0 0 
SMALL
USER_CHARGES


@<TRIPOS>ATOM
  1 O        0.1370    -1.0350    -0.7630 O.2   1 <1>  -0.5700 
  2 C       -0.3070    -0.3360     0.1150 C.2   1 <1>   0.5690 
  3 N       -1.3010    -0.7700     0.9280 N.am  1 <1>  -0.7300 
  4 C        0.2270     1.0880     0.2610 C.3   1 <1>  -0.0190 
  5 C       -2.0400    -2.0430     0.7820 C.3   1 <1>   0.2200 
  6 C        0.1240     1.6470     1.7000 C.3   1 <1>  -0.1600 
  7 C       -0.4890     2.0130    -0.7450 C.3   1 <1>  -0.1600 
  8 C       -3.4760    -1.7830     0.3390 C.3   1 <1>  -0.0800 
  9 C       -2.2750    -2.6320     2.1650 C.3   1 <1>   0.1200 
 10 C        0.5590     3.1130     1.7730 C.3   1 <1>   0.1400 
 11 C       -0.0440     3.4700    -0.6030 C.3   1 <1>   0.1400 
 12 C       -4.2030    -1.5030     1.6600 C.3   1 <1>   0.1200 
 13 C       -3.6620    -0.6860    -0.7280 C.3   1 <1>  -0.0170 
 14 O       -3.3460    -1.9070     2.6880 O.3   1 <1>  -0.5600 
 15 N       -0.2610     3.8890     0.8060 N.am  1 <1>  -0.6600 
 16 C       -5.1260    -0.5180    -1.1010 C.ar  1 <1>  -0.1440 
 17 C       -1.2180     4.7810     1.2330 C.2   1 <1>   0.5770 
 18 C       -5.8950     0.5090    -0.5920 C.ar  1 <1>  -0.1500 
 19 C       -5.7590    -1.3820    -1.9710 C.ar  1 <1>  -0.1500 
 20 O       -1.3420     5.0490     2.4060 O.2   1 <1>  -0.5700 
 21 C       -2.1640     5.4460     0.2310 C.3   1 <1>   0.0530 
 22 C       -7.2250     0.6160    -0.9630 C.ar  1 <1>   0.1600 
 23 C       -7.0960    -1.1860    -2.2770 C.ar  1 <1>   0.1600 
 24 C       -3.3370     6.2860     0.8180 C.3   1 <1>   0.0000 
 25 C       -3.2510     4.4990    -0.3480 C.3   1 <1>   0.0000 
 26 N       -7.8440    -0.2080    -1.7920 N.ar  1 <1>  -0.6200 
 27 C       -4.2120     5.7150    -0.3270 C.3   1 <1>   0.0000 
 28 H       -1.6470    -0.1800     1.6880 H     1 <1>   0.3700 
 29 H        1.2690     1.0590    -0.0040 H     1 <1>   0.0800 
 30 H       -1.5140    -2.7200     0.1300 H     1 <1>   0.0800 
 31 H        0.7380     1.0610     2.3610 H     1 <1>   0.0800 
 32 H       -0.8890     1.5950     2.0570 H     1 <1>   0.0800 
 33 H       -1.5520     1.9610    -0.5940 H     1 <1>   0.0800 
 34 H       -0.2850     1.6770    -1.7470 H     1 <1>   0.0800 
 35 H       -3.8710    -2.7030    -0.0540 H     1 <1>   0.0800 
 36 H       -1.4200    -2.5370     2.8110 H     1 <1>   0.0800 
 37 H       -2.5740    -3.6640     2.0970 H     1 <1>   0.0800 
 38 H        1.6000     3.2100     1.5170 H     1 <1>   0.0800 
 39 H        0.4270     3.4850     2.7750 H     1 <1>   0.0800 
 40 H       -0.5890     4.0910    -1.2900 H     1 <1>   0.0800 
 41 H        1.0030     3.5580    -0.8390 H     1 <1>   0.0800 
 42 H       -5.1230    -2.0580     1.7330 H     1 <1>   0.0800 
 43 H       -4.4010    -0.4550     1.7950 H     1 <1>   0.0800 
 44 H       -3.0940    -0.9420    -1.6060 H     1 <1>   0.0800 
 45 H       -3.2900     0.2560    -0.3670 H     1 <1>   0.0800 
 46 H       -5.4770     1.2270     0.0890 H     1 <1>   0.1500 
 47 H       -5.2280    -2.2040    -2.4140 H     1 <1>   0.1500 
 48 H       -1.6460     5.9900    -0.5410 H     1 <1>   0.0000 
 49 H       -7.8110     1.4220    -0.5550 H     1 <1>   0.1500 
 50 H       -7.5750    -1.8690    -2.9580 H     1 <1>   0.1500 
 51 H       -3.6760     5.9530     1.7840 H     1 <1>   0.0000 
 52 H       -3.1840     7.3490     0.7580 H     1 <1>   0.0000 
 53 H       -3.0370     4.1360    -1.3380 H     1 <1>   0.0000 
 54 H       -3.5480     3.7250     0.3400 H     1 <1>   0.0000 
 55 H       -4.1580     6.3040    -1.2260 H     1 <1>   0.0000 
 56 H       -5.2160     5.4710    -0.0290 H     1 <1>   0.0000 
@<TRIPOS>BOND
  1   1   2  2   
  2   2   3  am  
  3   2   4  1   
  4   3   5  1   
  5   3  28  1   
  6   4   6  1   
  7   4   7  1   
  8   4  29  1   
  9   5   8  1   
 10   5   9  1   
 11   5  30  1   
 12   6  10  1   
 13   6  31  1   
 14   6  32  1   
 15   7  11  1   
 16   7  33  1   
 17   7  34  1   
 18   8  12  1   
 19   8  13  1   
 20   8  35  1   
 21   9  14  1   
 22   9  36  1   
 23   9  37  1   
 24  10  15  1   
 25  10  38  1   
 26  10  39  1   
 27  11  15  1   
 28  11  40  1   
 29  11  41  1   
 30  12  14  1   
 31  12  42  1   
 32  12  43  1   
 33  13  16  1   
 34  13  44  1   
 35  13  45  1   
 36  15  17  am  
 37  16  18  ar  
 38  16  19  ar  
 39  17  20  2   
 40  17  21  1   
 41  18  22  ar  
 42  18  46  1   
 43  19  23  ar  
 44  19  47  1   
 45  21  24  1   
 46  21  25  1   
 47  21  48  1   
 48  22  26  ar  
 49  22  49  1   
 50  23  26  ar  
 51  23  50  1   
 52  24  27  1   
 53  24  51  1   
 54  24  52  1   
 55  25  27  1   
 56  25  53  1   
 57  25  54  1   
 58  27  55  1   
 59  27  56  1   
@<TRIPOS>SUBSTRUCTURE
  1 ****  13 GROUP 4 **** **** 0

# MOE 2024.06 (io_trps.svl 2023.06)
