@<TRIPOS>MOLECULE
NONAME
49 52 1 0 0 
SMALL
USER_CHARGES


@<TRIPOS>ATOM
  1 O       -1.6070     0.7300    -1.1960 O.2   1 <1>  -0.5700 
  2 C       -1.5370     0.7850     0.0200 C.2   1 <1>   0.5440 
  3 N       -1.7440    -0.3790     0.7100 N.am  1 <1>  -0.7300 
  4 C       -1.2800     2.0330     0.7500 C.ar  1 <1>   0.3960 
  5 C       -2.1070    -1.6830     0.1120 C.3   1 <1>   0.2200 
  6 N       -1.7950     2.1210     1.9760 N.ar  1 <1>  -0.6200 
  7 C       -0.5350     3.0950     0.2290 C.ar  1 <1>  -0.1430 
  8 C       -3.6200    -1.8090     0.0690 C.3   1 <1>  -0.0800 
  9 C       -1.7160    -2.8190     1.0570 C.3   1 <1>   0.1200 
 10 C       -1.5730     3.2400     2.6180 C.ar  1 <1>   0.7200 
 11 C       -0.4030     4.2260     1.0130 C.ar  1 <1>   0.1660 
 12 C        0.1160     3.0280    -1.1580 C.3   1 <1>  -0.0160 
 13 C       -3.9280    -2.3140     1.4790 C.3   1 <1>   0.1200 
 14 C       -4.0710    -2.7990    -1.0200 C.3   1 <1>  -0.0160 
 15 O       -2.8120    -3.0440     1.8970 O.3   1 <1>  -0.5600 
 16 N       -0.9230     4.3050     2.2100 N.ar  1 <1>  -0.6200 
 17 N       -2.0940     3.3220     3.8420 N.pl3 1 <1>  -0.9000 
 18 C        0.3690     5.4580     0.5590 C.3   1 <1>  -0.0170 
 19 C        1.1790     4.1070    -1.3910 C.3   1 <1>  -0.1600 
 20 C       -5.5870    -2.9110    -1.0810 C.ar  1 <1>  -0.1430 
 21 C        0.6580     5.4730    -0.9460 C.3   1 <1>  -0.1600 
 22 C       -6.3640    -1.9180    -1.6420 C.ar  1 <1>  -0.1500 
 23 C       -6.2630    -4.0060    -0.5810 C.ar  1 <1>  -0.1500 
 24 C       -7.7420    -2.0630    -1.6730 C.ar  1 <1>   0.1600 
 25 C       -7.6450    -4.0530    -0.6630 C.ar  1 <1>   0.1600 
 26 N       -8.4010    -3.1070    -1.1960 N.ar  1 <1>  -0.6200 
 27 H       -1.8420    -0.3120     1.7280 H     1 <1>   0.3700 
 28 H       -1.6450    -1.7840    -0.8560 H     1 <1>   0.0800 
 29 H       -4.0860    -0.8570    -0.1130 H     1 <1>   0.0800 
 30 H       -0.8500    -2.5830     1.6490 H     1 <1>   0.0800 
 31 H       -1.5430    -3.7250     0.5050 H     1 <1>   0.0800 
 32 H        0.5790     2.0670    -1.3040 H     1 <1>   0.0800 
 33 H       -0.6570     3.1350    -1.9010 H     1 <1>   0.0800 
 34 H       -4.8010    -2.9410     1.5280 H     1 <1>   0.0800 
 35 H       -4.0450    -1.4870     2.1580 H     1 <1>   0.0800 
 36 H       -3.6450    -3.7710    -0.8410 H     1 <1>   0.0800 
 37 H       -3.7140    -2.4590    -1.9780 H     1 <1>   0.0800 
 38 H       -2.8660     2.6950     4.0440 H     1 <1>   0.4000 
 39 H       -2.1560     4.2640     4.2210 H     1 <1>   0.4000 
 40 H       -0.1870     6.3410     0.8200 H     1 <1>   0.0800 
 41 H        1.2970     5.4850     1.1010 H     1 <1>   0.0800 
 42 H        2.0680     3.8620    -0.8330 H     1 <1>   0.0800 
 43 H        1.4400     4.1340    -2.4350 H     1 <1>   0.0800 
 44 H       -0.2460     5.7050    -1.4830 H     1 <1>   0.0800 
 45 H        1.3830     6.2370    -1.1670 H     1 <1>   0.0800 
 46 H       -5.9120    -1.0350    -2.0540 H     1 <1>   0.1500 
 47 H       -5.7290    -4.8220    -0.1290 H     1 <1>   0.1500 
 48 H       -8.3320    -1.2790    -2.1150 H     1 <1>   0.1500 
 49 H       -8.1550    -4.9140    -0.2670 H     1 <1>   0.1500 
@<TRIPOS>BOND
  1   1   2  2   
  2   2   3  am  
  3   2   4  1   
  4   3   5  1   
  5   3  27  1   
  6   4   6  ar  
  7   4   7  ar  
  8   5   8  1   
  9   5   9  1   
 10   5  28  1   
 11   6  10  ar  
 12   7  11  ar  
 13   7  12  1   
 14   8  13  1   
 15   8  14  1   
 16   8  29  1   
 17   9  15  1   
 18   9  30  1   
 19   9  31  1   
 20  10  16  ar  
 21  10  17  1   
 22  11  16  ar  
 23  11  18  1   
 24  12  19  1   
 25  12  32  1   
 26  12  33  1   
 27  13  15  1   
 28  13  34  1   
 29  13  35  1   
 30  14  20  1   
 31  14  36  1   
 32  14  37  1   
 33  17  38  1   
 34  17  39  1   
 35  18  21  1   
 36  18  40  1   
 37  18  41  1   
 38  19  21  1   
 39  19  42  1   
 40  19  43  1   
 41  20  22  ar  
 42  20  23  ar  
 43  21  44  1   
 44  21  45  1   
 45  22  24  ar  
 46  22  46  1   
 47  23  25  ar  
 48  23  47  1   
 49  24  26  ar  
 50  24  48  1   
 51  25  26  ar  
 52  25  49  1   
@<TRIPOS>SUBSTRUCTURE
  1 ****   2 GROUP 4 **** **** 0

# MOE 2024.06 (io_trps.svl 2023.06)
