@<TRIPOS>MOLECULE
NONAME
52 55 1 0 0 
SMALL
USER_CHARGES


@<TRIPOS>ATOM
  1 O        3.1460    -0.4570    -1.4710 O.2   1 <1>  -0.5700 
  2 C        3.0280    -0.7930    -0.3150 C.2   1 <1>   0.6300 
  3 N        3.7270    -0.1850     0.6720 N.am  1 <1>  -0.7300 
  4 C        2.0670    -1.9200     0.0680 C.3   1 <1>   0.0320 
  5 C        4.6730     0.9320     0.4910 C.3   1 <1>   0.3200 
  6 C        0.6470    -1.4120     0.2790 C.ar  1 <1>  -0.0320 
  7 C        2.2670    -3.3130    -0.4700 C.3   1 <1>  -0.1900 
  8 C        2.5730    -3.0280     0.9640 C.3   1 <1>  -0.2000 
  9 C        4.1490     2.1550     1.2240 C.2   1 <1>   0.0060 
 10 C       -0.1930    -1.2470    -0.8100 C.ar  1 <1>  -0.1500 
 11 C        0.1830    -1.0960     1.5470 C.ar  1 <1>  -0.1500 
 12 C        1.1490    -4.3110    -0.7540 C.3   1 <1>  -0.0650 
 13 C        3.4340    -3.7090    -1.3760 C.3   1 <1>  -0.0650 
 14 N        4.6070     2.5370     2.3750 N.2   1 <1>  -0.5650 
 15 N        3.1570     2.9460     0.7400 N.pl3 1 <1>   0.0480 
 16 C       -1.4870    -0.7860    -0.6360 C.ar  1 <1>  -0.1500 
 17 C       -1.1090    -0.6300     1.7240 C.ar  1 <1>  -0.1500 
 18 C        1.9010    -5.6070    -1.0370 C.3   1 <1>  -0.1600 
 19 C        3.2080    -5.1870    -1.7200 C.3   1 <1>  -0.1600 
 20 C        3.8850     3.6350     2.6590 C.2   1 <1>   0.0770 
 21 C        2.9990     3.9000     1.6760 C.2   1 <1>  -0.3020 
 22 C        2.3930     2.8340    -0.5240 C.3   1 <1>   0.0960 
 23 C       -1.9440    -0.4760     0.6320 C.ar  1 <1>  -0.1500 
 24 C        0.9450     2.4150    -0.2510 C.3   1 <1>  -0.1600 
 25 C        0.1630     2.2590    -1.5590 C.3   1 <1>  -0.2400 
 26 H        3.5210    -0.4020     1.6470 H     1 <1>   0.3700 
 27 H        4.8120     1.1510    -0.5530 H     1 <1>   0.0800 
 28 H        5.6260     0.6550     0.9040 H     1 <1>   0.0800 
 29 H        1.9190    -3.4230     1.7210 H     1 <1>   0.1000 
 30 H        3.6000    -3.0140     1.2820 H     1 <1>   0.1000 
 31 H        0.1670    -1.4790    -1.7970 H     1 <1>   0.1500 
 32 H        0.8260    -1.2120     2.4010 H     1 <1>   0.1500 
 33 H        0.6150    -4.0050    -1.6360 H     1 <1>   0.0800 
 34 H        0.4550    -4.4110     0.0630 H     1 <1>   0.0800 
 35 H        4.3880    -3.5510    -0.9040 H     1 <1>   0.0800 
 36 H        3.3960    -3.1230    -2.2800 H     1 <1>   0.0800 
 37 H       -2.1330    -0.6650    -1.4880 H     1 <1>   0.1500 
 38 H       -1.4630    -0.3870     2.7110 H     1 <1>   0.1500 
 39 H        1.3240    -6.2800    -1.6470 H     1 <1>   0.0800 
 40 H        2.1300    -6.0890    -0.1020 H     1 <1>   0.0800 
 41 H        4.0270    -5.7950    -1.3780 H     1 <1>   0.0800 
 42 H        3.1150    -5.2950    -2.7870 H     1 <1>   0.0800 
 43 H        4.0430     4.1870     3.5710 H     1 <1>   0.1500 
 44 H        2.2820     4.6960     1.5950 H     1 <1>   0.1500 
 45 H        2.8650     2.1140    -1.1670 H     1 <1>   0.0800 
 46 H        2.4130     3.7890    -1.0180 H     1 <1>   0.0800 
 47 H       -2.9490    -0.1160     0.7690 H     1 <1>   0.1500 
 48 H        0.4620     3.1540     0.3640 H     1 <1>   0.0800 
 49 H        0.9370     1.4770     0.2750 H     1 <1>   0.0800 
 50 H        0.1550     3.1820    -2.1120 H     1 <1>   0.0800 
 51 H       -0.8540     1.9800    -1.3450 H     1 <1>   0.0800 
 52 H        0.6060     1.4890    -2.1680 H     1 <1>   0.0800 
@<TRIPOS>BOND
  1   1   2  2   
  2   2   3  am  
  3   2   4  1   
  4   3   5  1   
  5   3  26  1   
  6   4   6  1   
  7   4   7  1   
  8   4   8  1   
  9   5   9  1   
 10   5  27  1   
 11   5  28  1   
 12   6  10  ar  
 13   6  11  ar  
 14   7   8  1   
 15   7  12  1   
 16   7  13  1   
 17   8  29  1   
 18   8  30  1   
 19   9  14  2   
 20   9  15  1   
 21  10  16  ar  
 22  10  31  1   
 23  11  17  ar  
 24  11  32  1   
 25  12  18  1   
 26  12  33  1   
 27  12  34  1   
 28  13  19  1   
 29  13  35  1   
 30  13  36  1   
 31  14  20  1   
 32  15  21  1   
 33  15  22  1   
 34  16  23  ar  
 35  16  37  1   
 36  17  23  ar  
 37  17  38  1   
 38  18  19  1   
 39  18  39  1   
 40  18  40  1   
 41  19  41  1   
 42  19  42  1   
 43  20  21  2   
 44  20  43  1   
 45  21  44  1   
 46  22  24  1   
 47  22  45  1   
 48  22  46  1   
 49  23  47  1   
 50  24  25  1   
 51  24  48  1   
 52  24  49  1   
 53  25  50  1   
 54  25  51  1   
 55  25  52  1   
@<TRIPOS>SUBSTRUCTURE
  1 ****   2 GROUP 4 **** **** 0

# MOE 2024.06 (io_trps.svl 2023.06)
