@<TRIPOS>MOLECULE
NONAME
45 46 1 0 0 
SMALL
USER_CHARGES


@<TRIPOS>ATOM
  1 O       -2.1470     0.5650    -1.1640 O.2   1 <1>  -0.5700 
  2 C       -3.0220     1.0390    -0.4770 C.2   1 <1>   0.5690 
  3 N       -4.2390     0.4080    -0.3520 N.am  1 <1>  -0.6600 
  4 C       -2.7000     2.3650     0.2330 C.3   1 <1>  -0.0190 
  5 C       -4.4770    -0.8830    -1.0680 C.3   1 <1>   0.2840 
  6 C       -5.4040     0.9070     0.4310 C.3   1 <1>   0.1400 
  7 C       -2.3260     3.4690    -0.7770 C.3   1 <1>  -0.1600 
  8 C       -1.5730     2.1870     1.2810 C.3   1 <1>  -0.1600 
  9 C       -4.4400    -2.0450    -0.0900 C.ar  1 <1>  -0.1440 
 10 C       -5.2340     0.5760     1.9140 C.3   1 <1>  -0.2400 
 11 C       -2.1360     4.8430    -0.0980 C.3   1 <1>   0.2000 
 12 C       -0.8530     3.5000     1.6540 C.3   1 <1>  -0.1600 
 13 C       -5.5900    -2.7590     0.2120 C.ar  1 <1>   0.1600 
 14 C       -3.2540    -2.4070     0.5180 C.ar  1 <1>  -0.1500 
 15 O       -1.1350     5.5490    -0.7890 O.3   1 <1>  -0.5600 
 16 C       -1.7340     4.7250     1.3960 C.3   1 <1>   0.2000 
 17 N       -5.6520    -3.7780     1.0550 N.ar  1 <1>  -0.6200 
 18 C       -3.2980    -3.4670     1.3970 C.ar  1 <1>  -0.1500 
 19 C       -1.5330     6.1200    -1.9970 C.3   1 <1>   0.0400 
 20 O       -1.0270     5.8490     1.7680 O.3   1 <1>  -0.6800 
 21 C       -4.5040    -4.1070     1.6260 C.ar  1 <1>   0.1600 
 22 H       -3.5670     2.7100     0.7570 H     1 <1>   0.0800 
 23 H       -5.4280    -0.8440    -1.5680 H     1 <1>   0.0800 
 24 H       -3.7300    -1.0440    -1.8260 H     1 <1>   0.0800 
 25 H       -5.5130     1.9680     0.2940 H     1 <1>   0.0800 
 26 H       -6.3090     0.4470     0.0700 H     1 <1>   0.0800 
 27 H       -3.0940     3.5450    -1.5250 H     1 <1>   0.0800 
 28 H       -1.4100     3.1800    -1.2640 H     1 <1>   0.0800 
 29 H       -1.9940     1.7450     2.1670 H     1 <1>   0.0800 
 30 H       -0.8340     1.4990     0.9060 H     1 <1>   0.0800 
 31 H       -4.3420     1.0240     2.3110 H     1 <1>   0.0800 
 32 H       -5.1870    -0.4870     2.0630 H     1 <1>   0.0800 
 33 H       -6.0760     0.9530     2.4660 H     1 <1>   0.0800 
 34 H       -3.0500     5.4100    -0.1460 H     1 <1>   0.0800 
 35 H        0.0350     3.5900     1.0510 H     1 <1>   0.0800 
 36 H       -0.5580     3.4700     2.6880 H     1 <1>   0.0800 
 37 H       -6.5150    -2.4800    -0.2620 H     1 <1>   0.1500 
 38 H       -2.3370    -1.8790     0.3130 H     1 <1>   0.1500 
 39 H       -2.6120     4.6690     2.0170 H     1 <1>   0.0800 
 40 H       -2.4080    -3.7960     1.9000 H     1 <1>   0.1500 
 41 H       -0.6920     6.6500    -2.4090 H     1 <1>   0.0800 
 42 H       -2.3400     6.8090    -1.8170 H     1 <1>   0.0800 
 43 H       -1.8370     5.3460    -2.6790 H     1 <1>   0.0800 
 44 H       -0.5420     6.1370     0.9600 H     1 <1>   0.4000 
 45 H       -4.5250    -4.9340     2.3150 H     1 <1>   0.1500 
@<TRIPOS>BOND
  1   1   2  2   
  2   2   3  am  
  3   2   4  1   
  4   3   5  1   
  5   3   6  1   
  6   4   7  1   
  7   4   8  1   
  8   4  22  1   
  9   5   9  1   
 10   5  23  1   
 11   5  24  1   
 12   6  10  1   
 13   6  25  1   
 14   6  26  1   
 15   7  11  1   
 16   7  27  1   
 17   7  28  1   
 18   8  12  1   
 19   8  29  1   
 20   8  30  1   
 21   9  13  ar  
 22   9  14  ar  
 23  10  31  1   
 24  10  32  1   
 25  10  33  1   
 26  11  15  1   
 27  11  16  1   
 28  11  34  1   
 29  12  16  1   
 30  12  35  1   
 31  12  36  1   
 32  13  17  ar  
 33  13  37  1   
 34  14  18  ar  
 35  14  38  1   
 36  15  19  1   
 37  16  20  1   
 38  16  39  1   
 39  17  21  ar  
 40  18  21  ar  
 41  18  40  1   
 42  19  41  1   
 43  19  42  1   
 44  19  43  1   
 45  20  44  1   
 46  21  45  1   
@<TRIPOS>SUBSTRUCTURE
  1 ****   2 GROUP 4 **** **** 0

# MOE 2024.06 (io_trps.svl 2023.06)
