@<TRIPOS>MOLECULE
NONAME
58 62 1 0 0 
SMALL
USER_CHARGES


@<TRIPOS>ATOM
  1 O       -2.2980     0.3830    -2.0740 O.2   1 <1>  -0.5700 
  2 C       -2.1340     0.9910    -1.0330 C.2   1 <1>   0.5440 
  3 N       -2.3540     0.2990     0.1380 N.am  1 <1>  -0.6600 
  4 C       -1.8250     2.4090    -1.0390 C.ar  1 <1>   0.0860 
  5 C       -3.3000     0.8350     1.1610 C.3   1 <1>   0.1400 
  6 C       -2.2840    -1.1900     0.1300 C.3   1 <1>   0.1400 
  7 C       -2.2860     3.2450    -2.0540 C.ar  1 <1>  -0.1500 
  8 C       -1.0720     3.0030    -0.0260 C.ar  1 <1>  -0.1500 
  9 C       -4.7180     0.2420     0.9710 C.3   1 <1>   0.4230 
 10 C       -3.6850    -1.7730    -0.1210 C.3   1 <1>   0.3430 
 11 C       -2.0390     4.6040    -2.0400 C.ar  1 <1>  -0.1500 
 12 C       -0.8260     4.3620    -0.0120 C.ar  1 <1>  -0.1500 
 13 N       -4.6990    -1.2790     0.8930 N.4   1 <1>  -0.9590 
 14 C       -5.4090     0.8510    -0.2720 C.3   1 <1>   0.1200 
 15 C       -1.3110     5.2050    -1.0130 C.ar  1 <1>   0.0540 
 16 C       -6.0960    -1.7790     0.6300 C.3   1 <1>   0.4230 
 17 O       -6.6940     0.3200    -0.4160 O.3   1 <1>  -0.5600 
 18 C       -1.0730     6.6370    -0.9910 C.2   1 <1>   0.4620 
 19 C       -6.7360    -1.0680    -0.5880 C.3   1 <1>   0.1200 
 20 C       -6.1100    -3.3120     0.5040 C.3   1 <1>  -0.1600 
 21 N       -1.4390     7.4730    -1.8970 N.2   1 <1>  -0.4100 
 22 N       -0.4330     7.2430     0.0130 N.2   1 <1>  -0.5650 
 23 C       -7.5270    -3.8960     0.6230 C.3   1 <1>  -0.1600 
 24 O       -1.0530     8.6530    -1.5260 O.3   1 <1>  -0.0190 
 25 C       -0.4600     8.4490    -0.3790 C.2   1 <1>   0.3930 
 26 C       -7.4900    -5.4260     0.5750 C.3   1 <1>  -0.2400 
 27 C        0.1260     9.6470     0.3530 C.3   1 <1>  -0.0150 
 28 C        0.2500     9.6730     1.8470 C.3   1 <1>  -0.2000 
 29 C       -0.7560    10.5490     1.1610 C.3   1 <1>  -0.2000 
 30 H       -2.9340     0.5900     2.1430 H     1 <1>   0.0800 
 31 H       -3.3530     1.9090     1.0980 H     1 <1>   0.0800 
 32 H       -1.6140    -1.5220    -0.6470 H     1 <1>   0.0800 
 33 H       -1.8920    -1.5430     1.0680 H     1 <1>   0.0800 
 34 H       -2.8490     2.8180    -2.8680 H     1 <1>   0.1500 
 35 H       -0.6690     2.3890     0.7610 H     1 <1>   0.1500 
 36 H       -5.3070     0.5380     1.8230 H     1 <1>   0.0800 
 37 H       -3.6240    -2.8480    -0.0890 H     1 <1>   0.0800 
 38 H       -3.9910    -1.4890    -1.1150 H     1 <1>   0.0800 
 39 H       -2.4180     5.2150    -2.8430 H     1 <1>   0.1500 
 40 H       -0.2420     4.7820     0.7900 H     1 <1>   0.1500 
 41 H       -4.4160    -1.6330     1.8130 H     1 <1>   0.4500 
 42 H       -4.8540     0.6570    -1.1740 H     1 <1>   0.0800 
 43 H       -5.5110     1.9160    -0.1580 H     1 <1>   0.0800 
 44 H       -6.7050    -1.5280     1.4840 H     1 <1>   0.0800 
 45 H       -7.7710    -1.3440    -0.6830 H     1 <1>   0.0800 
 46 H       -6.2320    -1.3210    -1.5050 H     1 <1>   0.0800 
 47 H       -5.6970    -3.6120    -0.4430 H     1 <1>   0.0800 
 48 H       -5.5120    -3.7350     1.2910 H     1 <1>   0.0800 
 49 H       -7.9780    -3.5890     1.5520 H     1 <1>   0.0800 
 50 H       -8.1510    -3.5470    -0.1820 H     1 <1>   0.0800 
 51 H       -6.9050    -5.8210     1.3880 H     1 <1>   0.0800 
 52 H       -7.0700    -5.7700    -0.3540 H     1 <1>   0.0800 
 53 H       -8.4880    -5.8200     0.6590 H     1 <1>   0.0800 
 54 H        0.9180    10.1050    -0.2120 H     1 <1>   0.1000 
 55 H       -0.0990     8.8240     2.4080 H     1 <1>   0.1000 
 56 H        1.1250    10.1240     2.2820 H     1 <1>   0.1000 
 57 H       -0.5830    11.6100     1.1220 H     1 <1>   0.1000 
 58 H       -1.8000    10.3040     1.2570 H     1 <1>   0.1000 
@<TRIPOS>BOND
  1   1   2  2   
  2   2   3  am  
  3   2   4  1   
  4   3   5  1   
  5   3   6  1   
  6   4   7  ar  
  7   4   8  ar  
  8   5   9  1   
  9   5  30  1   
 10   5  31  1   
 11   6  10  1   
 12   6  32  1   
 13   6  33  1   
 14   7  11  ar  
 15   7  34  1   
 16   8  12  ar  
 17   8  35  1   
 18   9  13  1   
 19   9  14  1   
 20   9  36  1   
 21  10  13  1   
 22  10  37  1   
 23  10  38  1   
 24  11  15  ar  
 25  11  39  1   
 26  12  15  ar  
 27  12  40  1   
 28  13  16  1   
 29  13  41  1   
 30  14  17  1   
 31  14  42  1   
 32  14  43  1   
 33  15  18  1   
 34  16  19  1   
 35  16  20  1   
 36  16  44  1   
 37  17  19  1   
 38  18  21  2   
 39  18  22  1   
 40  19  45  1   
 41  19  46  1   
 42  20  23  1   
 43  20  47  1   
 44  20  48  1   
 45  21  24  1   
 46  22  25  2   
 47  23  26  1   
 48  23  49  1   
 49  23  50  1   
 50  24  25  1   
 51  25  27  1   
 52  26  51  1   
 53  26  52  1   
 54  26  53  1   
 55  27  28  1   
 56  27  29  1   
 57  27  54  1   
 58  28  29  1   
 59  28  55  1   
 60  28  56  1   
 61  29  57  1   
 62  29  58  1   
@<TRIPOS>SUBSTRUCTURE
  1 ****   4 GROUP 4 **** **** 0

# MOE 2024.06 (io_trps.svl 2023.06)
