@<TRIPOS>MOLECULE
NONAME
43 45 1 0 0 
SMALL
USER_CHARGES


@<TRIPOS>ATOM
  1 S       -0.3710    -0.6630     1.0360 S.3   1 <1>  -0.0800 
  2 C       -1.3950    -1.7080     0.1000 C.2   1 <1>   0.4420 
  3 C       -0.1840     0.3090    -0.3840 C.2   1 <1>   0.1980 
  4 N       -1.5230    -1.3030    -1.1100 N.2   1 <1>  -0.3380 
  5 N       -1.9760    -2.8310     0.6430 N.am  1 <1>  -0.4940 
  6 N       -0.8300    -0.1560    -1.3810 N.2   1 <1>  -0.3380 
  7 C        0.7050     1.5490    -0.2710 C.3   1 <1>   0.3800 
  8 C       -1.9430    -3.3890     1.8860 C.2   1 <1>   0.5690 
  9 O        0.0830     2.5040     0.5330 O.3   1 <1>  -0.5600 
 10 C        0.9240     2.2860    -1.5900 C.3   1 <1>  -0.1600 
 11 O       -1.3340    -2.9310     2.8210 O.2   1 <1>  -0.5700 
 12 C       -2.7290    -4.6880     2.0740 C.3   1 <1>   0.1710 
 13 C       -0.7980     3.2680    -0.2280 C.3   1 <1>   0.1200 
 14 C       -0.2420     3.2630    -1.6510 C.3   1 <1>  -0.1600 
 15 N       -3.7290    -4.9440     0.9940 N.3   1 <1>  -0.8100 
 16 C       -4.0740    -6.3840     0.9370 C.3   1 <1>   0.2900 
 17 C       -4.9370    -4.1180     1.1890 C.3   1 <1>   0.0300 
 18 C       -5.0100    -6.7120    -0.2170 C.2   1 <1>  -0.0400 
 19 O       -6.3160    -6.6830    -0.0180 O.3   1 <1>  -0.2800 
 20 C       -4.7370    -7.0680    -1.4900 C.2   1 <1>  -0.1500 
 21 C       -6.9010    -7.0110    -1.1510 C.2   1 <1>  -0.0400 
 22 C       -5.9800    -7.2630    -2.1050 C.2   1 <1>  -0.1500 
 23 C       -8.4120    -7.0520    -1.2010 C.3   1 <1>  -0.0600 
 24 H       -2.5830    -3.3550     0.0050 H     1 <1>   0.3700 
 25 H        1.6420     1.2810     0.1850 H     1 <1>   0.0800 
 26 H        0.9550     1.6190    -2.4330 H     1 <1>   0.0800 
 27 H        1.8540     2.8230    -1.5350 H     1 <1>   0.0800 
 28 H       -3.2160    -4.6670     3.0330 H     1 <1>   0.0800 
 29 H       -2.0060    -5.4830     2.0900 H     1 <1>   0.0800 
 30 H       -0.8470     4.2580     0.1900 H     1 <1>   0.0800 
 31 H       -1.7680     2.8000    -0.1890 H     1 <1>   0.0800 
 32 H       -1.0000     2.9200    -2.3330 H     1 <1>   0.0800 
 33 H        0.0800     4.2460    -1.9460 H     1 <1>   0.0800 
 34 H       -4.5270    -6.6980     1.8610 H     1 <1>   0.0800 
 35 H       -3.1700    -6.9510     0.7970 H     1 <1>   0.0800 
 36 H       -4.6740    -3.0800     1.3050 H     1 <1>   0.0800 
 37 H       -5.4790    -4.4390     2.0620 H     1 <1>   0.0800 
 38 H       -5.5840    -4.2000     0.3320 H     1 <1>   0.0800 
 39 H       -3.7800    -7.1830    -1.9670 H     1 <1>   0.1500 
 40 H       -6.1300    -7.5520    -3.1290 H     1 <1>   0.1500 
 41 H       -8.7790    -7.7680    -0.4890 H     1 <1>   0.0800 
 42 H       -8.7440    -7.3330    -2.1840 H     1 <1>   0.0800 
 43 H       -8.8090    -6.0830    -0.9590 H     1 <1>   0.0800 
@<TRIPOS>BOND
  1   1   2  1   
  2   1   3  1   
  3   2   4  2   
  4   2   5  1   
  5   3   6  2   
  6   3   7  1   
  7   4   6  1   
  8   5   8  am  
  9   5  24  1   
 10   7   9  1   
 11   7  10  1   
 12   7  25  1   
 13   8  11  2   
 14   8  12  1   
 15   9  13  1   
 16  10  14  1   
 17  10  26  1   
 18  10  27  1   
 19  12  15  1   
 20  12  28  1   
 21  12  29  1   
 22  13  14  1   
 23  13  30  1   
 24  13  31  1   
 25  14  32  1   
 26  14  33  1   
 27  15  16  1   
 28  15  17  1   
 29  16  18  1   
 30  16  34  1   
 31  16  35  1   
 32  17  36  1   
 33  17  37  1   
 34  17  38  1   
 35  18  19  1   
 36  18  20  2   
 37  19  21  1   
 38  20  22  1   
 39  20  39  1   
 40  21  22  2   
 41  21  23  1   
 42  22  40  1   
 43  23  41  1   
 44  23  42  1   
 45  23  43  1   
@<TRIPOS>SUBSTRUCTURE
  1 ****   5 GROUP 4 **** **** 0

# MOE 2024.06 (io_trps.svl 2023.06)
