@<TRIPOS>MOLECULE
NONAME
45 48 1 0 0 
SMALL
USER_CHARGES


@<TRIPOS>ATOM
  1 O       -0.7970     0.7790    -1.1480 O.2   1 <1>  -0.5700 
  2 C       -1.5050     1.3120    -0.3240 C.2   1 <1>   0.5690 
  3 N       -2.6120     0.6640     0.1710 N.am  1 <1>  -0.6600 
  4 C       -1.1310     2.7300     0.1140 C.3   1 <1>  -0.0190 
  5 C       -2.9590    -0.7100    -0.3140 C.3   1 <1>   0.1400 
  6 C       -3.6490     1.2490     1.0670 C.3   1 <1>   0.1400 
  7 C       -1.2530     3.7710    -1.0190 C.3   1 <1>  -0.0220 
  8 C        0.3070     2.8560     0.6630 C.3   1 <1>  -0.0220 
  9 C       -4.0080    -0.6790    -1.4390 C.3   1 <1>   0.1400 
 10 C       -4.6360     2.1260     0.2830 C.3   1 <1>  -0.1600 
 11 C       -0.1150     4.7170    -0.7210 C.2   1 <1>  -0.2880 
 12 C        0.7220     4.2250     0.1830 C.2   1 <1>  -0.2880 
 13 N       -5.2240     0.1160    -1.0690 N.am  1 <1>  -0.6600 
 14 C       -5.0230     1.5890    -1.1020 C.3   1 <1>   0.1400 
 15 C       -6.4360    -0.4170    -0.7120 C.2   1 <1>   0.6300 
 16 O       -7.3810     0.2860    -0.4400 O.2   1 <1>  -0.5700 
 17 C       -6.6180    -1.9290    -0.6520 C.3   1 <1>  -0.1000 
 18 C       -7.4770    -2.5500     0.4300 C.3   1 <1>   0.0000 
 19 C       -5.9840    -2.7500     0.3880 C.3   1 <1>  -0.2000 
 20 C       -8.3220    -3.1380     1.5370 C.3   1 <1>  -0.2000 
 21 C       -8.9810    -2.4030     0.4590 C.3   1 <1>  -0.2000 
 22 H       -1.7750     3.0640     0.9010 H     1 <1>   0.0800 
 23 H       -3.3290    -1.2980     0.5060 H     1 <1>   0.0800 
 24 H       -2.0760    -1.2050    -0.6800 H     1 <1>   0.0800 
 25 H       -3.1940     1.8090     1.8630 H     1 <1>   0.0800 
 26 H       -4.2020     0.4490     1.5300 H     1 <1>   0.0800 
 27 H       -2.2040     4.2710    -0.9880 H     1 <1>   0.0800 
 28 H       -1.1040     3.3230    -1.9870 H     1 <1>   0.0800 
 29 H        0.9630     2.1130     0.2430 H     1 <1>   0.0800 
 30 H        0.3180     2.7890     1.7370 H     1 <1>   0.0800 
 31 H       -4.2800    -1.6880    -1.6910 H     1 <1>   0.0800 
 32 H       -3.5580    -0.2480    -2.3170 H     1 <1>   0.0800 
 33 H       -4.2250     3.1120     0.1660 H     1 <1>   0.0800 
 34 H       -5.5320     2.2330     0.8690 H     1 <1>   0.0800 
 35 H       -0.0660     5.6560    -1.2470 H     1 <1>   0.1500 
 36 H        1.6240     4.6630     0.5780 H     1 <1>   0.1500 
 37 H       -4.2460     1.8260    -1.8090 H     1 <1>   0.0800 
 38 H       -5.9250     2.0730    -1.4380 H     1 <1>   0.0800 
 39 H       -6.7650    -2.3350    -1.6340 H     1 <1>   0.1000 
 40 H       -5.4230    -2.2900     1.1820 H     1 <1>   0.1000 
 41 H       -5.6340    -3.7420     0.1680 H     1 <1>   0.1000 
 42 H       -8.2220    -2.6980     2.5130 H     1 <1>   0.1000 
 43 H       -8.3990    -4.2090     1.5840 H     1 <1>   0.1000 
 44 H       -9.5350    -2.9210    -0.3030 H     1 <1>   0.1000 
 45 H       -9.3650    -1.4120     0.6300 H     1 <1>   0.1000 
@<TRIPOS>BOND
  1   1   2  2   
  2   2   3  am  
  3   2   4  1   
  4   3   5  1   
  5   3   6  1   
  6   4   7  1   
  7   4   8  1   
  8   4  22  1   
  9   5   9  1   
 10   5  23  1   
 11   5  24  1   
 12   6  10  1   
 13   6  25  1   
 14   6  26  1   
 15   7  11  1   
 16   7  27  1   
 17   7  28  1   
 18   8  12  1   
 19   8  29  1   
 20   8  30  1   
 21   9  13  1   
 22   9  31  1   
 23   9  32  1   
 24  10  14  1   
 25  10  33  1   
 26  10  34  1   
 27  11  12  2   
 28  11  35  1   
 29  12  36  1   
 30  13  14  1   
 31  13  15  am  
 32  14  37  1   
 33  14  38  1   
 34  15  16  2   
 35  15  17  1   
 36  17  18  1   
 37  17  19  1   
 38  17  39  1   
 39  18  19  1   
 40  18  20  1   
 41  18  21  1   
 42  19  40  1   
 43  19  41  1   
 44  20  21  1   
 45  20  42  1   
 46  20  43  1   
 47  21  44  1   
 48  21  45  1   
@<TRIPOS>SUBSTRUCTURE
  1 ****   3 GROUP 4 **** **** 0

# MOE 2024.06 (io_trps.svl 2023.06)
