@<TRIPOS>MOLECULE
NONAME
56 58 1 0 0 
SMALL
USER_CHARGES


@<TRIPOS>ATOM
  1 O        0.7080     1.2290    -0.7250 O.2   1 <1>  -0.5700 
  2 C        0.3320     2.3750    -0.7960 C.2   1 <1>   0.5690 
  3 N       -0.4910     2.9390     0.1420 N.am  1 <1>  -0.6600 
  4 C        0.7810     3.2090    -1.9950 C.3   1 <1>   0.1810 
  5 C       -0.9750     4.3530     0.0040 C.3   1 <1>   0.3640 
  6 C       -0.9030     2.2190     1.3810 C.3   1 <1>   0.0600 
  7 O        0.7650     4.5880    -1.7260 O.3   1 <1>  -0.5600 
  8 C       -2.5040     4.4290     0.1500 C.ar  1 <1>  -0.1430 
  9 C       -0.4920     5.0790    -1.2790 C.3   1 <1>   0.2610 
 10 C       -3.4160     3.6490    -0.5710 C.ar  1 <1>  -0.1430 
 11 C       -2.9950     5.3500     1.0690 C.ar  1 <1>  -0.1500 
 12 C       -0.3960     6.5810    -0.9980 C.2   1 <1>   0.5690 
 13 C       -4.7760     3.8040    -0.3440 C.ar  1 <1>  -0.1500 
 14 C       -3.0060     2.6090    -1.6080 C.3   1 <1>  -0.0960 
 15 C       -4.3520     5.4970     1.2850 C.ar  1 <1>  -0.1500 
 16 O       -1.3920     7.2640    -1.0260 O.2   1 <1>  -0.5700 
 17 N        0.8180     7.1170    -0.7150 N.am  1 <1>  -0.7300 
 18 C       -5.2460     4.7200     0.5780 C.ar  1 <1>  -0.1500 
 19 C        1.0990     8.5300    -0.4320 C.3   1 <1>   0.2350 
 20 C        2.3440     8.5800     0.4580 C.3   1 <1>  -0.1950 
 21 C        3.3460     9.7040     0.4350 C.3   1 <1>  -0.1900 
 22 C        3.7420     8.3330    -0.0490 C.3   1 <1>  -0.1900 
 23 C        3.2060    10.8780    -0.5500 C.3   1 <1>  -0.1450 
 24 C        3.8460    10.2320     1.7890 C.3   1 <1>  -0.1450 
 25 C        4.6520     7.4340     0.8010 C.3   1 <1>  -0.1450 
 26 C        3.9990     8.0630    -1.5420 C.3   1 <1>  -0.1450 
 27 H        0.1400     3.0140    -2.8360 H     1 <1>   0.0800 
 28 H        1.7880     2.9390    -2.2560 H     1 <1>   0.0800 
 29 H       -0.5430     4.8890     0.8310 H     1 <1>   0.0800 
 30 H       -0.6410     2.8020     2.2470 H     1 <1>   0.0800 
 31 H       -0.4120     1.2640     1.4490 H     1 <1>   0.0800 
 32 H       -1.9670     2.0570     1.3760 H     1 <1>   0.0800 
 33 H       -1.2010     4.9400    -2.0730 H     1 <1>   0.0800 
 34 H       -2.3210     5.9760     1.6280 H     1 <1>   0.1500 
 35 H       -5.4890     3.2080    -0.8860 H     1 <1>   0.1500 
 36 H       -3.8510     2.2980    -2.1960 H     1 <1>   0.0800 
 37 H       -2.6050     1.7390    -1.1200 H     1 <1>   0.0800 
 38 H       -2.2720     3.0030    -2.2830 H     1 <1>   0.0800 
 39 H       -4.7100     6.2180     1.9990 H     1 <1>   0.1500 
 40 H        1.6480     6.5240    -0.8070 H     1 <1>   0.3700 
 41 H       -6.3040     4.8290     0.7410 H     1 <1>   0.1500 
 42 H        1.2550     9.0440    -1.3620 H     1 <1>   0.0800 
 43 H        0.2610     8.9830     0.0710 H     1 <1>   0.0800 
 44 H        2.1050     8.1890     1.4320 H     1 <1>   0.1000 
 45 H        2.5530    11.6270    -0.1390 H     1 <1>   0.0800 
 46 H        2.8060    10.5860    -1.5000 H     1 <1>   0.0800 
 47 H        4.1700    11.3240    -0.7200 H     1 <1>   0.0800 
 48 H        3.2280    11.0470     2.1200 H     1 <1>   0.0800 
 49 H        4.8580    10.5840     1.6940 H     1 <1>   0.0800 
 50 H        3.8180     9.4770     2.5520 H     1 <1>   0.0800 
 51 H        4.5590     6.4090     0.4880 H     1 <1>   0.0800 
 52 H        4.4000     7.4750     1.8440 H     1 <1>   0.0800 
 53 H        5.6770     7.7370     0.6850 H     1 <1>   0.0800 
 54 H        3.9090     7.0120    -1.7490 H     1 <1>   0.0800 
 55 H        4.9950     8.3770    -1.7990 H     1 <1>   0.0800 
 56 H        3.3100     8.5770    -2.1820 H     1 <1>   0.0800 
@<TRIPOS>BOND
  1   1   2  2   
  2   2   3  am  
  3   2   4  1   
  4   3   5  1   
  5   3   6  1   
  6   4   7  1   
  7   4  27  1   
  8   4  28  1   
  9   5   8  1   
 10   5   9  1   
 11   5  29  1   
 12   6  30  1   
 13   6  31  1   
 14   6  32  1   
 15   7   9  1   
 16   8  10  ar  
 17   8  11  ar  
 18   9  12  1   
 19   9  33  1   
 20  10  13  ar  
 21  10  14  1   
 22  11  15  ar  
 23  11  34  1   
 24  12  16  2   
 25  12  17  am  
 26  13  18  ar  
 27  13  35  1   
 28  14  36  1   
 29  14  37  1   
 30  14  38  1   
 31  15  18  ar  
 32  15  39  1   
 33  17  19  1   
 34  17  40  1   
 35  18  41  1   
 36  19  20  1   
 37  19  42  1   
 38  19  43  1   
 39  20  21  1   
 40  20  22  1   
 41  20  44  1   
 42  21  22  1   
 43  21  23  1   
 44  21  24  1   
 45  22  25  1   
 46  22  26  1   
 47  23  45  1   
 48  23  46  1   
 49  23  47  1   
 50  24  48  1   
 51  24  49  1   
 52  24  50  1   
 53  25  51  1   
 54  25  52  1   
 55  25  53  1   
 56  26  54  1   
 57  26  55  1   
 58  26  56  1   
@<TRIPOS>SUBSTRUCTURE
  1 ****  12 GROUP 4 **** **** 0

# MOE 2024.06 (io_trps.svl 2023.06)
