@<TRIPOS>MOLECULE
NONAME
45 47 1 0 0 
SMALL
USER_CHARGES


@<TRIPOS>ATOM
  1 S       -1.3210    -0.5340    -1.7580 S.3   1 <1>  -0.0800 
  2 C       -1.3750    -1.0400    -0.0720 C.2   1 <1>  -0.1400 
  3 C       -1.3080     1.1590    -1.2970 C.2   1 <1>  -0.1100 
  4 C       -1.3790     0.0360     0.7380 C.2   1 <1>  -0.1500 
  5 C       -1.4100    -2.5280     0.2380 C.3   1 <1>   0.3800 
  6 C       -1.3420     1.2860     0.0410 C.2   1 <1>  -0.1500 
  7 O       -0.2470    -3.0800    -0.2470 O.3   1 <1>  -0.6800 
  8 C       -2.6090    -3.2650    -0.4010 C.3   1 <1>  -0.0800 
  9 C       -3.9580    -2.6640     0.0350 C.3   1 <1>  -0.1600 
 10 C       -2.6000    -4.7750    -0.0880 C.3   1 <1>  -0.1600 
 11 C       -5.1340    -3.4160    -0.5880 C.3   1 <1>   0.3430 
 12 C       -3.8010    -5.4860    -0.7080 C.3   1 <1>   0.3430 
 13 N       -5.0700    -4.8610    -0.2190 N.4   1 <1>  -0.9590 
 14 C       -6.2820    -5.5750    -0.7110 C.3   1 <1>   0.3430 
 15 C       -6.4160    -6.9390    -0.0320 C.3   1 <1>  -0.1600 
 16 C       -7.7240    -7.6360    -0.4360 C.3   1 <1>   0.0960 
 17 N       -7.8040    -8.9540     0.2190 N.pl3 1 <1>   0.0480 
 18 C       -8.3910    -9.2630     1.3970 C.2   1 <1>   0.0360 
 19 C       -7.2670   -10.1110    -0.2090 C.2   1 <1>  -0.3020 
 20 N       -8.2610   -10.5030     1.7380 N.2   1 <1>  -0.5650 
 21 C       -7.5560   -11.0410     0.7270 C.2   1 <1>   0.0770 
 22 H       -1.2740     1.8880    -2.0880 H     1 <1>   0.1500 
 23 H       -1.4050     0.0160     1.8140 H     1 <1>   0.1500 
 24 H       -1.4110    -2.6670     1.3060 H     1 <1>   0.0800 
 25 H       -1.3410     2.2190     0.5780 H     1 <1>   0.1500 
 26 H        0.4380    -2.3820    -0.2700 H     1 <1>   0.4000 
 27 H       -2.5250    -3.1450    -1.4680 H     1 <1>   0.0800 
 28 H       -4.0140    -1.6350    -0.2790 H     1 <1>   0.0800 
 29 H       -4.0480    -2.6780     1.1070 H     1 <1>   0.0800 
 30 H       -2.5900    -4.9390     0.9750 H     1 <1>   0.0800 
 31 H       -1.7040    -5.2190    -0.4870 H     1 <1>   0.0800 
 32 H       -5.0960    -3.3100    -1.6610 H     1 <1>   0.0800 
 33 H       -6.0580    -2.9840    -0.2380 H     1 <1>   0.0800 
 34 H       -3.7670    -6.5290    -0.4390 H     1 <1>   0.0800 
 35 H       -3.7450    -5.4100    -1.7820 H     1 <1>   0.0800 
 36 H       -5.0570    -4.9110     0.8080 H     1 <1>   0.4500 
 37 H       -6.2290    -5.6970    -1.7820 H     1 <1>   0.0800 
 38 H       -7.1580    -4.9870    -0.4840 H     1 <1>   0.0800 
 39 H       -6.4120    -6.8110     1.0360 H     1 <1>   0.0800 
 40 H       -5.5950    -7.5740    -0.3160 H     1 <1>   0.0800 
 41 H       -7.7660    -7.7850    -1.5010 H     1 <1>   0.0800 
 42 H       -8.5770    -7.0540    -0.1350 H     1 <1>   0.0800 
 43 H       -8.9130    -8.5330     1.9900 H     1 <1>   0.1500 
 44 H       -6.7230   -10.2190    -1.1290 H     1 <1>   0.1500 
 45 H       -7.2920   -12.0860     0.7270 H     1 <1>   0.1500 
@<TRIPOS>BOND
  1   1   2  1   
  2   1   3  1   
  3   2   4  2   
  4   2   5  1   
  5   3   6  2   
  6   3  22  1   
  7   4   6  1   
  8   4  23  1   
  9   5   7  1   
 10   5   8  1   
 11   5  24  1   
 12   6  25  1   
 13   7  26  1   
 14   8   9  1   
 15   8  10  1   
 16   8  27  1   
 17   9  11  1   
 18   9  28  1   
 19   9  29  1   
 20  10  12  1   
 21  10  30  1   
 22  10  31  1   
 23  11  13  1   
 24  11  32  1   
 25  11  33  1   
 26  12  13  1   
 27  12  34  1   
 28  12  35  1   
 29  13  14  1   
 30  13  36  1   
 31  14  15  1   
 32  14  37  1   
 33  14  38  1   
 34  15  16  1   
 35  15  39  1   
 36  15  40  1   
 37  16  17  1   
 38  16  41  1   
 39  16  42  1   
 40  17  18  1   
 41  17  19  1   
 42  18  20  2   
 43  18  43  1   
 44  19  21  2   
 45  19  44  1   
 46  20  21  1   
 47  21  45  1   
@<TRIPOS>SUBSTRUCTURE
  1 ****  13 GROUP 4 **** **** 0

# MOE 2024.06 (io_trps.svl 2023.06)
