@<TRIPOS>MOLECULE
NONAME
37 39 1 0 0 
SMALL
USER_CHARGES


@<TRIPOS>ATOM
  1 S        0.2360     0.0570     0.9230 S.3   1 <1>  -0.0800 
  2 C       -1.1630     0.7640     0.1290 C.2   1 <1>   0.4620 
  3 C        0.9370     1.6390     1.0530 C.2   1 <1>  -0.1100 
  4 N       -1.0890     2.0370    -0.0090 N.2   1 <1>  -0.5650 
  5 N       -2.1920    -0.0540    -0.2700 N.pl3 1 <1>  -0.8220 
  6 C        0.1060     2.5560     0.5130 C.2   1 <1>   0.1410 
  7 C       -3.4600     0.4730    -0.8330 C.3   1 <1>   0.2090 
  8 C       -2.3540    -1.4700     0.1440 C.3   1 <1>   0.2090 
  9 C        0.3770     3.9870     0.4490 C.2   1 <1>   0.7160 
 10 C       -4.5240    -0.4920    -0.3110 C.3   1 <1>   0.2000 
 11 C       -3.7890    -1.8370    -0.2570 C.3   1 <1>  -0.0800 
 12 O        1.3940     4.4730     0.8980 O.2   1 <1>  -0.5700 
 13 N       -0.5070     4.8360    -0.1210 N.am  1 <1>  -0.8000 
 14 O       -4.8660    -0.1020     0.9760 O.3   1 <1>  -0.6800 
 15 C       -4.4370    -2.8940     0.6580 C.3   1 <1>   0.0200 
 16 C       -3.7560    -4.2500     0.5730 C.2   1 <1>  -0.0400 
 17 O       -4.0710    -5.1650     1.4510 O.3   1 <1>  -0.0190 
 18 C       -2.8400    -4.7790    -0.2550 C.2   1 <1>  -0.1500 
 19 N       -3.4140    -6.2730     1.2590 N.2   1 <1>  -0.4100 
 20 C       -2.6650    -6.0700     0.2370 C.2   1 <1>   0.1080 
 21 C       -1.7240    -7.1010    -0.3450 C.3   1 <1>  -0.0590 
 22 H        1.9010     1.7380     1.5180 H     1 <1>   0.1500 
 23 H       -3.6520     1.4870    -0.5250 H     1 <1>   0.0800 
 24 H       -3.4100     0.4270    -1.9070 H     1 <1>   0.0800 
 25 H       -1.6320    -2.0950    -0.3530 H     1 <1>   0.0800 
 26 H       -2.2240    -1.5480     1.2110 H     1 <1>   0.0800 
 27 H       -5.4150    -0.5110    -0.9140 H     1 <1>   0.0800 
 28 H       -3.7590    -2.2260    -1.2590 H     1 <1>   0.0800 
 29 H       -0.3120     5.8330    -0.1690 H     1 <1>   0.3700 
 30 H       -1.3760     4.4810    -0.5220 H     1 <1>   0.3700 
 31 H       -4.0470     0.1700     1.4410 H     1 <1>   0.4000 
 32 H       -5.4720    -3.0150     0.3910 H     1 <1>   0.0800 
 33 H       -4.4040    -2.5620     1.6810 H     1 <1>   0.0800 
 34 H       -2.3380    -4.3570    -1.1050 H     1 <1>   0.1500 
 35 H       -0.7320    -6.6960    -0.4130 H     1 <1>   0.0800 
 36 H       -2.0600    -7.3890    -1.3230 H     1 <1>   0.0800 
 37 H       -1.7010    -7.9730     0.2850 H     1 <1>   0.0800 
@<TRIPOS>BOND
  1   1   2  1   
  2   1   3  1   
  3   2   4  2   
  4   2   5  1   
  5   3   6  2   
  6   3  22  1   
  7   4   6  1   
  8   5   7  1   
  9   5   8  1   
 10   6   9  1   
 11   7  10  1   
 12   7  23  1   
 13   7  24  1   
 14   8  11  1   
 15   8  25  1   
 16   8  26  1   
 17   9  12  2   
 18   9  13  am  
 19  10  11  1   
 20  10  14  1   
 21  10  27  1   
 22  11  15  1   
 23  11  28  1   
 24  13  29  1   
 25  13  30  1   
 26  14  31  1   
 27  15  16  1   
 28  15  32  1   
 29  15  33  1   
 30  16  17  1   
 31  16  18  2   
 32  17  19  1   
 33  18  20  1   
 34  18  34  1   
 35  19  20  2   
 36  20  21  1   
 37  21  35  1   
 38  21  36  1   
 39  21  37  1   
@<TRIPOS>SUBSTRUCTURE
  1 ****   8 GROUP 4 **** **** 0

# MOE 2024.06 (io_trps.svl 2023.06)
