@<TRIPOS>MOLECULE
NONAME
41 43 1 0 0 
SMALL
USER_CHARGES


@<TRIPOS>ATOM
  1 O       -0.4520    -3.9530     2.2050 O.2   1 <1>  -0.5700 
  2 C        0.6410    -3.6910     1.7510 C.2   1 <1>   0.6900 
  3 N        0.8620    -3.0540     0.5700 N.am  1 <1>  -0.6600 
  4 N        1.8010    -4.0820     2.3170 N.am  1 <1>  -0.4900 
  5 C        2.3210    -3.1180     0.2620 C.3   1 <1>   0.2010 
  6 C       -0.1640    -2.8860    -0.5080 C.3   1 <1>   0.2010 
  7 C        2.8480    -3.8050     1.5130 C.2   1 <1>   0.5690 
  8 C       -0.6050    -4.2150    -1.1230 C.2   1 <1>   0.5690 
  9 O        3.9990    -4.0680     1.7440 O.2   1 <1>  -0.5700 
 10 O       -0.4090    -4.4190    -2.2970 O.2   1 <1>  -0.5700 
 11 N       -1.1800    -5.1440    -0.3200 N.am  1 <1>  -0.7300 
 12 C       -1.5260    -6.5260    -0.7140 C.3   1 <1>   0.2200 
 13 C       -2.7770    -6.9580     0.0300 C.3   1 <1>  -0.0800 
 14 C       -0.4740    -7.4950    -0.1720 C.3   1 <1>   0.1200 
 15 C       -2.1900    -7.4180     1.3660 C.3   1 <1>   0.1200 
 16 C       -3.5040    -8.0980    -0.7100 C.3   1 <1>  -0.0170 
 17 O       -0.9230    -7.9320     1.0800 O.3   1 <1>  -0.5600 
 18 C       -4.7630    -8.5320     0.0250 C.ar  1 <1>  -0.1440 
 19 C       -4.8120    -9.6950     0.7680 C.ar  1 <1>  -0.1500 
 20 C       -5.9240    -7.7870    -0.0170 C.ar  1 <1>  -0.1500 
 21 C       -5.9850   -10.0440     1.4160 C.ar  1 <1>   0.1600 
 22 C       -7.0450    -8.2260     0.6680 C.ar  1 <1>   0.1600 
 23 N       -7.1040    -9.3370     1.3830 N.ar  1 <1>  -0.6200 
 24 H        1.8530    -4.6010     3.1860 H     1 <1>   0.3700 
 25 H        2.5100    -3.7190    -0.6100 H     1 <1>   0.0800 
 26 H        2.7400    -2.1340     0.1570 H     1 <1>   0.0800 
 27 H       -1.0300    -2.4020    -0.0930 H     1 <1>   0.0800 
 28 H        0.2300    -2.2550    -1.2840 H     1 <1>   0.0800 
 29 H       -1.2030    -4.9570     0.6940 H     1 <1>   0.3700 
 30 H       -1.6210    -6.5920    -1.7850 H     1 <1>   0.0800 
 31 H       -3.4590    -6.1370     0.1670 H     1 <1>   0.0800 
 32 H        0.4920    -7.0340    -0.0660 H     1 <1>   0.0800 
 33 H       -0.3950    -8.3600    -0.8060 H     1 <1>   0.0800 
 34 H       -2.7770    -8.1730     1.8570 H     1 <1>   0.0800 
 35 H       -2.0570    -6.5820     2.0310 H     1 <1>   0.0800 
 36 H       -2.8480    -8.9430    -0.8270 H     1 <1>   0.0800 
 37 H       -3.7800    -7.7650    -1.6950 H     1 <1>   0.0800 
 38 H       -3.9500   -10.3310     0.8510 H     1 <1>   0.1500 
 39 H       -5.9670    -6.8700    -0.5750 H     1 <1>   0.1500 
 40 H       -6.0040   -10.9540     1.9910 H     1 <1>   0.1500 
 41 H       -7.9410    -7.6310     0.6240 H     1 <1>   0.1500 
@<TRIPOS>BOND
  1   1   2  2   
  2   2   3  am  
  3   2   4  am  
  4   3   5  1   
  5   3   6  1   
  6   4   7  am  
  7   4  24  1   
  8   5   7  1   
  9   5  25  1   
 10   5  26  1   
 11   6   8  1   
 12   6  27  1   
 13   6  28  1   
 14   7   9  2   
 15   8  10  2   
 16   8  11  am  
 17  11  12  1   
 18  11  29  1   
 19  12  13  1   
 20  12  14  1   
 21  12  30  1   
 22  13  15  1   
 23  13  16  1   
 24  13  31  1   
 25  14  17  1   
 26  14  32  1   
 27  14  33  1   
 28  15  17  1   
 29  15  34  1   
 30  15  35  1   
 31  16  18  1   
 32  16  36  1   
 33  16  37  1   
 34  18  19  ar  
 35  18  20  ar  
 36  19  21  ar  
 37  19  38  1   
 38  20  22  ar  
 39  20  39  1   
 40  21  23  ar  
 41  21  40  1   
 42  22  23  ar  
 43  22  41  1   
@<TRIPOS>SUBSTRUCTURE
  1 ****  12 GROUP 4 **** **** 0

# MOE 2024.06 (io_trps.svl 2023.06)
