@<TRIPOS>MOLECULE
NONAME
48 49 1 0 0 
SMALL
USER_CHARGES


@<TRIPOS>ATOM
  1 O       -2.4870     1.2190    -0.9010 O.2   1 <1>  -0.5700 
  2 C       -1.5630     1.5080    -0.1760 C.2   1 <1>   0.5690 
  3 N       -0.8930     0.5800     0.5710 N.am  1 <1>  -0.7300 
  4 C       -1.1560     2.9840    -0.0480 C.3   1 <1>   0.1710 
  5 C       -1.0820    -0.8820     0.6010 C.3   1 <1>   0.2200 
  6 N        0.0100     3.4320    -0.8660 N.3   1 <1>  -0.8100 
  7 C       -0.8060    -1.4740    -0.7790 C.3   1 <1>  -0.2400 
  8 C       -2.4820    -1.2230     1.1060 C.3   1 <1>  -0.2400 
  9 C        0.2330     4.8860    -0.6950 C.3   1 <1>   0.1100 
 10 C        1.2540     2.6790    -0.5790 C.3   1 <1>   0.1100 
 11 C        1.4100     5.4110    -1.5380 C.3   1 <1>   0.2090 
 12 C        2.4470     3.1680    -1.4210 C.3   1 <1>   0.2090 
 13 N        2.6540     4.6370    -1.2390 N.pl3 1 <1>  -0.8380 
 14 C        3.8240     5.2000    -0.7980 C.ar  1 <1>   0.7200 
 15 N        3.8790     6.5300    -0.7210 N.ar  1 <1>  -0.6200 
 16 N        4.8230     4.3800    -0.4800 N.ar  1 <1>  -0.6200 
 17 C        4.9930     7.0700    -0.2990 C.ar  1 <1>   0.1670 
 18 C        5.9250     4.9410    -0.0510 C.ar  1 <1>   0.1600 
 19 C        6.0880     6.3070     0.1000 C.ar  1 <1>   0.0860 
 20 C        5.0070     8.5900    -0.3060 C.3   1 <1>  -0.0970 
 21 C        7.3240     6.8040     0.6380 C.2   1 <1>   0.4230 
 22 O        8.3940     6.3620     0.3100 O.2   1 <1>  -0.5700 
 23 C        7.3340     7.8750     1.7110 C.3   1 <1>  -0.1790 
 24 H       -0.1280     0.9100     1.1560 H     1 <1>   0.3700 
 25 H       -0.9610     3.1880     0.9890 H     1 <1>   0.0800 
 26 H       -2.0120     3.5680    -0.3340 H     1 <1>   0.0800 
 27 H       -0.3660    -1.2940     1.2920 H     1 <1>   0.0800 
 28 H       -1.5310    -1.1270    -1.4940 H     1 <1>   0.0800 
 29 H       -0.8650    -2.5460    -0.7350 H     1 <1>   0.0800 
 30 H        0.1780    -1.1990    -1.1130 H     1 <1>   0.0800 
 31 H       -3.2310    -0.8770     0.4160 H     1 <1>   0.0800 
 32 H       -2.6510    -0.7740     2.0670 H     1 <1>   0.0800 
 33 H       -2.5840    -2.2880     1.2040 H     1 <1>   0.0800 
 34 H        0.4320     5.1060     0.3400 H     1 <1>   0.0800 
 35 H       -0.6570     5.4170    -0.9840 H     1 <1>   0.0800 
 36 H        1.1020     1.6380    -0.8010 H     1 <1>   0.0800 
 37 H        1.5090     2.7740     0.4620 H     1 <1>   0.0800 
 38 H        1.5400     6.4590    -1.3390 H     1 <1>   0.0800 
 39 H        1.1710     5.3030    -2.5810 H     1 <1>   0.0800 
 40 H        2.2470     2.9690    -2.4590 H     1 <1>   0.0800 
 41 H        3.3220     2.6070    -1.1470 H     1 <1>   0.0800 
 42 H        6.7480     4.2950     0.2040 H     1 <1>   0.1500 
 43 H        4.3100     8.9590    -1.0380 H     1 <1>   0.0800 
 44 H        5.9800     8.9650    -0.5650 H     1 <1>   0.0800 
 45 H        4.7150     8.9660     0.6570 H     1 <1>   0.0800 
 46 H        6.3780     7.9400     2.1970 H     1 <1>   0.0800 
 47 H        7.5890     8.8240     1.2780 H     1 <1>   0.0800 
 48 H        8.0750     7.6290     2.4500 H     1 <1>   0.0800 
@<TRIPOS>BOND
  1   1   2  2   
  2   2   3  am  
  3   2   4  1   
  4   3   5  1   
  5   3  24  1   
  6   4   6  1   
  7   4  25  1   
  8   4  26  1   
  9   5   7  1   
 10   5   8  1   
 11   5  27  1   
 12   6   9  1   
 13   6  10  1   
 14   7  28  1   
 15   7  29  1   
 16   7  30  1   
 17   8  31  1   
 18   8  32  1   
 19   8  33  1   
 20   9  11  1   
 21   9  34  1   
 22   9  35  1   
 23  10  12  1   
 24  10  36  1   
 25  10  37  1   
 26  11  13  1   
 27  11  38  1   
 28  11  39  1   
 29  12  13  1   
 30  12  40  1   
 31  12  41  1   
 32  13  14  1   
 33  14  15  ar  
 34  14  16  ar  
 35  15  17  ar  
 36  16  18  ar  
 37  17  19  ar  
 38  17  20  1   
 39  18  19  ar  
 40  18  42  1   
 41  19  21  1   
 42  20  43  1   
 43  20  44  1   
 44  20  45  1   
 45  21  22  2   
 46  21  23  1   
 47  23  46  1   
 48  23  47  1   
 49  23  48  1   
@<TRIPOS>SUBSTRUCTURE
  1 ****  13 GROUP 4 **** **** 0

# MOE 2024.06 (io_trps.svl 2023.06)
