@<TRIPOS>MOLECULE
NONAME
39 41 1 0 0 
SMALL
USER_CHARGES


@<TRIPOS>ATOM
  1 O       -1.6950     0.5370    -1.4550 O.2   1 <1>  -0.5700 
  2 C       -1.6520     0.4940    -0.2410 C.2   1 <1>   0.7150 
  3 N       -1.7230    -0.7190     0.3650 N.am  1 <1>  -0.7300 
  4 C       -1.5450     1.6740     0.5690 C.2   1 <1>  -0.2370 
  5 C       -1.7840    -2.0330    -0.3150 C.3   1 <1>   0.2200 
  6 N       -1.4560     2.9480     0.0960 N.pl3 1 <1>   0.3140 
  7 C       -1.5080     1.7970     1.9260 C.2   1 <1>  -0.1500 
  8 C       -3.1800    -2.6370    -0.2260 C.3   1 <1>  -0.0800 
  9 C       -0.9940    -3.0410     0.5070 C.3   1 <1>   0.1200 
 10 N       -1.3690     3.8500     1.0860 N.2   1 <1>  -0.7070 
 11 C       -1.4440     3.4010    -1.3060 C.3   1 <1>   0.0160 
 12 C       -1.4000     3.1510     2.1780 C.2   1 <1>   0.1390 
 13 C       -3.1740    -3.3220     1.1460 C.3   1 <1>   0.1200 
 14 C       -4.3530    -1.6630    -0.4430 C.3   1 <1>  -0.0160 
 15 O       -1.8400    -3.3830     1.5620 O.3   1 <1>  -0.5600 
 16 C       -5.6820    -2.4040    -0.4200 C.ar  1 <1>  -0.1440 
 17 C       -6.4890    -2.4290     0.7000 C.ar  1 <1>  -0.1500 
 18 C       -6.1470    -3.0930    -1.5210 C.ar  1 <1>  -0.1500 
 19 C       -7.6850    -3.1270     0.6660 C.ar  1 <1>   0.1600 
 20 C       -7.3590    -3.7600    -1.4510 C.ar  1 <1>   0.1600 
 21 N       -8.1380    -3.7960    -0.3820 N.ar  1 <1>  -0.6200 
 22 H       -1.7080    -0.7730     1.3830 H     1 <1>   0.3700 
 23 H       -1.4250    -1.9590    -1.3280 H     1 <1>   0.0800 
 24 H       -1.5520     1.0280     2.6760 H     1 <1>   0.1500 
 25 H       -3.2480    -3.4120    -0.9690 H     1 <1>   0.0800 
 26 H       -0.0730    -2.6390     0.8910 H     1 <1>   0.0800 
 27 H       -0.7980    -3.9320    -0.0640 H     1 <1>   0.0800 
 28 H       -0.6110     2.9540    -1.8150 H     1 <1>   0.0800 
 29 H       -1.3500     4.4710    -1.3330 H     1 <1>   0.0800 
 30 H       -2.3610     3.1070    -1.7800 H     1 <1>   0.0800 
 31 H       -1.3470     3.5930     3.1590 H     1 <1>   0.1500 
 32 H       -3.5710    -4.3220     1.0940 H     1 <1>   0.0800 
 33 H       -3.7180    -2.7540     1.8800 H     1 <1>   0.0800 
 34 H       -4.2370    -1.1700    -1.3930 H     1 <1>   0.0800 
 35 H       -4.3580    -0.9020     0.3170 H     1 <1>   0.0800 
 36 H       -6.2030    -1.9130     1.5970 H     1 <1>   0.1500 
 37 H       -5.5790    -3.1170    -2.4330 H     1 <1>   0.1500 
 38 H       -8.3020    -3.1360     1.5480 H     1 <1>   0.1500 
 39 H       -7.7050    -4.2920    -2.3200 H     1 <1>   0.1500 
@<TRIPOS>BOND
  1   1   2  2   
  2   2   3  am  
  3   2   4  1   
  4   3   5  1   
  5   3  22  1   
  6   4   6  1   
  7   4   7  2   
  8   5   8  1   
  9   5   9  1   
 10   5  23  1   
 11   6  10  1   
 12   6  11  1   
 13   7  12  1   
 14   7  24  1   
 15   8  13  1   
 16   8  14  1   
 17   8  25  1   
 18   9  15  1   
 19   9  26  1   
 20   9  27  1   
 21  10  12  2   
 22  11  28  1   
 23  11  29  1   
 24  11  30  1   
 25  12  31  1   
 26  13  15  1   
 27  13  32  1   
 28  13  33  1   
 29  14  16  1   
 30  14  34  1   
 31  14  35  1   
 32  16  17  ar  
 33  16  18  ar  
 34  17  19  ar  
 35  17  36  1   
 36  18  20  ar  
 37  18  37  1   
 38  19  21  ar  
 39  19  38  1   
 40  20  21  ar  
 41  20  39  1   
@<TRIPOS>SUBSTRUCTURE
  1 ****  14 GROUP 4 **** **** 0

# MOE 2024.06 (io_trps.svl 2023.06)
