@<TRIPOS>MOLECULE
NONAME
40 42 1 0 0 
SMALL
USER_CHARGES


@<TRIPOS>ATOM
  1 O       -0.6120    -0.5230     1.4700 O.2   1 <1>  -0.5700 
  2 C       -1.5550    -1.0780     0.9340 C.2   1 <1>   0.5410 
  3 C       -1.6310    -2.4860     0.8010 C.2   1 <1>  -0.1360 
  4 C       -2.6530    -0.3490     0.4050 C.2   1 <1>  -0.1360 
  5 C       -2.6960    -3.1000     0.2100 C.2   1 <1>   0.0910 
  6 C       -3.6860    -0.9960    -0.1780 C.2   1 <1>  -0.0620 
  7 O       -3.6960    -2.3300    -0.2680 O.3   1 <1>  -0.1530 
  8 C       -2.8140    -4.5400     0.0430 C.2   1 <1>   0.6160 
  9 C       -4.9070    -0.3260    -0.7770 C.3   1 <1>  -0.1020 
 10 O       -1.8030    -5.2130     0.1290 O.2   1 <1>  -0.5700 
 11 N       -4.0050    -5.2010    -0.1930 N.am  1 <1>  -0.6600 
 12 C       -5.3730    -4.6380    -0.0480 C.3   1 <1>   0.1400 
 13 C       -4.0810    -6.6730    -0.3770 C.3   1 <1>   0.1400 
 14 C       -6.3180    -5.8410    -0.0720 C.3   1 <1>   0.2000 
 15 C       -5.4470    -7.0700     0.1810 C.3   1 <1>  -0.0800 
 16 O       -7.2890    -5.7450     0.9130 O.3   1 <1>  -0.6800 
 17 C       -6.0360    -8.3490    -0.4390 C.3   1 <1>  -0.0170 
 18 C       -5.1640    -9.5630    -0.1620 C.ar  1 <1>   0.1670 
 19 N       -4.1450    -9.7570    -0.9840 N.ar  1 <1>  -0.6200 
 20 C       -5.4540   -10.3990     0.9150 C.ar  1 <1>   0.1600 
 21 C       -3.4410   -10.8290    -0.6580 C.ar  1 <1>   0.1600 
 22 N       -4.7520   -11.4710     1.2420 N.ar  1 <1>  -0.6200 
 23 C       -3.7350   -11.6570     0.4190 C.ar  1 <1>   0.1600 
 24 H       -0.8010    -3.0450     1.1900 H     1 <1>   0.1500 
 25 H       -2.6020     0.7190     0.4990 H     1 <1>   0.1500 
 26 H       -4.9830    -0.5710    -1.8220 H     1 <1>   0.0800 
 27 H       -4.8400     0.7430    -0.6780 H     1 <1>   0.0800 
 28 H       -5.7950    -0.6640    -0.2750 H     1 <1>   0.0800 
 29 H       -5.4470    -4.1020     0.8820 H     1 <1>   0.0800 
 30 H       -5.5900    -3.9830    -0.8730 H     1 <1>   0.0800 
 31 H       -4.0130    -6.9000    -1.4280 H     1 <1>   0.0800 
 32 H       -3.2860    -7.1830     0.1440 H     1 <1>   0.0800 
 33 H       -6.8100    -5.8970    -1.0280 H     1 <1>   0.0800 
 34 H       -5.3240    -7.2110     1.2400 H     1 <1>   0.0800 
 35 H       -6.8750    -5.7030     1.7960 H     1 <1>   0.4000 
 36 H       -6.1400    -8.2290    -1.5030 H     1 <1>   0.0800 
 37 H       -7.0200    -8.5150    -0.0360 H     1 <1>   0.0800 
 38 H       -6.3030   -10.1700     1.5340 H     1 <1>   0.1500 
 39 H       -2.5900   -11.0630    -1.2730 H     1 <1>   0.1500 
 40 H       -3.1010   -12.5060     0.6040 H     1 <1>   0.1500 
@<TRIPOS>BOND
  1   1   2  2   
  2   2   3  1   
  3   2   4  1   
  4   3   5  2   
  5   3  24  1   
  6   4   6  2   
  7   4  25  1   
  8   5   7  1   
  9   5   8  1   
 10   6   7  1   
 11   6   9  1   
 12   8  10  2   
 13   8  11  am  
 14   9  26  1   
 15   9  27  1   
 16   9  28  1   
 17  11  12  1   
 18  11  13  1   
 19  12  14  1   
 20  12  29  1   
 21  12  30  1   
 22  13  15  1   
 23  13  31  1   
 24  13  32  1   
 25  14  15  1   
 26  14  16  1   
 27  14  33  1   
 28  15  17  1   
 29  15  34  1   
 30  16  35  1   
 31  17  18  1   
 32  17  36  1   
 33  17  37  1   
 34  18  19  ar  
 35  18  20  ar  
 36  19  21  ar  
 37  20  22  ar  
 38  20  38  1   
 39  21  23  ar  
 40  21  39  1   
 41  22  23  ar  
 42  23  40  1   
@<TRIPOS>SUBSTRUCTURE
  1 ****  11 GROUP 4 **** **** 0

# MOE 2024.06 (io_trps.svl 2023.06)
