@<TRIPOS>MOLECULE
NONAME
51 53 1 0 0 
SMALL
USER_CHARGES


@<TRIPOS>ATOM
  1 O       -0.4930    -0.5320    -1.3670 O.2   1 <1>  -0.5700 
  2 C       -1.1140    -1.4910    -0.9900 C.2   1 <1>   0.5690 
  3 N       -2.1180    -2.0490    -1.7300 N.am  1 <1>  -0.3680 
  4 C       -0.8360    -2.1180     0.3560 C.3   1 <1>  -0.0990 
  5 N       -2.8560    -3.1720    -1.4190 N.2   1 <1>  -0.5120 
  6 C       -1.2070    -3.6130     0.3480 C.3   1 <1>  -0.0990 
  7 C       -2.5020    -3.9310    -0.4300 C.2   1 <1>   0.3890 
  8 C       -3.2140    -5.1300    -0.0020 C.2   1 <1>   0.6300 
  9 O       -2.6420    -5.9450     0.7130 O.2   1 <1>  -0.5700 
 10 N       -4.5290    -5.4350    -0.3440 N.am  1 <1>  -0.6600 
 11 C       -5.0080    -6.8520    -0.2690 C.3   1 <1>   0.1400 
 12 C       -5.5180    -4.3980    -0.7680 C.3   1 <1>   0.1400 
 13 C       -5.5920    -7.1580     1.1170 C.3   1 <1>   0.1400 
 14 C       -6.9330    -4.5940    -0.2050 C.3   1 <1>  -0.1600 
 15 N       -6.9530    -6.5590     1.2810 N.am  1 <1>  -0.6600 
 16 C       -6.9830    -5.0710     1.2510 C.3   1 <1>   0.1400 
 17 C       -8.1290    -7.2820     1.3130 C.2   1 <1>   0.5690 
 18 O       -9.1870    -6.7240     1.5120 O.2   1 <1>  -0.5700 
 19 C       -8.1450    -8.8110     1.1320 C.3   1 <1>   0.2610 
 20 O       -7.4640    -9.2040    -0.0540 O.3   1 <1>  -0.2170 
 21 C       -9.5180    -9.4780     0.9780 C.3   1 <1>  -0.0990 
 22 N       -8.1150   -10.1380    -0.7180 N.2   1 <1>  -0.5130 
 23 C       -9.2470   -10.3420    -0.2160 C.2   1 <1>   0.3280 
 24 C      -10.3150   -11.3370    -0.6810 C.3   1 <1>  -0.0190 
 25 C       -9.7710   -12.3340    -1.7170 C.3   1 <1>  -0.2400 
 26 C      -11.5360   -10.6090    -1.2650 C.3   1 <1>  -0.2400 
 27 H       -2.3320    -1.5410    -2.5950 H     1 <1>   0.3700 
 28 H       -1.4310    -1.6000     1.0860 H     1 <1>   0.0800 
 29 H        0.2000    -1.9890     0.6090 H     1 <1>   0.0800 
 30 H       -1.2880    -3.9460     1.3680 H     1 <1>   0.0800 
 31 H       -0.4100    -4.1680    -0.1130 H     1 <1>   0.0800 
 32 H       -4.1760    -7.5120    -0.4440 H     1 <1>   0.0800 
 33 H       -5.7400    -7.0480    -1.0330 H     1 <1>   0.0800 
 34 H       -5.5590    -4.3710    -1.8440 H     1 <1>   0.0800 
 35 H       -5.1750    -3.4340    -0.4320 H     1 <1>   0.0800 
 36 H       -4.9330    -6.7720     1.8750 H     1 <1>   0.0800 
 37 H       -5.6280    -8.2230     1.2480 H     1 <1>   0.0800 
 38 H       -7.4890    -5.2720    -0.8300 H     1 <1>   0.0800 
 39 H       -7.4350    -3.6460    -0.2650 H     1 <1>   0.0800 
 40 H       -7.8930    -4.7190     1.7080 H     1 <1>   0.0800 
 41 H       -6.1590    -4.6700     1.8160 H     1 <1>   0.0800 
 42 H       -7.6200    -9.2630     1.9520 H     1 <1>   0.0800 
 43 H      -10.2980    -8.7730     0.7570 H     1 <1>   0.0800 
 44 H       -9.7710   -10.0520     1.8490 H     1 <1>   0.0800 
 45 H      -10.6330   -11.9010     0.1780 H     1 <1>   0.0800 
 46 H       -9.4500   -11.8150    -2.6040 H     1 <1>   0.0800 
 47 H      -10.5250   -13.0510    -1.9880 H     1 <1>   0.0800 
 48 H       -8.9260   -12.8620    -1.3120 H     1 <1>   0.0800 
 49 H      -11.2410   -10.0070    -2.1080 H     1 <1>   0.0800 
 50 H      -11.9870    -9.9690    -0.5290 H     1 <1>   0.0800 
 51 H      -12.2750   -11.3180    -1.5920 H     1 <1>   0.0800 
@<TRIPOS>BOND
  1   1   2  2   
  2   2   3  am  
  3   2   4  1   
  4   3   5  1   
  5   3  27  1   
  6   4   6  1   
  7   4  28  1   
  8   4  29  1   
  9   5   7  2   
 10   6   7  1   
 11   6  30  1   
 12   6  31  1   
 13   7   8  1   
 14   8   9  2   
 15   8  10  am  
 16  10  11  1   
 17  10  12  1   
 18  11  13  1   
 19  11  32  1   
 20  11  33  1   
 21  12  14  1   
 22  12  34  1   
 23  12  35  1   
 24  13  15  1   
 25  13  36  1   
 26  13  37  1   
 27  14  16  1   
 28  14  38  1   
 29  14  39  1   
 30  15  16  1   
 31  15  17  am  
 32  16  40  1   
 33  16  41  1   
 34  17  18  2   
 35  17  19  1   
 36  19  20  1   
 37  19  21  1   
 38  19  42  1   
 39  20  22  1   
 40  21  23  1   
 41  21  43  1   
 42  21  44  1   
 43  22  23  2   
 44  23  24  1   
 45  24  25  1   
 46  24  26  1   
 47  24  45  1   
 48  25  46  1   
 49  25  47  1   
 50  25  48  1   
 51  26  49  1   
 52  26  50  1   
 53  26  51  1   
@<TRIPOS>SUBSTRUCTURE
  1 ****  11 GROUP 4 **** **** 0

# MOE 2024.06 (io_trps.svl 2023.06)
