@<TRIPOS>MOLECULE
NONAME
43 45 1 0 0 
SMALL
USER_CHARGES


@<TRIPOS>ATOM
  1 CL       3.4850     0.8940     1.6710 Cl    1 <1>  -0.1400 
  2 C        3.2430    -0.4650     0.5960 C.2   1 <1>   0.1400 
  3 C        3.4870    -0.3510    -0.7380 C.2   1 <1>  -0.0410 
  4 C        2.7870    -1.6760     1.1500 C.2   1 <1>  -0.1500 
  5 N        3.2810    -1.4400    -1.5510 N.am  1 <1>  -0.5390 
  6 C        2.5680    -2.7650     0.3380 C.2   1 <1>   0.0290 
  7 C        2.8350    -2.6450    -1.0670 C.2   1 <1>   0.6160 
  8 C        2.1100    -4.0200     0.8620 C.2   1 <1>   0.6160 
  9 O        2.6930    -3.5400    -1.8860 O.2   1 <1>  -0.5700 
 10 O        2.7160    -4.4960     1.8070 O.2   1 <1>  -0.5700 
 11 N        1.0050    -4.7040     0.3880 N.am  1 <1>  -0.6600 
 12 C       -0.1070    -4.0650    -0.3890 C.3   1 <1>   0.2200 
 13 C        1.0340    -6.1990     0.4200 C.3   1 <1>   0.0600 
 14 C       -1.4040    -4.8790    -0.3550 C.3   1 <1>  -0.1600 
 15 C       -0.5460    -2.7190     0.1950 C.3   1 <1>  -0.1600 
 16 C       -2.5170    -3.8880    -0.7110 C.3   1 <1>  -0.0800 
 17 C       -1.9830    -2.5020    -0.2960 C.3   1 <1>  -0.0800 
 18 C       -3.8780    -4.2780    -0.1020 C.3   1 <1>   0.1400 
 19 C       -2.8750    -1.7790     0.7310 C.3   1 <1>  -0.0990 
 20 N       -4.7890    -3.1060    -0.0810 N.am  1 <1>  -0.6600 
 21 C       -4.3340    -1.8850     0.3340 C.2   1 <1>   0.5690 
 22 C       -6.2060    -3.3470    -0.4640 C.3   1 <1>   0.0600 
 23 O       -5.0340    -0.9030     0.4030 O.2   1 <1>  -0.5700 
 24 H        3.8400     0.5670    -1.1790 H     1 <1>   0.1500 
 25 H        2.6210    -1.7300     2.2120 H     1 <1>   0.1500 
 26 H        3.4650    -1.4270    -2.5580 H     1 <1>   0.3700 
 27 H        0.1950    -3.9360    -1.4150 H     1 <1>   0.0800 
 28 H        0.8150    -6.5930    -0.5570 H     1 <1>   0.0800 
 29 H        0.3150    -6.5660     1.1300 H     1 <1>   0.0800 
 30 H        2.0080    -6.5540     0.7110 H     1 <1>   0.0800 
 31 H       -1.3790    -5.7000    -1.0490 H     1 <1>   0.0800 
 32 H       -1.5620    -5.2460     0.6440 H     1 <1>   0.0800 
 33 H       -0.5300    -2.7810     1.2700 H     1 <1>   0.0800 
 34 H        0.0790    -1.9100    -0.1320 H     1 <1>   0.0800 
 35 H       -2.6290    -3.8860    -1.7830 H     1 <1>   0.0800 
 36 H       -1.9520    -1.8940    -1.1860 H     1 <1>   0.0800 
 37 H       -3.7490    -4.6190     0.9110 H     1 <1>   0.0800 
 38 H       -4.3150    -5.0790    -0.6740 H     1 <1>   0.0800 
 39 H       -2.5950    -0.7440     0.7990 H     1 <1>   0.0800 
 40 H       -2.7680    -2.2230     1.7030 H     1 <1>   0.0800 
 41 H       -6.6400    -4.0840     0.1890 H     1 <1>   0.0800 
 42 H       -6.2530    -3.6970    -1.4800 H     1 <1>   0.0800 
 43 H       -6.7780    -2.4380    -0.3860 H     1 <1>   0.0800 
@<TRIPOS>BOND
  1   1   2  1   
  2   2   3  2   
  3   2   4  1   
  4   3   5  1   
  5   3  24  1   
  6   4   6  2   
  7   4  25  1   
  8   5   7  am  
  9   5  26  1   
 10   6   7  1   
 11   6   8  1   
 12   7   9  2   
 13   8  10  2   
 14   8  11  am  
 15  11  12  1   
 16  11  13  1   
 17  12  14  1   
 18  12  15  1   
 19  12  27  1   
 20  13  28  1   
 21  13  29  1   
 22  13  30  1   
 23  14  16  1   
 24  14  31  1   
 25  14  32  1   
 26  15  17  1   
 27  15  33  1   
 28  15  34  1   
 29  16  17  1   
 30  16  18  1   
 31  16  35  1   
 32  17  19  1   
 33  17  36  1   
 34  18  20  1   
 35  18  37  1   
 36  18  38  1   
 37  19  21  1   
 38  19  39  1   
 39  19  40  1   
 40  20  21  am  
 41  20  22  1   
 42  21  23  2   
 43  22  41  1   
 44  22  42  1   
 45  22  43  1   
@<TRIPOS>SUBSTRUCTURE
  1 ****  15 GROUP 4 **** **** 0

# MOE 2024.06 (io_trps.svl 2023.06)
