@<TRIPOS>MOLECULE
NONAME
43 45 1 0 0 
SMALL
USER_CHARGES


@<TRIPOS>ATOM
  1 S       -2.0370    -0.5570    -2.8310 S.3   1 <1>  -0.4600 
  2 C       -2.5390     0.4750    -1.4150 C.3   1 <1>   0.2510 
  3 C       -2.6070    -2.1720    -2.2170 C.3   1 <1>   0.2510 
  4 C       -3.1710    -0.5200    -0.4700 C.2   1 <1>   0.1080 
  5 C       -3.2030    -1.8380    -0.8710 C.2   1 <1>  -0.1810 
  6 N       -3.7090    -0.3300     0.6920 N.2   1 <1>  -0.7070 
  7 C       -3.8040    -2.5120     0.1360 C.2   1 <1>  -0.0880 
  8 N       -4.1070    -1.5690     1.0800 N.pl3 1 <1>   0.3140 
  9 N       -4.0700    -3.9030     0.1560 N.am  1 <1>  -0.4940 
 10 C       -4.8720    -1.7260     2.3240 C.3   1 <1>   0.0160 
 11 C       -4.0360    -4.8470     1.1600 C.2   1 <1>   0.6160 
 12 O       -3.9420    -4.4560     2.3100 O.2   1 <1>  -0.5700 
 13 C       -4.0950    -6.2670     0.8720 C.2   1 <1>   0.0290 
 14 C       -4.8700    -6.7070    -0.2590 C.2   1 <1>   0.6160 
 15 C       -3.4560    -7.2290     1.6310 C.2   1 <1>  -0.1380 
 16 O       -5.3640    -5.9050    -1.0510 O.2   1 <1>  -0.5700 
 17 N       -5.0530    -8.0690    -0.5000 N.am  1 <1>  -0.4690 
 18 C       -3.6440    -8.5930     1.3360 C.2   1 <1>  -0.1500 
 19 C       -2.5300    -6.9190     2.8050 C.3   1 <1>  -0.1020 
 20 C       -4.4270    -9.0020     0.3020 C.2   1 <1>  -0.0290 
 21 C       -5.9480    -8.4760    -1.6290 C.3   1 <1>   0.1400 
 22 C       -4.6040   -10.4920     0.0370 C.3   1 <1>  -0.1020 
 23 C       -7.3990    -8.5230    -1.1500 C.3   1 <1>  -0.2400 
 24 H       -3.2440     1.2100    -1.7580 H     1 <1>   0.0800 
 25 H       -1.6620     0.9290    -0.9930 H     1 <1>   0.0800 
 26 H       -1.7540    -2.8210    -2.1370 H     1 <1>   0.0800 
 27 H       -3.3370    -2.5560    -2.9070 H     1 <1>   0.0800 
 28 H       -4.3740    -4.3020    -0.7410 H     1 <1>   0.3700 
 29 H       -5.3260    -0.7880     2.5800 H     1 <1>   0.0800 
 30 H       -4.2040    -2.0300     3.1080 H     1 <1>   0.0800 
 31 H       -5.6330    -2.4700     2.1830 H     1 <1>   0.0800 
 32 H       -3.1510    -9.3180     1.9590 H     1 <1>   0.1500 
 33 H       -1.8440    -7.7270     2.9840 H     1 <1>   0.0800 
 34 H       -3.1110    -6.7570     3.6950 H     1 <1>   0.0800 
 35 H       -1.9460    -6.0370     2.6100 H     1 <1>   0.0800 
 36 H       -5.6590    -9.4340    -2.0180 H     1 <1>   0.0800 
 37 H       -5.8590    -7.7740    -2.4420 H     1 <1>   0.0800 
 38 H       -5.6450   -10.7570     0.0650 H     1 <1>   0.0800 
 39 H       -4.0950   -11.0760     0.7830 H     1 <1>   0.0800 
 40 H       -4.1950   -10.7500    -0.9220 H     1 <1>   0.0800 
 41 H       -7.5080    -9.2190    -0.3380 H     1 <1>   0.0800 
 42 H       -8.0380    -8.8330    -1.9570 H     1 <1>   0.0800 
 43 H       -7.7140    -7.5470    -0.8260 H     1 <1>   0.0800 
@<TRIPOS>BOND
  1   1   2  1   
  2   1   3  1   
  3   2   4  1   
  4   2  24  1   
  5   2  25  1   
  6   3   5  1   
  7   3  26  1   
  8   3  27  1   
  9   4   5  1   
 10   4   6  2   
 11   5   7  2   
 12   6   8  1   
 13   7   8  1   
 14   7   9  1   
 15   8  10  1   
 16   9  11  am  
 17   9  28  1   
 18  10  29  1   
 19  10  30  1   
 20  10  31  1   
 21  11  12  2   
 22  11  13  1   
 23  13  14  1   
 24  13  15  2   
 25  14  16  2   
 26  14  17  am  
 27  15  18  1   
 28  15  19  1   
 29  17  20  1   
 30  17  21  1   
 31  18  20  2   
 32  18  32  1   
 33  19  33  1   
 34  19  34  1   
 35  19  35  1   
 36  20  22  1   
 37  21  23  1   
 38  21  36  1   
 39  21  37  1   
 40  22  38  1   
 41  22  39  1   
 42  22  40  1   
 43  23  41  1   
 44  23  42  1   
 45  23  43  1   
@<TRIPOS>SUBSTRUCTURE
  1 ****   9 GROUP 4 **** **** 0

# MOE 2024.06 (io_trps.svl 2023.06)
