@<TRIPOS>MOLECULE
NONAME
37 39 1 0 0 
SMALL
USER_CHARGES


@<TRIPOS>ATOM
  1 S        0.0280    -0.1680    -0.0170 S.3   1 <1>  -0.0800 
  2 C       -1.5200     0.6250    -0.2830 C.2   1 <1>   0.4620 
  3 C        0.7930     1.3940     0.0520 C.2   1 <1>  -0.1100 
  4 N       -1.4450     1.9060    -0.3070 N.2   1 <1>  -0.5650 
  5 N       -2.6500    -0.1400    -0.4390 N.pl3 1 <1>  -0.8220 
  6 C       -0.1430     2.3420    -0.1200 C.2   1 <1>   0.0460 
  7 C       -4.0060     0.4530    -0.5500 C.3   1 <1>   0.2090 
  8 C       -2.7380    -1.5950    -0.1610 C.3   1 <1>   0.2090 
  9 C        0.0840     3.8480    -0.1350 C.3   1 <1>   0.3010 
 10 C       -4.9050    -0.5560     0.1640 C.3   1 <1>   0.2000 
 11 C       -4.2400    -1.9040    -0.1440 C.3   1 <1>  -0.0800 
 12 O        1.3200     4.1600     0.4200 O.3   1 <1>  -0.6800 
 13 O       -4.8330    -0.3060     1.5270 O.3   1 <1>  -0.6800 
 14 C       -4.6300    -3.0600     0.7950 C.3   1 <1>  -0.0170 
 15 C       -3.9420    -4.3530     0.3840 C.ar  1 <1>  -0.1430 
 16 C       -4.3800    -5.1000    -0.6900 C.ar  1 <1>  -0.1500 
 17 C       -2.8430    -4.8440     1.0600 C.ar  1 <1>  -0.1500 
 18 C       -3.7150    -6.2670    -1.0300 C.ar  1 <1>   0.1600 
 19 C       -2.2500    -6.0230     0.6380 C.ar  1 <1>   0.1600 
 20 N       -2.6590    -6.7450    -0.3920 N.ar  1 <1>  -0.6200 
 21 H        1.8560     1.4340     0.2060 H     1 <1>   0.1500 
 22 H       -4.0610     1.4300    -0.1010 H     1 <1>   0.0800 
 23 H       -4.2710     0.5200    -1.5900 H     1 <1>   0.0800 
 24 H       -2.2310    -2.1630    -0.9240 H     1 <1>   0.0800 
 25 H       -2.2950    -1.8030     0.7980 H     1 <1>   0.0800 
 26 H       -0.6760     4.3420     0.4440 H     1 <1>   0.0800 
 27 H        0.0590     4.2200    -1.1440 H     1 <1>   0.0800 
 28 H       -5.9350    -0.5020    -0.1440 H     1 <1>   0.0800 
 29 H       -4.5160    -2.1770    -1.1460 H     1 <1>   0.0800 
 30 H        1.3580     3.8150     1.3320 H     1 <1>   0.4000 
 31 H       -3.9030    -0.0790     1.7390 H     1 <1>   0.4000 
 32 H       -5.6970    -3.2000     0.7660 H     1 <1>   0.0800 
 33 H       -4.3670    -2.8230     1.8120 H     1 <1>   0.0800 
 34 H       -5.2320    -4.7880    -1.2660 H     1 <1>   0.1500 
 35 H       -2.4420    -4.3260     1.9120 H     1 <1>   0.1500 
 36 H       -4.0710    -6.8380    -1.8710 H     1 <1>   0.1500 
 37 H       -1.3950    -6.3910     1.1780 H     1 <1>   0.1500 
@<TRIPOS>BOND
  1   1   2  1   
  2   1   3  1   
  3   2   4  2   
  4   2   5  1   
  5   3   6  2   
  6   3  21  1   
  7   4   6  1   
  8   5   7  1   
  9   5   8  1   
 10   6   9  1   
 11   7  10  1   
 12   7  22  1   
 13   7  23  1   
 14   8  11  1   
 15   8  24  1   
 16   8  25  1   
 17   9  12  1   
 18   9  26  1   
 19   9  27  1   
 20  10  11  1   
 21  10  13  1   
 22  10  28  1   
 23  11  14  1   
 24  11  29  1   
 25  12  30  1   
 26  13  31  1   
 27  14  15  1   
 28  14  32  1   
 29  14  33  1   
 30  15  16  ar  
 31  15  17  ar  
 32  16  18  ar  
 33  16  34  1   
 34  17  19  ar  
 35  17  35  1   
 36  18  20  ar  
 37  18  36  1   
 38  19  20  ar  
 39  19  37  1   
@<TRIPOS>SUBSTRUCTURE
  1 ****   8 GROUP 4 **** **** 0

# MOE 2024.06 (io_trps.svl 2023.06)
