@<TRIPOS>MOLECULE
NONAME
50 53 1 0 0 
SMALL
USER_CHARGES


@<TRIPOS>ATOM
  1 F        0.3960     0.4600     1.2110 F     1 <1>  -0.3400 
  2 C       -0.8480     0.9340     1.1660 C.3   1 <1>   1.1640 
  3 F       -1.5990    -0.0810     0.7450 F     1 <1>  -0.3400 
  4 F       -1.1970     1.1420     2.4340 F     1 <1>  -0.3400 
  5 C       -1.0160     2.2100     0.2910 C.ar  1 <1>   0.1660 
  6 N        0.0770     2.7810    -0.1910 N.ar  1 <1>  -0.6200 
  7 C       -2.2690     2.7510     0.0160 C.ar  1 <1>  -0.1440 
  8 C       -0.0640     3.8610    -0.9460 C.ar  1 <1>   0.7200 
  9 C       -2.3030     3.8820    -0.7820 C.ar  1 <1>   0.1660 
 10 C       -3.5720     2.1330     0.5430 C.3   1 <1>  -0.0170 
 11 N       -1.2160     4.4360    -1.2510 N.ar  1 <1>  -0.6200 
 12 N        1.0850     4.4400    -1.4390 N.pl3 1 <1>  -0.8380 
 13 C       -3.5990     4.5810    -1.1670 C.3   1 <1>  -0.0170 
 14 C       -4.7700     3.0850     0.4670 C.3   1 <1>  -0.1600 
 15 C        2.4470     3.9910    -1.0080 C.3   1 <1>   0.2090 
 16 C        1.1200     5.8800    -1.8420 C.3   1 <1>   0.2090 
 17 C       -4.8480     3.7310    -0.9150 C.3   1 <1>  -0.1600 
 18 C        2.9320     4.8220     0.1970 C.3   1 <1>   0.2090 
 19 C        1.5590     6.7580    -0.6540 C.3   1 <1>   0.2090 
 20 N        2.8650     6.3060    -0.0580 N.pl3 1 <1>  -0.8380 
 21 C        4.0090     6.9790    -0.4560 C.ar  1 <1>   0.4100 
 22 N        4.7290     6.3280    -1.3710 N.ar  1 <1>  -0.6200 
 23 C        4.3530     8.2560     0.0460 C.ar  1 <1>   0.0860 
 24 C        5.8000     6.9370    -1.8340 C.ar  1 <1>   0.1600 
 25 C        3.5960     8.9430     1.0730 C.2   1 <1>   0.5440 
 26 C        5.4870     8.8630    -0.4810 C.ar  1 <1>  -0.1500 
 27 C        6.2180     8.1910    -1.4330 C.ar  1 <1>  -0.1500 
 28 O        3.6380    10.1500     1.1930 O.2   1 <1>  -0.5700 
 29 N        2.8170     8.2940     1.9660 N.am  1 <1>  -0.8000 
 30 H       -3.4650     1.8270     1.5680 H     1 <1>   0.0800 
 31 H       -3.7940     1.2570    -0.0420 H     1 <1>   0.0800 
 32 H       -3.5600     4.8510    -2.2080 H     1 <1>   0.0800 
 33 H       -3.6660     5.4900    -0.5970 H     1 <1>   0.0800 
 34 H       -4.6710     3.8510     1.2180 H     1 <1>   0.0800 
 35 H       -5.6770     2.5390     0.6680 H     1 <1>   0.0800 
 36 H        3.1370     4.1240    -1.8230 H     1 <1>   0.0800 
 37 H        2.4520     2.9450    -0.7560 H     1 <1>   0.0800 
 38 H        0.1610     6.2090    -2.2020 H     1 <1>   0.0800 
 39 H        1.8240     6.0030    -2.6470 H     1 <1>   0.0800 
 40 H       -4.9170     2.9640    -1.6680 H     1 <1>   0.0800 
 41 H       -5.7260     4.3490    -0.9880 H     1 <1>   0.0800 
 42 H        3.9430     4.5400     0.4330 H     1 <1>   0.0800 
 43 H        2.3180     4.5820     1.0470 H     1 <1>   0.0800 
 44 H        0.7940     6.7220     0.1010 H     1 <1>   0.0800 
 45 H        1.6440     7.7780    -0.9880 H     1 <1>   0.0800 
 46 H        6.3790     6.4120    -2.5760 H     1 <1>   0.1500 
 47 H        5.7870     9.8410    -0.1430 H     1 <1>   0.1500 
 48 H        7.1030     8.6310    -1.8580 H     1 <1>   0.1500 
 49 H        2.2590     8.8180     2.6370 H     1 <1>   0.3700 
 50 H        2.5810     7.3090     1.7930 H     1 <1>   0.3700 
@<TRIPOS>BOND
  1   1   2  1   
  2   2   3  1   
  3   2   4  1   
  4   2   5  1   
  5   5   6  ar  
  6   5   7  ar  
  7   6   8  ar  
  8   7   9  ar  
  9   7  10  1   
 10   8  11  ar  
 11   8  12  1   
 12   9  11  ar  
 13   9  13  1   
 14  10  14  1   
 15  10  30  1   
 16  10  31  1   
 17  12  15  1   
 18  12  16  1   
 19  13  17  1   
 20  13  32  1   
 21  13  33  1   
 22  14  17  1   
 23  14  34  1   
 24  14  35  1   
 25  15  18  1   
 26  15  36  1   
 27  15  37  1   
 28  16  19  1   
 29  16  38  1   
 30  16  39  1   
 31  17  40  1   
 32  17  41  1   
 33  18  20  1   
 34  18  42  1   
 35  18  43  1   
 36  19  20  1   
 37  19  44  1   
 38  19  45  1   
 39  20  21  1   
 40  21  22  ar  
 41  21  23  ar  
 42  22  24  ar  
 43  23  25  1   
 44  23  26  ar  
 45  24  27  ar  
 46  24  46  1   
 47  25  28  2   
 48  25  29  am  
 49  26  27  ar  
 50  26  47  1   
 51  27  48  1   
 52  29  49  1   
 53  29  50  1   
@<TRIPOS>SUBSTRUCTURE
  1 ****  12 GROUP 4 **** **** 0

# MOE 2024.06 (io_trps.svl 2023.06)
