@<TRIPOS>MOLECULE
NONAME
54 57 1 0 0 
SMALL
USER_CHARGES


@<TRIPOS>ATOM
  1 O       -0.4140     0.1790     0.5290 O.2   1 <1>  -0.5700 
  2 C       -1.4510     0.8130     0.4650 C.2   1 <1>   0.5440 
  3 N       -2.6400     0.1180     0.4540 N.am  1 <1>  -0.6600 
  4 C       -1.4120     2.2560     0.3830 C.ar  1 <1>   0.0860 
  5 C       -3.9580     0.6830     0.0660 C.3   1 <1>   0.1400 
  6 C       -2.6950    -1.3670     0.4370 C.3   1 <1>   0.1400 
  7 C       -0.6900     2.8960    -0.6240 C.ar  1 <1>  -0.1500 
  8 C       -2.0870     3.0670     1.2970 C.ar  1 <1>  -0.1500 
  9 C       -4.9390    -0.4700     0.2760 C.3   1 <1>   0.2000 
 10 C       -4.1070    -1.7140    -0.0520 C.3   1 <1>  -0.0800 
 11 C       -0.6650     4.2730    -0.7280 C.ar  1 <1>  -0.1500 
 12 C       -2.0610     4.4440     1.1950 C.ar  1 <1>  -0.1500 
 13 O       -5.2930    -0.4900     1.6170 O.3   1 <1>  -0.6800 
 14 C       -4.6530    -3.0400     0.5100 C.3   1 <1>  -0.0170 
 15 C       -1.3540     5.0760     0.1760 C.ar  1 <1>   0.1000 
 16 C       -3.8090    -4.2160     0.0450 C.ar  1 <1>  -0.1430 
 17 N       -1.3290     6.4610     0.0640 N.pl3 1 <1>  -0.8380 
 18 C       -4.0090    -4.8140    -1.1820 C.ar  1 <1>  -0.1500 
 19 C       -2.7980    -4.7460     0.8230 C.ar  1 <1>  -0.1500 
 20 C       -0.0580     7.1730    -0.2570 C.3   1 <1>   0.2090 
 21 C       -2.5340     7.2820     0.3760 C.3   1 <1>   0.2090 
 22 C       -3.2110    -5.8790    -1.5640 C.ar  1 <1>   0.1600 
 23 C       -2.0560    -5.8140     0.3460 C.ar  1 <1>   0.1600 
 24 C       -0.0340     8.5460     0.4210 C.3   1 <1>  -0.1600 
 25 C       -2.4680     8.6160    -0.3740 C.3   1 <1>  -0.1600 
 26 N       -2.2380    -6.3930    -0.8300 N.ar  1 <1>  -0.6200 
 27 C       -1.2170     9.4350    -0.0070 C.3   1 <1>  -0.1600 
 28 H       -4.2280     1.5400     0.6570 H     1 <1>   0.0800 
 29 H       -3.9280     0.9570    -0.9750 H     1 <1>   0.0800 
 30 H       -1.9420    -1.7740    -0.2170 H     1 <1>   0.0800 
 31 H       -2.5290    -1.7300     1.4360 H     1 <1>   0.0800 
 32 H       -0.1450     2.2940    -1.3300 H     1 <1>   0.1500 
 33 H       -2.6300     2.6040     2.1010 H     1 <1>   0.1500 
 34 H       -5.8340    -0.3810    -0.3160 H     1 <1>   0.0800 
 35 H       -4.0580    -1.7980    -1.1230 H     1 <1>   0.0800 
 36 H       -0.1120     4.7380    -1.5220 H     1 <1>   0.1500 
 37 H       -2.5820     5.0420     1.9180 H     1 <1>   0.1500 
 38 H       -4.4770    -0.4260     2.1530 H     1 <1>   0.4000 
 39 H       -5.6670    -3.1770     0.1770 H     1 <1>   0.0800 
 40 H       -4.6700    -3.0150     1.5850 H     1 <1>   0.0800 
 41 H       -4.7780    -4.4620    -1.8460 H     1 <1>   0.1500 
 42 H       -2.5790    -4.3410     1.7930 H     1 <1>   0.1500 
 43 H        0.7780     6.5850     0.0810 H     1 <1>   0.0800 
 44 H        0.0170     7.2930    -1.3240 H     1 <1>   0.0800 
 45 H       -3.4190     6.7420     0.0850 H     1 <1>   0.0800 
 46 H       -2.5730     7.4630     1.4370 H     1 <1>   0.0800 
 47 H       -3.3820    -6.3330    -2.5260 H     1 <1>   0.1500 
 48 H       -1.2710    -6.2130     0.9650 H     1 <1>   0.1500 
 49 H       -0.0680     8.3880     1.4850 H     1 <1>   0.0800 
 50 H        0.8930     9.0440     0.1980 H     1 <1>   0.0800 
 51 H       -2.4620     8.4000    -1.4280 H     1 <1>   0.0800 
 52 H       -3.3520     9.1920    -0.1660 H     1 <1>   0.0800 
 53 H       -0.9340    10.0290    -0.8590 H     1 <1>   0.0800 
 54 H       -1.4480    10.1100     0.7990 H     1 <1>   0.0800 
@<TRIPOS>BOND
  1   1   2  2   
  2   2   3  am  
  3   2   4  1   
  4   3   5  1   
  5   3   6  1   
  6   4   7  ar  
  7   4   8  ar  
  8   5   9  1   
  9   5  28  1   
 10   5  29  1   
 11   6  10  1   
 12   6  30  1   
 13   6  31  1   
 14   7  11  ar  
 15   7  32  1   
 16   8  12  ar  
 17   8  33  1   
 18   9  10  1   
 19   9  13  1   
 20   9  34  1   
 21  10  14  1   
 22  10  35  1   
 23  11  15  ar  
 24  11  36  1   
 25  12  15  ar  
 26  12  37  1   
 27  13  38  1   
 28  14  16  1   
 29  14  39  1   
 30  14  40  1   
 31  15  17  1   
 32  16  18  ar  
 33  16  19  ar  
 34  17  20  1   
 35  17  21  1   
 36  18  22  ar  
 37  18  41  1   
 38  19  23  ar  
 39  19  42  1   
 40  20  24  1   
 41  20  43  1   
 42  20  44  1   
 43  21  25  1   
 44  21  45  1   
 45  21  46  1   
 46  22  26  ar  
 47  22  47  1   
 48  23  26  ar  
 49  23  48  1   
 50  24  27  1   
 51  24  49  1   
 52  24  50  1   
 53  25  27  1   
 54  25  51  1   
 55  25  52  1   
 56  27  53  1   
 57  27  54  1   
@<TRIPOS>SUBSTRUCTURE
  1 ****   2 GROUP 4 **** **** 0

# MOE 2024.06 (io_trps.svl 2023.06)
