@<TRIPOS>MOLECULE
NONAME
46 48 1 0 0 
SMALL
USER_CHARGES


@<TRIPOS>ATOM
  1 O       -0.9360     0.8510     1.7470 O.2   1 <1>  -0.5700 
  2 C       -1.5140     1.1180     0.7070 C.2   1 <1>   0.5440 
  3 N       -2.1650     0.1030     0.0410 N.am  1 <1>  -0.6600 
  4 C       -1.5320     2.4720     0.2140 C.ar  1 <1>   0.0860 
  5 C       -3.0340     0.2980    -1.1440 C.3   1 <1>   0.1400 
  6 C       -2.5400    -1.1600     0.7290 C.3   1 <1>   0.1400 
  7 C       -2.6390     3.2770     0.5240 C.ar  1 <1>   0.0830 
  8 C       -0.5240     3.0190    -0.6010 C.ar  1 <1>   0.0830 
  9 C       -4.3110    -0.4510    -0.7780 C.3   1 <1>   0.2000 
 10 C       -3.8260    -1.6530     0.0400 C.3   1 <1>  -0.0800 
 11 O       -3.6280     2.7230     1.2740 O.3   1 <1>  -0.3630 
 12 C       -2.7210     4.5850     0.0540 C.ar  1 <1>  -0.1500 
 13 O        0.5850     2.3580    -1.0160 O.3   1 <1>  -0.3630 
 14 C       -0.6320     4.3180    -1.0700 C.ar  1 <1>  -0.1500 
 15 O       -5.0650     0.3620     0.0520 O.3   1 <1>  -0.6800 
 16 C       -3.5690    -2.8690    -0.8720 C.3   1 <1>  -0.0170 
 17 C       -4.8090     3.4140     1.6160 C.3   1 <1>   0.0400 
 18 C       -1.7190     5.1030    -0.7420 C.ar  1 <1>  -0.1500 
 19 C        1.3090     1.4910    -0.1680 C.3   1 <1>   0.0400 
 20 C       -3.2090    -4.1160    -0.0780 C.ar  1 <1>   0.1670 
 21 N       -1.9210    -4.3960     0.0370 N.ar  1 <1>  -0.6200 
 22 C       -4.2180    -4.8990     0.4800 C.ar  1 <1>   0.1600 
 23 C       -1.7120    -5.4950     0.7430 C.ar  1 <1>   0.1600 
 24 N       -4.0120    -5.9990     1.1840 N.ar  1 <1>  -0.6200 
 25 C       -2.7230    -6.2710     1.2970 C.ar  1 <1>   0.1600 
 26 H       -3.2340     1.3330    -1.3600 H     1 <1>   0.0800 
 27 H       -2.5650    -0.1590    -1.9970 H     1 <1>   0.0800 
 28 H       -1.7320    -1.8670     0.6550 H     1 <1>   0.0800 
 29 H       -2.7300    -0.9590     1.7700 H     1 <1>   0.0800 
 30 H       -4.9120    -0.7140    -1.6320 H     1 <1>   0.0800 
 31 H       -4.5620    -1.9280     0.7750 H     1 <1>   0.0800 
 32 H       -3.5570     5.2150     0.2920 H     1 <1>   0.1500 
 33 H        0.1490     4.7130    -1.6950 H     1 <1>   0.1500 
 34 H       -4.4540     0.8250     0.6710 H     1 <1>   0.4000 
 35 H       -2.7760    -2.6510    -1.5670 H     1 <1>   0.0800 
 36 H       -4.4530    -3.0760    -1.4470 H     1 <1>   0.0800 
 37 H       -5.4260     2.7530     2.1990 H     1 <1>   0.0800 
 38 H       -5.3260     3.6930     0.7140 H     1 <1>   0.0800 
 39 H       -4.5520     4.2810     2.1990 H     1 <1>   0.0800 
 40 H       -1.7840     6.1130    -1.1080 H     1 <1>   0.1500 
 41 H        2.3170     1.4290    -0.5340 H     1 <1>   0.0800 
 42 H        0.8570     0.5150    -0.1930 H     1 <1>   0.0800 
 43 H        1.3070     1.8880     0.8330 H     1 <1>   0.0800 
 44 H       -5.2420    -4.6010     0.3390 H     1 <1>   0.1500 
 45 H       -0.6900    -5.7980     0.8890 H     1 <1>   0.1500 
 46 H       -2.4530    -7.1490     1.8550 H     1 <1>   0.1500 
@<TRIPOS>BOND
  1   1   2  2   
  2   2   3  am  
  3   2   4  1   
  4   3   5  1   
  5   3   6  1   
  6   4   7  ar  
  7   4   8  ar  
  8   5   9  1   
  9   5  26  1   
 10   5  27  1   
 11   6  10  1   
 12   6  28  1   
 13   6  29  1   
 14   7  11  1   
 15   7  12  ar  
 16   8  13  1   
 17   8  14  ar  
 18   9  10  1   
 19   9  15  1   
 20   9  30  1   
 21  10  16  1   
 22  10  31  1   
 23  11  17  1   
 24  12  18  ar  
 25  12  32  1   
 26  13  19  1   
 27  14  18  ar  
 28  14  33  1   
 29  15  34  1   
 30  16  20  1   
 31  16  35  1   
 32  16  36  1   
 33  17  37  1   
 34  17  38  1   
 35  17  39  1   
 36  18  40  1   
 37  19  41  1   
 38  19  42  1   
 39  19  43  1   
 40  20  21  ar  
 41  20  22  ar  
 42  21  23  ar  
 43  22  24  ar  
 44  22  44  1   
 45  23  25  ar  
 46  23  45  1   
 47  24  25  ar  
 48  25  46  1   
@<TRIPOS>SUBSTRUCTURE
  1 ****   3 GROUP 4 **** **** 0

# MOE 2024.06 (io_trps.svl 2023.06)
