@<TRIPOS>MOLECULE
NONAME
47 49 1 0 0 
SMALL
USER_CHARGES


@<TRIPOS>ATOM
  1 N        0.0900    -0.0840     0.2720 N.ar  1 <1>  -0.6200 
  2 C        1.0910     0.7150    -0.0640 C.ar  1 <1>   0.7710 
  3 C        0.3060    -1.3770     0.2710 C.ar  1 <1>   0.4100 
  4 N        2.3000     0.2350    -0.4020 N.ar  1 <1>  -0.1790 
  5 N        0.8950     2.0560    -0.0700 N.pl3 1 <1>  -0.8380 
  6 N       -0.7440    -2.1280     0.6210 N.pl3 1 <1>  -0.8690 
  7 C        1.5550    -1.9280    -0.0700 C.ar  1 <1>  -0.1500 
  8 C        2.5660    -1.0930    -0.4130 C.ar  1 <1>   0.2170 
  9 C       -0.4360     2.6420     0.2610 C.3   1 <1>   0.2090 
 10 C        1.8730     3.1420    -0.3500 C.3   1 <1>   0.2090 
 11 C       -1.0080    -3.5680     0.5200 C.3   1 <1>   0.4690 
 12 C        3.9610    -1.5680    -0.8010 C.3   1 <1>  -0.0170 
 13 C       -0.3060     4.1270    -0.0480 C.3   1 <1>  -0.1600 
 14 C        1.1810     4.4210     0.1020 C.3   1 <1>  -0.1600 
 15 C       -2.5080    -3.7710     0.2930 C.2   1 <1>   0.0060 
 16 C       -0.5660    -4.2200     1.8260 C.3   1 <1>  -0.2400 
 17 C        5.0310    -1.0900     0.1890 C.3   1 <1>  -0.2400 
 18 N       -3.0120    -4.9310    -0.1860 N.pl3 1 <1>   0.0330 
 19 N       -3.4230    -2.8790     0.5300 N.2   1 <1>  -0.5650 
 20 C       -4.3420    -4.7470    -0.2530 C.2   1 <1>  -0.3320 
 21 C       -4.5720    -3.4900     0.1870 C.2   1 <1>   0.0770 
 22 C       -5.3170    -5.8020    -0.7420 C.3   1 <1>  -0.0600 
 23 H        2.9920     0.9290    -0.6440 H     1 <1>   0.4570 
 24 H       -1.6400    -1.6460     0.7950 H     1 <1>   0.4000 
 25 H        1.6770    -2.9930    -0.0450 H     1 <1>   0.1500 
 26 H       -0.6390     2.4940     1.3090 H     1 <1>   0.0800 
 27 H       -1.2220     2.1890    -0.3220 H     1 <1>   0.0800 
 28 H        2.0630     3.1900    -1.4100 H     1 <1>   0.0800 
 29 H        2.7940     3.0010     0.1900 H     1 <1>   0.0800 
 30 H       -0.4610    -3.9780    -0.3110 H     1 <1>   0.0800 
 31 H        4.2010    -1.2200    -1.7910 H     1 <1>   0.0800 
 32 H        3.9760    -2.6450    -0.8290 H     1 <1>   0.0800 
 33 H       -0.9120     4.7250     0.6090 H     1 <1>   0.0800 
 34 H       -0.6170     4.3020    -1.0640 H     1 <1>   0.0800 
 35 H        1.4900     5.2730    -0.4780 H     1 <1>   0.0800 
 36 H        1.4140     4.6020     1.1370 H     1 <1>   0.0800 
 37 H       -1.1320    -3.8110     2.6440 H     1 <1>   0.0800 
 38 H        0.4800    -4.0490     1.9980 H     1 <1>   0.0800 
 39 H       -0.7410    -5.2790     1.7880 H     1 <1>   0.0800 
 40 H        5.1100    -0.0170     0.2000 H     1 <1>   0.0800 
 41 H        5.9910    -1.4920    -0.0890 H     1 <1>   0.0800 
 42 H        4.8040    -1.4320     1.1850 H     1 <1>   0.0800 
 43 H       -2.4980    -5.7780    -0.4440 H     1 <1>   0.2700 
 44 H       -5.5190    -2.9840     0.2770 H     1 <1>   0.1500 
 45 H       -5.2590    -6.6780    -0.1210 H     1 <1>   0.0800 
 46 H       -5.0930    -6.0740    -1.7580 H     1 <1>   0.0800 
 47 H       -6.3220    -5.4210    -0.7040 H     1 <1>   0.0800 
@<TRIPOS>BOND
  1   1   2  ar  
  2   1   3  ar  
  3   2   4  ar  
  4   2   5  1   
  5   3   6  1   
  6   3   7  ar  
  7   4   8  ar  
  8   4  23  1   
  9   5   9  1   
 10   5  10  1   
 11   6  11  1   
 12   6  24  1   
 13   7   8  ar  
 14   7  25  1   
 15   8  12  1   
 16   9  13  1   
 17   9  26  1   
 18   9  27  1   
 19  10  14  1   
 20  10  28  1   
 21  10  29  1   
 22  11  15  1   
 23  11  16  1   
 24  11  30  1   
 25  12  17  1   
 26  12  31  1   
 27  12  32  1   
 28  13  14  1   
 29  13  33  1   
 30  13  34  1   
 31  14  35  1   
 32  14  36  1   
 33  15  18  1   
 34  15  19  2   
 35  16  37  1   
 36  16  38  1   
 37  16  39  1   
 38  17  40  1   
 39  17  41  1   
 40  17  42  1   
 41  18  20  1   
 42  18  43  1   
 43  19  21  1   
 44  20  21  2   
 45  20  22  1   
 46  21  44  1   
 47  22  45  1   
 48  22  46  1   
 49  22  47  1   
@<TRIPOS>SUBSTRUCTURE
  1 ****   3 GROUP 4 **** **** 0

# MOE 2024.06 (io_trps.svl 2023.06)
