@<TRIPOS>MOLECULE
NONAME
53 56 1 0 0 
SMALL
USER_CHARGES


@<TRIPOS>ATOM
  1 F        1.0440    -1.5720     1.7030 F     1 <1>  -0.1900 
  2 C        1.2610    -1.6010     0.4080 C.ar  1 <1>   0.1900 
  3 C        0.5420    -2.4970    -0.3930 C.ar  1 <1>   0.1000 
  4 C        2.2030    -0.7300    -0.1030 C.ar  1 <1>  -0.1500 
  5 N       -0.4200    -3.3960     0.0890 N.pl3 1 <1>  -0.8380 
  6 C        0.8150    -2.4800    -1.7550 C.ar  1 <1>  -0.1500 
  7 C        2.4520    -0.7380    -1.4650 C.ar  1 <1>  -0.1500 
  8 C       -1.6550    -2.7680     0.6080 C.3   1 <1>   0.2090 
  9 C        0.1130    -4.4820     0.9400 C.3   1 <1>   0.2090 
 10 C        1.7570    -1.6130    -2.2860 C.ar  1 <1>  -0.1500 
 11 C       -2.7430    -3.8370     0.6340 C.3   1 <1>  -0.1600 
 12 C       -0.9260    -5.5970     0.9640 C.3   1 <1>  -0.1600 
 13 C       -2.2700    -5.0440     1.4520 C.3   1 <1>   0.4230 
 14 N       -3.3250    -6.0910     1.4630 N.4   1 <1>  -0.9060 
 15 C       -3.6390    -6.7720     0.1730 C.3   1 <1>   0.4230 
 16 C       -5.1020    -7.2090     0.2040 C.3   1 <1>  -0.0800 
 17 C       -2.9480    -8.1320     0.1600 C.3   1 <1>   0.1200 
 18 C       -5.0400    -8.5780     0.9110 C.3   1 <1>   0.1200 
 19 C       -5.6940    -7.3170    -1.2160 C.3   1 <1>  -0.0170 
 20 O       -3.6820    -8.8570     1.0870 O.3   1 <1>  -0.5600 
 21 C       -7.1510    -7.7480    -1.1690 C.ar  1 <1>  -0.1430 
 22 C       -8.1620    -6.8680    -0.8340 C.ar  1 <1>  -0.1500 
 23 C       -7.5420    -9.0400    -1.4620 C.ar  1 <1>  -0.1500 
 24 C       -9.4730    -7.3130    -0.7970 C.ar  1 <1>   0.1600 
 25 C       -8.8820    -9.3830    -1.3940 C.ar  1 <1>   0.1600 
 26 N       -9.8550    -8.5500    -1.0630 N.ar  1 <1>  -0.6200 
 27 H        2.7290    -0.0600     0.5520 H     1 <1>   0.1500 
 28 H        0.2820    -3.1550    -2.3980 H     1 <1>   0.1500 
 29 H        3.1820    -0.0670    -1.8860 H     1 <1>   0.1500 
 30 H       -1.4780    -2.3720     1.5950 H     1 <1>   0.0800 
 31 H       -1.9460    -1.9540    -0.0380 H     1 <1>   0.0800 
 32 H        1.0400    -4.8440     0.5250 H     1 <1>   0.0800 
 33 H        0.3070    -4.1100     1.9330 H     1 <1>   0.0800 
 34 H        1.9510    -1.6190    -3.3450 H     1 <1>   0.1500 
 35 H       -2.9500    -4.1110    -0.3840 H     1 <1>   0.0800 
 36 H       -3.6290    -3.4120     1.0690 H     1 <1>   0.0800 
 37 H       -0.5800    -6.3750     1.6200 H     1 <1>   0.0800 
 38 H       -1.0000    -5.9810    -0.0370 H     1 <1>   0.0800 
 39 H       -2.1220    -4.7020     2.4650 H     1 <1>   0.0800 
 40 H       -4.1850    -5.6830     1.8400 H     1 <1>   0.4500 
 41 H       -3.0690    -6.8510     2.1130 H     1 <1>   0.4500 
 42 H       -3.3970    -6.1600    -0.6800 H     1 <1>   0.0800 
 43 H       -5.7120    -6.5240     0.7660 H     1 <1>   0.0800 
 44 H       -1.9150    -8.1080     0.4580 H     1 <1>   0.0800 
 45 H       -3.0360    -8.6160    -0.7980 H     1 <1>   0.0800 
 46 H       -5.4720    -9.3700     0.3230 H     1 <1>   0.0800 
 47 H       -5.5110    -8.5580     1.8790 H     1 <1>   0.0800 
 48 H       -5.1350    -8.0190    -1.8110 H     1 <1>   0.0800 
 49 H       -5.6380    -6.3610    -1.7090 H     1 <1>   0.0800 
 50 H       -7.9520    -5.8400    -0.6040 H     1 <1>   0.1500 
 51 H       -6.8250    -9.7890    -1.7440 H     1 <1>   0.1500 
 52 H      -10.2510    -6.6150    -0.5350 H     1 <1>   0.1500 
 53 H       -9.1700   -10.3950    -1.6240 H     1 <1>   0.1500 
@<TRIPOS>BOND
  1   1   2  1   
  2   2   3  ar  
  3   2   4  ar  
  4   3   5  1   
  5   3   6  ar  
  6   4   7  ar  
  7   4  27  1   
  8   5   8  1   
  9   5   9  1   
 10   6  10  ar  
 11   6  28  1   
 12   7  10  ar  
 13   7  29  1   
 14   8  11  1   
 15   8  30  1   
 16   8  31  1   
 17   9  12  1   
 18   9  32  1   
 19   9  33  1   
 20  10  34  1   
 21  11  13  1   
 22  11  35  1   
 23  11  36  1   
 24  12  13  1   
 25  12  37  1   
 26  12  38  1   
 27  13  14  1   
 28  13  39  1   
 29  14  15  1   
 30  14  40  1   
 31  14  41  1   
 32  15  16  1   
 33  15  17  1   
 34  15  42  1   
 35  16  18  1   
 36  16  19  1   
 37  16  43  1   
 38  17  20  1   
 39  17  44  1   
 40  17  45  1   
 41  18  20  1   
 42  18  46  1   
 43  18  47  1   
 44  19  21  1   
 45  19  48  1   
 46  19  49  1   
 47  21  22  ar  
 48  21  23  ar  
 49  22  24  ar  
 50  22  50  1   
 51  23  25  ar  
 52  23  51  1   
 53  24  26  ar  
 54  24  52  1   
 55  25  26  ar  
 56  25  53  1   
@<TRIPOS>SUBSTRUCTURE
  1 ****  15 GROUP 4 **** **** 0

# MOE 2024.06 (io_trps.svl 2023.06)
