@<TRIPOS>MOLECULE
NONAME
45 47 1 0 0 
SMALL
USER_CHARGES


@<TRIPOS>ATOM
  1 O       -0.2190     0.0920     0.2830 O.2   1 <1>  -0.5700 
  2 C       -1.2440     0.7250     0.4410 C.2   1 <1>   0.5440 
  3 N       -2.4430     0.0490     0.4560 N.am  1 <1>  -0.6600 
  4 C       -1.1860     2.1620     0.5910 C.ar  1 <1>   0.0860 
  5 C       -3.7620     0.6590     0.1400 C.3   1 <1>   0.1400 
  6 C       -2.5140    -1.4300     0.3350 C.3   1 <1>   0.1400 
  7 C       -1.8850     2.8070     1.6060 C.ar  1 <1>   0.1600 
  8 C       -0.4380     2.9600    -0.2600 C.ar  1 <1>  -0.1500 
  9 C       -4.5830    -0.4820    -0.4580 C.3   1 <1>   0.2000 
 10 C       -3.9970    -1.7530     0.1500 C.3   1 <1>  -0.0800 
 11 N       -1.9250     4.1120     1.8080 N.ar  1 <1>  -0.6200 
 12 C       -0.4500     4.3270    -0.0690 C.ar  1 <1>  -0.1430 
 13 O       -5.9260    -0.3680    -0.1390 O.3   1 <1>  -0.6800 
 14 C       -4.2510    -3.0060    -0.6990 C.3   1 <1>   0.0210 
 15 C       -1.2140     4.8510     0.9710 C.ar  1 <1>   0.1670 
 16 C        0.3760     5.2060    -1.0000 C.3   1 <1>  -0.0970 
 17 C       -3.5640    -4.2160    -0.0960 C.2   1 <1>   0.1080 
 18 C       -1.2780     6.3460     1.2300 C.3   1 <1>  -0.0970 
 19 N       -3.8600    -4.6800     1.0770 N.2   1 <1>  -0.7070 
 20 C       -2.5500    -4.9430    -0.7100 C.2   1 <1>  -0.1500 
 21 N       -3.0360    -5.7320     1.2450 N.pl3 1 <1>   0.3000 
 22 C       -2.2300    -5.9090     0.1770 C.2   1 <1>  -0.3320 
 23 C       -1.1890    -7.0070     0.0670 C.3   1 <1>  -0.0600 
 24 H       -4.2140     1.0140     1.0490 H     1 <1>   0.0800 
 25 H       -3.6560     1.4640    -0.5650 H     1 <1>   0.0800 
 26 H       -1.9410    -1.7410    -0.5220 H     1 <1>   0.0800 
 27 H       -2.1160    -1.9050     1.2160 H     1 <1>   0.0800 
 28 H       -2.4450     2.1970     2.2920 H     1 <1>   0.1500 
 29 H        0.1360     2.5000    -1.0450 H     1 <1>   0.1500 
 30 H       -4.4850    -0.4760    -1.5300 H     1 <1>   0.0800 
 31 H       -4.4090    -1.9060     1.1330 H     1 <1>   0.0800 
 32 H       -6.0640    -0.5410     0.8130 H     1 <1>   0.4000 
 33 H       -3.8930    -2.8550    -1.7010 H     1 <1>   0.0800 
 34 H       -5.3080    -3.2000    -0.7470 H     1 <1>   0.0800 
 35 H        1.0130     4.6080    -1.6280 H     1 <1>   0.0800 
 36 H        1.0000     5.8700    -0.4290 H     1 <1>   0.0800 
 37 H       -0.2730     5.7870    -1.6300 H     1 <1>   0.0800 
 38 H       -1.3400     6.8930     0.3090 H     1 <1>   0.0800 
 39 H       -0.4030     6.6540     1.7720 H     1 <1>   0.0800 
 40 H       -2.1460     6.5830     1.8180 H     1 <1>   0.0800 
 41 H       -2.1280    -4.7540    -1.6810 H     1 <1>   0.1500 
 42 H       -3.0480    -6.3050     2.0970 H     1 <1>   0.2700 
 43 H       -0.6770    -6.9380    -0.8760 H     1 <1>   0.0800 
 44 H       -1.6580    -7.9730     0.1330 H     1 <1>   0.0800 
 45 H       -0.4640    -6.9130     0.8570 H     1 <1>   0.0800 
@<TRIPOS>BOND
  1   1   2  2   
  2   2   3  am  
  3   2   4  1   
  4   3   5  1   
  5   3   6  1   
  6   4   7  ar  
  7   4   8  ar  
  8   5   9  1   
  9   5  24  1   
 10   5  25  1   
 11   6  10  1   
 12   6  26  1   
 13   6  27  1   
 14   7  11  ar  
 15   7  28  1   
 16   8  12  ar  
 17   8  29  1   
 18   9  10  1   
 19   9  13  1   
 20   9  30  1   
 21  10  14  1   
 22  10  31  1   
 23  11  15  ar  
 24  12  15  ar  
 25  12  16  1   
 26  13  32  1   
 27  14  17  1   
 28  14  33  1   
 29  14  34  1   
 30  15  18  1   
 31  16  35  1   
 32  16  36  1   
 33  16  37  1   
 34  17  19  2   
 35  17  20  1   
 36  18  38  1   
 37  18  39  1   
 38  18  40  1   
 39  19  21  1   
 40  20  22  2   
 41  20  41  1   
 42  21  22  1   
 43  21  42  1   
 44  22  23  1   
 45  23  43  1   
 46  23  44  1   
 47  23  45  1   
@<TRIPOS>SUBSTRUCTURE
  1 ****   3 GROUP 4 **** **** 0

# MOE 2024.06 (io_trps.svl 2023.06)
