@<TRIPOS>MOLECULE
NONAME
54 57 1 0 0 
SMALL
USER_CHARGES


@<TRIPOS>ATOM
  1 O        2.1690     0.3100    -1.1110 O.2   1 <1>  -0.5700 
  2 C        2.3850    -0.7570    -0.5860 C.2   1 <1>   0.5690 
  3 N        1.7210    -1.1940     0.5280 N.am  1 <1>  -0.6600 
  4 C        3.4460    -1.6520    -1.1810 C.3   1 <1>  -0.0990 
  5 C        2.1000    -2.4490     1.2320 C.3   1 <1>   0.1400 
  6 C        0.6730    -0.3730     1.1920 C.3   1 <1>   0.0600 
  7 C        2.9900    -3.1170    -1.1460 C.3   1 <1>  -0.0800 
  8 C        2.6390    -3.5500     0.2870 C.3   1 <1>  -0.0800 
  9 C        4.0900    -4.0800    -1.6270 C.3   1 <1>  -0.1600 
 10 C        3.9210    -4.2000     0.8160 C.3   1 <1>  -0.1600 
 11 C        4.5410    -4.8810    -0.3990 C.3   1 <1>   0.2200 
 12 N        6.0170    -5.0860    -0.2600 N.am  1 <1>  -0.6600 
 13 C        7.0100    -4.2150    -0.6740 C.2   1 <1>   0.5440 
 14 C        6.3850    -6.4950     0.0620 C.3   1 <1>   0.0600 
 15 O        8.0050    -4.6810    -1.1980 O.2   1 <1>  -0.5700 
 16 C        6.9290    -2.7780    -0.4980 C.ar  1 <1>   0.0860 
 17 C        6.8110    -2.2020     0.7660 C.ar  1 <1>  -0.1500 
 18 C        6.9880    -1.9110    -1.5890 C.ar  1 <1>  -0.1500 
 19 C        6.6930    -0.8350     0.9270 C.ar  1 <1>  -0.1500 
 20 C        6.8680    -0.5440    -1.4310 C.ar  1 <1>  -0.1500 
 21 C        6.7000     0.0190    -0.1700 C.ar  1 <1>   0.0000 
 22 C        6.5250     1.4400    -0.0060 C.ar  1 <1>   0.0000 
 23 C        7.5170     2.2270     0.5750 C.ar  1 <1>  -0.1500 
 24 C        5.3480     2.0610    -0.4220 C.ar  1 <1>  -0.1500 
 25 C        7.3410     3.5890     0.7360 C.ar  1 <1>  -0.1500 
 26 C        5.1640     3.4220    -0.2640 C.ar  1 <1>  -0.1500 
 27 C        6.1650     4.1840     0.3160 C.ar  1 <1>   0.0820 
 28 O        6.0010     5.5030     0.4770 O.3   1 <1>  -0.5330 
 29 H        3.6440    -1.3470    -2.1920 H     1 <1>   0.0800 
 30 H        4.3370    -1.5250    -0.6030 H     1 <1>   0.0800 
 31 H        2.8430    -2.1980     1.9690 H     1 <1>   0.0800 
 32 H        1.2420    -2.8340     1.7570 H     1 <1>   0.0800 
 33 H       -0.2400    -0.9370     1.2660 H     1 <1>   0.0800 
 34 H        0.4760     0.5230     0.6270 H     1 <1>   0.0800 
 35 H        1.0010    -0.0920     2.1780 H     1 <1>   0.0800 
 36 H        2.1180    -3.2100    -1.7720 H     1 <1>   0.0800 
 37 H        1.8900    -4.3210     0.2170 H     1 <1>   0.0800 
 38 H        4.8890    -3.5520    -2.1080 H     1 <1>   0.0800 
 39 H        3.6740    -4.7620    -2.3460 H     1 <1>   0.0800 
 40 H        3.7140    -4.9080     1.5990 H     1 <1>   0.0800 
 41 H        4.5780    -3.4410     1.1880 H     1 <1>   0.0800 
 42 H        4.0740    -5.8490    -0.4870 H     1 <1>   0.0800 
 43 H        5.8160    -6.8420     0.9060 H     1 <1>   0.0800 
 44 H        7.4320    -6.5620     0.3050 H     1 <1>   0.0800 
 45 H        6.1880    -7.1240    -0.7890 H     1 <1>   0.0800 
 46 H        6.8110    -2.8450     1.6280 H     1 <1>   0.1500 
 47 H        7.1250    -2.3290    -2.5720 H     1 <1>   0.1500 
 48 H        6.5870    -0.4150     1.9120 H     1 <1>   0.1500 
 49 H        6.9030     0.1030    -2.2900 H     1 <1>   0.1500 
 50 H        8.4310     1.7630     0.8990 H     1 <1>   0.1500 
 51 H        4.5690     1.4690    -0.8700 H     1 <1>   0.1500 
 52 H        8.1080     4.1950     1.1840 H     1 <1>   0.1500 
 53 H        4.2460     3.8760    -0.5920 H     1 <1>   0.1500 
 54 H        5.1410     5.8240     0.1530 H     1 <1>   0.4500 
@<TRIPOS>BOND
  1   1   2  2   
  2   2   3  am  
  3   2   4  1   
  4   3   5  1   
  5   3   6  1   
  6   4   7  1   
  7   4  29  1   
  8   4  30  1   
  9   5   8  1   
 10   5  31  1   
 11   5  32  1   
 12   6  33  1   
 13   6  34  1   
 14   6  35  1   
 15   7   8  1   
 16   7   9  1   
 17   7  36  1   
 18   8  10  1   
 19   8  37  1   
 20   9  11  1   
 21   9  38  1   
 22   9  39  1   
 23  10  11  1   
 24  10  40  1   
 25  10  41  1   
 26  11  12  1   
 27  11  42  1   
 28  12  13  am  
 29  12  14  1   
 30  13  15  2   
 31  13  16  1   
 32  14  43  1   
 33  14  44  1   
 34  14  45  1   
 35  16  17  ar  
 36  16  18  ar  
 37  17  19  ar  
 38  17  46  1   
 39  18  20  ar  
 40  18  47  1   
 41  19  21  ar  
 42  19  48  1   
 43  20  21  ar  
 44  20  49  1   
 45  21  22  1   
 46  22  23  ar  
 47  22  24  ar  
 48  23  25  ar  
 49  23  50  1   
 50  24  26  ar  
 51  24  51  1   
 52  25  27  ar  
 53  25  52  1   
 54  26  27  ar  
 55  26  53  1   
 56  27  28  1   
 57  28  54  1   
@<TRIPOS>SUBSTRUCTURE
  1 ****  19 GROUP 4 **** **** 0

# MOE 2024.06 (io_trps.svl 2023.06)
