@<TRIPOS>MOLECULE
NONAME
46 48 1 0 0 
SMALL
USER_CHARGES


@<TRIPOS>ATOM
  1 O       -0.4960    -1.2260    -0.5440 O.2   1 <1>  -0.5700 
  2 C        0.3710    -2.0370    -0.3540 C.2   1 <1>   0.5690 
  3 N        0.0910    -3.3410    -0.1500 N.am  1 <1>  -0.7300 
  4 C        1.8260    -1.6240    -0.3220 C.3   1 <1>  -0.0990 
  5 C        1.1200    -4.3680     0.1000 C.3   1 <1>   0.1400 
  6 C        2.6970    -2.6420    -1.0870 C.3   1 <1>  -0.0800 
  7 C        2.3290    -4.1260    -0.8280 C.3   1 <1>  -0.0800 
  8 C        4.1940    -2.5050    -0.7820 C.3   1 <1>  -0.1600 
  9 C        3.6180    -4.8000    -0.3360 C.3   1 <1>  -0.1600 
 10 C        4.7360    -3.9260    -0.8990 C.3   1 <1>   0.4230 
 11 N        6.0580    -4.1280    -0.2420 N.4   1 <1>  -0.9590 
 12 C        6.1600    -3.7750     1.2130 C.3   1 <1>   0.4860 
 13 C        6.6390    -5.4730    -0.5310 C.3   1 <1>   0.2630 
 14 C        6.7500    -2.3700     1.3540 C.ar  1 <1>   0.1670 
 15 N        7.4870    -1.9120     0.3560 N.ar  1 <1>  -0.6200 
 16 C        6.5100    -1.6130     2.4780 C.ar  1 <1>  -0.1500 
 17 C        7.9820    -0.6910     0.5150 C.ar  1 <1>   0.4770 
 18 C        7.0680    -0.3590     2.5290 C.ar  1 <1>   0.1600 
 19 N        7.8060     0.1110     1.5500 N.ar  1 <1>  -0.6200 
 20 C        8.8470    -0.1520    -0.6140 C.3   1 <1>  -0.0170 
 21 C       10.3000    -0.6410    -0.5170 C.3   1 <1>  -0.2400 
 22 H       -0.8960    -3.6110    -0.1360 H     1 <1>   0.3700 
 23 H        1.9280    -0.6460    -0.7560 H     1 <1>   0.0800 
 24 H        2.1190    -1.5660     0.7100 H     1 <1>   0.0800 
 25 H        1.4140    -4.3030     1.1340 H     1 <1>   0.0800 
 26 H        0.7060    -5.3470    -0.0760 H     1 <1>   0.0800 
 27 H        2.5450    -2.4590    -2.1400 H     1 <1>   0.0800 
 28 H        2.0760    -4.5580    -1.7830 H     1 <1>   0.0800 
 29 H        4.3120    -2.1230     0.2140 H     1 <1>   0.0800 
 30 H        4.6740    -1.8390    -1.4780 H     1 <1>   0.0800 
 31 H        3.6810    -5.8120    -0.6950 H     1 <1>   0.0800 
 32 H        3.6350    -4.7950     0.7390 H     1 <1>   0.0800 
 33 H        4.8290    -4.1490    -1.9510 H     1 <1>   0.0800 
 34 H        6.6920    -3.4160    -0.6570 H     1 <1>   0.4500 
 35 H        5.1950    -3.8180     1.6880 H     1 <1>   0.0800 
 36 H        6.8190    -4.4650     1.7110 H     1 <1>   0.0800 
 37 H        6.0450    -6.2460    -0.0720 H     1 <1>   0.0800 
 38 H        7.6460    -5.5340    -0.1490 H     1 <1>   0.0800 
 39 H        6.6680    -5.6450    -1.5950 H     1 <1>   0.0800 
 40 H        5.9130    -1.9690     3.2970 H     1 <1>   0.1500 
 41 H        6.9100     0.2740     3.3870 H     1 <1>   0.1500 
 42 H        8.4270    -0.4560    -1.5550 H     1 <1>   0.0800 
 43 H        8.8330     0.9240    -0.5850 H     1 <1>   0.0800 
 44 H       10.3380    -1.7140    -0.5670 H     1 <1>   0.0800 
 45 H       10.7320    -0.3220     0.4160 H     1 <1>   0.0800 
 46 H       10.8830    -0.2340    -1.3240 H     1 <1>   0.0800 
@<TRIPOS>BOND
  1   1   2  2   
  2   2   3  am  
  3   2   4  1   
  4   3   5  1   
  5   3  22  1   
  6   4   6  1   
  7   4  23  1   
  8   4  24  1   
  9   5   7  1   
 10   5  25  1   
 11   5  26  1   
 12   6   7  1   
 13   6   8  1   
 14   6  27  1   
 15   7   9  1   
 16   7  28  1   
 17   8  10  1   
 18   8  29  1   
 19   8  30  1   
 20   9  10  1   
 21   9  31  1   
 22   9  32  1   
 23  10  11  1   
 24  10  33  1   
 25  11  12  1   
 26  11  13  1   
 27  11  34  1   
 28  12  14  1   
 29  12  35  1   
 30  12  36  1   
 31  13  37  1   
 32  13  38  1   
 33  13  39  1   
 34  14  15  ar  
 35  14  16  ar  
 36  15  17  ar  
 37  16  18  ar  
 38  16  40  1   
 39  17  19  ar  
 40  17  20  1   
 41  18  19  ar  
 42  18  41  1   
 43  20  21  1   
 44  20  42  1   
 45  20  43  1   
 46  21  44  1   
 47  21  45  1   
 48  21  46  1   
@<TRIPOS>SUBSTRUCTURE
  1 ****   8 GROUP 4 **** **** 0

# MOE 2024.06 (io_trps.svl 2023.06)
