@<TRIPOS>MOLECULE
NONAME
46 49 1 0 0 
SMALL
USER_CHARGES


@<TRIPOS>ATOM
  1 O       -1.6890    -0.7280    -2.9950 O.2   1 <1>  -0.5700 
  2 C       -1.9310    -1.0550    -1.8660 C.2   1 <1>   0.5690 
  3 N       -1.9090    -0.1480    -0.8750 N.am  1 <1>  -0.7300 
  4 C       -2.3030    -2.4820    -1.5690 C.3   1 <1>  -0.0190 
  5 C       -2.2020    -0.4170     0.5510 C.3   1 <1>   0.2200 
  6 C       -1.3010    -3.1390    -0.5930 C.3   1 <1>   0.1200 
  7 C       -3.7860    -2.5250    -1.1730 C.3   1 <1>   0.3430 
  8 C       -1.2050    -1.4600     1.1190 C.3   1 <1>   0.1200 
  9 C       -3.6940    -0.8160     0.7340 C.3   1 <1>   0.3430 
 10 O       -1.5170    -2.7810     0.7480 O.3   1 <1>  -0.5600 
 11 N       -4.0410    -2.2100     0.2750 N.4   1 <1>  -0.9590 
 12 C       -5.3830    -2.6560     0.7300 C.3   1 <1>   0.4860 
 13 C       -5.4730    -4.1600     0.5440 C.ar  1 <1>  -0.1440 
 14 C       -6.3430    -4.6990    -0.3910 C.ar  1 <1>  -0.1500 
 15 C       -4.6740    -5.0110     1.2950 C.ar  1 <1>  -0.1500 
 16 C       -6.4010    -6.0670    -0.5800 C.ar  1 <1>  -0.1500 
 17 C       -4.7400    -6.3780     1.1000 C.ar  1 <1>  -0.1500 
 18 C       -5.6000    -6.9320     0.1590 C.ar  1 <1>   0.0000 
 19 C       -5.6610    -8.3610    -0.0440 C.ar  1 <1>   0.0000 
 20 C       -6.8500    -9.0680     0.1320 C.ar  1 <1>   0.1600 
 21 C       -4.5410    -9.0840    -0.4230 C.ar  1 <1>  -0.1500 
 22 N       -7.0070   -10.3710    -0.0360 N.ar  1 <1>  -0.6200 
 23 C       -4.6810   -10.4430    -0.6000 C.ar  1 <1>  -0.1500 
 24 C       -5.9190   -11.0300    -0.3980 C.ar  1 <1>   0.1600 
 25 H       -1.5950     0.7940    -1.1370 H     1 <1>   0.3700 
 26 H       -2.2150    -3.0080    -2.5030 H     1 <1>   0.0800 
 27 H       -2.0410     0.5060     1.0810 H     1 <1>   0.0800 
 28 H       -0.2860    -2.8920    -0.8590 H     1 <1>   0.0800 
 29 H       -1.4040    -4.2100    -0.6460 H     1 <1>   0.0800 
 30 H       -4.1410    -3.5220    -1.3790 H     1 <1>   0.0800 
 31 H       -4.3420    -1.8480    -1.8010 H     1 <1>   0.0800 
 32 H       -1.2360    -1.4290     2.1940 H     1 <1>   0.0800 
 33 H       -0.1960    -1.2370     0.8120 H     1 <1>   0.0800 
 34 H       -4.3090    -0.0980     0.2170 H     1 <1>   0.0800 
 35 H       -3.9210    -0.7400     1.7850 H     1 <1>   0.0800 
 36 H       -3.3520    -2.8170     0.7620 H     1 <1>   0.4500 
 37 H       -5.5210    -2.4220     1.7730 H     1 <1>   0.0800 
 38 H       -6.1550    -2.1640     0.1610 H     1 <1>   0.0800 
 39 H       -6.9830    -4.0660    -0.9830 H     1 <1>   0.1500 
 40 H       -3.9950    -4.6280     2.0390 H     1 <1>   0.1500 
 41 H       -7.0760    -6.4770    -1.3130 H     1 <1>   0.1500 
 42 H       -4.1200    -7.0340     1.6890 H     1 <1>   0.1500 
 43 H       -7.7220    -8.5150     0.4330 H     1 <1>   0.1500 
 44 H       -3.5950    -8.5970    -0.5750 H     1 <1>   0.1500 
 45 H       -3.8420   -11.0470    -0.8940 H     1 <1>   0.1500 
 46 H       -6.0190   -12.0930    -0.5410 H     1 <1>   0.1500 
@<TRIPOS>BOND
  1   1   2  2   
  2   2   3  am  
  3   2   4  1   
  4   3   5  1   
  5   3  25  1   
  6   4   6  1   
  7   4   7  1   
  8   4  26  1   
  9   5   8  1   
 10   5   9  1   
 11   5  27  1   
 12   6  10  1   
 13   6  28  1   
 14   6  29  1   
 15   7  11  1   
 16   7  30  1   
 17   7  31  1   
 18   8  10  1   
 19   8  32  1   
 20   8  33  1   
 21   9  11  1   
 22   9  34  1   
 23   9  35  1   
 24  11  12  1   
 25  11  36  1   
 26  12  13  1   
 27  12  37  1   
 28  12  38  1   
 29  13  14  ar  
 30  13  15  ar  
 31  14  16  ar  
 32  14  39  1   
 33  15  17  ar  
 34  15  40  1   
 35  16  18  ar  
 36  16  41  1   
 37  17  18  ar  
 38  17  42  1   
 39  18  19  1   
 40  19  20  ar  
 41  19  21  ar  
 42  20  22  ar  
 43  20  43  1   
 44  21  23  ar  
 45  21  44  1   
 46  22  24  ar  
 47  23  24  ar  
 48  23  45  1   
 49  24  46  1   
@<TRIPOS>SUBSTRUCTURE
  1 ****  15 GROUP 4 **** **** 0

# MOE 2024.06 (io_trps.svl 2023.06)
