@<TRIPOS>MOLECULE
NONAME
50 52 1 0 0 
SMALL
USER_CHARGES


@<TRIPOS>ATOM
  1 CL      -0.2390     0.5800     2.1560 Cl    1 <1>  -0.1770 
  2 C       -0.3980     2.1090     1.3290 C.ar  1 <1>   0.1770 
  3 C       -1.6500     2.5640     0.9760 C.ar  1 <1>  -0.1500 
  4 C        0.7390     2.8400     1.0460 C.ar  1 <1>  -0.1500 
  5 C       -1.7900     3.7820     0.3180 C.ar  1 <1>   0.1170 
  6 C        0.6110     4.0540     0.3940 C.ar  1 <1>  -0.1500 
  7 N       -3.0510     4.2820    -0.0370 N.am  1 <1>  -0.5470 
  8 C       -0.6410     4.5280     0.0290 C.ar  1 <1>  -0.1430 
  9 C       -4.2320     3.6540    -0.3150 C.2   1 <1>   0.6900 
 10 C       -0.7340     5.8670    -0.6940 C.3   1 <1>  -0.0960 
 11 O       -4.2940     2.4440    -0.4160 O.2   1 <1>  -0.5700 
 12 N       -5.3520     4.4200    -0.5120 N.am  1 <1>  -0.6600 
 13 C       -5.5090     5.8040     0.0270 C.3   1 <1>   0.1400 
 14 C       -6.5570     3.7990    -1.1350 C.3   1 <1>   0.1400 
 15 C       -6.9180     5.9650     0.5950 C.3   1 <1>  -0.1600 
 16 C       -7.5170     4.8820    -1.6330 C.3   1 <1>  -0.1600 
 17 C       -8.0080     5.8100    -0.4970 C.3   1 <1>   0.2800 
 18 O       -8.1520     7.0540    -1.1200 O.3   1 <1>  -0.5600 
 19 C       -9.3590     5.2900     0.0830 C.3   1 <1>  -0.1600 
 20 C       -8.8500     8.1230    -0.5190 C.3   1 <1>   0.1200 
 21 C      -10.5110     6.3080     0.1010 C.3   1 <1>   0.2800 
 22 C       -9.9590     7.7030     0.4620 C.3   1 <1>   0.2000 
 23 O      -11.0670     6.3620    -1.1640 O.3   1 <1>  -0.6800 
 24 C      -11.6460     5.8570     1.0260 C.3   1 <1>  -0.2400 
 25 O       -9.4350     7.7010     1.7580 O.3   1 <1>  -0.6800 
 26 H       -2.5100     1.9690     1.2170 H     1 <1>   0.1500 
 27 H        1.7040     2.4620     1.3320 H     1 <1>   0.1500 
 28 H        1.4970     4.6230     0.1720 H     1 <1>   0.1500 
 29 H       -3.0740     5.2660    -0.2740 H     1 <1>   0.3700 
 30 H        0.2440     6.2660    -0.8950 H     1 <1>   0.0800 
 31 H       -1.2690     6.5780    -0.0900 H     1 <1>   0.0800 
 32 H       -1.2430     5.7440    -1.6330 H     1 <1>   0.0800 
 33 H       -4.7920     5.9830     0.8090 H     1 <1>   0.0800 
 34 H       -5.3480     6.5180    -0.7640 H     1 <1>   0.0800 
 35 H       -6.2490     3.1800    -1.9610 H     1 <1>   0.0800 
 36 H       -7.0450     3.1710    -0.4100 H     1 <1>   0.0800 
 37 H       -6.9880     6.9210     1.0760 H     1 <1>   0.0800 
 38 H       -7.0320     5.2130     1.3540 H     1 <1>   0.0800 
 39 H       -8.3440     4.4240    -2.1410 H     1 <1>   0.0800 
 40 H       -6.9880     5.4590    -2.3720 H     1 <1>   0.0800 
 41 H       -9.6870     4.4020    -0.4260 H     1 <1>   0.0800 
 42 H       -9.1910     4.9720     1.0940 H     1 <1>   0.0800 
 43 H       -8.1400     8.7740    -0.0400 H     1 <1>   0.0800 
 44 H       -9.3040     8.6660    -1.3290 H     1 <1>   0.0800 
 45 H      -10.7530     8.4290     0.4520 H     1 <1>   0.0800 
 46 H      -11.3830     5.4790    -1.4260 H     1 <1>   0.4000 
 47 H      -11.2980     5.7980     2.0420 H     1 <1>   0.0800 
 48 H      -12.0140     4.8890     0.7400 H     1 <1>   0.0800 
 49 H      -12.4520     6.5680     0.9950 H     1 <1>   0.0800 
 50 H       -8.6930     7.0710     1.8060 H     1 <1>   0.4000 
@<TRIPOS>BOND
  1   1   2  1   
  2   2   3  ar  
  3   2   4  ar  
  4   3   5  ar  
  5   3  26  1   
  6   4   6  ar  
  7   4  27  1   
  8   5   7  1   
  9   5   8  ar  
 10   6   8  ar  
 11   6  28  1   
 12   7   9  am  
 13   7  29  1   
 14   8  10  1   
 15   9  11  2   
 16   9  12  am  
 17  10  30  1   
 18  10  31  1   
 19  10  32  1   
 20  12  13  1   
 21  12  14  1   
 22  13  15  1   
 23  13  33  1   
 24  13  34  1   
 25  14  16  1   
 26  14  35  1   
 27  14  36  1   
 28  15  17  1   
 29  15  37  1   
 30  15  38  1   
 31  16  17  1   
 32  16  39  1   
 33  16  40  1   
 34  17  18  1   
 35  17  19  1   
 36  18  20  1   
 37  19  21  1   
 38  19  41  1   
 39  19  42  1   
 40  20  22  1   
 41  20  43  1   
 42  20  44  1   
 43  21  22  1   
 44  21  23  1   
 45  21  24  1   
 46  22  25  1   
 47  22  45  1   
 48  23  46  1   
 49  24  47  1   
 50  24  48  1   
 51  24  49  1   
 52  25  50  1   
@<TRIPOS>SUBSTRUCTURE
  1 ****  12 GROUP 4 **** **** 0

# MOE 2024.06 (io_trps.svl 2023.06)
