@<TRIPOS>MOLECULE
NONAME
51 54 1 0 0 
SMALL
USER_CHARGES


@<TRIPOS>ATOM
  1 O       -2.9140     1.0020    -1.4840 O.2   1 <1>  -0.5700 
  2 C       -1.8640     1.5430    -1.1720 C.2   1 <1>   0.5440 
  3 N       -0.9990     0.8120    -0.3750 N.am  1 <1>  -0.6600 
  4 C       -1.5850     2.8930    -1.6720 C.ar  1 <1>   0.3960 
  5 C       -1.3330    -0.5330     0.1440 C.3   1 <1>   0.1400 
  6 C        0.3750     1.2020     0.0150 C.3   1 <1>   0.1400 
  7 N       -0.7720     3.7320    -1.0060 N.ar  1 <1>  -0.6200 
  8 C       -2.1990     3.2820    -2.8680 C.ar  1 <1>   0.1600 
  9 C       -0.1880    -0.8860     1.0860 C.3   1 <1>  -0.1600 
 10 C        0.9970    -0.0720     0.5750 C.3   1 <1>  -0.1600 
 11 C       -0.6150     4.9100    -1.5840 C.ar  1 <1>   0.4100 
 12 N       -2.0600     4.4580    -3.4660 N.ar  1 <1>  -0.6200 
 13 N        0.2320     5.8100    -0.9530 N.pl3 1 <1>  -0.8380 
 14 C       -1.2600     5.2500    -2.7830 C.ar  1 <1>   0.1600 
 15 C        0.4940     5.6790     0.5190 C.3   1 <1>   0.2090 
 16 C        1.4530     6.2780    -1.6790 C.3   1 <1>   0.2090 
 17 C        1.0240     6.9960     1.1240 C.3   1 <1>   0.2090 
 18 C        1.9620     7.6190    -1.1130 C.3   1 <1>   0.2090 
 19 N        2.2000     7.5530     0.3670 N.pl3 1 <1>  -0.8380 
 20 C        3.4910     7.2720     0.7910 C.ar  1 <1>   0.4100 
 21 N        3.6560     6.0340     1.2610 N.ar  1 <1>  -0.6200 
 22 C        4.5400     8.2140     0.6900 C.ar  1 <1>   0.0860 
 23 C        4.8760     5.6880     1.6160 C.ar  1 <1>   0.1600 
 24 C        4.3440     9.5720     0.2330 C.2   1 <1>   0.5440 
 25 C        5.8120     7.7980     1.0630 C.ar  1 <1>  -0.1500 
 26 C        5.9780     6.5170     1.5330 C.ar  1 <1>  -0.1500 
 27 O        5.2180    10.1770    -0.3530 O.2   1 <1>  -0.5700 
 28 N        3.1960    10.2520     0.4420 N.am  1 <1>  -0.8000 
 29 H       -1.3760    -1.2250    -0.6800 H     1 <1>   0.0800 
 30 H       -2.2820    -0.5200     0.6540 H     1 <1>   0.0800 
 31 H        0.3200     1.9590     0.7790 H     1 <1>   0.0800 
 32 H        0.9290     1.5760    -0.8280 H     1 <1>   0.0800 
 33 H       -2.8430     2.5720    -3.3570 H     1 <1>   0.1500 
 34 H        0.0110    -1.9430     1.0950 H     1 <1>   0.0800 
 35 H       -0.4470    -0.5690     2.0810 H     1 <1>   0.0800 
 36 H        1.7150     0.1400     1.3470 H     1 <1>   0.0800 
 37 H        1.4860    -0.6010    -0.2250 H     1 <1>   0.0800 
 38 H       -1.0920     6.2360    -3.1710 H     1 <1>   0.1500 
 39 H        1.2180     4.9000     0.6830 H     1 <1>   0.0800 
 40 H       -0.4140     5.3990     1.0250 H     1 <1>   0.0800 
 41 H        1.2420     6.3920    -2.7270 H     1 <1>   0.0800 
 42 H        2.2290     5.5400    -1.5730 H     1 <1>   0.0800 
 43 H        1.3010     6.8240     2.1500 H     1 <1>   0.0800 
 44 H        0.2300     7.7200     1.1180 H     1 <1>   0.0800 
 45 H        1.2360     8.3840    -1.3200 H     1 <1>   0.0800 
 46 H        2.8750     7.8850    -1.6180 H     1 <1>   0.0800 
 47 H        5.0120     4.6880     1.9930 H     1 <1>   0.1500 
 48 H        6.6470     8.4750     0.9880 H     1 <1>   0.1500 
 49 H        6.9480     6.1630     1.8350 H     1 <1>   0.1500 
 50 H        3.0820    11.1900     0.0600 H     1 <1>   0.3700 
 51 H        2.3540     9.7360     0.7170 H     1 <1>   0.3700 
@<TRIPOS>BOND
  1   1   2  2   
  2   2   3  am  
  3   2   4  1   
  4   3   5  1   
  5   3   6  1   
  6   4   7  ar  
  7   4   8  ar  
  8   5   9  1   
  9   5  29  1   
 10   5  30  1   
 11   6  10  1   
 12   6  31  1   
 13   6  32  1   
 14   7  11  ar  
 15   8  12  ar  
 16   8  33  1   
 17   9  10  1   
 18   9  34  1   
 19   9  35  1   
 20  10  36  1   
 21  10  37  1   
 22  11  13  1   
 23  11  14  ar  
 24  12  14  ar  
 25  13  15  1   
 26  13  16  1   
 27  14  38  1   
 28  15  17  1   
 29  15  39  1   
 30  15  40  1   
 31  16  18  1   
 32  16  41  1   
 33  16  42  1   
 34  17  19  1   
 35  17  43  1   
 36  17  44  1   
 37  18  19  1   
 38  18  45  1   
 39  18  46  1   
 40  19  20  1   
 41  20  21  ar  
 42  20  22  ar  
 43  21  23  ar  
 44  22  24  1   
 45  22  25  ar  
 46  23  26  ar  
 47  23  47  1   
 48  24  27  2   
 49  24  28  am  
 50  25  26  ar  
 51  25  48  1   
 52  26  49  1   
 53  28  50  1   
 54  28  51  1   
@<TRIPOS>SUBSTRUCTURE
  1 ****  15 GROUP 4 **** **** 0

# MOE 2024.06 (io_trps.svl 2023.06)
