@<TRIPOS>MOLECULE
NONAME
53 55 1 0 0 
SMALL
USER_CHARGES


@<TRIPOS>ATOM
  1 O       -0.0820     0.7140    -2.9260 O.2   1 <1>  -0.5700 
  2 C        0.3630    -0.2890    -2.4200 C.2   1 <1>   0.5690 
  3 N        1.6520    -0.3970    -2.0250 N.am  1 <1>  -0.7300 
  4 C       -0.5530    -1.4880    -2.1550 C.3   1 <1>   0.1710 
  5 C        2.5760     0.7210    -1.7980 C.3   1 <1>   0.2840 
  6 N       -0.0970    -2.3500    -1.0200 N.3   1 <1>  -0.8100 
  7 C        2.9200     0.7260    -0.3150 C.ar  1 <1>  -0.1430 
  8 C       -0.8240    -3.6360    -1.0080 C.3   1 <1>   0.1100 
  9 C       -0.2460    -1.6560     0.2730 C.3   1 <1>   0.1100 
 10 C        2.1990     1.4710     0.6150 C.ar  1 <1>  -0.1430 
 11 C        3.9790    -0.0620     0.1150 C.ar  1 <1>  -0.1500 
 12 C       -0.2630    -4.5700     0.0760 C.3   1 <1>   0.2000 
 13 C        0.3560    -2.5100     1.3930 C.3   1 <1>  -0.1600 
 14 C        2.5510     1.4140     1.9550 C.ar  1 <1>  -0.1500 
 15 C        1.0250     2.3500     0.2020 C.3   1 <1>  -0.0970 
 16 C        4.3240    -0.1130     1.4530 C.ar  1 <1>  -0.1500 
 17 O       -1.0540    -5.7170     0.1010 O.3   1 <1>  -0.5600 
 18 C       -0.3000    -3.8980     1.4570 C.3   1 <1>  -0.1600 
 19 C        3.6080     0.6270     2.3750 C.ar  1 <1>  -0.1500 
 20 C       -0.4150    -6.8650     0.5950 C.3   1 <1>   0.2640 
 21 C       -1.3220    -8.0940     0.5680 C.ar  1 <1>   0.1670 
 22 N       -0.7460    -9.2260     0.9560 N.ar  1 <1>  -0.6200 
 23 C       -2.6490    -8.0090     0.1630 C.ar  1 <1>  -0.1500 
 24 C       -1.5160   -10.3020     0.9400 C.ar  1 <1>   0.1600 
 25 C       -3.4390    -9.1390     0.1520 C.ar  1 <1>  -0.1500 
 26 C       -2.8450   -10.3150     0.5540 C.ar  1 <1>  -0.1500 
 27 H        1.8550    -1.2380    -1.4730 H     1 <1>   0.3700 
 28 H       -0.5760    -2.0720    -3.0570 H     1 <1>   0.0800 
 29 H       -1.5490    -1.1290    -1.9640 H     1 <1>   0.0800 
 30 H        2.1240     1.6500    -2.1020 H     1 <1>   0.0800 
 31 H        3.4640     0.5740    -2.3880 H     1 <1>   0.0800 
 32 H       -0.7150    -4.1180    -1.9630 H     1 <1>   0.0800 
 33 H       -1.8690    -3.4600    -0.8220 H     1 <1>   0.0800 
 34 H       -1.2890    -1.4700     0.4730 H     1 <1>   0.0800 
 35 H        0.2660    -0.7090     0.2510 H     1 <1>   0.0800 
 36 H        4.5420    -0.6440    -0.5930 H     1 <1>   0.1500 
 37 H        0.7450    -4.8370    -0.1950 H     1 <1>   0.0800 
 38 H        0.2250    -2.0040     2.3330 H     1 <1>   0.0800 
 39 H        1.4130    -2.6090     1.2200 H     1 <1>   0.0800 
 40 H        2.0040     1.9850     2.6840 H     1 <1>   0.1500 
 41 H        0.3040     1.7760    -0.3520 H     1 <1>   0.0800 
 42 H        1.3710     3.1600    -0.4130 H     1 <1>   0.0800 
 43 H        0.5320     2.7650     1.0620 H     1 <1>   0.0800 
 44 H        5.1470    -0.7260     1.7760 H     1 <1>   0.1500 
 45 H        0.2180    -4.4990     2.1810 H     1 <1>   0.0800 
 46 H       -1.3250    -3.7870     1.7650 H     1 <1>   0.0800 
 47 H        3.8720     0.5910     3.4170 H     1 <1>   0.1500 
 48 H       -0.1080    -6.6830     1.6090 H     1 <1>   0.0800 
 49 H        0.4530    -7.0590    -0.0100 H     1 <1>   0.0800 
 50 H       -3.0660    -7.0660    -0.1410 H     1 <1>   0.1500 
 51 H       -1.0630   -11.2270     1.2520 H     1 <1>   0.1500 
 52 H       -4.4690    -9.1010    -0.1570 H     1 <1>   0.1500 
 53 H       -3.4040   -11.2330     0.5690 H     1 <1>   0.1500 
@<TRIPOS>BOND
  1   1   2  2   
  2   2   3  am  
  3   2   4  1   
  4   3   5  1   
  5   3  27  1   
  6   4   6  1   
  7   4  28  1   
  8   4  29  1   
  9   5   7  1   
 10   5  30  1   
 11   5  31  1   
 12   6   8  1   
 13   6   9  1   
 14   7  10  ar  
 15   7  11  ar  
 16   8  12  1   
 17   8  32  1   
 18   8  33  1   
 19   9  13  1   
 20   9  34  1   
 21   9  35  1   
 22  10  14  ar  
 23  10  15  1   
 24  11  16  ar  
 25  11  36  1   
 26  12  17  1   
 27  12  18  1   
 28  12  37  1   
 29  13  18  1   
 30  13  38  1   
 31  13  39  1   
 32  14  19  ar  
 33  14  40  1   
 34  15  41  1   
 35  15  42  1   
 36  15  43  1   
 37  16  19  ar  
 38  16  44  1   
 39  17  20  1   
 40  18  45  1   
 41  18  46  1   
 42  19  47  1   
 43  20  21  1   
 44  20  48  1   
 45  20  49  1   
 46  21  22  ar  
 47  21  23  ar  
 48  22  24  ar  
 49  23  25  ar  
 50  23  50  1   
 51  24  26  ar  
 52  24  51  1   
 53  25  26  ar  
 54  25  52  1   
 55  26  53  1   
@<TRIPOS>SUBSTRUCTURE
  1 ****   6 GROUP 4 **** **** 0

# MOE 2024.06 (io_trps.svl 2023.06)
