@<TRIPOS>MOLECULE
NONAME
46 48 1 0 0 
SMALL
USER_CHARGES


@<TRIPOS>ATOM
  1 CL      -0.0040    -0.7380     1.0420 Cl    1 <1>  -0.1770 
  2 C       -1.0380    -2.0490     0.5240 C.ar  1 <1>   0.1770 
  3 C       -2.4030    -1.9160     0.6220 C.ar  1 <1>  -0.1500 
  4 C       -0.4380    -3.2070     0.0190 C.ar  1 <1>  -0.1500 
  5 C       -3.1980    -2.9790     0.2010 C.ar  1 <1>   0.2270 
  6 C       -1.2220    -4.2600    -0.3990 C.ar  1 <1>  -0.1500 
  7 N       -4.5560    -3.0960     0.2000 N.2   1 <1>  -0.5650 
  8 C       -2.6100    -4.1280    -0.3020 C.ar  1 <1>  -0.1520 
  9 C       -4.7710    -4.2700    -0.2870 C.2   1 <1>   0.0060 
 10 N       -3.6440    -4.9480    -0.6130 N.pl3 1 <1>   0.0330 
 11 C       -6.1350    -4.9020    -0.5030 C.3   1 <1>   0.2900 
 12 N       -6.0720    -6.3620    -0.2760 N.3   1 <1>  -0.8100 
 13 C       -7.2320    -7.0600    -0.9060 C.3   1 <1>   0.1710 
 14 C       -5.9320    -6.6760     1.1550 C.3   1 <1>   0.0300 
 15 C       -7.1660    -8.5990    -0.9080 C.2   1 <1>   0.5690 
 16 O       -6.4870    -9.1210    -1.7650 O.2   1 <1>  -0.5700 
 17 N       -7.8760    -9.3570    -0.0030 N.am  1 <1>  -0.6600 
 18 C       -8.7430    -8.8330     1.0850 C.3   1 <1>   0.1400 
 19 C       -7.8480   -10.8400    -0.0830 C.3   1 <1>   0.1400 
 20 C      -10.2170    -8.8140     0.6650 C.3   1 <1>  -0.1600 
 21 C       -8.8780   -11.3670    -1.0900 C.3   1 <1>  -0.1600 
 22 C      -10.7830   -10.1700     0.2040 C.3   1 <1>  -0.1600 
 23 C      -10.2230   -10.6190    -1.1560 C.3   1 <1>  -0.1600 
 24 H       -2.8630    -1.0280     1.0100 H     1 <1>   0.1500 
 25 H        0.6350    -3.2560    -0.0340 H     1 <1>   0.1500 
 26 H       -0.7880    -5.1640    -0.7910 H     1 <1>   0.1500 
 27 H       -3.6280    -5.9130    -0.9570 H     1 <1>   0.2700 
 28 H       -6.4300    -4.7050    -1.5190 H     1 <1>   0.0800 
 29 H       -6.8580    -4.4480     0.1530 H     1 <1>   0.0800 
 30 H       -7.2800    -6.7660    -1.9390 H     1 <1>   0.0800 
 31 H       -8.1460    -6.7340    -0.4470 H     1 <1>   0.0800 
 32 H       -5.0500    -6.2050     1.5560 H     1 <1>   0.0800 
 33 H       -5.8320    -7.7390     1.2940 H     1 <1>   0.0800 
 34 H       -6.7870    -6.3240     1.7060 H     1 <1>   0.0800 
 35 H       -8.4390    -7.8420     1.3630 H     1 <1>   0.0800 
 36 H       -8.6280    -9.4520     1.9590 H     1 <1>   0.0800 
 37 H       -8.0510   -11.2570     0.8880 H     1 <1>   0.0800 
 38 H       -6.8640   -11.1700    -0.3730 H     1 <1>   0.0800 
 39 H      -10.3520    -8.0830    -0.1130 H     1 <1>   0.0800 
 40 H      -10.7920    -8.4790     1.5100 H     1 <1>   0.0800 
 41 H       -9.0620   -12.4000    -0.8580 H     1 <1>   0.0800 
 42 H       -8.4310   -11.3450    -2.0690 H     1 <1>   0.0800 
 43 H      -11.8490   -10.0590     0.1000 H     1 <1>   0.0800 
 44 H      -10.6140   -10.9280     0.9500 H     1 <1>   0.0800 
 45 H      -10.9390   -11.2690    -1.6290 H     1 <1>   0.0800 
 46 H      -10.1150    -9.7590    -1.7950 H     1 <1>   0.0800 
@<TRIPOS>BOND
  1   1   2  1   
  2   2   3  ar  
  3   2   4  ar  
  4   3   5  ar  
  5   3  24  1   
  6   4   6  ar  
  7   4  25  1   
  8   5   7  1   
  9   5   8  ar  
 10   6   8  ar  
 11   6  26  1   
 12   7   9  2   
 13   8  10  1   
 14   9  10  1   
 15   9  11  1   
 16  10  27  1   
 17  11  12  1   
 18  11  28  1   
 19  11  29  1   
 20  12  13  1   
 21  12  14  1   
 22  13  15  1   
 23  13  30  1   
 24  13  31  1   
 25  14  32  1   
 26  14  33  1   
 27  14  34  1   
 28  15  16  2   
 29  15  17  am  
 30  17  18  1   
 31  17  19  1   
 32  18  20  1   
 33  18  35  1   
 34  18  36  1   
 35  19  21  1   
 36  19  37  1   
 37  19  38  1   
 38  20  22  1   
 39  20  39  1   
 40  20  40  1   
 41  21  23  1   
 42  21  41  1   
 43  21  42  1   
 44  22  23  1   
 45  22  43  1   
 46  22  44  1   
 47  23  45  1   
 48  23  46  1   
@<TRIPOS>SUBSTRUCTURE
  1 ****  12 GROUP 4 **** **** 0

# MOE 2024.06 (io_trps.svl 2023.06)
