@<TRIPOS>MOLECULE
NONAME
45 47 1 0 0 
SMALL
USER_CHARGES


@<TRIPOS>ATOM
  1 S       -0.5270     0.4010     0.3970 S.o2  1 <1>   1.0900 
  2 O       -0.8960     1.6410     1.0380 O.2   1 <1>  -0.6500 
  3 O        0.8530     0.0090     0.2290 O.2   1 <1>  -0.6500 
  4 C       -1.3790    -0.9630     1.1320 C.3   1 <1>  -0.0550 
  5 C       -1.3410     0.2420    -1.1850 C.3   1 <1>  -0.0550 
  6 C       -1.5600    -1.9510    -0.0170 C.3   1 <1>   0.1760 
  7 C       -2.0160    -1.1400    -1.2490 C.3   1 <1>  -0.1600 
  8 N       -2.5330    -3.0170     0.3250 N.pl3 1 <1>   0.3140 
  9 N       -3.7310    -2.7170     0.8600 N.2   1 <1>  -0.7070 
 10 C       -2.3990    -4.3530     0.1240 C.2   1 <1>  -0.3320 
 11 C       -4.3370    -3.8560     0.9840 C.2   1 <1>   0.1080 
 12 C       -3.5530    -4.9230     0.5350 C.2   1 <1>   0.0630 
 13 C       -1.1660    -5.0200    -0.4730 C.3   1 <1>  -0.0600 
 14 C       -5.7290    -3.9510     1.5680 C.3   1 <1>  -0.0590 
 15 N       -3.8430    -6.3100     0.5130 N.am  1 <1>  -0.4930 
 16 C       -4.9690    -6.9780     0.1020 C.2   1 <1>   0.5440 
 17 O       -5.9370    -6.3450    -0.2850 O.2   1 <1>  -0.5700 
 18 C       -4.9730    -8.4400     0.1290 C.ar  1 <1>   0.3960 
 19 N       -3.8470    -9.0800     0.5050 N.ar  1 <1>  -0.6200 
 20 C       -6.1210    -9.1440    -0.2280 C.ar  1 <1>  -0.1500 
 21 C       -3.8840   -10.4010     0.5200 C.ar  1 <1>   0.1600 
 22 C       -6.1450   -10.5200    -0.2060 C.ar  1 <1>   0.0820 
 23 C       -4.9840   -11.1630     0.1810 C.ar  1 <1>  -0.1500 
 24 O       -7.2890   -11.1440    -0.5610 O.3   1 <1>  -0.3630 
 25 C       -7.3940   -12.5510    -0.5690 C.3   1 <1>   0.0400 
 26 H       -2.3370    -0.6360     1.4910 H     1 <1>   0.0800 
 27 H       -0.8170    -1.3930     1.9380 H     1 <1>   0.0800 
 28 H       -0.6230     0.3490    -1.9780 H     1 <1>   0.0800 
 29 H       -2.0850     1.0080    -1.2960 H     1 <1>   0.0800 
 30 H       -0.6070    -2.4020    -0.2270 H     1 <1>   0.0800 
 31 H       -1.7610    -1.6550    -2.1600 H     1 <1>   0.0800 
 32 H       -3.0840    -1.0030    -1.2150 H     1 <1>   0.0800 
 33 H       -0.9650    -4.6200    -1.4510 H     1 <1>   0.0800 
 34 H       -1.3190    -6.0790    -0.5700 H     1 <1>   0.0800 
 35 H       -0.3110    -4.8560     0.1580 H     1 <1>   0.0800 
 36 H       -5.8980    -3.1360     2.2470 H     1 <1>   0.0800 
 37 H       -5.8480    -4.8780     2.0970 H     1 <1>   0.0800 
 38 H       -6.4520    -3.9030     0.7750 H     1 <1>   0.0800 
 39 H       -3.0630    -6.9290     0.7400 H     1 <1>   0.3700 
 40 H       -7.0050    -8.6110    -0.5250 H     1 <1>   0.1500 
 41 H       -2.9830   -10.9090     0.8210 H     1 <1>   0.1500 
 42 H       -4.9180   -12.2330     0.2250 H     1 <1>   0.1500 
 43 H       -8.3900   -12.8080    -0.8850 H     1 <1>   0.0800 
 44 H       -7.2200   -12.9210     0.4250 H     1 <1>   0.0800 
 45 H       -6.6770   -12.9520    -1.2630 H     1 <1>   0.0800 
@<TRIPOS>BOND
  1   1   2  2   
  2   1   3  2   
  3   1   4  1   
  4   1   5  1   
  5   4   6  1   
  6   4  26  1   
  7   4  27  1   
  8   5   7  1   
  9   5  28  1   
 10   5  29  1   
 11   6   7  1   
 12   6   8  1   
 13   6  30  1   
 14   7  31  1   
 15   7  32  1   
 16   8   9  1   
 17   8  10  1   
 18   9  11  2   
 19  10  12  2   
 20  10  13  1   
 21  11  12  1   
 22  11  14  1   
 23  12  15  1   
 24  13  33  1   
 25  13  34  1   
 26  13  35  1   
 27  14  36  1   
 28  14  37  1   
 29  14  38  1   
 30  15  16  am  
 31  15  39  1   
 32  16  17  2   
 33  16  18  1   
 34  18  19  ar  
 35  18  20  ar  
 36  19  21  ar  
 37  20  22  ar  
 38  20  40  1   
 39  21  23  ar  
 40  21  41  1   
 41  22  23  ar  
 42  22  24  1   
 43  23  42  1   
 44  24  25  1   
 45  25  43  1   
 46  25  44  1   
 47  25  45  1   
@<TRIPOS>SUBSTRUCTURE
  1 ****  12 GROUP 4 **** **** 0

# MOE 2024.06 (io_trps.svl 2023.06)
