@<TRIPOS>MOLECULE
NONAME
55 58 1 0 0 
SMALL
USER_CHARGES


@<TRIPOS>ATOM
  1 S       -1.2720    -0.8880     0.0270 S.3   1 <1>  -0.3320 
  2 C       -1.0820     0.8970    -0.1150 C.ar  1 <1>   0.1020 
  3 C       -1.3060    -1.2640     1.8470 C.3   1 <1>   0.1310 
  4 C       -1.3470     1.4650    -1.3460 C.ar  1 <1>  -0.1500 
  5 C       -0.6840     1.6780     0.9600 C.ar  1 <1>  -0.1500 
  6 C       -1.7760    -2.6910     2.0880 C.2   1 <1>   0.5690 
  7 C       -1.2200     2.8340    -1.5170 C.ar  1 <1>   0.0830 
  8 C       -0.5590     3.0470     0.7910 C.ar  1 <1>  -0.1500 
  9 O       -0.9430    -3.5140     2.3940 O.2   1 <1>  -0.5700 
 10 N       -3.1040    -3.0210     1.9910 N.am  1 <1>  -0.6600 
 11 O       -1.4950     3.3250    -2.7520 O.3   1 <1>  -0.3630 
 12 C       -0.8260     3.6250    -0.4390 C.ar  1 <1>  -0.1500 
 13 C       -4.2110    -2.1270     1.5740 C.3   1 <1>   0.1400 
 14 C       -3.5800    -4.4160     2.0400 C.3   1 <1>   0.1400 
 15 C       -1.3710     4.7000    -3.0410 C.3   1 <1>   0.0400 
 16 C       -5.2400    -3.0430     0.8950 C.3   1 <1>  -0.0800 
 17 C       -4.6830    -4.4840     0.9840 C.3   1 <1>  -0.0800 
 18 C       -5.6740    -2.5830    -0.5220 C.3   1 <1>   0.4240 
 19 C       -4.1450    -5.0060    -0.3600 C.3   1 <1>  -0.1600 
 20 O       -4.5640    -2.1600    -1.2320 O.3   1 <1>  -0.6800 
 21 C       -6.6820    -1.4190    -0.4210 C.ar  1 <1>  -0.1440 
 22 C       -6.2210    -3.7870    -1.3080 C.3   1 <1>  -0.1600 
 23 C       -5.1970    -4.9330    -1.4840 C.3   1 <1>  -0.1600 
 24 C       -7.9880    -1.6570     0.0010 C.ar  1 <1>  -0.1500 
 25 C       -6.3260    -0.1060    -0.7200 C.ar  1 <1>  -0.1500 
 26 C       -8.9050    -0.6260     0.1120 C.ar  1 <1>  -0.1500 
 27 C       -7.2390     0.9270    -0.6090 C.ar  1 <1>  -0.1500 
 28 C       -8.5310     0.6690    -0.1940 C.ar  1 <1>  -0.1500 
 29 H       -0.3060    -1.1350     2.2160 H     1 <1>   0.0800 
 30 H       -1.9710    -0.5640     2.3130 H     1 <1>   0.0800 
 31 H       -1.6520     0.8490    -2.1710 H     1 <1>   0.1500 
 32 H       -0.4640     1.2440     1.9150 H     1 <1>   0.1500 
 33 H       -0.2510     3.6640     1.6180 H     1 <1>   0.1500 
 34 H       -0.7210     4.6890    -0.5400 H     1 <1>   0.1500 
 35 H       -4.6460    -1.6680     2.4450 H     1 <1>   0.0800 
 36 H       -3.8590    -1.3490     0.9210 H     1 <1>   0.0800 
 37 H       -2.7830    -5.1140     1.8390 H     1 <1>   0.0800 
 38 H       -3.9830    -4.6110     3.0190 H     1 <1>   0.0800 
 39 H       -1.6280     4.8470    -4.0740 H     1 <1>   0.0800 
 40 H       -0.3520     5.0010    -2.8710 H     1 <1>   0.0800 
 41 H       -2.0480     5.2510    -2.4130 H     1 <1>   0.0800 
 42 H       -6.1180    -3.0230     1.5140 H     1 <1>   0.0800 
 43 H       -5.4530    -5.1580     1.3190 H     1 <1>   0.0800 
 44 H       -3.2780    -4.4300    -0.6380 H     1 <1>   0.0800 
 45 H       -3.8150    -6.0260    -0.2490 H     1 <1>   0.0800 
 46 H       -3.9040    -2.8760    -1.2190 H     1 <1>   0.4000 
 47 H       -7.0680    -4.1840    -0.7800 H     1 <1>   0.0800 
 48 H       -6.5770    -3.4560    -2.2680 H     1 <1>   0.0800 
 49 H       -5.7340    -5.8650    -1.5340 H     1 <1>   0.0800 
 50 H       -4.6860    -4.8120    -2.4250 H     1 <1>   0.0800 
 51 H       -8.3110    -2.6500     0.2530 H     1 <1>   0.1500 
 52 H       -5.3270     0.1310    -1.0470 H     1 <1>   0.1500 
 53 H       -9.9100    -0.8300     0.4360 H     1 <1>   0.1500 
 54 H       -6.9400     1.9320    -0.8500 H     1 <1>   0.1500 
 55 H       -9.2420     1.4730    -0.1090 H     1 <1>   0.1500 
@<TRIPOS>BOND
  1   1   2  1   
  2   1   3  1   
  3   2   4  ar  
  4   2   5  ar  
  5   3   6  1   
  6   3  29  1   
  7   3  30  1   
  8   4   7  ar  
  9   4  31  1   
 10   5   8  ar  
 11   5  32  1   
 12   6   9  2   
 13   6  10  am  
 14   7  11  1   
 15   7  12  ar  
 16   8  12  ar  
 17   8  33  1   
 18  10  13  1   
 19  10  14  1   
 20  11  15  1   
 21  12  34  1   
 22  13  16  1   
 23  13  35  1   
 24  13  36  1   
 25  14  17  1   
 26  14  37  1   
 27  14  38  1   
 28  15  39  1   
 29  15  40  1   
 30  15  41  1   
 31  16  17  1   
 32  16  18  1   
 33  16  42  1   
 34  17  19  1   
 35  17  43  1   
 36  18  20  1   
 37  18  21  1   
 38  18  22  1   
 39  19  23  1   
 40  19  44  1   
 41  19  45  1   
 42  20  46  1   
 43  21  24  ar  
 44  21  25  ar  
 45  22  23  1   
 46  22  47  1   
 47  22  48  1   
 48  23  49  1   
 49  23  50  1   
 50  24  26  ar  
 51  24  51  1   
 52  25  27  ar  
 53  25  52  1   
 54  26  28  ar  
 55  26  53  1   
 56  27  28  ar  
 57  27  54  1   
 58  28  55  1   
@<TRIPOS>SUBSTRUCTURE
  1 ****  20 GROUP 4 **** **** 0

# MOE 2024.06 (io_trps.svl 2023.06)
