@<TRIPOS>MOLECULE
NONAME
21 21 1 0 0 
SMALL
USER_CHARGES


@<TRIPOS>ATOM
  1 CL       1.6880    -0.3290     2.2180 Cl    1 <1>  -0.1770 
  2 C        2.3260     0.7760     1.0340 C.ar  1 <1>   0.4870 
  3 N        2.0830     2.0580     1.2420 N.ar  1 <1>  -0.6200 
  4 C        3.0370     0.2490    -0.0270 C.ar  1 <1>  -0.1500 
  5 C        2.5720     2.8980     0.3240 C.ar  1 <1>   0.1660 
  6 C        3.5510     1.1110    -0.9680 C.ar  1 <1>  -0.1500 
  7 C        3.3100     2.4560    -0.7760 C.ar  1 <1>  -0.1500 
  8 C        2.2900     4.4130     0.5760 C.3   1 <1>   0.4240 
  9 O        3.3200     4.4540     1.4950 O.3   1 <1>  -0.6800 
 10 C        3.0810     5.4140    -0.3440 C.3   1 <1>  -0.2400 
 11 C        1.0420     4.4020    -0.3560 C.3   1 <1>  -0.2400 
 12 H        3.1790    -0.8130    -0.1020 H     1 <1>   0.1500 
 13 H        4.1170     0.7550    -1.8130 H     1 <1>   0.1500 
 14 H        3.7030     3.1550    -1.4900 H     1 <1>   0.1500 
 15 H        3.2160     3.6460     2.0420 H     1 <1>   0.4000 
 16 H        4.1500     5.2530    -0.3570 H     1 <1>   0.0800 
 17 H        2.9090     6.4130     0.0180 H     1 <1>   0.0800 
 18 H        2.8140     5.4220    -1.3870 H     1 <1>   0.0800 
 19 H        0.2690     3.7960     0.0830 H     1 <1>   0.0800 
 20 H        1.2130     4.0150    -1.3480 H     1 <1>   0.0800 
 21 H        0.6220     5.3890    -0.4490 H     1 <1>   0.0800 
@<TRIPOS>BOND
  1   1   2  1   
  2   2   3  ar  
  3   2   4  ar  
  4   3   5  ar  
  5   4   6  ar  
  6   4  12  1   
  7   5   7  ar  
  8   5   8  1   
  9   6   7  ar  
 10   6  13  1   
 11   7  14  1   
 12   8   9  1   
 13   8  10  1   
 14   8  11  1   
 15   9  15  1   
 16  10  16  1   
 17  10  17  1   
 18  10  18  1   
 19  11  19  1   
 20  11  20  1   
 21  11  21  1   
@<TRIPOS>SUBSTRUCTURE
  1 ****   5 GROUP 4 **** **** 0

# MOE 2024.06 (io_trps.svl 2023.06)
