@<TRIPOS>MOLECULE
NONAME
46 49 1 0 0 
SMALL
USER_CHARGES


@<TRIPOS>ATOM
  1 CL      -2.3150    -0.3390    -2.3520 Cl    1 <1>  -0.1230 
  2 C       -2.8310     0.3190    -0.8080 C.2   1 <1>   0.1230 
  3 C       -3.0220     1.6930    -0.5730 C.ar  1 <1>   0.0000 
  4 C       -3.1150    -0.3810     0.3130 C.2   1 <1>  -0.3320 
  5 C       -3.4340     1.7790     0.7550 C.ar  1 <1>  -0.1520 
  6 C       -2.8930     2.8560    -1.3390 C.ar  1 <1>  -0.1500 
  7 N       -3.4810     0.5120     1.2900 N.pl3 1 <1>   0.0330 
  8 C       -3.0700    -1.8720     0.5400 C.3   1 <1>   0.5230 
  9 C       -3.7230     3.0170     1.3330 C.ar  1 <1>  -0.1500 
 10 C       -3.1800     4.0730    -0.7670 C.ar  1 <1>  -0.1500 
 11 N       -3.8190    -2.5140    -0.5630 N.4   1 <1>  -0.9590 
 12 C       -3.5950     4.1530     0.5690 C.ar  1 <1>  -0.1500 
 13 C       -5.2700    -2.1550    -0.5150 C.3   1 <1>   0.3430 
 14 C       -3.7440    -4.0010    -0.4440 C.3   1 <1>   0.3430 
 15 C       -5.9370    -3.2650     0.3010 C.3   1 <1>   0.2000 
 16 C       -5.1620    -4.5080    -0.1410 C.3   1 <1>  -0.0800 
 17 O       -5.7140    -3.0130     1.6540 O.3   1 <1>  -0.6800 
 18 C       -5.1690    -5.6980     0.8380 C.3   1 <1>   0.0210 
 19 C       -4.3880    -6.8710     0.2800 C.2   1 <1>   0.1080 
 20 N       -3.1230    -6.8060    -0.0020 N.2   1 <1>  -0.7070 
 21 C       -4.9220    -8.1270     0.0150 C.2   1 <1>  -0.1500 
 22 N       -2.8100    -8.0420    -0.4480 N.pl3 1 <1>   0.3000 
 23 C       -3.8870    -8.8550    -0.4510 C.2   1 <1>  -0.3320 
 24 C       -3.8580   -10.3040    -0.9010 C.3   1 <1>  -0.0600 
 25 H       -2.5720     2.7830    -2.3630 H     1 <1>   0.1500 
 26 H       -3.7500     0.3120     2.2620 H     1 <1>   0.2700 
 27 H       -3.5170    -2.1240     1.4880 H     1 <1>   0.0800 
 28 H       -2.0450    -2.2080     0.5410 H     1 <1>   0.0800 
 29 H       -4.0400     3.0780     2.3600 H     1 <1>   0.1500 
 30 H       -3.0870     4.9790    -1.3400 H     1 <1>   0.1500 
 31 H       -3.3970    -2.1800    -1.4410 H     1 <1>   0.4500 
 32 H       -3.8120     5.1200     0.9910 H     1 <1>   0.1500 
 33 H       -5.4420    -1.1860    -0.0770 H     1 <1>   0.0800 
 34 H       -5.6720    -2.1650    -1.5150 H     1 <1>   0.0800 
 35 H       -3.3790    -4.4500    -1.3540 H     1 <1>   0.0800 
 36 H       -3.0810    -4.2820     0.3590 H     1 <1>   0.0800 
 37 H       -6.9980    -3.3260     0.1250 H     1 <1>   0.0800 
 38 H       -5.5780    -4.8470    -1.0740 H     1 <1>   0.0800 
 39 H       -6.2960    -3.5670     2.2160 H     1 <1>   0.4000 
 40 H       -6.1810    -6.0070     1.0290 H     1 <1>   0.0800 
 41 H       -4.7210    -5.4220     1.7760 H     1 <1>   0.0800 
 42 H       -5.9430    -8.4340     0.1620 H     1 <1>   0.1500 
 43 H       -1.8590    -8.3040    -0.7370 H     1 <1>   0.2700 
 44 H       -4.8360   -10.7410    -0.8080 H     1 <1>   0.0800 
 45 H       -3.1730   -10.8690    -0.2940 H     1 <1>   0.0800 
 46 H       -3.5510   -10.3710    -1.9300 H     1 <1>   0.0800 
@<TRIPOS>BOND
  1   1   2  1   
  2   2   3  1   
  3   2   4  2   
  4   3   5  ar  
  5   3   6  ar  
  6   4   7  1   
  7   4   8  1   
  8   5   7  1   
  9   5   9  ar  
 10   6  10  ar  
 11   6  25  1   
 12   7  26  1   
 13   8  11  1   
 14   8  27  1   
 15   8  28  1   
 16   9  12  ar  
 17   9  29  1   
 18  10  12  ar  
 19  10  30  1   
 20  11  13  1   
 21  11  14  1   
 22  11  31  1   
 23  12  32  1   
 24  13  15  1   
 25  13  33  1   
 26  13  34  1   
 27  14  16  1   
 28  14  35  1   
 29  14  36  1   
 30  15  16  1   
 31  15  17  1   
 32  15  37  1   
 33  16  18  1   
 34  16  38  1   
 35  17  39  1   
 36  18  19  1   
 37  18  40  1   
 38  18  41  1   
 39  19  20  2   
 40  19  21  1   
 41  20  22  1   
 42  21  23  2   
 43  21  42  1   
 44  22  23  1   
 45  22  43  1   
 46  23  24  1   
 47  24  44  1   
 48  24  45  1   
 49  24  46  1   
@<TRIPOS>SUBSTRUCTURE
  1 ****  11 GROUP 4 **** **** 0

# MOE 2024.06 (io_trps.svl 2023.06)
