@<TRIPOS>MOLECULE
NONAME
43 47 1 0 0 
SMALL
USER_CHARGES


@<TRIPOS>ATOM
  1 S       -0.7060     0.6140     1.7570 S.3   1 <1>  -0.0800 
  2 C       -1.7310    -0.8210     1.7330 C.ar  1 <1>   0.2970 
  3 C       -1.8190     1.4880     0.7050 C.2   1 <1>  -0.1100 
  4 N       -1.4250    -1.9300     2.3690 N.ar  1 <1>  -0.5670 
  5 C       -2.8520    -0.6010     0.9700 C.ar  1 <1>   0.0000 
  6 C       -2.8740     0.7170     0.3880 C.2   1 <1>  -0.1500 
  7 C       -2.3350    -2.8700     2.2010 C.ar  1 <1>   0.4700 
  8 C       -3.7390    -1.6780     0.8940 C.ar  1 <1>   0.4100 
  9 N       -3.4650    -2.8180     1.5070 N.ar  1 <1>  -0.6200 
 10 N       -4.9340    -1.6050     0.2040 N.pl3 1 <1>  -0.8380 
 11 C       -5.9760    -0.6510     0.7000 C.3   1 <1>   0.2090 
 12 C       -5.5100    -2.8630    -0.3600 C.3   1 <1>   0.2090 
 13 C       -7.0020    -0.2960    -0.3960 C.3   1 <1>   0.1440 
 14 C       -6.5360    -2.5520    -1.4560 C.3   1 <1>  -0.1600 
 15 C       -8.0310     0.6430     0.2060 C.ar  1 <1>   0.1670 
 16 C       -7.6270    -1.5890    -0.9590 C.3   1 <1>  -0.1600 
 17 C       -6.3840     0.5760    -1.5220 C.3   1 <1>  -0.1600 
 18 N       -8.9790     0.3000     1.0500 N.ar  1 <1>  -0.6200 
 19 C       -7.8480     1.9250    -0.2190 C.ar  1 <1>  -0.1430 
 20 C       -6.6800     2.0430    -1.1670 C.3   1 <1>  -0.0170 
 21 C       -9.7520     1.3030     1.4420 C.ar  1 <1>   0.4770 
 22 C       -8.7050     2.8860     0.2550 C.ar  1 <1>   0.1600 
 23 N       -9.6720     2.5810     1.0960 N.ar  1 <1>  -0.6200 
 24 C      -10.8560     0.9490     2.4090 C.3   1 <1>  -0.0970 
 25 H       -1.5490     2.4950     0.4360 H     1 <1>   0.1500 
 26 H       -3.6880     1.0110    -0.2450 H     1 <1>   0.1500 
 27 H       -2.1360    -3.8060     2.6940 H     1 <1>   0.1500 
 28 H       -5.5140     0.2470     1.0690 H     1 <1>   0.0800 
 29 H       -6.4940    -1.1090     1.5250 H     1 <1>   0.0800 
 30 H       -5.9810    -3.4170     0.4350 H     1 <1>   0.0800 
 31 H       -4.7190    -3.4690    -0.7670 H     1 <1>   0.0800 
 32 H       -6.9900    -3.4720    -1.7790 H     1 <1>   0.0800 
 33 H       -6.0210    -2.1310    -2.3010 H     1 <1>   0.0800 
 34 H       -8.3130    -1.3570    -1.7550 H     1 <1>   0.0800 
 35 H       -8.1900    -2.0720    -0.1790 H     1 <1>   0.0800 
 36 H       -6.8820     0.3590    -2.4510 H     1 <1>   0.0800 
 37 H       -5.3350     0.3880    -1.6600 H     1 <1>   0.0800 
 38 H       -6.9300     2.6190    -2.0400 H     1 <1>   0.0800 
 39 H       -5.8440     2.4900    -0.6580 H     1 <1>   0.0800 
 40 H       -8.6020     3.9130    -0.0530 H     1 <1>   0.1500 
 41 H      -11.1380    -0.0800     2.2900 H     1 <1>   0.0800 
 42 H      -11.7150     1.5690     2.2280 H     1 <1>   0.0800 
 43 H      -10.5110     1.1070     3.4130 H     1 <1>   0.0800 
@<TRIPOS>BOND
  1   1   2  1   
  2   1   3  1   
  3   2   4  ar  
  4   2   5  ar  
  5   3   6  2   
  6   3  25  1   
  7   4   7  ar  
  8   5   6  1   
  9   5   8  ar  
 10   6  26  1   
 11   7   9  ar  
 12   7  27  1   
 13   8   9  ar  
 14   8  10  1   
 15  10  11  1   
 16  10  12  1   
 17  11  13  1   
 18  11  28  1   
 19  11  29  1   
 20  12  14  1   
 21  12  30  1   
 22  12  31  1   
 23  13  15  1   
 24  13  16  1   
 25  13  17  1   
 26  14  16  1   
 27  14  32  1   
 28  14  33  1   
 29  15  18  ar  
 30  15  19  ar  
 31  16  34  1   
 32  16  35  1   
 33  17  20  1   
 34  17  36  1   
 35  17  37  1   
 36  18  21  ar  
 37  19  20  1   
 38  19  22  ar  
 39  20  38  1   
 40  20  39  1   
 41  21  23  ar  
 42  21  24  1   
 43  22  23  ar  
 44  22  40  1   
 45  24  41  1   
 46  24  42  1   
 47  24  43  1   
@<TRIPOS>SUBSTRUCTURE
  1 ****  11 GROUP 4 **** **** 0

# MOE 2024.06 (io_trps.svl 2023.06)
