@<TRIPOS>MOLECULE
NONAME
47 50 1 0 0 
SMALL
USER_CHARGES


@<TRIPOS>ATOM
  1 O       -2.0670    -0.6790    -2.9470 O.2   1 <1>  -0.5700 
  2 C       -2.1950    -1.0490    -1.8120 C.2   1 <1>   0.5690 
  3 N       -2.0650    -0.1810    -0.7950 N.am  1 <1>  -0.7300 
  4 C       -2.5460    -2.4840    -1.5320 C.3   1 <1>  -0.0190 
  5 C       -2.1920    -0.5070     0.6440 C.3   1 <1>   0.2200 
  6 C       -1.4510    -3.1890    -0.7000 C.3   1 <1>   0.1200 
  7 C       -3.9760    -2.5310    -0.9780 C.3   1 <1>   0.3430 
  8 C       -1.1410    -1.5730     1.0470 C.3   1 <1>   0.1200 
  9 C       -3.6550    -0.9140     0.9850 C.3   1 <1>   0.3430 
 10 O       -1.5050    -2.8770     0.6680 O.3   1 <1>  -0.5600 
 11 N       -4.0630    -2.2820     0.5030 N.4   1 <1>  -0.9590 
 12 C       -5.3450    -2.7550     1.0930 C.3   1 <1>   0.4860 
 13 C       -5.4970    -4.2310     0.7690 C.ar  1 <1>  -0.1440 
 14 C       -6.5020    -4.6980    -0.0740 C.ar  1 <1>  -0.1440 
 15 C       -4.5810    -5.1270     1.3040 C.ar  1 <1>  -0.1500 
 16 C       -6.5530    -6.0470    -0.3880 C.ar  1 <1>  -0.1500 
 17 C       -7.5520    -3.7700    -0.6730 C.3   1 <1>  -0.0970 
 18 C       -4.6420    -6.4670     0.9810 C.ar  1 <1>  -0.1500 
 19 C       -5.6250    -6.9470     0.1240 C.ar  1 <1>  -0.0230 
 20 N       -5.6630    -8.3270    -0.2230 N.pl3 1 <1>   0.5930 
 21 N       -4.5460    -9.0530    -0.4820 N.2   1 <1>  -0.7070 
 22 C       -6.7610    -9.1100    -0.3650 C.2   1 <1>  -0.3020 
 23 C       -4.9640   -10.2440    -0.7740 C.2   1 <1>   0.1390 
 24 C       -6.3480   -10.3440    -0.7180 C.2   1 <1>  -0.1500 
 25 H       -1.7740     0.7700    -1.0520 H     1 <1>   0.3700 
 26 H       -2.5680    -2.9730    -2.4900 H     1 <1>   0.0800 
 27 H       -1.9660     0.3940     1.1890 H     1 <1>   0.0800 
 28 H       -0.4690    -2.9470    -1.0730 H     1 <1>   0.0800 
 29 H       -1.5780    -4.2560    -0.7780 H     1 <1>   0.0800 
 30 H       -4.3650    -3.5130    -1.1910 H     1 <1>   0.0800 
 31 H       -4.5890    -1.8190    -1.5080 H     1 <1>   0.0800 
 32 H       -1.0410    -1.5820     2.1190 H     1 <1>   0.0800 
 33 H       -0.1750    -1.3410     0.6300 H     1 <1>   0.0800 
 34 H       -4.3220    -0.1710     0.5810 H     1 <1>   0.0800 
 35 H       -3.7540    -0.8900     2.0580 H     1 <1>   0.0800 
 36 H       -3.3260    -2.9140     0.8760 H     1 <1>   0.4500 
 37 H       -5.3330    -2.6280     2.1630 H     1 <1>   0.0800 
 38 H       -6.1700    -2.1910     0.6900 H     1 <1>   0.0800 
 39 H       -3.8020    -4.7980     1.9720 H     1 <1>   0.1500 
 40 H       -7.3200    -6.4140    -1.0490 H     1 <1>   0.1500 
 41 H       -8.2490    -4.3200    -1.2810 H     1 <1>   0.0800 
 42 H       -7.0910    -3.0240    -1.2950 H     1 <1>   0.0800 
 43 H       -8.1120    -3.2860     0.1080 H     1 <1>   0.0800 
 44 H       -3.9190    -7.1560     1.3900 H     1 <1>   0.1500 
 45 H       -7.7560    -8.7410    -0.2030 H     1 <1>   0.1500 
 46 H       -4.3050   -11.0590    -1.0290 H     1 <1>   0.1500 
 47 H       -6.9290   -11.2270    -0.9170 H     1 <1>   0.1500 
@<TRIPOS>BOND
  1   1   2  2   
  2   2   3  am  
  3   2   4  1   
  4   3   5  1   
  5   3  25  1   
  6   4   6  1   
  7   4   7  1   
  8   4  26  1   
  9   5   8  1   
 10   5   9  1   
 11   5  27  1   
 12   6  10  1   
 13   6  28  1   
 14   6  29  1   
 15   7  11  1   
 16   7  30  1   
 17   7  31  1   
 18   8  10  1   
 19   8  32  1   
 20   8  33  1   
 21   9  11  1   
 22   9  34  1   
 23   9  35  1   
 24  11  12  1   
 25  11  36  1   
 26  12  13  1   
 27  12  37  1   
 28  12  38  1   
 29  13  14  ar  
 30  13  15  ar  
 31  14  16  ar  
 32  14  17  1   
 33  15  18  ar  
 34  15  39  1   
 35  16  19  ar  
 36  16  40  1   
 37  17  41  1   
 38  17  42  1   
 39  17  43  1   
 40  18  19  ar  
 41  18  44  1   
 42  19  20  1   
 43  20  21  1   
 44  20  22  1   
 45  21  23  2   
 46  22  24  2   
 47  22  45  1   
 48  23  24  1   
 49  23  46  1   
 50  24  47  1   
@<TRIPOS>SUBSTRUCTURE
  1 ****  13 GROUP 4 **** **** 0

# MOE 2024.06 (io_trps.svl 2023.06)
