@<TRIPOS>MOLECULE
NONAME
53 55 1 0 0 
SMALL
USER_CHARGES


@<TRIPOS>ATOM
  1 O       -0.6280     0.2470    -1.9220 O.2   1 <1>  -0.5700 
  2 C       -0.9630     1.1760    -1.2300 C.2   1 <1>   0.5690 
  3 N       -1.9820     1.1790    -0.3480 N.am  1 <1>  -0.6600 
  4 C       -0.2620     2.5050    -1.2410 C.3   1 <1>  -0.0990 
  5 C       -2.1430     2.4820     0.3220 C.3   1 <1>   0.1400 
  6 C       -2.9580     0.0770    -0.1730 C.3   1 <1>   0.2840 
  7 C       -0.8180     3.1990     0.0180 C.3   1 <1>  -0.0190 
  8 C       -4.3790     0.6200    -0.1900 C.ar  1 <1>  -0.1440 
  9 C       -0.9820     4.7020    -0.1380 C.2   1 <1>   0.5690 
 10 C       -5.1550     0.6120     0.9590 C.ar  1 <1>  -0.1500 
 11 C       -4.9100     1.1370    -1.3620 C.ar  1 <1>  -0.1500 
 12 O       -1.8060     5.1180    -0.9170 O.2   1 <1>  -0.5700 
 13 N       -0.1840     5.5210     0.6050 N.am  1 <1>  -0.4930 
 14 C       -6.4440     1.1170     0.9350 C.ar  1 <1>  -0.1500 
 15 C       -6.1980     1.6410    -1.3850 C.ar  1 <1>  -0.1500 
 16 C       -0.1560     6.9380     0.6320 C.2   1 <1>   0.0630 
 17 C       -6.9730     1.6360    -0.2360 C.ar  1 <1>  -0.1430 
 18 C       -0.9360     7.8570    -0.0730 C.2   1 <1>   0.1390 
 19 C        0.6700     7.7000     1.3790 C.2   1 <1>  -0.3020 
 20 C       -8.3870     2.1910    -0.2620 C.3   1 <1>  -0.0170 
 21 N       -0.6220     9.0880     0.2070 N.2   1 <1>  -0.7070 
 22 N        0.3740     8.9910     1.1100 N.pl3 1 <1>   0.3140 
 23 C       -9.3890     1.0900    -0.6160 C.3   1 <1>  -0.2400 
 24 C        1.0160    10.1840     1.6830 C.3   1 <1>   0.1570 
 25 C        2.0280    10.7460     0.7110 C.2   1 <1>   0.5690 
 26 O        3.1120    11.0650     1.1360 O.2   1 <1>  -0.5700 
 27 N        1.6920    10.8900    -0.6000 N.am  1 <1>  -0.7300 
 28 C        2.5650    11.4220    -1.6730 C.3   1 <1>   0.0600 
 29 H       -0.5420     3.0290    -2.1370 H     1 <1>   0.0800 
 30 H        0.8040     2.3800    -1.2020 H     1 <1>   0.0800 
 31 H       -2.2990     2.3580     1.3800 H     1 <1>   0.0800 
 32 H       -2.9820     3.0030    -0.1120 H     1 <1>   0.0800 
 33 H       -2.7600    -0.4220     0.7590 H     1 <1>   0.0800 
 34 H       -2.8390    -0.6410    -0.9680 H     1 <1>   0.0800 
 35 H       -0.1520     2.9950     0.8370 H     1 <1>   0.0800 
 36 H       -4.7630     0.2140     1.8780 H     1 <1>   0.1500 
 37 H       -4.3150     1.1500    -2.2590 H     1 <1>   0.1500 
 38 H        0.4990     5.0770     1.2160 H     1 <1>   0.3700 
 39 H       -7.0360     1.1030     1.8320 H     1 <1>   0.1500 
 40 H       -6.5950     2.0380    -2.3020 H     1 <1>   0.1500 
 41 H       -1.7100     7.5840    -0.7710 H     1 <1>   0.1500 
 42 H        1.4390     7.4080     2.0680 H     1 <1>   0.1500 
 43 H       -8.4510     2.9850    -0.9860 H     1 <1>   0.0800 
 44 H       -8.6310     2.6070     0.7000 H     1 <1>   0.0800 
 45 H       -9.1600     0.6790    -1.5830 H     1 <1>   0.0800 
 46 H      -10.3880     1.4890    -0.6360 H     1 <1>   0.0800 
 47 H       -9.3450     0.3000     0.1120 H     1 <1>   0.0800 
 48 H        1.5030     9.9190     2.6010 H     1 <1>   0.0800 
 49 H        0.2630    10.9220     1.8810 H     1 <1>   0.0800 
 50 H        0.7770    10.5130    -0.8950 H     1 <1>   0.3700 
 51 H        3.5030    11.7560    -1.2610 H     1 <1>   0.0800 
 52 H        2.0820    12.2530    -2.1570 H     1 <1>   0.0800 
 53 H        2.7580    10.6510    -2.3990 H     1 <1>   0.0800 
@<TRIPOS>BOND
  1   1   2  2   
  2   2   3  am  
  3   2   4  1   
  4   3   5  1   
  5   3   6  1   
  6   4   7  1   
  7   4  29  1   
  8   4  30  1   
  9   5   7  1   
 10   5  31  1   
 11   5  32  1   
 12   6   8  1   
 13   6  33  1   
 14   6  34  1   
 15   7   9  1   
 16   7  35  1   
 17   8  10  ar  
 18   8  11  ar  
 19   9  12  2   
 20   9  13  am  
 21  10  14  ar  
 22  10  36  1   
 23  11  15  ar  
 24  11  37  1   
 25  13  16  1   
 26  13  38  1   
 27  14  17  ar  
 28  14  39  1   
 29  15  17  ar  
 30  15  40  1   
 31  16  18  1   
 32  16  19  2   
 33  17  20  1   
 34  18  21  2   
 35  18  41  1   
 36  19  22  1   
 37  19  42  1   
 38  20  23  1   
 39  20  43  1   
 40  20  44  1   
 41  21  22  1   
 42  22  24  1   
 43  23  45  1   
 44  23  46  1   
 45  23  47  1   
 46  24  25  1   
 47  24  48  1   
 48  24  49  1   
 49  25  26  2   
 50  25  27  am  
 51  27  28  1   
 52  27  50  1   
 53  28  51  1   
 54  28  52  1   
 55  28  53  1   
@<TRIPOS>SUBSTRUCTURE
  1 ****  12 GROUP 4 **** **** 0

# MOE 2024.06 (io_trps.svl 2023.06)
