@<TRIPOS>MOLECULE
NONAME
44 46 1 0 0 
SMALL
USER_CHARGES


@<TRIPOS>ATOM
  1 O       -1.2960     0.3120     2.3480 O.2   1 <1>  -0.5700 
  2 C       -1.9300     0.8420     1.4550 C.2   1 <1>   0.5440 
  3 N       -3.0600     0.2170     0.9870 N.am  1 <1>  -0.6600 
  4 C       -1.4940     2.1060     0.9080 C.ar  1 <1>   0.0860 
  5 C       -3.9320     0.7280    -0.1010 C.3   1 <1>   0.1400 
  6 C       -3.4540    -1.1610     1.3700 C.3   1 <1>   0.1400 
  7 C       -0.9790     2.2430    -0.3910 C.ar  1 <1>   0.0830 
  8 C       -1.6110     3.2590     1.6850 C.ar  1 <1>  -0.1500 
  9 C       -5.0780    -0.2820    -0.1820 C.3   1 <1>   0.2000 
 10 C       -4.4580    -1.5980     0.2940 C.3   1 <1>  -0.0800 
 11 O       -0.7730     1.1970    -1.2240 O.3   1 <1>  -0.3630 
 12 C       -0.6540     3.4960    -0.8890 C.ar  1 <1>  -0.1500 
 13 C       -1.2710     4.5040     1.1890 C.ar  1 <1>  -0.1500 
 14 O       -6.0540     0.0920     0.7270 O.3   1 <1>  -0.6800 
 15 C       -3.7570    -2.3260    -0.8700 C.3   1 <1>   0.0210 
 16 C       -0.0340     0.0800    -0.7740 C.3   1 <1>   0.0400 
 17 C       -0.7970     4.6250    -0.1050 C.ar  1 <1>  -0.1500 
 18 C       -3.1020    -3.6150    -0.4110 C.2   1 <1>   0.1080 
 19 N       -3.7760    -4.6160     0.0600 N.2   1 <1>  -0.7070 
 20 C       -1.7350    -3.8660    -0.4350 C.2   1 <1>  -0.1500 
 21 N       -2.8470    -5.5450     0.3540 N.pl3 1 <1>   0.3000 
 22 C       -1.6010    -5.1130     0.0630 C.2   1 <1>  -0.3320 
 23 C       -0.3420    -5.9300     0.2850 C.3   1 <1>  -0.0600 
 24 H       -4.2890     1.7220     0.1080 H     1 <1>   0.0800 
 25 H       -3.3800     0.7300    -1.0240 H     1 <1>   0.0800 
 26 H       -2.5940    -1.8070     1.4280 H     1 <1>   0.0800 
 27 H       -3.9290    -1.1330     2.3350 H     1 <1>   0.0800 
 28 H       -1.9810     3.1670     2.6910 H     1 <1>   0.1500 
 29 H       -5.5290    -0.3380    -1.1590 H     1 <1>   0.0800 
 30 H       -5.2030    -2.2570     0.7060 H     1 <1>   0.0800 
 31 H       -0.2800     3.5790    -1.8940 H     1 <1>   0.1500 
 32 H       -1.3740     5.3800     1.8080 H     1 <1>   0.1500 
 33 H       -5.6360     0.2250     1.6010 H     1 <1>   0.4000 
 34 H       -3.0110    -1.6940    -1.3160 H     1 <1>   0.0800 
 35 H       -4.4820    -2.5720    -1.6250 H     1 <1>   0.0800 
 36 H        0.4420    -0.3730    -1.6250 H     1 <1>   0.0800 
 37 H       -0.7020    -0.6260    -0.3150 H     1 <1>   0.0800 
 38 H        0.7110     0.4060    -0.0680 H     1 <1>   0.0800 
 39 H       -0.5380     5.5930    -0.4970 H     1 <1>   0.1500 
 40 H       -0.9700    -3.1930    -0.7790 H     1 <1>   0.1500 
 41 H       -3.0950    -6.4590     0.7500 H     1 <1>   0.2700 
 42 H        0.5220    -5.3680    -0.0210 H     1 <1>   0.0800 
 43 H       -0.3820    -6.8390    -0.2890 H     1 <1>   0.0800 
 44 H       -0.2380    -6.1770     1.3270 H     1 <1>   0.0800 
@<TRIPOS>BOND
  1   1   2  2   
  2   2   3  am  
  3   2   4  1   
  4   3   5  1   
  5   3   6  1   
  6   4   7  ar  
  7   4   8  ar  
  8   5   9  1   
  9   5  24  1   
 10   5  25  1   
 11   6  10  1   
 12   6  26  1   
 13   6  27  1   
 14   7  11  1   
 15   7  12  ar  
 16   8  13  ar  
 17   8  28  1   
 18   9  10  1   
 19   9  14  1   
 20   9  29  1   
 21  10  15  1   
 22  10  30  1   
 23  11  16  1   
 24  12  17  ar  
 25  12  31  1   
 26  13  17  ar  
 27  13  32  1   
 28  14  33  1   
 29  15  18  1   
 30  15  34  1   
 31  15  35  1   
 32  16  36  1   
 33  16  37  1   
 34  16  38  1   
 35  17  39  1   
 36  18  19  2   
 37  18  20  1   
 38  19  21  1   
 39  20  22  2   
 40  20  40  1   
 41  21  22  1   
 42  21  41  1   
 43  22  23  1   
 44  23  42  1   
 45  23  43  1   
 46  23  44  1   
@<TRIPOS>SUBSTRUCTURE
  1 ****   3 GROUP 4 **** **** 0

# MOE 2024.06 (io_trps.svl 2023.06)
