@<TRIPOS>MOLECULE
NONAME
49 51 1 0 0 
SMALL
USER_CHARGES


@<TRIPOS>ATOM
  1 F       -0.3440     0.4740    -1.2020 F     1 <1>  -0.1900 
  2 C       -1.4220     1.1360    -0.8830 C.ar  1 <1>   0.1900 
  3 C       -1.4440     2.4950    -1.0390 C.ar  1 <1>  -0.1500 
  4 C       -2.5100     0.4200    -0.3940 C.ar  1 <1>  -0.1500 
  5 C       -2.6000     3.2310    -0.7010 C.ar  1 <1>   0.0000 
  6 C       -3.6460     1.1110    -0.0570 C.ar  1 <1>  -0.1500 
  7 C       -3.7090     2.5090    -0.2020 C.ar  1 <1>   0.3610 
  8 C       -2.6980     4.6530    -0.8410 C.ar  1 <1>   0.1000 
  9 N       -4.8530     3.1930     0.1410 N.ar  1 <1>  -0.1790 
 10 N       -1.6540     5.3620    -1.3360 N.pl3 1 <1>  -0.8690 
 11 C       -3.8990     5.2570    -0.4590 C.ar  1 <1>  -0.1500 
 12 C       -4.9580     4.5280     0.0220 C.ar  1 <1>   0.2180 
 13 C       -1.5420     6.8110    -1.6760 C.3   1 <1>   0.2090 
 14 C       -6.2670     5.1860     0.4310 C.3   1 <1>  -0.0970 
 15 C       -0.7430     7.5670    -0.5920 C.3   1 <1>   0.3430 
 16 N       -0.3500     8.9650    -0.9880 N.4   1 <1>  -0.9590 
 17 C        0.6090     9.5410     0.0200 C.3   1 <1>   0.3430 
 18 C       -1.5100     9.8800    -1.2020 C.3   1 <1>   0.3430 
 19 C        0.7780    11.0680    -0.1140 C.3   1 <1>  -0.0800 
 20 C       -1.0210    11.1540    -1.9020 C.3   1 <1>  -0.1600 
 21 C        0.4150    11.5660    -1.5270 C.3   1 <1>  -0.1600 
 22 C        2.2000    11.4660     0.3060 C.3   1 <1>   0.1200 
 23 O        2.2750    12.8410     0.4090 O.3   1 <1>  -0.6800 
 24 H       -0.5680     2.9810    -1.4240 H     1 <1>   0.1500 
 25 H       -2.4320    -0.6510    -0.2940 H     1 <1>   0.1500 
 26 H       -4.4940     0.5670     0.3230 H     1 <1>   0.1500 
 27 H       -5.6410     2.6480     0.4970 H     1 <1>   0.4570 
 28 H       -0.8170     4.8330    -1.6230 H     1 <1>   0.4000 
 29 H       -4.0020     6.3210    -0.5450 H     1 <1>   0.1500 
 30 H       -2.5200     7.2420    -1.7870 H     1 <1>   0.0800 
 31 H       -1.0320     6.8930    -2.6210 H     1 <1>   0.0800 
 32 H       -7.0800     4.8060    -0.1620 H     1 <1>   0.0800 
 33 H       -6.2210     6.2510     0.2880 H     1 <1>   0.0800 
 34 H       -6.4750     4.9980     1.4700 H     1 <1>   0.0800 
 35 H        0.1500     7.0000    -0.3880 H     1 <1>   0.0800 
 36 H       -1.3290     7.5980     0.3120 H     1 <1>   0.0800 
 37 H        0.1580     8.9310    -1.8830 H     1 <1>   0.4500 
 38 H        1.5700     9.0690    -0.1060 H     1 <1>   0.0800 
 39 H        0.2680     9.3240     1.0200 H     1 <1>   0.0800 
 40 H       -1.9420    10.1380    -0.2480 H     1 <1>   0.0800 
 41 H       -2.2700     9.4110    -1.8050 H     1 <1>   0.0800 
 42 H        0.1040    11.5230     0.5940 H     1 <1>   0.0800 
 43 H       -1.6980    11.9500    -1.6410 H     1 <1>   0.0800 
 44 H       -1.0900    11.0290    -2.9690 H     1 <1>   0.0800 
 45 H        1.1070    11.1490    -2.2400 H     1 <1>   0.0800 
 46 H        0.4990    12.6390    -1.5850 H     1 <1>   0.0800 
 47 H        2.9410    11.1370    -0.4040 H     1 <1>   0.0800 
 48 H        2.4390    11.0650     1.2770 H     1 <1>   0.0800 
 49 H        2.2990    13.2720    -0.4690 H     1 <1>   0.4000 
@<TRIPOS>BOND
  1   1   2  1   
  2   2   3  ar  
  3   2   4  ar  
  4   3   5  ar  
  5   3  24  1   
  6   4   6  ar  
  7   4  25  1   
  8   5   7  ar  
  9   5   8  ar  
 10   6   7  ar  
 11   6  26  1   
 12   7   9  ar  
 13   8  10  1   
 14   8  11  ar  
 15   9  12  ar  
 16   9  27  1   
 17  10  13  1   
 18  10  28  1   
 19  11  12  ar  
 20  11  29  1   
 21  12  14  1   
 22  13  15  1   
 23  13  30  1   
 24  13  31  1   
 25  14  32  1   
 26  14  33  1   
 27  14  34  1   
 28  15  16  1   
 29  15  35  1   
 30  15  36  1   
 31  16  17  1   
 32  16  18  1   
 33  16  37  1   
 34  17  19  1   
 35  17  38  1   
 36  17  39  1   
 37  18  20  1   
 38  18  40  1   
 39  18  41  1   
 40  19  21  1   
 41  19  22  1   
 42  19  42  1   
 43  20  21  1   
 44  20  43  1   
 45  20  44  1   
 46  21  45  1   
 47  21  46  1   
 48  22  23  1   
 49  22  47  1   
 50  22  48  1   
 51  23  49  1   
@<TRIPOS>SUBSTRUCTURE
  1 ****  10 GROUP 4 **** **** 0

# MOE 2024.06 (io_trps.svl 2023.06)
