@<TRIPOS>MOLECULE
NONAME
50 53 1 0 0 
SMALL
USER_CHARGES


@<TRIPOS>ATOM
  1 S       -0.1900    -0.4100     1.7910 S.3   1 <1>  -0.0800 
  2 C        1.0170    -1.1060     0.7290 C.2   1 <1>  -0.0450 
  3 C        0.4900     1.1740     1.5340 C.2   1 <1>   0.1980 
  4 C        1.8010    -0.0850     0.3080 C.2   1 <1>   0.0460 
  5 C        1.0350    -2.5290     0.4930 C.2   1 <1>   0.7150 
  6 N        1.4950     1.1820     0.7540 N.2   1 <1>  -0.5650 
  7 C       -0.1830     2.3320     2.2540 C.3   1 <1>   0.0200 
  8 C        2.9990    -0.1850    -0.6160 C.3   1 <1>  -0.0590 
  9 O        2.0990    -3.1150     0.4240 O.2   1 <1>  -0.5700 
 10 N       -0.1190    -3.2620     0.3120 N.am  1 <1>  -0.6600 
 11 C        0.4690     3.6880     1.9540 C.3   1 <1>  -0.2400 
 12 C       -1.4070    -2.7000    -0.1670 C.3   1 <1>   0.1400 
 13 C       -0.0900    -4.7320     0.1190 C.3   1 <1>   0.1400 
 14 C       -2.0880    -3.8520    -0.9040 C.3   1 <1>   0.2000 
 15 C       -1.5120    -5.1230    -0.2860 C.3   1 <1>  -0.0800 
 16 O       -3.4630    -3.8230    -0.7390 O.3   1 <1>  -0.6800 
 17 C       -1.5670    -6.3300    -1.2380 C.3   1 <1>  -0.0170 
 18 C       -0.9980    -7.5780    -0.5720 C.ar  1 <1>  -0.1430 
 19 C       -1.7340    -8.3370     0.3690 C.ar  1 <1>   0.0000 
 20 C        0.2680    -7.9940    -0.8660 C.ar  1 <1>  -0.1500 
 21 C       -1.0970    -9.4610     0.9490 C.ar  1 <1>   0.3100 
 22 C       -3.0610    -8.0500     0.7660 C.ar  1 <1>  -0.1500 
 23 C        0.8010    -9.1270    -0.2400 C.ar  1 <1>   0.1600 
 24 N        0.1670    -9.8420     0.6340 N.ar  1 <1>  -0.6200 
 25 C       -1.7970   -10.2250     1.8960 C.ar  1 <1>  -0.1500 
 26 C       -3.7170    -8.8180     1.6900 C.ar  1 <1>  -0.1500 
 27 C       -3.0780    -9.9180     2.2660 C.ar  1 <1>  -0.1500 
 28 H       -1.2170     2.3640     1.9610 H     1 <1>   0.0800 
 29 H       -0.1410     2.1460     3.3130 H     1 <1>   0.0800 
 30 H        3.1520    -1.1930    -0.9520 H     1 <1>   0.0800 
 31 H        3.8790     0.1440    -0.0960 H     1 <1>   0.0800 
 32 H        2.8470     0.4470    -1.4720 H     1 <1>   0.0800 
 33 H        0.4240     3.8940     0.8990 H     1 <1>   0.0800 
 34 H        1.5020     3.6750     2.2560 H     1 <1>   0.0800 
 35 H       -0.0390     4.4730     2.4840 H     1 <1>   0.0800 
 36 H       -1.9950    -2.3940     0.6810 H     1 <1>   0.0800 
 37 H       -1.2410    -1.8660    -0.8270 H     1 <1>   0.0800 
 38 H        0.6120    -4.9690    -0.6620 H     1 <1>   0.0800 
 39 H        0.2110    -5.2290     1.0270 H     1 <1>   0.0800 
 40 H       -1.8690    -3.7910    -1.9570 H     1 <1>   0.0800 
 41 H       -2.0450    -5.3500     0.6200 H     1 <1>   0.0800 
 42 H       -3.6960    -3.8760     0.2080 H     1 <1>   0.4000 
 43 H       -1.0050    -6.1070    -2.1280 H     1 <1>   0.0800 
 44 H       -2.5810    -6.5100    -1.5500 H     1 <1>   0.0800 
 45 H        0.8850    -7.4720    -1.5740 H     1 <1>   0.1500 
 46 H       -3.5740    -7.2130     0.3330 H     1 <1>   0.1500 
 47 H        1.8040    -9.4210    -0.5010 H     1 <1>   0.1500 
 48 H       -1.2860   -11.0680     2.3240 H     1 <1>   0.1500 
 49 H       -4.7270    -8.5890     1.9840 H     1 <1>   0.1500 
 50 H       -3.6020   -10.5140     2.9930 H     1 <1>   0.1500 
@<TRIPOS>BOND
  1   1   2  1   
  2   1   3  1   
  3   2   4  2   
  4   2   5  1   
  5   3   6  2   
  6   3   7  1   
  7   4   6  1   
  8   4   8  1   
  9   5   9  2   
 10   5  10  am  
 11   7  11  1   
 12   7  28  1   
 13   7  29  1   
 14   8  30  1   
 15   8  31  1   
 16   8  32  1   
 17  10  12  1   
 18  10  13  1   
 19  11  33  1   
 20  11  34  1   
 21  11  35  1   
 22  12  14  1   
 23  12  36  1   
 24  12  37  1   
 25  13  15  1   
 26  13  38  1   
 27  13  39  1   
 28  14  15  1   
 29  14  16  1   
 30  14  40  1   
 31  15  17  1   
 32  15  41  1   
 33  16  42  1   
 34  17  18  1   
 35  17  43  1   
 36  17  44  1   
 37  18  19  ar  
 38  18  20  ar  
 39  19  21  ar  
 40  19  22  ar  
 41  20  23  ar  
 42  20  45  1   
 43  21  24  ar  
 44  21  25  ar  
 45  22  26  ar  
 46  22  46  1   
 47  23  24  ar  
 48  23  47  1   
 49  25  27  ar  
 50  25  48  1   
 51  26  27  ar  
 52  26  49  1   
 53  27  50  1   
@<TRIPOS>SUBSTRUCTURE
  1 ****  13 GROUP 4 **** **** 0

# MOE 2024.06 (io_trps.svl 2023.06)
