@<TRIPOS>MOLECULE
NONAME
50 53 1 0 0 
SMALL
USER_CHARGES


@<TRIPOS>ATOM
  1 O       -0.3170     0.0670    -0.8260 O.2   1 <1>  -0.5700 
  2 C       -1.3530     0.7020    -0.7240 C.2   1 <1>   0.7160 
  3 N       -2.5370    -0.0070    -0.6950 N.am  1 <1>  -0.6600 
  4 C       -1.3110     2.1570    -0.6270 C.2   1 <1>   0.1410 
  5 C       -3.8900     0.5750    -0.5150 C.3   1 <1>   0.1400 
  6 C       -2.6080    -1.4860    -0.7330 C.3   1 <1>   0.1400 
  7 N       -2.2020     2.9880    -1.2600 N.2   1 <1>  -0.5650 
  8 C       -0.4350     2.9500     0.0460 C.2   1 <1>  -0.0400 
  9 C       -4.8290    -0.6240    -0.3610 C.3   1 <1>   0.2000 
 10 C       -3.9350    -1.8250    -0.0550 C.3   1 <1>  -0.0800 
 11 C       -1.8030     4.1630    -0.9500 C.2   1 <1>   0.3280 
 12 O       -0.7530     4.1930    -0.1720 O.3   1 <1>  -0.2800 
 13 C        0.7600     2.6830     0.9550 C.3   1 <1>   0.1000 
 14 O       -5.7300    -0.4350     0.6770 O.3   1 <1>  -0.6800 
 15 C       -4.5470    -3.1570    -0.5200 C.3   1 <1>  -0.0170 
 16 C        2.0060     2.3440     0.1320 C.3   1 <1>  -0.2400 
 17 C        0.4720     1.6000     2.0010 C.3   1 <1>  -0.2400 
 18 C       -3.6190    -4.3210    -0.2190 C.ar  1 <1>   0.1670 
 19 N       -2.7300    -4.6220    -1.1150 N.ar  1 <1>  -0.6200 
 20 C       -3.7540    -5.0010     1.0020 C.ar  1 <1>  -0.1500 
 21 C       -1.8810    -5.6460    -0.8450 C.ar  1 <1>   0.3100 
 22 C       -2.9190    -6.0360     1.2970 C.ar  1 <1>  -0.1500 
 23 C       -1.9380    -6.3880     0.3550 C.ar  1 <1>   0.0000 
 24 C       -0.9010    -5.9830    -1.7930 C.ar  1 <1>  -0.1500 
 25 C       -1.0170    -7.4350     0.5570 C.ar  1 <1>  -0.1500 
 26 C       -0.0140    -7.0040    -1.5770 C.ar  1 <1>  -0.1500 
 27 C       -0.0740    -7.7380    -0.3880 C.ar  1 <1>  -0.1500 
 28 H       -3.9010     1.2020     0.3590 H     1 <1>   0.0800 
 29 H       -4.1590     1.1510    -1.3840 H     1 <1>   0.0800 
 30 H       -2.6040    -1.8120    -1.7590 H     1 <1>   0.0800 
 31 H       -1.7750    -1.9350    -0.2170 H     1 <1>   0.0800 
 32 H       -5.3860    -0.7680    -1.2710 H     1 <1>   0.0800 
 33 H       -3.7440    -1.8720     1.0030 H     1 <1>   0.0800 
 34 H       -2.2410     5.0960    -1.2610 H     1 <1>   0.1500 
 35 H        0.9610     3.5940     1.4930 H     1 <1>   0.0800 
 36 H       -5.2530    -0.2840     1.5150 H     1 <1>   0.4000 
 37 H       -4.7350    -3.1250    -1.5790 H     1 <1>   0.0800 
 38 H       -5.4910    -3.3110    -0.0280 H     1 <1>   0.0800 
 39 H        1.8630     1.4270    -0.4120 H     1 <1>   0.0800 
 40 H        2.8610     2.2320     0.7750 H     1 <1>   0.0800 
 41 H        2.2060     3.1310    -0.5730 H     1 <1>   0.0800 
 42 H        0.3700     0.6330     1.5450 H     1 <1>   0.0800 
 43 H       -0.4340     1.8310     2.5310 H     1 <1>   0.0800 
 44 H        1.2790     1.5510     2.7100 H     1 <1>   0.0800 
 45 H       -4.5180    -4.6940     1.6930 H     1 <1>   0.1500 
 46 H       -2.9920    -6.5810     2.2210 H     1 <1>   0.1500 
 47 H       -0.8710    -5.4050    -2.6990 H     1 <1>   0.1500 
 48 H       -1.0680    -7.9940     1.4740 H     1 <1>   0.1500 
 49 H        0.7320    -7.2520    -2.3120 H     1 <1>   0.1500 
 50 H        0.6290    -8.5370    -0.2300 H     1 <1>   0.1500 
@<TRIPOS>BOND
  1   1   2  2   
  2   2   3  am  
  3   2   4  1   
  4   3   5  1   
  5   3   6  1   
  6   4   7  1   
  7   4   8  2   
  8   5   9  1   
  9   5  28  1   
 10   5  29  1   
 11   6  10  1   
 12   6  30  1   
 13   6  31  1   
 14   7  11  2   
 15   8  12  1   
 16   8  13  1   
 17   9  10  1   
 18   9  14  1   
 19   9  32  1   
 20  10  15  1   
 21  10  33  1   
 22  11  12  1   
 23  11  34  1   
 24  13  16  1   
 25  13  17  1   
 26  13  35  1   
 27  14  36  1   
 28  15  18  1   
 29  15  37  1   
 30  15  38  1   
 31  16  39  1   
 32  16  40  1   
 33  16  41  1   
 34  17  42  1   
 35  17  43  1   
 36  17  44  1   
 37  18  19  ar  
 38  18  20  ar  
 39  19  21  ar  
 40  20  22  ar  
 41  20  45  1   
 42  21  23  ar  
 43  21  24  ar  
 44  22  23  ar  
 45  22  46  1   
 46  23  25  ar  
 47  24  26  ar  
 48  24  47  1   
 49  25  27  ar  
 50  25  48  1   
 51  26  27  ar  
 52  26  49  1   
 53  27  50  1   
@<TRIPOS>SUBSTRUCTURE
  1 ****   6 GROUP 4 **** **** 0

# MOE 2024.06 (io_trps.svl 2023.06)
