@<TRIPOS>MOLECULE
NONAME
53 56 1 0 0 
SMALL
USER_CHARGES


@<TRIPOS>ATOM
  1 F       -1.3230     1.4210    -2.7470 F     1 <1>  -0.1900 
  2 C       -1.9490     1.1630    -1.6300 C.ar  1 <1>   0.1900 
  3 C       -1.7020    -0.0400    -0.9970 C.ar  1 <1>  -0.1500 
  4 C       -2.8300     2.1020    -1.1280 C.ar  1 <1>  -0.1500 
  5 C       -2.3850    -0.2720     0.1810 C.ar  1 <1>   0.1900 
  6 C       -3.5070     1.8420     0.0610 C.ar  1 <1>   0.1000 
  7 F       -2.1790    -1.3980     0.8110 F     1 <1>  -0.1900 
  8 C       -3.2740     0.6390     0.7170 C.ar  1 <1>  -0.1500 
  9 N       -4.4030     2.7550     0.6060 N.pl3 1 <1>  -0.8380 
 10 C       -5.6350     3.1090    -0.1730 C.3   1 <1>   0.2890 
 11 C       -3.7580     3.9520     1.2310 C.3   1 <1>   0.2090 
 12 C       -6.6230     3.9300     0.6910 C.3   1 <1>   0.1400 
 13 C       -6.3220     1.8330    -0.6700 C.3   1 <1>  -0.2400 
 14 C       -4.7440     4.7300     2.1130 C.3   1 <1>   0.1400 
 15 N       -5.9670     5.1110     1.3420 N.am  1 <1>  -0.6600 
 16 C       -6.3770     6.4170     1.2520 C.2   1 <1>   0.5690 
 17 O       -5.7260     7.3150     1.7330 O.2   1 <1>  -0.5700 
 18 C       -7.6810     6.7670     0.5430 C.3   1 <1>  -0.0990 
 19 C       -8.0780     8.2600     0.6510 C.3   1 <1>  -0.1600 
 20 C       -9.4320     8.6090     0.0040 C.3   1 <1>   0.4560 
 21 N       -9.6590    10.0610     0.1500 N.am  1 <1>  -0.7300 
 22 C       -9.4170     8.5040    -1.5410 C.2   1 <1>   0.5690 
 23 C      -10.6120     7.8990     0.7050 C.3   1 <1>  -0.1950 
 24 C       -9.8620    10.6230    -1.0560 C.2   1 <1>   0.6900 
 25 O       -9.2100     7.5200    -2.2100 O.2   1 <1>  -0.5700 
 26 N       -9.6720     9.7310    -2.0470 N.am  1 <1>  -0.4900 
 27 C      -11.1940     6.5970     0.2410 C.3   1 <1>  -0.2000 
 28 C      -11.9960     7.8620     0.1280 C.3   1 <1>  -0.2000 
 29 O      -10.2220    11.7610    -1.2310 O.2   1 <1>  -0.5700 
 30 H       -1.0140    -0.7590    -1.4010 H     1 <1>   0.1500 
 31 H       -2.9890     3.0250    -1.6520 H     1 <1>   0.1500 
 32 H       -3.7890     0.4260     1.6350 H     1 <1>   0.1500 
 33 H       -5.3520     3.7060    -1.0230 H     1 <1>   0.0800 
 34 H       -2.9230     3.6330     1.8310 H     1 <1>   0.0800 
 35 H       -3.3840     4.6050     0.4610 H     1 <1>   0.0800 
 36 H       -7.0180     3.2910     1.4610 H     1 <1>   0.0800 
 37 H       -7.4440     4.2400     0.0710 H     1 <1>   0.0800 
 38 H       -6.5390     1.1820     0.1580 H     1 <1>   0.0800 
 39 H       -5.6950     1.3150    -1.3720 H     1 <1>   0.0800 
 40 H       -7.2410     2.0780    -1.1700 H     1 <1>   0.0800 
 41 H       -4.2510     5.6030     2.5040 H     1 <1>   0.0800 
 42 H       -5.0300     4.1140     2.9470 H     1 <1>   0.0800 
 43 H       -7.5730     6.4990    -0.4910 H     1 <1>   0.0800 
 44 H       -8.4560     6.1620     0.9740 H     1 <1>   0.0800 
 45 H       -7.3070     8.8510     0.1870 H     1 <1>   0.0800 
 46 H       -8.1130     8.5290     1.6920 H     1 <1>   0.0800 
 47 H      -10.0860    10.4530     0.9870 H     1 <1>   0.3700 
 48 H      -10.5470     8.0180     1.7730 H     1 <1>   0.1000 
 49 H       -9.7700     9.9600    -3.0290 H     1 <1>   0.3700 
 50 H      -10.8480     6.1360    -0.6690 H     1 <1>   0.1000 
 51 H      -11.4910     5.8680     0.9770 H     1 <1>   0.1000 
 52 H      -12.8350     8.0030     0.7880 H     1 <1>   0.1000 
 53 H      -12.1840     8.2550    -0.8570 H     1 <1>   0.1000 
@<TRIPOS>BOND
  1   1   2  1   
  2   2   3  ar  
  3   2   4  ar  
  4   3   5  ar  
  5   3  30  1   
  6   4   6  ar  
  7   4  31  1   
  8   5   7  1   
  9   5   8  ar  
 10   6   8  ar  
 11   6   9  1   
 12   8  32  1   
 13   9  10  1   
 14   9  11  1   
 15  10  12  1   
 16  10  13  1   
 17  10  33  1   
 18  11  14  1   
 19  11  34  1   
 20  11  35  1   
 21  12  15  1   
 22  12  36  1   
 23  12  37  1   
 24  13  38  1   
 25  13  39  1   
 26  13  40  1   
 27  14  15  1   
 28  14  41  1   
 29  14  42  1   
 30  15  16  am  
 31  16  17  2   
 32  16  18  1   
 33  18  19  1   
 34  18  43  1   
 35  18  44  1   
 36  19  20  1   
 37  19  45  1   
 38  19  46  1   
 39  20  21  1   
 40  20  22  1   
 41  20  23  1   
 42  21  24  am  
 43  21  47  1   
 44  22  25  2   
 45  22  26  am  
 46  23  27  1   
 47  23  28  1   
 48  23  48  1   
 49  24  26  am  
 50  24  29  2   
 51  26  49  1   
 52  27  28  1   
 53  27  50  1   
 54  27  51  1   
 55  28  52  1   
 56  28  53  1   
@<TRIPOS>SUBSTRUCTURE
  1 ****  12 GROUP 4 **** **** 0

# MOE 2024.06 (io_trps.svl 2023.06)
