@<TRIPOS>MOLECULE
NONAME
49 51 1 0 0 
SMALL
USER_CHARGES


@<TRIPOS>ATOM
  1 O        2.4720    -2.9260     0.0300 O.3   1 <1>  -0.3630 
  2 C        2.9020    -1.7220    -0.4440 C.ar  1 <1>   0.0830 
  3 C        1.6080    -3.7710    -0.6990 C.3   1 <1>   0.0400 
  4 C        2.7840    -1.2320    -1.7550 C.ar  1 <1>   0.0830 
  5 C        3.5230    -0.9320     0.5090 C.ar  1 <1>  -0.1500 
  6 O        2.2110    -1.9260    -2.7600 O.3   1 <1>  -0.5330 
  7 C        3.2800     0.0240    -2.0660 C.ar  1 <1>  -0.1500 
  8 C        4.0450     0.3120     0.1920 C.ar  1 <1>  -0.1440 
  9 C        3.9060     0.7920    -1.1010 C.ar  1 <1>  -0.1500 
 10 C        4.7690     1.1260     1.2460 C.3   1 <1>   0.4860 
 11 N        6.1180     0.5240     1.4110 N.4   1 <1>  -0.8520 
 12 C        6.3050    -0.0740     2.7420 C.3   1 <1>   0.2960 
 13 C        7.2160     1.4570     1.0820 C.3   1 <1>   0.5230 
 14 C        7.4240    -1.0410     2.9370 C.3   1 <1>  -0.2000 
 15 C        6.0060    -1.5250     2.9120 C.3   1 <1>  -0.2000 
 16 C        7.0770     1.8710    -0.3600 C.2   1 <1>  -0.3320 
 17 N        7.3620     1.1330    -1.4670 N.pl3 1 <1>   0.0480 
 18 C        6.6420     3.0740    -0.7970 C.2   1 <1>   0.0770 
 19 C        7.0450     1.9570    -2.4930 C.2   1 <1>   0.0360 
 20 C        7.9700    -0.2150    -1.6790 C.3   1 <1>   0.1760 
 21 N        6.6040     3.1160    -2.1330 N.2   1 <1>  -0.5650 
 22 C        7.0260    -1.3510    -1.2700 C.3   1 <1>  -0.2400 
 23 C        9.3300    -0.3350    -0.9810 C.3   1 <1>  -0.2400 
 24 H        1.3100    -4.5810    -0.0580 H     1 <1>   0.0800 
 25 H        2.1360    -4.1560    -1.5520 H     1 <1>   0.0800 
 26 H        0.7440    -3.2080    -1.0040 H     1 <1>   0.0800 
 27 H        3.5810    -1.3200     1.5100 H     1 <1>   0.1500 
 28 H        2.1680    -1.4290    -3.5960 H     1 <1>   0.4500 
 29 H        3.1840     0.4150    -3.0640 H     1 <1>   0.1500 
 30 H        4.2810     1.7630    -1.3790 H     1 <1>   0.1500 
 31 H        4.2200     1.0920     2.1730 H     1 <1>   0.0800 
 32 H        4.8430     2.1520     0.9240 H     1 <1>   0.0800 
 33 H        6.1450    -0.2190     0.7060 H     1 <1>   0.4500 
 34 H        6.0800     0.5990     3.5570 H     1 <1>   0.1000 
 35 H        8.1720     0.9870     1.2390 H     1 <1>   0.0800 
 36 H        7.1600     2.3260     1.7180 H     1 <1>   0.0800 
 37 H        7.9370    -1.0690     3.8830 H     1 <1>   0.1000 
 38 H        8.0610    -1.3270     2.1190 H     1 <1>   0.1000 
 39 H        5.7100    -2.1370     2.0770 H     1 <1>   0.1000 
 40 H        5.5780    -1.8670     3.8390 H     1 <1>   0.1000 
 41 H        6.3400     3.9360    -0.2210 H     1 <1>   0.1500 
 42 H        7.1630     1.6600    -3.5220 H     1 <1>   0.1500 
 43 H        8.1450    -0.3110    -2.7380 H     1 <1>   0.0800 
 44 H        6.9760    -1.4720    -0.2070 H     1 <1>   0.0800 
 45 H        7.3940    -2.2770    -1.6770 H     1 <1>   0.0800 
 46 H        6.0410    -1.1900    -1.6720 H     1 <1>   0.0800 
 47 H        9.2320    -0.3520     0.0870 H     1 <1>   0.0800 
 48 H        9.9690     0.4810    -1.2700 H     1 <1>   0.0800 
 49 H        9.8080    -1.2510    -1.2830 H     1 <1>   0.0800 
@<TRIPOS>BOND
  1   1   2  1   
  2   1   3  1   
  3   2   4  ar  
  4   2   5  ar  
  5   3  24  1   
  6   3  25  1   
  7   3  26  1   
  8   4   6  1   
  9   4   7  ar  
 10   5   8  ar  
 11   5  27  1   
 12   6  28  1   
 13   7   9  ar  
 14   7  29  1   
 15   8   9  ar  
 16   8  10  1   
 17   9  30  1   
 18  10  11  1   
 19  10  31  1   
 20  10  32  1   
 21  11  12  1   
 22  11  13  1   
 23  11  33  1   
 24  12  14  1   
 25  12  15  1   
 26  12  34  1   
 27  13  16  1   
 28  13  35  1   
 29  13  36  1   
 30  14  15  1   
 31  14  37  1   
 32  14  38  1   
 33  15  39  1   
 34  15  40  1   
 35  16  17  1   
 36  16  18  2   
 37  17  19  1   
 38  17  20  1   
 39  18  21  1   
 40  18  41  1   
 41  19  21  2   
 42  19  42  1   
 43  20  22  1   
 44  20  23  1   
 45  20  43  1   
 46  22  44  1   
 47  22  45  1   
 48  22  46  1   
 49  23  47  1   
 50  23  48  1   
 51  23  49  1   
@<TRIPOS>SUBSTRUCTURE
  1 ****   8 GROUP 4 **** **** 0

# MOE 2024.06 (io_trps.svl 2023.06)
