@<TRIPOS>MOLECULE
NONAME
46 49 1 0 0 
SMALL
USER_CHARGES


@<TRIPOS>ATOM
  1 F        3.2380     5.1520    -1.6080 F     1 <1>  -0.1900 
  2 C        4.4250     4.6160    -1.4790 C.ar  1 <1>   0.1900 
  3 C        4.7170     3.9180    -0.3330 C.ar  1 <1>  -0.1500 
  4 C        5.3380     4.7900    -2.5230 C.ar  1 <1>  -0.1500 
  5 C        5.9920     3.3700    -0.2260 C.ar  1 <1>   0.2270 
  6 C        6.5960     4.2370    -2.4170 C.ar  1 <1>  -0.1500 
  7 N        6.5530     2.6820     0.8090 N.2   1 <1>  -0.5650 
  8 C        6.9070     3.5230    -1.2550 C.ar  1 <1>  -0.1520 
  9 C        7.7490     2.4160     0.4060 C.2   1 <1>   0.0060 
 10 N        8.0300     2.8880    -0.8350 N.pl3 1 <1>   0.0330 
 11 C        8.7990     1.6950     1.2320 C.3   1 <1>   0.3000 
 12 O        9.7830     2.6090     1.6230 O.3   1 <1>  -0.5600 
 13 C        9.4250     3.4910     2.6690 C.3   1 <1>   0.1810 
 14 C        9.2080     4.9280     2.1870 C.2   1 <1>   0.5690 
 15 O       10.0350     5.7630     2.4680 O.2   1 <1>  -0.5700 
 16 N        8.0770     5.2150     1.4760 N.am  1 <1>  -0.4940 
 17 C        7.6410     6.4070     0.8490 C.2   1 <1>  -0.0880 
 18 N        8.3720     7.2890     0.1030 N.pl3 1 <1>   0.3140 
 19 C        6.3660     6.8590     0.8420 C.2   1 <1>  -0.1500 
 20 N        7.5750     8.2890    -0.3670 N.2   1 <1>  -0.7070 
 21 C        9.8190     7.1790    -0.2760 C.3   1 <1>   0.1760 
 22 C        6.3910     8.0190     0.0830 C.2   1 <1>   0.1390 
 23 C       10.3220     8.2830    -1.2130 C.3   1 <1>  -0.1600 
 24 C       10.1390     5.8790    -1.0320 C.3   1 <1>  -0.1600 
 25 C       11.5830     7.6930    -1.8370 C.3   1 <1>  -0.1600 
 26 C       11.2740     6.2060    -2.0130 C.3   1 <1>  -0.1600 
 27 H        4.0050     3.7930     0.4590 H     1 <1>   0.1500 
 28 H        5.0440     5.3540    -3.3900 H     1 <1>   0.1500 
 29 H        7.3240     4.3540    -3.2010 H     1 <1>   0.1500 
 30 H        8.9290     2.8400    -1.3230 H     1 <1>   0.2700 
 31 H        9.2730     0.9310     0.6430 H     1 <1>   0.0800 
 32 H        8.3640     1.2380     2.1050 H     1 <1>   0.0800 
 33 H       10.2360     3.4900     3.3750 H     1 <1>   0.0800 
 34 H        8.5410     3.1380     3.1700 H     1 <1>   0.0800 
 35 H        7.4300     4.4200     1.3600 H     1 <1>   0.3700 
 36 H        5.5020     6.4310     1.3120 H     1 <1>   0.1500 
 37 H       10.4070     7.2250     0.6200 H     1 <1>   0.0800 
 38 H        5.5290     8.6320    -0.1180 H     1 <1>   0.1500 
 39 H       10.5220     9.1960    -0.6800 H     1 <1>   0.0800 
 40 H        9.6030     8.4680    -1.9920 H     1 <1>   0.0800 
 41 H        9.2740     5.5570    -1.5840 H     1 <1>   0.0800 
 42 H       10.4400     5.1090    -0.3450 H     1 <1>   0.0800 
 43 H       12.4060     7.8100    -1.1520 H     1 <1>   0.0800 
 44 H       11.8300     8.1700    -2.7700 H     1 <1>   0.0800 
 45 H       10.9440     6.0200    -3.0210 H     1 <1>   0.0800 
 46 H       12.1490     5.6090    -1.8170 H     1 <1>   0.0800 
@<TRIPOS>BOND
  1   1   2  1   
  2   2   3  ar  
  3   2   4  ar  
  4   3   5  ar  
  5   3  27  1   
  6   4   6  ar  
  7   4  28  1   
  8   5   7  1   
  9   5   8  ar  
 10   6   8  ar  
 11   6  29  1   
 12   7   9  2   
 13   8  10  1   
 14   9  10  1   
 15   9  11  1   
 16  10  30  1   
 17  11  12  1   
 18  11  31  1   
 19  11  32  1   
 20  12  13  1   
 21  13  14  1   
 22  13  33  1   
 23  13  34  1   
 24  14  15  2   
 25  14  16  am  
 26  16  17  1   
 27  16  35  1   
 28  17  18  1   
 29  17  19  2   
 30  18  20  1   
 31  18  21  1   
 32  19  22  1   
 33  19  36  1   
 34  20  22  2   
 35  21  23  1   
 36  21  24  1   
 37  21  37  1   
 38  22  38  1   
 39  23  25  1   
 40  23  39  1   
 41  23  40  1   
 42  24  26  1   
 43  24  41  1   
 44  24  42  1   
 45  25  26  1   
 46  25  43  1   
 47  25  44  1   
 48  26  45  1   
 49  26  46  1   
@<TRIPOS>SUBSTRUCTURE
  1 ****  16 GROUP 4 **** **** 0

# MOE 2024.06 (io_trps.svl 2023.06)
