@<TRIPOS>MOLECULE
NONAME
56 59 1 0 0 
SMALL
USER_CHARGES


@<TRIPOS>ATOM
  1 O       -0.0950     0.1450     1.9620 O.2   1 <1>  -0.5700 
  2 C       -0.7230     0.5970     1.0250 C.2   1 <1>   0.7030 
  3 N       -1.0660    -0.2400    -0.0020 N.am  1 <1>  -0.6600 
  4 C       -1.1060     1.9980     1.0540 C.2   1 <1>   0.2770 
  5 C       -1.6860    -1.5620     0.3070 C.3   1 <1>   0.3640 
  6 C       -1.2110     0.1510    -1.4400 C.3   1 <1>   0.1400 
  7 N       -0.4440     2.9900     1.7560 N.pl3 1 <1>  -0.7000 
  8 C       -2.1640     2.6090     0.4670 C.2   1 <1>   0.2000 
  9 C       -0.8760    -2.6480    -0.4190 C.ar  1 <1>  -0.1440 
 10 C       -3.2120    -1.4740    -0.0330 C.3   1 <1>   0.2000 
 11 C       -2.5860    -0.2740    -1.9980 C.3   1 <1>   0.1200 
 12 C       -1.0790     4.1560     1.5890 C.cat 1 <1>   0.7910 
 13 N       -2.1480     3.9490     0.7830 N.pl3 1 <1>  -0.6290 
 14 C        0.4360    -2.8350     0.0010 C.ar  1 <1>  -0.1500 
 15 C       -1.3560    -3.4470    -1.4540 C.ar  1 <1>  -0.1500 
 16 O       -3.5090    -0.4360    -0.9560 O.3   1 <1>  -0.5600 
 17 C       -4.0590    -1.1860     1.2140 C.3   1 <1>   0.1200 
 18 C       -0.7940     5.4400     2.1060 C.2   1 <1>  -0.1290 
 19 C       -2.9840     4.9930     0.4510 C.2   1 <1>   0.2290 
 20 C        1.2540    -3.7850    -0.5860 C.ar  1 <1>   0.0830 
 21 C       -0.5410    -4.3920    -2.0550 C.ar  1 <1>  -0.1500 
 22 O       -3.9030    -2.1940     2.1570 O.3   1 <1>  -0.6800 
 23 C       -1.6230     6.4800     1.7740 C.2   1 <1>  -0.1500 
 24 C        0.4110     5.6580     3.0140 C.3   1 <1>  -0.1020 
 25 C       -2.7310     6.2430     0.9340 C.2   1 <1>  -0.1500 
 26 O        2.5080    -3.9210    -0.0920 O.3   1 <1>  -0.3620 
 27 C        0.7680    -4.5590    -1.6430 C.ar  1 <1>   0.0830 
 28 C        2.7650    -5.1150     0.6140 C.3   1 <1>   0.0400 
 29 O        1.5160    -5.4800    -2.2990 O.3   1 <1>  -0.3630 
 30 C        2.6590    -5.0070    -2.9780 C.3   1 <1>   0.0400 
 31 H       -1.5830    -1.7690     1.3600 H     1 <1>   0.0800 
 32 H       -1.0790     1.2100    -1.5650 H     1 <1>   0.0800 
 33 H       -0.4380    -0.3320    -2.0150 H     1 <1>   0.0800 
 34 H        0.3730     2.8170     2.3490 H     1 <1>   0.4500 
 35 H       -2.9310     2.1610    -0.1470 H     1 <1>   0.1500 
 36 H       -3.5690    -2.3960    -0.4500 H     1 <1>   0.0800 
 37 H       -2.5100    -1.2010    -2.5390 H     1 <1>   0.0800 
 38 H       -2.9650     0.4730    -2.6730 H     1 <1>   0.0800 
 39 H        0.8400    -2.2400     0.8020 H     1 <1>   0.1500 
 40 H       -2.3610    -3.3620    -1.8230 H     1 <1>   0.1500 
 41 H       -5.1030    -1.1230     0.9600 H     1 <1>   0.0800 
 42 H       -3.7440    -0.2650     1.6720 H     1 <1>   0.0800 
 43 H       -3.8290     4.7880    -0.1900 H     1 <1>   0.1500 
 44 H       -0.9160    -5.0050    -2.8550 H     1 <1>   0.1500 
 45 H       -4.4430    -2.9800     1.9350 H     1 <1>   0.4000 
 46 H       -1.4550     7.4810     2.1380 H     1 <1>   0.1500 
 47 H        0.3280     5.0530     3.9000 H     1 <1>   0.0800 
 48 H        0.4800     6.6880     3.3180 H     1 <1>   0.0800 
 49 H        1.3210     5.4010     2.4990 H     1 <1>   0.0800 
 50 H       -3.3740     7.0710     0.6840 H     1 <1>   0.1500 
 51 H        3.7700    -5.0730     0.9900 H     1 <1>   0.0800 
 52 H        2.6550    -5.9520    -0.0520 H     1 <1>   0.0800 
 53 H        2.0670    -5.1920     1.4290 H     1 <1>   0.0800 
 54 H        3.0440    -5.8070    -3.5840 H     1 <1>   0.0800 
 55 H        3.4010    -4.7040    -2.2630 H     1 <1>   0.0800 
 56 H        2.3760    -4.1760    -3.6000 H     1 <1>   0.0800 
@<TRIPOS>BOND
  1   1   2  2   
  2   2   3  am  
  3   2   4  1   
  4   3   5  1   
  5   3   6  1   
  6   4   7  1   
  7   4   8  2   
  8   5   9  1   
  9   5  10  1   
 10   5  31  1   
 11   6  11  1   
 12   6  32  1   
 13   6  33  1   
 14   7  12  ar  
 15   7  34  1   
 16   8  13  1   
 17   8  35  1   
 18   9  14  ar  
 19   9  15  ar  
 20  10  16  1   
 21  10  17  1   
 22  10  36  1   
 23  11  16  1   
 24  11  37  1   
 25  11  38  1   
 26  12  13  ar  
 27  12  18  1   
 28  13  19  1   
 29  14  20  ar  
 30  14  39  1   
 31  15  21  ar  
 32  15  40  1   
 33  17  22  1   
 34  17  41  1   
 35  17  42  1   
 36  18  23  2   
 37  18  24  1   
 38  19  25  2   
 39  19  43  1   
 40  20  26  1   
 41  20  27  ar  
 42  21  27  ar  
 43  21  44  1   
 44  22  45  1   
 45  23  25  1   
 46  23  46  1   
 47  24  47  1   
 48  24  48  1   
 49  24  49  1   
 50  25  50  1   
 51  26  28  1   
 52  27  29  1   
 53  28  51  1   
 54  28  52  1   
 55  28  53  1   
 56  29  30  1   
 57  30  54  1   
 58  30  55  1   
 59  30  56  1   
@<TRIPOS>SUBSTRUCTURE
  1 ****   3 GROUP 4 **** **** 0

# MOE 2024.06 (io_trps.svl 2023.06)
