@<TRIPOS>MOLECULE
NONAME
46 49 1 0 0 
SMALL
USER_CHARGES


@<TRIPOS>ATOM
  1 S       -0.8710    -2.0230    -0.1040 S.3   1 <1>  -0.0800 
  2 C        0.5100    -0.9810    -0.4080 C.2   1 <1>   0.1980 
  3 C       -1.8570    -0.9600    -1.0640 C.2   1 <1>  -0.1100 
  4 N        0.2390     0.0400    -1.1260 N.2   1 <1>  -0.5650 
  5 C        1.8570    -1.3600     0.2190 C.3   1 <1>   0.4000 
  6 C       -1.0940     0.0510    -1.5050 C.2   1 <1>   0.0770 
  7 N        2.0700    -2.8280     0.3650 N.am  1 <1>  -0.6600 
  8 C        1.9790    -0.8080     1.6440 C.3   1 <1>  -0.1600 
  9 C        2.2310    -3.6320    -0.7260 C.2   1 <1>   0.5690 
 10 C        2.2640    -3.1950     1.7840 C.3   1 <1>   0.1400 
 11 C        2.6890    -1.8940     2.4490 C.3   1 <1>  -0.1600 
 12 O        2.2740    -3.1840    -1.8440 O.2   1 <1>  -0.5700 
 13 C        2.3560    -5.1390    -0.5710 C.3   1 <1>  -0.0990 
 14 C        1.0110    -5.7950    -0.2120 C.3   1 <1>  -0.1600 
 15 C        1.1380    -7.3240    -0.1220 C.3   1 <1>   0.0960 
 16 N       -0.1250    -7.9400     0.3260 N.pl3 1 <1>   0.5800 
 17 N       -0.4620    -8.0420     1.5980 N.2   1 <1>  -0.4180 
 18 N       -1.0170    -8.4380    -0.4970 N.2   1 <1>  -0.7070 
 19 N       -1.5970    -8.6140     1.6070 N.2   1 <1>  -0.2270 
 20 C       -1.9240    -8.8490     0.3300 C.2   1 <1>   0.4620 
 21 C       -3.1680    -9.4940    -0.0600 C.ar  1 <1>   0.0540 
 22 C       -3.4940    -9.6700    -1.4100 C.ar  1 <1>  -0.1500 
 23 C       -4.0830    -9.9620     0.8920 C.ar  1 <1>  -0.1500 
 24 C       -4.6730   -10.2810    -1.8000 C.ar  1 <1>  -0.1500 
 25 C       -5.2660   -10.5750     0.5210 C.ar  1 <1>  -0.1500 
 26 C       -5.5410   -10.7240    -0.8240 C.ar  1 <1>   0.1900 
 27 F       -6.6560   -11.3020    -1.1820 F     1 <1>  -0.1900 
 28 H       -2.8930    -1.2080    -1.1960 H     1 <1>   0.1500 
 29 H        2.6470    -0.9590    -0.3930 H     1 <1>   0.0800 
 30 H       -1.4280     0.8640    -2.1260 H     1 <1>   0.1500 
 31 H        0.9960    -0.6440     2.0500 H     1 <1>   0.0800 
 32 H        2.5110     0.1260     1.6540 H     1 <1>   0.0800 
 33 H        3.0160    -3.9550     1.9050 H     1 <1>   0.0800 
 34 H        1.3270    -3.5340     2.1920 H     1 <1>   0.0800 
 35 H        2.4240    -1.8710     3.4920 H     1 <1>   0.0800 
 36 H        3.7550    -1.7830     2.3550 H     1 <1>   0.0800 
 37 H        3.0990    -5.3640     0.1700 H     1 <1>   0.0800 
 38 H        2.7050    -5.5390    -1.5070 H     1 <1>   0.0800 
 39 H        0.2840    -5.5420    -0.9670 H     1 <1>   0.0800 
 40 H        0.6650    -5.4080     0.7310 H     1 <1>   0.0800 
 41 H        1.9050    -7.5940     0.5800 H     1 <1>   0.0800 
 42 H        1.3900    -7.7340    -1.0830 H     1 <1>   0.0800 
 43 H       -2.8100    -9.3190    -2.1650 H     1 <1>   0.1500 
 44 H       -3.8660    -9.8450     1.9400 H     1 <1>   0.1500 
 45 H       -4.9170   -10.4130    -2.8390 H     1 <1>   0.1500 
 46 H       -5.9650   -10.9330     1.2560 H     1 <1>   0.1500 
@<TRIPOS>BOND
  1   1   2  1   
  2   1   3  1   
  3   2   4  2   
  4   2   5  1   
  5   3   6  2   
  6   3  28  1   
  7   4   6  1   
  8   5   7  1   
  9   5   8  1   
 10   5  29  1   
 11   6  30  1   
 12   7   9  am  
 13   7  10  1   
 14   8  11  1   
 15   8  31  1   
 16   8  32  1   
 17   9  12  2   
 18   9  13  1   
 19  10  11  1   
 20  10  33  1   
 21  10  34  1   
 22  11  35  1   
 23  11  36  1   
 24  13  14  1   
 25  13  37  1   
 26  13  38  1   
 27  14  15  1   
 28  14  39  1   
 29  14  40  1   
 30  15  16  1   
 31  15  41  1   
 32  15  42  1   
 33  16  17  1   
 34  16  18  1   
 35  17  19  2   
 36  18  20  2   
 37  19  20  1   
 38  20  21  1   
 39  21  22  ar  
 40  21  23  ar  
 41  22  24  ar  
 42  22  43  1   
 43  23  25  ar  
 44  23  44  1   
 45  24  26  ar  
 46  24  45  1   
 47  25  26  ar  
 48  25  46  1   
 49  26  27  1   
@<TRIPOS>SUBSTRUCTURE
  1 ****  14 GROUP 4 **** **** 0

# MOE 2024.06 (io_trps.svl 2023.06)
