@<TRIPOS>MOLECULE
NONAME
48 49 1 0 0 
SMALL
USER_CHARGES


@<TRIPOS>ATOM
  1 CL       2.9180    -0.8350    -1.4670 Cl    1 <1>  -0.1770 
  2 C        3.2600     0.7490    -0.7980 C.ar  1 <1>   0.1770 
  3 C        4.4530     1.4110    -1.0700 C.ar  1 <1>   0.1660 
  4 C        2.3110     1.3270     0.0170 C.ar  1 <1>  -0.1500 
  5 N        4.7650     2.6010    -0.5670 N.ar  1 <1>  -0.6200 
  6 C        5.4910     0.7830    -1.9830 C.3   1 <1>  -0.0960 
  7 C        2.6220     2.5670     0.5240 C.ar  1 <1>  -0.1500 
  8 C        3.8390     3.1630     0.2080 C.ar  1 <1>   0.4100 
  9 N        4.1410     4.4060     0.7230 N.pl3 1 <1>  -0.8380 
 10 C        4.6150     5.4430    -0.2630 C.3   1 <1>   0.2090 
 11 C        4.8930     4.4110     2.0180 C.3   1 <1>   0.2090 
 12 C        6.1600     5.6510    -0.2500 C.3   1 <1>   0.4230 
 13 C        6.4230     4.2610     1.8130 C.3   1 <1>   0.3430 
 14 N        6.8360     4.4670     0.3810 N.4   1 <1>  -0.9590 
 15 C        6.5880     6.9740     0.4270 C.3   1 <1>  -0.1600 
 16 C        8.3030     4.4360     0.1170 C.3   1 <1>   0.3430 
 17 C        7.3230     7.8930    -0.5500 C.3   1 <1>   0.1200 
 18 C        8.9730     3.1330     0.5910 C.3   1 <1>  -0.0800 
 19 O        8.3720     7.1860    -1.1100 O.3   1 <1>  -0.6800 
 20 C       10.4600     3.1610     0.2160 C.3   1 <1>  -0.2400 
 21 C        8.3230     1.8760    -0.0100 C.3   1 <1>  -0.2400 
 22 H        1.3840     0.8280     0.2350 H     1 <1>   0.1500 
 23 H        5.0200     0.2580    -2.7940 H     1 <1>   0.0800 
 24 H        6.0960     0.0920    -1.4250 H     1 <1>   0.0800 
 25 H        6.1260     1.5400    -2.4060 H     1 <1>   0.0800 
 26 H        1.9350     3.0920     1.1610 H     1 <1>   0.1500 
 27 H        4.1010     6.3690    -0.0770 H     1 <1>   0.0800 
 28 H        4.3300     5.1370    -1.2550 H     1 <1>   0.0800 
 29 H        4.5400     3.6120     2.6480 H     1 <1>   0.0800 
 30 H        4.6930     5.3340     2.5320 H     1 <1>   0.0800 
 31 H        6.4710     5.7070    -1.2810 H     1 <1>   0.0800 
 32 H        6.7080     3.2690     2.1210 H     1 <1>   0.0800 
 33 H        6.9340     4.9590     2.4530 H     1 <1>   0.0800 
 34 H        6.3850     3.6650    -0.1090 H     1 <1>   0.4500 
 35 H        7.2300     6.8020     1.2710 H     1 <1>   0.0800 
 36 H        5.7300     7.5070     0.7940 H     1 <1>   0.0800 
 37 H        8.7750     5.2750     0.6010 H     1 <1>   0.0800 
 38 H        8.4700     4.5450    -0.9430 H     1 <1>   0.0800 
 39 H        7.7240     8.7530    -0.0390 H     1 <1>   0.0800 
 40 H        6.6730     8.2210    -1.3450 H     1 <1>   0.0800 
 41 H        8.9170     3.0780     1.6640 H     1 <1>   0.0800 
 42 H        8.9160     7.7750    -1.6780 H     1 <1>   0.4000 
 43 H       10.5860     3.2010    -0.8530 H     1 <1>   0.0800 
 44 H       10.9560     2.2780     0.5810 H     1 <1>   0.0800 
 45 H       10.9450     4.0180     0.6500 H     1 <1>   0.0800 
 46 H        8.3310     1.9210    -1.0850 H     1 <1>   0.0800 
 47 H        7.3090     1.7640     0.3270 H     1 <1>   0.0800 
 48 H        8.8650     0.9970     0.2950 H     1 <1>   0.0800 
@<TRIPOS>BOND
  1   1   2  1   
  2   2   3  ar  
  3   2   4  ar  
  4   3   5  ar  
  5   3   6  1   
  6   4   7  ar  
  7   4  22  1   
  8   5   8  ar  
  9   6  23  1   
 10   6  24  1   
 11   6  25  1   
 12   7   8  ar  
 13   7  26  1   
 14   8   9  1   
 15   9  10  1   
 16   9  11  1   
 17  10  12  1   
 18  10  27  1   
 19  10  28  1   
 20  11  13  1   
 21  11  29  1   
 22  11  30  1   
 23  12  14  1   
 24  12  15  1   
 25  12  31  1   
 26  13  14  1   
 27  13  32  1   
 28  13  33  1   
 29  14  16  1   
 30  14  34  1   
 31  15  17  1   
 32  15  35  1   
 33  15  36  1   
 34  16  18  1   
 35  16  37  1   
 36  16  38  1   
 37  17  19  1   
 38  17  39  1   
 39  17  40  1   
 40  18  20  1   
 41  18  21  1   
 42  18  41  1   
 43  19  42  1   
 44  20  43  1   
 45  20  44  1   
 46  20  45  1   
 47  21  46  1   
 48  21  47  1   
 49  21  48  1   
@<TRIPOS>SUBSTRUCTURE
  1 ****  14 GROUP 4 **** **** 0

# MOE 2024.06 (io_trps.svl 2023.06)
