@<TRIPOS>MOLECULE
NONAME
39 42 1 0 0 
SMALL
USER_CHARGES


@<TRIPOS>ATOM
  1 S       -3.2050     0.0120     0.3660 S.3   1 <1>  -0.1570 
  2 C       -2.4210    -1.5760     0.2530 C.2   1 <1>   0.2420 
  3 C       -1.6120     0.8120     0.4240 C.2   1 <1>  -0.0490 
  4 N       -2.8860    -2.7720     0.1670 N.2   1 <1>  -0.5650 
  5 N       -1.0840    -1.4360     0.2630 N.pl3 1 <1>   0.3340 
  6 C       -0.6300    -0.1030     0.3590 C.2   1 <1>  -0.1810 
  7 C       -1.7400    -3.5350     0.1130 C.2   1 <1>   0.1410 
  8 C       -0.6500    -2.7020     0.1730 C.2   1 <1>  -0.3020 
  9 C       -1.6860    -4.9950     0.0150 C.2   1 <1>   0.7160 
 10 O       -0.5960    -5.5440     0.0460 O.2   1 <1>  -0.5700 
 11 N       -2.7950    -5.8110    -0.1170 N.am  1 <1>  -0.6600 
 12 C       -4.1970    -5.3670    -0.3240 C.3   1 <1>   0.1400 
 13 C       -2.7050    -7.2900    -0.1370 C.3   1 <1>   0.1400 
 14 C       -4.9710    -6.6450    -0.6450 C.3   1 <1>   0.2000 
 15 C       -4.1500    -7.7820    -0.0420 C.3   1 <1>  -0.0800 
 16 O       -6.2420    -6.6330    -0.0940 O.3   1 <1>  -0.6800 
 17 C       -4.3900    -9.1290    -0.7410 C.3   1 <1>   0.0200 
 18 C       -3.4970   -10.2110    -0.1640 C.2   1 <1>  -0.0400 
 19 O       -3.6250   -10.5670     1.0870 O.3   1 <1>  -0.0190 
 20 C       -2.5140   -10.9460    -0.7040 C.2   1 <1>  -0.1500 
 21 N       -2.7770   -11.4990     1.4130 N.2   1 <1>  -0.4100 
 22 C       -2.0950   -11.7480     0.3530 C.2   1 <1>   0.1080 
 23 C       -0.9880   -12.7760     0.2770 C.3   1 <1>  -0.0590 
 24 H       -1.6120     1.8860     0.5010 H     1 <1>   0.1500 
 25 H        0.4310     0.0670     0.3720 H     1 <1>   0.1500 
 26 H        0.3920    -2.9660     0.1560 H     1 <1>   0.1500 
 27 H       -4.5610    -4.9100     0.5800 H     1 <1>   0.0800 
 28 H       -4.2560    -4.6690    -1.1410 H     1 <1>   0.0800 
 29 H       -2.2490    -7.5980    -1.0620 H     1 <1>   0.0800 
 30 H       -2.1120    -7.6500     0.6880 H     1 <1>   0.0800 
 31 H       -5.0660    -6.7520    -1.7130 H     1 <1>   0.0800 
 32 H       -4.3830    -7.8770     1.0040 H     1 <1>   0.0800 
 33 H       -6.1910    -6.5110     0.8740 H     1 <1>   0.4000 
 34 H       -4.1960    -9.0360    -1.7940 H     1 <1>   0.0800 
 35 H       -5.4180    -9.4200    -0.6160 H     1 <1>   0.0800 
 36 H       -2.1170   -10.9440    -1.7020 H     1 <1>   0.1500 
 37 H       -1.2240   -13.5120    -0.4680 H     1 <1>   0.0800 
 38 H       -0.8760   -13.2660     1.2280 H     1 <1>   0.0800 
 39 H       -0.0610   -12.2950     0.0230 H     1 <1>   0.0800 
@<TRIPOS>BOND
  1   1   2  1   
  2   1   3  1   
  3   2   4  2   
  4   2   5  1   
  5   3   6  2   
  6   3  24  1   
  7   4   7  1   
  8   5   6  1   
  9   5   8  1   
 10   6  25  1   
 11   7   8  2   
 12   7   9  1   
 13   8  26  1   
 14   9  10  2   
 15   9  11  am  
 16  11  12  1   
 17  11  13  1   
 18  12  14  1   
 19  12  27  1   
 20  12  28  1   
 21  13  15  1   
 22  13  29  1   
 23  13  30  1   
 24  14  15  1   
 25  14  16  1   
 26  14  31  1   
 27  15  17  1   
 28  15  32  1   
 29  16  33  1   
 30  17  18  1   
 31  17  34  1   
 32  17  35  1   
 33  18  19  1   
 34  18  20  2   
 35  19  21  1   
 36  20  22  1   
 37  20  36  1   
 38  21  22  2   
 39  22  23  1   
 40  23  37  1   
 41  23  38  1   
 42  23  39  1   
@<TRIPOS>SUBSTRUCTURE
  1 ****  11 GROUP 4 **** **** 0

# MOE 2024.06 (io_trps.svl 2023.06)
