@<TRIPOS>MOLECULE
NONAME
53 56 1 0 0 
SMALL
USER_CHARGES


@<TRIPOS>ATOM
  1 O       -3.6640     2.8510    -0.4870 O.2   1 <1>  -0.5700 
  2 C       -2.8090     2.0640    -0.1570 C.2   1 <1>   0.5690 
  3 N       -2.9510     0.7230    -0.4060 N.am  1 <1>  -0.6600 
  4 C       -1.5940     2.6670     0.5230 C.3   1 <1>  -0.0990 
  5 C       -1.8990    -0.3090    -0.0860 C.3   1 <1>   0.3640 
  6 C       -4.2350     0.2520    -1.0150 C.3   1 <1>   0.1400 
  7 C       -0.7270     3.3960    -0.5080 C.3   1 <1>   0.0960 
  8 C       -0.6700    -0.0720    -0.9700 C.ar  1 <1>  -0.1440 
  9 C       -2.3340    -1.8060    -0.2060 C.3   1 <1>   0.2000 
 10 C       -4.1750    -1.1910    -1.5150 C.3   1 <1>   0.1200 
 11 N        0.1040     4.4210     0.1560 N.pl3 1 <1>   0.0480 
 12 C        0.6010    -0.2150    -0.4310 C.ar  1 <1>  -0.1500 
 13 C       -0.7920     0.2760    -2.3100 C.ar  1 <1>  -0.1500 
 14 O       -3.6930    -1.9950    -0.4920 O.3   1 <1>  -0.5600 
 15 C       -2.0550    -2.5940     1.0820 C.3   1 <1>   0.1200 
 16 C        1.3380     4.2420     0.6960 C.ar  1 <1>  -0.1520 
 17 C       -0.2150     5.7230     0.4080 C.2   1 <1>   0.0060 
 18 C        1.7260    -0.0160    -1.2120 C.ar  1 <1>  -0.1500 
 19 C        0.3310     0.4810    -3.0910 C.ar  1 <1>  -0.1500 
 20 O       -0.6970    -2.5810     1.3860 O.3   1 <1>  -0.6800 
 21 C        1.6860     5.4640     1.2390 C.ar  1 <1>   0.2270 
 22 C        2.2030     3.1470     0.7800 C.ar  1 <1>  -0.1500 
 23 N        0.6940     6.3740     1.0440 N.2   1 <1>  -0.5650 
 24 C       -1.5290     6.3500    -0.0190 C.3   1 <1>  -0.0600 
 25 C        1.5920     0.3350    -2.5430 C.ar  1 <1>  -0.1500 
 26 C        2.9150     5.6210     1.8780 C.ar  1 <1>  -0.1500 
 27 C        3.4150     3.3080     1.4140 C.ar  1 <1>  -0.1500 
 28 C        3.7730     4.5460     1.9640 C.ar  1 <1>  -0.1500 
 29 H       -1.9600     3.3740     1.2470 H     1 <1>   0.0800 
 30 H       -1.0100     1.9390     1.0480 H     1 <1>   0.0800 
 31 H       -1.6020    -0.1520     0.9360 H     1 <1>   0.0800 
 32 H       -5.0150     0.3310    -0.2770 H     1 <1>   0.0800 
 33 H       -4.5000     0.8960    -1.8360 H     1 <1>   0.0800 
 34 H       -1.3490     3.8850    -1.2360 H     1 <1>   0.0800 
 35 H       -0.0890     2.7030    -1.0250 H     1 <1>   0.0800 
 36 H       -1.7880    -2.2710    -1.0090 H     1 <1>   0.0800 
 37 H       -3.5380    -1.2860    -2.3770 H     1 <1>   0.0800 
 38 H       -5.1620    -1.5350    -1.7700 H     1 <1>   0.0800 
 39 H        0.7260    -0.4850     0.6050 H     1 <1>   0.1500 
 40 H       -1.7640     0.3940    -2.7570 H     1 <1>   0.1500 
 41 H       -2.3660    -3.6190     0.9740 H     1 <1>   0.0800 
 42 H       -2.5810    -2.1470     1.9080 H     1 <1>   0.0800 
 43 H        2.7070    -0.1350    -0.7850 H     1 <1>   0.1500 
 44 H        0.2250     0.7530    -4.1280 H     1 <1>   0.1500 
 45 H       -0.2080    -3.2050     0.8110 H     1 <1>   0.4000 
 46 H        1.9190     2.2040     0.3540 H     1 <1>   0.1500 
 47 H       -1.5810     7.3620     0.3390 H     1 <1>   0.0800 
 48 H       -2.3560     5.7980     0.3890 H     1 <1>   0.0800 
 49 H       -1.6020     6.3600    -1.0910 H     1 <1>   0.0800 
 50 H        2.4670     0.4930    -3.1500 H     1 <1>   0.1500 
 51 H        3.1590     6.5820     2.2890 H     1 <1>   0.1500 
 52 H        4.1010     2.4830     1.4920 H     1 <1>   0.1500 
 53 H        4.7250     4.6500     2.4540 H     1 <1>   0.1500 
@<TRIPOS>BOND
  1   1   2  2   
  2   2   3  am  
  3   2   4  1   
  4   3   5  1   
  5   3   6  1   
  6   4   7  1   
  7   4  29  1   
  8   4  30  1   
  9   5   8  1   
 10   5   9  1   
 11   5  31  1   
 12   6  10  1   
 13   6  32  1   
 14   6  33  1   
 15   7  11  1   
 16   7  34  1   
 17   7  35  1   
 18   8  12  ar  
 19   8  13  ar  
 20   9  14  1   
 21   9  15  1   
 22   9  36  1   
 23  10  14  1   
 24  10  37  1   
 25  10  38  1   
 26  11  16  1   
 27  11  17  1   
 28  12  18  ar  
 29  12  39  1   
 30  13  19  ar  
 31  13  40  1   
 32  15  20  1   
 33  15  41  1   
 34  15  42  1   
 35  16  21  ar  
 36  16  22  ar  
 37  17  23  2   
 38  17  24  1   
 39  18  25  ar  
 40  18  43  1   
 41  19  25  ar  
 42  19  44  1   
 43  20  45  1   
 44  21  23  1   
 45  21  26  ar  
 46  22  27  ar  
 47  22  46  1   
 48  24  47  1   
 49  24  48  1   
 50  24  49  1   
 51  25  50  1   
 52  26  28  ar  
 53  26  51  1   
 54  27  28  ar  
 55  27  52  1   
 56  28  53  1   
@<TRIPOS>SUBSTRUCTURE
  1 ****   4 GROUP 4 **** **** 0

# MOE 2024.06 (io_trps.svl 2023.06)
