@<TRIPOS>MOLECULE
NONAME
46 48 1 0 0 
SMALL
USER_CHARGES


@<TRIPOS>ATOM
  1 O       -2.3290     1.5110    -2.9690 O.2   1 <1>  -0.5700 
  2 C       -2.4280     1.6510    -1.7620 C.2   1 <1>   0.5440 
  3 N       -3.2760     0.8160    -1.0650 N.am  1 <1>  -0.6600 
  4 C       -1.7260     2.7490    -1.1360 C.ar  1 <1>   0.0860 
  5 C       -3.9200    -0.3610    -1.7440 C.3   1 <1>   0.1400 
  6 C       -3.5690     0.9790     0.3950 C.3   1 <1>   0.1400 
  7 C       -0.6910     2.5270    -0.1890 C.ar  1 <1>   0.3100 
  8 C       -2.0700     4.0440    -1.4710 C.ar  1 <1>  -0.1500 
  9 C       -4.4050    -1.3940    -0.7170 C.3   1 <1>   0.2000 
 10 C       -5.0430     0.6590     0.6520 C.3   1 <1>  -0.1600 
 11 N       -0.3160     1.2590     0.1340 N.ar  1 <1>  -0.6200 
 12 C       -0.0650     3.6490     0.4080 C.ar  1 <1>   0.0000 
 13 C       -1.4440     5.1430    -0.8880 C.ar  1 <1>  -0.1500 
 14 O       -4.9430    -2.5140    -1.3320 O.3   1 <1>  -0.6800 
 15 C       -5.3980    -0.8310     0.3370 C.3   1 <1>  -0.1060 
 16 C        0.6150     1.0930     1.0210 C.ar  1 <1>   0.1600 
 17 C        0.9430     3.4270     1.3630 C.ar  1 <1>  -0.1500 
 18 C       -0.4590     4.9480     0.0390 C.ar  1 <1>  -0.1500 
 19 C       -5.1710    -1.7490     1.5530 C.2   1 <1>   0.9060 
 20 C       -6.9120    -0.9080    -0.0540 C.3   1 <1>  -0.1600 
 21 C        1.2770     2.1430     1.6670 C.ar  1 <1>  -0.1500 
 22 O       -4.7490    -1.2920     2.6220 O.co2 1 <1>  -0.9000 
 23 O       -5.3850    -2.9640     1.4090 O.co2 1 <1>  -0.9000 
 24 C       -7.3220    -0.3030    -1.4120 C.3   1 <1>  -0.1600 
 25 C       -8.8400    -0.3690    -1.6000 C.3   1 <1>  -0.2400 
 26 H       -4.7430    -0.0100    -2.3350 H     1 <1>   0.0800 
 27 H       -3.2010    -0.8280    -2.3950 H     1 <1>   0.0800 
 28 H       -2.9440     0.3140     0.9690 H     1 <1>   0.0800 
 29 H       -3.3670     1.9860     0.7110 H     1 <1>   0.0800 
 30 H       -2.8430     4.2080    -2.2030 H     1 <1>   0.1500 
 31 H       -3.5220    -1.7430    -0.2050 H     1 <1>   0.0800 
 32 H       -5.2840     0.8870     1.6750 H     1 <1>   0.0800 
 33 H       -5.6200     1.3350     0.0520 H     1 <1>   0.0800 
 34 H       -1.7440     6.1370    -1.1770 H     1 <1>   0.1500 
 35 H       -5.2470    -3.0910    -0.5830 H     1 <1>   0.4000 
 36 H        0.8950     0.0840     1.2750 H     1 <1>   0.1500 
 37 H        1.4290     4.2640     1.8330 H     1 <1>   0.1500 
 38 H        0.0300     5.7890     0.4990 H     1 <1>   0.1500 
 39 H       -7.2140    -1.9420    -0.0580 H     1 <1>   0.0800 
 40 H       -7.4780    -0.4330     0.7290 H     1 <1>   0.0800 
 41 H        2.0380     1.9140     2.3900 H     1 <1>   0.1500 
 42 H       -7.0070     0.7200    -1.4910 H     1 <1>   0.0800 
 43 H       -6.8540    -0.8590    -2.2060 H     1 <1>   0.0800 
 44 H       -9.3380     0.1950    -0.8320 H     1 <1>   0.0800 
 45 H       -9.1750    -1.3900    -1.5550 H     1 <1>   0.0800 
 46 H       -9.1090     0.0390    -2.5580 H     1 <1>   0.0800 
@<TRIPOS>BOND
  1   1   2  2   
  2   2   3  am  
  3   2   4  1   
  4   3   5  1   
  5   3   6  1   
  6   4   7  ar  
  7   4   8  ar  
  8   5   9  1   
  9   5  26  1   
 10   5  27  1   
 11   6  10  1   
 12   6  28  1   
 13   6  29  1   
 14   7  11  ar  
 15   7  12  ar  
 16   8  13  ar  
 17   8  30  1   
 18   9  14  1   
 19   9  15  1   
 20   9  31  1   
 21  10  15  1   
 22  10  32  1   
 23  10  33  1   
 24  11  16  ar  
 25  12  17  ar  
 26  12  18  ar  
 27  13  18  ar  
 28  13  34  1   
 29  14  35  1   
 30  15  19  1   
 31  15  20  1   
 32  16  21  ar  
 33  16  36  1   
 34  17  21  ar  
 35  17  37  1   
 36  18  38  1   
 37  19  22  ar  
 38  19  23  ar  
 39  20  24  1   
 40  20  39  1   
 41  20  40  1   
 42  21  41  1   
 43  24  25  1   
 44  24  42  1   
 45  24  43  1   
 46  25  44  1   
 47  25  45  1   
 48  25  46  1   
@<TRIPOS>SUBSTRUCTURE
  1 ****   6 GROUP 4 **** **** 0

# MOE 2024.06 (io_trps.svl 2023.06)
