@<TRIPOS>MOLECULE
NONAME
56 59 1 0 0 
SMALL
USER_CHARGES


@<TRIPOS>ATOM
  1 O       -1.2890    -0.0080    -0.8610 O.3   1 <1>  -0.3630 
  2 C       -1.0200     1.3240    -0.8860 C.ar  1 <1>   0.0830 
  3 C       -0.3940    -0.9500    -1.4240 C.3   1 <1>   0.0400 
  4 C       -1.6050     2.1720     0.1100 C.ar  1 <1>   0.0000 
  5 C       -0.1890     1.8350    -1.8570 C.ar  1 <1>  -0.1500 
  6 C       -1.2360     3.5450     0.0930 C.ar  1 <1>   0.0000 
  7 C       -2.5250     1.7590     1.1200 C.ar  1 <1>  -0.1440 
  8 C        0.1330     3.1880    -1.8790 C.ar  1 <1>  -0.1500 
  9 C       -1.7310     4.4260     1.0900 C.ar  1 <1>   0.0830 
 10 C       -0.3760     4.0140    -0.9230 C.ar  1 <1>  -0.1500 
 11 C       -2.9800     2.6370     2.0690 C.ar  1 <1>  -0.1500 
 12 C       -3.0860     0.3490     1.1970 C.3   1 <1>   0.4860 
 13 O       -1.3260     5.7210     1.0320 O.3   1 <1>  -0.3630 
 14 C       -2.5820     3.9700     2.0630 C.ar  1 <1>  -0.1500 
 15 N       -3.9430     0.0880     0.0060 N.4   1 <1>  -0.9590 
 16 C       -1.6850     6.6770     2.0060 C.3   1 <1>   0.0400 
 17 C       -4.9970     1.1340    -0.1930 C.3   1 <1>   0.4230 
 18 C       -4.3950    -1.3340    -0.0200 C.3   1 <1>   0.2630 
 19 C       -6.1530     1.0170     0.8020 C.3   1 <1>  -0.1600 
 20 C       -5.6600     1.0040    -1.5630 C.3   1 <1>  -0.1600 
 21 C       -7.2410     0.1620     0.1310 C.3   1 <1>  -0.0800 
 22 C       -6.9360     0.1660    -1.3750 C.3   1 <1>  -0.0800 
 23 C       -8.6620     0.7240     0.2910 C.3   1 <1>  -0.1600 
 24 C       -8.1780     0.7450    -2.0730 C.3   1 <1>  -0.1600 
 25 C       -8.9750     1.4750    -0.9980 C.3   1 <1>   0.2000 
 26 O       -8.4820     2.7560    -0.8860 O.3   1 <1>  -0.6800 
 27 H       -0.6800    -1.9330    -1.0940 H     1 <1>   0.0800 
 28 H        0.6050    -0.7320    -1.0870 H     1 <1>   0.0800 
 29 H       -0.4520    -0.8980    -2.4970 H     1 <1>   0.0800 
 30 H        0.2420     1.2240    -2.6290 H     1 <1>   0.1500 
 31 H        0.7870     3.5670    -2.6460 H     1 <1>   0.1500 
 32 H       -0.1140     5.0580    -0.9430 H     1 <1>   0.1500 
 33 H       -3.6620     2.3290     2.8460 H     1 <1>   0.1500 
 34 H       -3.6650     0.2350     2.0980 H     1 <1>   0.0800 
 35 H       -2.2700    -0.3550     1.2300 H     1 <1>   0.0800 
 36 H       -2.9650     4.6130     2.8330 H     1 <1>   0.1500 
 37 H       -3.2700     0.2150    -0.7700 H     1 <1>   0.4500 
 38 H       -1.2120     7.6080     1.7480 H     1 <1>   0.0800 
 39 H       -1.3350     6.3460     2.9670 H     1 <1>   0.0800 
 40 H       -2.7530     6.7980     2.0020 H     1 <1>   0.0800 
 41 H       -4.5450     2.1110    -0.1160 H     1 <1>   0.0800 
 42 H       -5.0770    -1.5260     0.7910 H     1 <1>   0.0800 
 43 H       -3.5490    -1.9950     0.0730 H     1 <1>   0.0800 
 44 H       -4.8930    -1.5500    -0.9510 H     1 <1>   0.0800 
 45 H       -5.8550     0.6160     1.7530 H     1 <1>   0.0800 
 46 H       -6.5330     2.0090     0.9710 H     1 <1>   0.0800 
 47 H       -5.9260     1.9940    -1.8880 H     1 <1>   0.0800 
 48 H       -5.0020     0.5840    -2.3030 H     1 <1>   0.0800 
 49 H       -7.2070    -0.8430     0.5160 H     1 <1>   0.0800 
 50 H       -6.7680    -0.8400    -1.7230 H     1 <1>   0.0800 
 51 H       -8.7950     1.3390     1.1660 H     1 <1>   0.0800 
 52 H       -9.3490    -0.1020     0.3620 H     1 <1>   0.0800 
 53 H       -8.7810    -0.0740    -2.4250 H     1 <1>   0.0800 
 54 H       -7.9530     1.3740    -2.9170 H     1 <1>   0.0800 
 55 H      -10.0300     1.5340    -1.2110 H     1 <1>   0.0800 
 56 H       -7.5180     2.7250    -0.7790 H     1 <1>   0.4000 
@<TRIPOS>BOND
  1   1   2  1   
  2   1   3  1   
  3   2   4  ar  
  4   2   5  ar  
  5   3  27  1   
  6   3  28  1   
  7   3  29  1   
  8   4   6  ar  
  9   4   7  ar  
 10   5   8  ar  
 11   5  30  1   
 12   6   9  ar  
 13   6  10  ar  
 14   7  11  ar  
 15   7  12  1   
 16   8  10  ar  
 17   8  31  1   
 18   9  13  1   
 19   9  14  ar  
 20  10  32  1   
 21  11  14  ar  
 22  11  33  1   
 23  12  15  1   
 24  12  34  1   
 25  12  35  1   
 26  13  16  1   
 27  14  36  1   
 28  15  17  1   
 29  15  18  1   
 30  15  37  1   
 31  16  38  1   
 32  16  39  1   
 33  16  40  1   
 34  17  19  1   
 35  17  20  1   
 36  17  41  1   
 37  18  42  1   
 38  18  43  1   
 39  18  44  1   
 40  19  21  1   
 41  19  45  1   
 42  19  46  1   
 43  20  22  1   
 44  20  47  1   
 45  20  48  1   
 46  21  22  1   
 47  21  23  1   
 48  21  49  1   
 49  22  24  1   
 50  22  50  1   
 51  23  25  1   
 52  23  51  1   
 53  23  52  1   
 54  24  25  1   
 55  24  53  1   
 56  24  54  1   
 57  25  26  1   
 58  25  55  1   
 59  26  56  1   
@<TRIPOS>SUBSTRUCTURE
  1 ****  17 GROUP 4 **** **** 0

# MOE 2024.06 (io_trps.svl 2023.06)
