@<TRIPOS>MOLECULE
NONAME
63 65 1 0 0 
SMALL
USER_CHARGES


@<TRIPOS>ATOM
  1 F       -1.5940    -2.2770    -2.6770 F     1 <1>  -0.1900 
  2 C       -2.7110    -2.2460    -2.0060 C.ar  1 <1>   0.1900 
  3 C       -2.7410    -2.7810    -0.7340 C.ar  1 <1>  -0.1500 
  4 C       -3.8260    -1.6800    -2.5920 C.ar  1 <1>  -0.1500 
  5 C       -3.9300    -2.7500    -0.0250 C.ar  1 <1>  -0.1500 
  6 C       -5.0120    -1.6530    -1.8780 C.ar  1 <1>  -0.1500 
  7 C       -5.0730    -2.1890    -0.5930 C.ar  1 <1>  -0.1430 
  8 C       -6.3930    -2.1560     0.1790 C.3   1 <1>   0.6280 
  9 N       -6.3190    -1.0660     1.2360 N.4   1 <1>  -0.9590 
 10 C       -6.7210    -3.5780     0.7450 C.2   1 <1>   0.5690 
 11 C       -7.6500    -0.8230     1.8940 C.3   1 <1>   0.3430 
 12 C       -5.6090     0.1770     0.7710 C.3   1 <1>   0.3430 
 13 O       -6.8840    -3.6500     1.9430 O.2   1 <1>  -0.5700 
 14 N       -6.7900    -4.7210    -0.0290 N.am  1 <1>  -0.6600 
 15 C       -8.3150     0.4410     1.3460 C.3   1 <1>  -0.1600 
 16 C       -5.9550     1.3680     1.6640 C.3   1 <1>  -0.1600 
 17 C       -6.5620    -6.0430     0.6670 C.3   1 <1>   0.3210 
 18 C       -6.6760    -4.7700    -1.5320 C.3   1 <1>   0.1400 
 19 C       -7.4590     1.6910     1.6160 C.3   1 <1>  -0.1600 
 20 C       -7.8570    -6.7640     1.0170 C.2   1 <1>   0.0460 
 21 C       -7.6000    -5.8030    -2.2270 C.3   1 <1>   0.3430 
 22 N       -8.4540    -7.6330     0.1710 N.2   1 <1>  -0.5650 
 23 C       -8.5370    -6.6900     2.1810 C.2   1 <1>  -0.3020 
 24 N       -9.0520    -5.4110    -2.3650 N.4   1 <1>  -0.9590 
 25 C       -9.4590    -8.0860     0.8490 C.2   1 <1>   0.0060 
 26 N       -9.5690    -7.5440     2.0810 N.pl3 1 <1>   0.0330 
 27 C       -9.6940    -4.9720    -1.0850 C.3   1 <1>   0.2630 
 28 C       -9.8020    -6.6010    -2.8720 C.3   1 <1>   0.2630 
 29 C      -10.4220    -9.1400     0.3410 C.3   1 <1>  -0.0600 
 30 H       -1.8470    -3.2110    -0.3140 H     1 <1>   0.1500 
 31 H       -3.7540    -1.2700    -3.5850 H     1 <1>   0.1500 
 32 H       -3.9440    -3.1700     0.9680 H     1 <1>   0.1500 
 33 H       -5.8770    -1.2040    -2.3400 H     1 <1>   0.1500 
 34 H       -7.1760    -1.8990    -0.5120 H     1 <1>   0.0800 
 35 H       -5.7400    -1.4860     1.9760 H     1 <1>   0.4500 
 36 H       -7.4990    -0.6890     2.9540 H     1 <1>   0.0800 
 37 H       -8.3000    -1.6730     1.7670 H     1 <1>   0.0800 
 38 H       -5.9100     0.4120    -0.2370 H     1 <1>   0.0800 
 39 H       -4.5420     0.0150     0.7700 H     1 <1>   0.0800 
 40 H       -9.2790     0.5670     1.8080 H     1 <1>   0.0800 
 41 H       -8.4800     0.3270     0.2890 H     1 <1>   0.0800 
 42 H       -5.3960     2.2310     1.3440 H     1 <1>   0.0800 
 43 H       -5.6530     1.1500     2.6740 H     1 <1>   0.0800 
 44 H       -6.0130    -5.8840     1.5800 H     1 <1>   0.0800 
 45 H       -5.9570    -6.6890     0.0540 H     1 <1>   0.0800 
 46 H       -5.6580    -5.0330    -1.7710 H     1 <1>   0.0800 
 47 H       -6.8630    -3.8040    -1.9630 H     1 <1>   0.0800 
 48 H       -7.7470     2.1370     2.5550 H     1 <1>   0.0800 
 49 H       -7.6540     2.4200     0.8460 H     1 <1>   0.0800 
 50 H       -7.5220    -6.7410    -1.7070 H     1 <1>   0.0800 
 51 H       -7.2090    -5.9730    -3.2170 H     1 <1>   0.0800 
 52 H       -8.3340    -6.1050     3.0620 H     1 <1>   0.1500 
 53 H       -9.1400    -4.6580    -3.0620 H     1 <1>   0.4500 
 54 H      -10.2680    -7.7650     2.7980 H     1 <1>   0.2700 
 55 H       -9.7090    -5.7780    -0.3730 H     1 <1>   0.0800 
 56 H      -10.7110    -4.6640    -1.2640 H     1 <1>   0.0800 
 57 H       -9.1560    -4.1480    -0.6510 H     1 <1>   0.0800 
 58 H       -9.7300    -7.4110    -2.1620 H     1 <1>   0.0800 
 59 H       -9.3960    -6.9310    -3.8140 H     1 <1>   0.0800 
 60 H      -10.8430    -6.3590    -3.0120 H     1 <1>   0.0800 
 61 H      -10.1230    -9.4740    -0.6360 H     1 <1>   0.0800 
 62 H      -11.4180    -8.7410     0.2850 H     1 <1>   0.0800 
 63 H      -10.4200    -9.9870     1.0030 H     1 <1>   0.0800 
@<TRIPOS>BOND
  1   1   2  1   
  2   2   3  ar  
  3   2   4  ar  
  4   3   5  ar  
  5   3  30  1   
  6   4   6  ar  
  7   4  31  1   
  8   5   7  ar  
  9   5  32  1   
 10   6   7  ar  
 11   6  33  1   
 12   7   8  1   
 13   8   9  1   
 14   8  10  1   
 15   8  34  1   
 16   9  11  1   
 17   9  12  1   
 18   9  35  1   
 19  10  13  2   
 20  10  14  am  
 21  11  15  1   
 22  11  36  1   
 23  11  37  1   
 24  12  16  1   
 25  12  38  1   
 26  12  39  1   
 27  14  17  1   
 28  14  18  1   
 29  15  19  1   
 30  15  40  1   
 31  15  41  1   
 32  16  19  1   
 33  16  42  1   
 34  16  43  1   
 35  17  20  1   
 36  17  44  1   
 37  17  45  1   
 38  18  21  1   
 39  18  46  1   
 40  18  47  1   
 41  19  48  1   
 42  19  49  1   
 43  20  22  1   
 44  20  23  2   
 45  21  24  1   
 46  21  50  1   
 47  21  51  1   
 48  22  25  2   
 49  23  26  1   
 50  23  52  1   
 51  24  27  1   
 52  24  28  1   
 53  24  53  1   
 54  25  26  1   
 55  25  29  1   
 56  26  54  1   
 57  27  55  1   
 58  27  56  1   
 59  27  57  1   
 60  28  58  1   
 61  28  59  1   
 62  28  60  1   
 63  29  61  1   
 64  29  62  1   
 65  29  63  1   
@<TRIPOS>SUBSTRUCTURE
  1 ****  10 GROUP 4 **** **** 0

# MOE 2024.06 (io_trps.svl 2023.06)
