@<TRIPOS>MOLECULE
NONAME
50 53 1 0 0 
SMALL
USER_CHARGES


@<TRIPOS>ATOM
  1 N       -1.0710    -0.5420     0.4760 N.ar  1 <1>  -0.6200 
  2 C       -1.3710    -1.7210    -0.0420 C.ar  1 <1>   0.1660 
  3 C        0.1030    -0.4550     1.0810 C.ar  1 <1>   0.1660 
  4 C       -0.5450    -2.8330     0.0200 C.ar  1 <1>  -0.1500 
  5 C       -2.7160    -1.8030    -0.7330 C.3   1 <1>  -0.0160 
  6 C        0.9960    -1.5080     1.1950 C.ar  1 <1>  -0.1500 
  7 C        0.4500     0.8980     1.6660 C.3   1 <1>  -0.0960 
  8 C        0.6740    -2.7340     0.6550 C.ar  1 <1>  -0.1500 
  9 C       -3.7760    -1.1750     0.1750 C.3   1 <1>   0.3430 
 10 N       -5.1040    -1.0450    -0.5030 N.4   1 <1>  -0.9590 
 11 C       -5.9790    -0.1310     0.3090 C.3   1 <1>   0.3430 
 12 C       -5.7710    -2.3650    -0.7180 C.3   1 <1>   0.3430 
 13 C       -7.3340     0.1360    -0.3720 C.3   1 <1>   0.1430 
 14 C       -7.0980    -2.1640    -1.4560 C.3   1 <1>  -0.1600 
 15 C       -8.1850     0.9490     0.5740 C.ar  1 <1>   0.1670 
 16 C       -8.0340    -1.1960    -0.7110 C.3   1 <1>  -0.1600 
 17 C       -7.2230     1.0690    -1.6090 C.3   1 <1>  -0.1600 
 18 N       -8.3420     0.6800     1.8450 N.ar  1 <1>  -0.6200 
 19 C       -8.7590     2.0160    -0.0490 C.ar  1 <1>  -0.1430 
 20 C       -8.3860     2.0770    -1.5080 C.3   1 <1>  -0.0170 
 21 C       -9.1160     1.5490     2.4810 C.ar  1 <1>   0.7200 
 22 C       -9.5520     2.8430     0.7110 C.ar  1 <1>   0.1600 
 23 N       -9.7380     2.6120     1.9920 N.ar  1 <1>  -0.6200 
 24 N       -9.3090     1.3170     3.7790 N.pl3 1 <1>  -0.9000 
 25 H       -0.8360    -3.7680    -0.4220 H     1 <1>   0.1500 
 26 H       -2.9550    -2.8280    -0.9460 H     1 <1>   0.0800 
 27 H       -2.6470    -1.2530    -1.6540 H     1 <1>   0.0800 
 28 H        1.9360    -1.3760     1.6990 H     1 <1>   0.1500 
 29 H       -0.2760     1.1660     2.4110 H     1 <1>   0.0800 
 30 H        0.4390     1.6400     0.8880 H     1 <1>   0.0800 
 31 H        1.4240     0.8880     2.1190 H     1 <1>   0.0800 
 32 H        1.3450    -3.5730     0.7250 H     1 <1>   0.1500 
 33 H       -3.4310    -0.1940     0.4600 H     1 <1>   0.0800 
 34 H       -3.8710    -1.7590     1.0750 H     1 <1>   0.0800 
 35 H       -4.9550    -0.6000    -1.4180 H     1 <1>   0.4500 
 36 H       -5.4820     0.8110     0.4770 H     1 <1>   0.0800 
 37 H       -6.1680    -0.5760     1.2730 H     1 <1>   0.0800 
 38 H       -5.9600    -2.8350     0.2340 H     1 <1>   0.0800 
 39 H       -5.1350    -3.0150    -1.2970 H     1 <1>   0.0800 
 40 H       -7.5870    -3.1190    -1.5530 H     1 <1>   0.0800 
 41 H       -6.9020    -1.8080    -2.4530 H     1 <1>   0.0800 
 42 H       -8.9200    -1.0120    -1.2950 H     1 <1>   0.0800 
 43 H       -8.3520    -1.6640     0.2070 H     1 <1>   0.0800 
 44 H       -7.2540     0.5390    -2.5440 H     1 <1>   0.0800 
 45 H       -6.3020     1.6250    -1.5620 H     1 <1>   0.0800 
 46 H       -9.2220     1.7590    -2.1080 H     1 <1>   0.0800 
 47 H       -8.0830     3.0680    -1.8020 H     1 <1>   0.0800 
 48 H      -10.0340     3.6990     0.2700 H     1 <1>   0.1500 
 49 H      -10.0890     1.8240     4.1910 H     1 <1>   0.4000 
 50 H       -9.1800     0.3590     4.0890 H     1 <1>   0.4000 
@<TRIPOS>BOND
  1   1   2  ar  
  2   1   3  ar  
  3   2   4  ar  
  4   2   5  1   
  5   3   6  ar  
  6   3   7  1   
  7   4   8  ar  
  8   4  25  1   
  9   5   9  1   
 10   5  26  1   
 11   5  27  1   
 12   6   8  ar  
 13   6  28  1   
 14   7  29  1   
 15   7  30  1   
 16   7  31  1   
 17   8  32  1   
 18   9  10  1   
 19   9  33  1   
 20   9  34  1   
 21  10  11  1   
 22  10  12  1   
 23  10  35  1   
 24  11  13  1   
 25  11  36  1   
 26  11  37  1   
 27  12  14  1   
 28  12  38  1   
 29  12  39  1   
 30  13  15  1   
 31  13  16  1   
 32  13  17  1   
 33  14  16  1   
 34  14  40  1   
 35  14  41  1   
 36  15  18  ar  
 37  15  19  ar  
 38  16  42  1   
 39  16  43  1   
 40  17  20  1   
 41  17  44  1   
 42  17  45  1   
 43  18  21  ar  
 44  19  20  1   
 45  19  22  ar  
 46  20  46  1   
 47  20  47  1   
 48  21  23  ar  
 49  21  24  1   
 50  22  23  ar  
 51  22  48  1   
 52  24  49  1   
 53  24  50  1   
@<TRIPOS>SUBSTRUCTURE
  1 ****  11 GROUP 4 **** **** 0

# MOE 2024.06 (io_trps.svl 2023.06)
