@<TRIPOS>MOLECULE
NONAME
51 54 1 0 0 
SMALL
USER_CHARGES


@<TRIPOS>ATOM
  1 O        3.6180    -1.0320     2.9180 O.2   1 <1>  -0.5700 
  2 C        3.0760    -1.5620     1.9610 C.2   1 <1>   0.7150 
  3 N        2.8360    -0.7720     0.8430 N.am  1 <1>  -0.6600 
  4 C        2.7110    -2.9610     2.0410 C.2   1 <1>   0.0550 
  5 C        2.8640     0.7210     0.9900 C.3   1 <1>   0.1400 
  6 C        2.8140    -1.3720    -0.5310 C.3   1 <1>   0.1400 
  7 O        1.8140    -3.5090     1.2260 O.3   1 <1>  -0.2800 
  8 C        3.1450    -3.9280     2.8970 C.2   1 <1>  -0.1500 
  9 C        4.1300     1.4070     0.4120 C.3   1 <1>   0.4230 
 10 C        3.7310    -0.6910    -1.5680 C.3   1 <1>  -0.0800 
 11 C        1.6630    -4.7920     1.5080 C.2   1 <1>   0.0870 
 12 C        2.4770    -5.0980     2.5540 C.2   1 <1>  -0.1500 
 13 N        3.9950     1.7690    -1.0470 N.4   1 <1>  -0.9590 
 14 C        5.4540     0.6340     0.6540 C.3   1 <1>   0.1200 
 15 C        5.2430    -0.8270    -1.2850 C.3   1 <1>   0.1200 
 16 C        3.2870     0.7410    -1.8680 C.3   1 <1>   0.3430 
 17 C        0.7520    -5.6050     0.7350 C.ar  1 <1>   0.0530 
 18 C        3.3610     3.1120    -1.2260 C.3   1 <1>   0.2630 
 19 O        5.5460    -0.6360     0.0590 O.3   1 <1>  -0.5600 
 20 C       -0.1390    -5.0340    -0.1730 C.ar  1 <1>  -0.1500 
 21 C        0.7310    -6.9940     0.8630 C.ar  1 <1>  -0.1500 
 22 C       -1.0090    -5.8010    -0.9260 C.ar  1 <1>   0.0820 
 23 C       -0.1340    -7.7750     0.1180 C.ar  1 <1>  -0.1500 
 24 O       -1.8270    -5.1360    -1.7810 O.3   1 <1>  -0.3620 
 25 C       -1.0060    -7.1850    -0.7790 C.ar  1 <1>  -0.1500 
 26 C       -2.7760    -5.8200    -2.5680 C.3   1 <1>   0.0400 
 27 H        1.9780     1.1370     0.5440 H     1 <1>   0.0800 
 28 H        2.8120     0.9710     2.0350 H     1 <1>   0.0800 
 29 H        3.1240    -2.4010    -0.4740 H     1 <1>   0.0800 
 30 H        1.7960    -1.3680    -0.8840 H     1 <1>   0.0800 
 31 H        3.8640    -3.8160     3.6890 H     1 <1>   0.1500 
 32 H        4.2340     2.3310     0.9540 H     1 <1>   0.0800 
 33 H        3.5590    -1.2280    -2.4830 H     1 <1>   0.0800 
 34 H        2.6010    -6.0470     3.0420 H     1 <1>   0.1500 
 35 H        4.9590     1.8170    -1.4020 H     1 <1>   0.4500 
 36 H        5.5720     0.4770     1.7130 H     1 <1>   0.0800 
 37 H        6.2930     1.2160     0.3190 H     1 <1>   0.0800 
 38 H        5.8380    -0.1580    -1.8810 H     1 <1>   0.0800 
 39 H        5.5500    -1.8340    -1.5160 H     1 <1>   0.0800 
 40 H        2.2230     0.8120    -1.7080 H     1 <1>   0.0800 
 41 H        3.4710     0.9470    -2.9110 H     1 <1>   0.0800 
 42 H        2.3480     3.1020    -0.8590 H     1 <1>   0.0800 
 43 H        3.3460     3.3830    -2.2700 H     1 <1>   0.0800 
 44 H        3.9160     3.8640    -0.6870 H     1 <1>   0.0800 
 45 H       -0.1620    -3.9680    -0.2970 H     1 <1>   0.1500 
 46 H        1.4040    -7.4720     1.5510 H     1 <1>   0.1500 
 47 H       -0.1290    -8.8450     0.2360 H     1 <1>   0.1500 
 48 H       -1.6680    -7.8110    -1.3470 H     1 <1>   0.1500 
 49 H       -3.3140    -5.0930    -3.1490 H     1 <1>   0.0800 
 50 H       -3.4550    -6.3440    -1.9190 H     1 <1>   0.0800 
 51 H       -2.2620    -6.5020    -3.2220 H     1 <1>   0.0800 
@<TRIPOS>BOND
  1   1   2  2   
  2   2   3  am  
  3   2   4  1   
  4   3   5  1   
  5   3   6  1   
  6   4   7  1   
  7   4   8  2   
  8   5   9  1   
  9   5  27  1   
 10   5  28  1   
 11   6  10  1   
 12   6  29  1   
 13   6  30  1   
 14   7  11  1   
 15   8  12  1   
 16   8  31  1   
 17   9  13  1   
 18   9  14  1   
 19   9  32  1   
 20  10  15  1   
 21  10  16  1   
 22  10  33  1   
 23  11  12  2   
 24  11  17  1   
 25  12  34  1   
 26  13  16  1   
 27  13  18  1   
 28  13  35  1   
 29  14  19  1   
 30  14  36  1   
 31  14  37  1   
 32  15  19  1   
 33  15  38  1   
 34  15  39  1   
 35  16  40  1   
 36  16  41  1   
 37  17  20  ar  
 38  17  21  ar  
 39  18  42  1   
 40  18  43  1   
 41  18  44  1   
 42  20  22  ar  
 43  20  45  1   
 44  21  23  ar  
 45  21  46  1   
 46  22  24  1   
 47  22  25  ar  
 48  23  25  ar  
 49  23  47  1   
 50  24  26  1   
 51  25  48  1   
 52  26  49  1   
 53  26  50  1   
 54  26  51  1   
@<TRIPOS>SUBSTRUCTURE
  1 ****   7 GROUP 4 **** **** 0

# MOE 2024.06 (io_trps.svl 2023.06)
