@<TRIPOS>MOLECULE
NONAME
47 49 1 0 0 
SMALL
USER_CHARGES


@<TRIPOS>ATOM
  1 CL       1.6380     2.9660     1.5070 Cl    1 <1>  -0.1770 
  2 C        2.4500     1.6370     0.7250 C.ar  1 <1>   0.1770 
  3 C        3.4320     0.9480     1.4130 C.ar  1 <1>  -0.1500 
  4 C        2.1060     1.3000    -0.5700 C.ar  1 <1>  -0.1500 
  5 C        4.1010    -0.0990     0.7930 C.ar  1 <1>  -0.1440 
  6 C        2.7640     0.2520    -1.1880 C.ar  1 <1>  -0.1500 
  7 C        3.7550    -0.4400    -0.5090 C.ar  1 <1>  -0.1500 
  8 C        5.2030    -0.8480     1.5390 C.3   1 <1>   0.2840 
  9 N        6.4320    -0.9930     0.7070 N.am  1 <1>  -0.5090 
 10 C        7.2250     0.0540     0.2820 C.2   1 <1>   0.5690 
 11 C        6.8970    -2.3920     0.5200 C.3   1 <1>   0.0490 
 12 O        8.2340    -0.1460    -0.3540 O.2   1 <1>  -0.5700 
 13 C        6.8770     1.5230     0.5860 C.3   1 <1>  -0.0190 
 14 C        6.9530    -2.9200    -0.8800 C.3   1 <1>  -0.2000 
 15 C        5.9580    -3.4780     0.0820 C.3   1 <1>  -0.2000 
 16 C        6.2650     2.2210    -0.6430 C.3   1 <1>  -0.1600 
 17 C        8.0840     2.3400     1.1130 C.3   1 <1>  -0.1600 
 18 C        5.6820     3.6010    -0.2760 C.3   1 <1>   0.2000 
 19 C        7.9090     3.8670     0.9600 C.3   1 <1>  -0.1600 
 20 O        5.7530     4.4290    -1.4110 O.3   1 <1>  -0.5600 
 21 C        6.4330     4.2740     0.9050 C.3   1 <1>   0.2000 
 22 C        4.7540     4.2130    -2.3590 C.3   1 <1>   0.0400 
 23 O        6.3720     5.6450     0.7620 O.3   1 <1>  -0.6800 
 24 H        3.6610     1.2410     2.4210 H     1 <1>   0.1500 
 25 H        1.3360     1.8500    -1.0810 H     1 <1>   0.1500 
 26 H        2.5080    -0.0270    -2.1970 H     1 <1>   0.1500 
 27 H        4.2640    -1.2450    -1.0100 H     1 <1>   0.1500 
 28 H        4.8330    -1.8170     1.8220 H     1 <1>   0.0800 
 29 H        5.4590    -0.3310     2.4470 H     1 <1>   0.0800 
 30 H        7.7140    -2.6430     1.1770 H     1 <1>   0.1000 
 31 H        6.1450     1.5490     1.3670 H     1 <1>   0.0800 
 32 H        6.6270    -2.2720    -1.6750 H     1 <1>   0.1000 
 33 H        7.7990    -3.5220    -1.1610 H     1 <1>   0.1000 
 34 H        6.1190    -4.4780     0.4430 H     1 <1>   0.1000 
 35 H        4.9180    -3.2680    -0.0890 H     1 <1>   0.1000 
 36 H        5.4900     1.6110    -1.0650 H     1 <1>   0.0800 
 37 H        7.0380     2.3380    -1.3840 H     1 <1>   0.0800 
 38 H        8.2360     2.0970     2.1500 H     1 <1>   0.0800 
 39 H        8.9810     2.0600     0.5880 H     1 <1>   0.0800 
 40 H        4.6490     3.5000     0.0120 H     1 <1>   0.0800 
 41 H        8.3780     4.1770     0.0410 H     1 <1>   0.0800 
 42 H        8.4000     4.3710     1.7740 H     1 <1>   0.0800 
 43 H        5.9610     4.0200     1.8380 H     1 <1>   0.0800 
 44 H        4.8990     4.9160    -3.1610 H     1 <1>   0.0800 
 45 H        3.7920     4.3750    -1.9050 H     1 <1>   0.0800 
 46 H        4.8300     3.2110    -2.7420 H     1 <1>   0.0800 
 47 H        6.3020     5.8050    -0.2070 H     1 <1>   0.4000 
@<TRIPOS>BOND
  1   1   2  1   
  2   2   3  ar  
  3   2   4  ar  
  4   3   5  ar  
  5   3  24  1   
  6   4   6  ar  
  7   4  25  1   
  8   5   7  ar  
  9   5   8  1   
 10   6   7  ar  
 11   6  26  1   
 12   7  27  1   
 13   8   9  1   
 14   8  28  1   
 15   8  29  1   
 16   9  10  am  
 17   9  11  1   
 18  10  12  2   
 19  10  13  1   
 20  11  14  1   
 21  11  15  1   
 22  11  30  1   
 23  13  16  1   
 24  13  17  1   
 25  13  31  1   
 26  14  15  1   
 27  14  32  1   
 28  14  33  1   
 29  15  34  1   
 30  15  35  1   
 31  16  18  1   
 32  16  36  1   
 33  16  37  1   
 34  17  19  1   
 35  17  38  1   
 36  17  39  1   
 37  18  20  1   
 38  18  21  1   
 39  18  40  1   
 40  19  21  1   
 41  19  41  1   
 42  19  42  1   
 43  20  22  1   
 44  21  23  1   
 45  21  43  1   
 46  22  44  1   
 47  22  45  1   
 48  22  46  1   
 49  23  47  1   
@<TRIPOS>SUBSTRUCTURE
  1 ****  13 GROUP 4 **** **** 0

# MOE 2024.06 (io_trps.svl 2023.06)
