@<TRIPOS>MOLECULE
NONAME
49 51 1 0 0 
SMALL
USER_CHARGES


@<TRIPOS>ATOM
  1 O        3.0120    -1.1000     2.3490 O.2   1 <1>  -0.5700 
  2 C        2.8500    -1.0590     1.1450 C.2   1 <1>   0.5440 
  3 N        3.1170     0.1260     0.4840 N.am  1 <1>  -0.6600 
  4 C        2.4180    -2.2420     0.4340 C.ar  1 <1>   0.0860 
  5 C        3.5950     1.3170     1.2860 C.3   1 <1>   0.2200 
  6 C        3.2160     0.1590    -1.0150 C.3   1 <1>   0.1400 
  7 C        1.0670    -2.5060     0.2200 C.ar  1 <1>  -0.1500 
  8 C        3.3500    -3.1400    -0.0830 C.ar  1 <1>  -0.1500 
  9 C        3.0380     2.6560     0.7790 C.3   1 <1>   0.1200 
 10 C        5.1390     1.3250     1.3810 C.3   1 <1>   0.3430 
 11 C        4.1740     1.2200    -1.5950 C.3   1 <1>  -0.0800 
 12 C        0.6530    -3.6140    -0.4980 C.ar  1 <1>  -0.1440 
 13 C        2.9660    -4.2490    -0.8120 C.ar  1 <1>  -0.1440 
 14 O        3.8260     3.1870    -0.2430 O.3   1 <1>  -0.5600 
 15 N        5.7640     0.5550     0.2640 N.4   1 <1>  -0.9590 
 16 C        3.6130     2.6450    -1.5020 C.3   1 <1>   0.1200 
 17 C        5.6320     1.1330    -1.1020 C.3   1 <1>   0.3430 
 18 C        1.6090    -4.4820    -1.0160 C.ar  1 <1>   0.0830 
 19 C       -0.8310    -3.8730    -0.7120 C.3   1 <1>  -0.0970 
 20 C        4.0440    -5.1710    -1.3700 C.3   1 <1>  -0.0970 
 21 C        7.1580     0.0150     0.5120 C.3   1 <1>   0.2370 
 22 O        1.2210    -5.5550    -1.7190 O.3   1 <1>  -0.5330 
 23 C        7.4250    -1.2480    -0.3190 C.2   1 <1>   0.9060 
 24 O        8.5810    -1.6070    -0.5260 O.co2 1 <1>  -0.9000 
 25 O        6.4290    -1.8200    -0.7930 O.co2 1 <1>  -0.9000 
 26 H        3.2170     1.2260     2.2890 H     1 <1>   0.0800 
 27 H        3.5570    -0.8010    -1.3670 H     1 <1>   0.0800 
 28 H        2.2290     0.3110    -1.4180 H     1 <1>   0.0800 
 29 H        0.3430    -1.8260     0.6290 H     1 <1>   0.1500 
 30 H        4.3970    -2.9520     0.0880 H     1 <1>   0.1500 
 31 H        3.0650     3.3700     1.5830 H     1 <1>   0.0800 
 32 H        2.0170     2.5600     0.4510 H     1 <1>   0.0800 
 33 H        5.4110     0.8640     2.3150 H     1 <1>   0.0800 
 34 H        5.5030     2.3390     1.3900 H     1 <1>   0.0800 
 35 H        4.2160     1.0160    -2.6500 H     1 <1>   0.0800 
 36 H        5.2150    -0.3270     0.1910 H     1 <1>   0.4500 
 37 H        2.5610     2.6770    -1.7310 H     1 <1>   0.0800 
 38 H        4.1270     3.2820    -2.2020 H     1 <1>   0.0800 
 39 H        6.0880     2.1090    -1.1340 H     1 <1>   0.0800 
 40 H        6.1700     0.4950    -1.7870 H     1 <1>   0.0800 
 41 H       -1.4320    -3.1170    -0.2400 H     1 <1>   0.0800 
 42 H       -1.0950    -4.8300    -0.2970 H     1 <1>   0.0800 
 43 H       -1.0510    -3.8830    -1.7640 H     1 <1>   0.0800 
 44 H        5.0250    -4.7750    -1.1680 H     1 <1>   0.0800 
 45 H        3.9400    -5.2640    -2.4350 H     1 <1>   0.0800 
 46 H        3.9730    -6.1420    -0.9140 H     1 <1>   0.0800 
 47 H        7.9020     0.7490     0.2650 H     1 <1>   0.0800 
 48 H        7.2690    -0.2590     1.5440 H     1 <1>   0.0800 
 49 H        1.9740    -6.0960    -2.0110 H     1 <1>   0.4500 
@<TRIPOS>BOND
  1   1   2  2   
  2   2   3  am  
  3   2   4  1   
  4   3   5  1   
  5   3   6  1   
  6   4   7  ar  
  7   4   8  ar  
  8   5   9  1   
  9   5  10  1   
 10   5  26  1   
 11   6  11  1   
 12   6  27  1   
 13   6  28  1   
 14   7  12  ar  
 15   7  29  1   
 16   8  13  ar  
 17   8  30  1   
 18   9  14  1   
 19   9  31  1   
 20   9  32  1   
 21  10  15  1   
 22  10  33  1   
 23  10  34  1   
 24  11  16  1   
 25  11  17  1   
 26  11  35  1   
 27  12  18  ar  
 28  12  19  1   
 29  13  18  ar  
 30  13  20  1   
 31  14  16  1   
 32  15  17  1   
 33  15  21  1   
 34  15  36  1   
 35  16  37  1   
 36  16  38  1   
 37  17  39  1   
 38  17  40  1   
 39  18  22  1   
 40  19  41  1   
 41  19  42  1   
 42  19  43  1   
 43  20  44  1   
 44  20  45  1   
 45  20  46  1   
 46  21  23  1   
 47  21  47  1   
 48  21  48  1   
 49  22  49  1   
 50  23  24  ar  
 51  23  25  ar  
@<TRIPOS>SUBSTRUCTURE
  1 ****   3 GROUP 4 **** **** 0

# MOE 2024.06 (io_trps.svl 2023.06)
