@<TRIPOS>MOLECULE
NONAME
45 47 1 0 0 
SMALL
USER_CHARGES


@<TRIPOS>ATOM
  1 O       -2.0550    -0.2230    -2.6420 O.2   1 <1>  -0.5700 
  2 C       -2.1240    -0.7380    -1.5480 C.2   1 <1>   0.5690 
  3 N       -2.2910     0.0010    -0.4060 N.am  1 <1>  -0.6600 
  4 C       -1.9640    -2.2460    -1.4670 C.3   1 <1>  -0.0190 
  5 C       -2.3780    -0.6540     0.9350 C.3   1 <1>   0.2200 
  6 C       -2.5480     1.4660    -0.4440 C.3   1 <1>   0.0600 
  7 C       -0.7040    -2.6250    -0.6740 C.3   1 <1>   0.1200 
  8 C       -3.2290    -2.9850    -0.9900 C.3   1 <1>   0.1100 
  9 C       -1.0560    -1.3620     1.2960 C.3   1 <1>   0.1200 
 10 C       -3.6090    -1.5840     1.0840 C.3   1 <1>   0.1100 
 11 O       -0.9220    -2.6200     0.7030 O.3   1 <1>  -0.5600 
 12 N       -4.1470    -2.1650    -0.1720 N.3   1 <1>  -0.8100 
 13 C       -5.4820    -2.7550    -0.0220 C.3   1 <1>   0.2900 
 14 C       -5.5280    -4.0570     0.7740 C.2   1 <1>  -0.3320 
 15 N       -6.6560    -4.7960     0.9390 N.pl3 1 <1>   0.0480 
 16 C       -4.5520    -4.7190     1.4430 C.2   1 <1>   0.0770 
 17 C       -6.2660    -5.8450     1.6990 C.2   1 <1>   0.0360 
 18 C       -8.0530    -4.6410     0.4350 C.3   1 <1>   0.1760 
 19 N       -5.0170    -5.8370     2.0240 N.2   1 <1>  -0.5650 
 20 C       -8.1260    -4.8930    -1.0750 C.3   1 <1>  -0.2400 
 21 C       -8.6630    -3.2860     0.8130 C.3   1 <1>  -0.2400 
 22 H       -1.7770    -2.5820    -2.4700 H     1 <1>   0.0800 
 23 H       -2.4910     0.1260     1.6680 H     1 <1>   0.0800 
 24 H       -1.8220     1.9800     0.1600 H     1 <1>   0.0800 
 25 H       -3.5360     1.6680    -0.0690 H     1 <1>   0.0800 
 26 H       -2.4830     1.8390    -1.4520 H     1 <1>   0.0800 
 27 H        0.1140    -1.9640    -0.9060 H     1 <1>   0.0800 
 28 H       -0.4120    -3.6270    -0.9330 H     1 <1>   0.0800 
 29 H       -2.9460    -3.8760    -0.4610 H     1 <1>   0.0800 
 30 H       -3.7670    -3.2960    -1.8690 H     1 <1>   0.0800 
 31 H       -1.0310    -1.5270     2.3580 H     1 <1>   0.0800 
 32 H       -0.2090    -0.7520     1.0320 H     1 <1>   0.0800 
 33 H       -4.3900    -0.9950     1.5320 H     1 <1>   0.0800 
 34 H       -3.3750    -2.3620     1.7850 H     1 <1>   0.0800 
 35 H       -6.1140    -2.0290     0.4560 H     1 <1>   0.0800 
 36 H       -5.8780    -2.9270    -1.0060 H     1 <1>   0.0800 
 37 H       -3.5140    -4.4550     1.5430 H     1 <1>   0.1500 
 38 H       -6.9510    -6.6170     2.0000 H     1 <1>   0.1500 
 39 H       -8.6420    -5.4010     0.9190 H     1 <1>   0.0800 
 40 H       -7.6060    -4.1320    -1.6250 H     1 <1>   0.0800 
 41 H       -9.1520    -4.8950    -1.3950 H     1 <1>   0.0800 
 42 H       -7.6980    -5.8520    -1.3110 H     1 <1>   0.0800 
 43 H       -8.2510    -2.4900     0.2230 H     1 <1>   0.0800 
 44 H       -8.5020    -3.0830     1.8570 H     1 <1>   0.0800 
 45 H       -9.7240    -3.3080     0.6340 H     1 <1>   0.0800 
@<TRIPOS>BOND
  1   1   2  2   
  2   2   3  am  
  3   2   4  1   
  4   3   5  1   
  5   3   6  1   
  6   4   7  1   
  7   4   8  1   
  8   4  22  1   
  9   5   9  1   
 10   5  10  1   
 11   5  23  1   
 12   6  24  1   
 13   6  25  1   
 14   6  26  1   
 15   7  11  1   
 16   7  27  1   
 17   7  28  1   
 18   8  12  1   
 19   8  29  1   
 20   8  30  1   
 21   9  11  1   
 22   9  31  1   
 23   9  32  1   
 24  10  12  1   
 25  10  33  1   
 26  10  34  1   
 27  12  13  1   
 28  13  14  1   
 29  13  35  1   
 30  13  36  1   
 31  14  15  1   
 32  14  16  2   
 33  15  17  1   
 34  15  18  1   
 35  16  19  1   
 36  16  37  1   
 37  17  19  2   
 38  17  38  1   
 39  18  20  1   
 40  18  21  1   
 41  18  39  1   
 42  20  40  1   
 43  20  41  1   
 44  20  42  1   
 45  21  43  1   
 46  21  44  1   
 47  21  45  1   
@<TRIPOS>SUBSTRUCTURE
  1 ****  12 GROUP 4 **** **** 0

# MOE 2024.06 (io_trps.svl 2023.06)
