@<TRIPOS>MOLECULE
NONAME
50 52 1 0 0 
SMALL
USER_CHARGES


@<TRIPOS>ATOM
  1 S       -0.2870     0.4120     1.5870 S.o2  1 <1>   1.4470 
  2 O       -0.8370     1.4750     2.3930 O.2   1 <1>  -0.6500 
  3 O       -0.1480    -0.9060     2.1620 O.2   1 <1>  -0.6500 
  4 N       -1.3770     0.3120     0.3100 N.am  1 <1>  -0.9140 
  5 C        1.2530     0.9560     0.8010 C.ar  1 <1>  -0.0090 
  6 C       -1.5500    -0.9430    -0.4300 C.3   1 <1>   0.2760 
  7 C        2.4290     0.2280     0.9390 C.ar  1 <1>  -0.1500 
  8 C        1.2950     2.1130     0.0340 C.ar  1 <1>  -0.1500 
  9 C       -2.2740    -2.0420     0.3560 C.3   1 <1>  -0.0800 
 10 C       -0.2720    -1.6170    -0.9430 C.3   1 <1>   0.1200 
 11 C        3.6100     0.6230     0.3310 C.ar  1 <1>  -0.1430 
 12 C        2.4630     2.5280    -0.5780 C.ar  1 <1>  -0.1500 
 13 C       -1.3100    -3.2290     0.2440 C.3   1 <1>   0.1200 
 14 C       -3.6540    -2.3540    -0.2520 C.3   1 <1>  -0.0170 
 15 O       -0.5470    -2.9790    -0.8900 O.3   1 <1>  -0.5600 
 16 C        3.6320     1.7860    -0.4350 C.ar  1 <1>   0.0830 
 17 C        4.8600    -0.2290     0.5240 C.3   1 <1>  -0.0170 
 18 C       -4.3750    -3.4560     0.5110 C.ar  1 <1>  -0.1430 
 19 O        4.8060     2.1500    -1.0120 O.3   1 <1>  -0.3630 
 20 C        5.6730     0.2720     1.7200 C.3   1 <1>  -0.2400 
 21 C       -4.9030    -3.2480     1.7690 C.ar  1 <1>  -0.1500 
 22 C       -4.5420    -4.7210    -0.0170 C.ar  1 <1>  -0.1500 
 23 C        4.9350     3.3380    -1.7610 C.3   1 <1>   0.0400 
 24 C       -5.5510    -4.2850     2.4200 C.ar  1 <1>   0.1600 
 25 C       -5.2070    -5.6880     0.7170 C.ar  1 <1>   0.1600 
 26 N       -5.7160    -5.5010     1.9240 N.ar  1 <1>  -0.6200 
 27 H       -2.2640     0.5700     0.7350 H     1 <1>   0.4200 
 28 H       -2.1350    -0.7080    -1.3040 H     1 <1>   0.0800 
 29 H        2.4190    -0.6690     1.5360 H     1 <1>   0.1500 
 30 H        0.3970     2.6960    -0.0830 H     1 <1>   0.1500 
 31 H       -2.3990    -1.7880     1.3930 H     1 <1>   0.0800 
 32 H        0.5800    -1.4410    -0.3150 H     1 <1>   0.0800 
 33 H       -0.0500    -1.3470    -1.9600 H     1 <1>   0.0800 
 34 H        2.4430     3.4300    -1.1590 H     1 <1>   0.1500 
 35 H       -1.8030    -4.1790     0.1370 H     1 <1>   0.0800 
 36 H       -0.6440    -3.2630     1.0900 H     1 <1>   0.0800 
 37 H       -3.5370    -2.6470    -1.2820 H     1 <1>   0.0800 
 38 H       -4.2640    -1.4680    -0.2330 H     1 <1>   0.0800 
 39 H        4.5810    -1.2550     0.6860 H     1 <1>   0.0800 
 40 H        5.4680    -0.2010    -0.3640 H     1 <1>   0.0800 
 41 H        5.0810     0.2300     2.6170 H     1 <1>   0.0800 
 42 H        5.9780     1.2900     1.5550 H     1 <1>   0.0800 
 43 H        6.5510    -0.3350     1.8520 H     1 <1>   0.0800 
 44 H       -4.8170    -2.2920     2.2520 H     1 <1>   0.1500 
 45 H       -4.1600    -4.9650    -0.9920 H     1 <1>   0.1500 
 46 H        5.9540     3.4140    -2.0920 H     1 <1>   0.0800 
 47 H        4.6920     4.1760    -1.1320 H     1 <1>   0.0800 
 48 H        4.2770     3.2880    -2.6110 H     1 <1>   0.0800 
 49 H       -5.9550    -4.1050     3.4020 H     1 <1>   0.1500 
 50 H       -5.3270    -6.6690     0.2890 H     1 <1>   0.1500 
@<TRIPOS>BOND
  1   1   2  2   
  2   1   3  2   
  3   1   4  am  
  4   1   5  1   
  5   4   6  1   
  6   4  27  1   
  7   5   7  ar  
  8   5   8  ar  
  9   6   9  1   
 10   6  10  1   
 11   6  28  1   
 12   7  11  ar  
 13   7  29  1   
 14   8  12  ar  
 15   8  30  1   
 16   9  13  1   
 17   9  14  1   
 18   9  31  1   
 19  10  15  1   
 20  10  32  1   
 21  10  33  1   
 22  11  16  ar  
 23  11  17  1   
 24  12  16  ar  
 25  12  34  1   
 26  13  15  1   
 27  13  35  1   
 28  13  36  1   
 29  14  18  1   
 30  14  37  1   
 31  14  38  1   
 32  16  19  1   
 33  17  20  1   
 34  17  39  1   
 35  17  40  1   
 36  18  21  ar  
 37  18  22  ar  
 38  19  23  1   
 39  20  41  1   
 40  20  42  1   
 41  20  43  1   
 42  21  24  ar  
 43  21  44  1   
 44  22  25  ar  
 45  22  45  1   
 46  23  46  1   
 47  23  47  1   
 48  23  48  1   
 49  24  26  ar  
 50  24  49  1   
 51  25  26  ar  
 52  25  50  1   
@<TRIPOS>SUBSTRUCTURE
  1 ****   6 GROUP 4 **** **** 0

# MOE 2024.06 (io_trps.svl 2023.06)
