@<TRIPOS>MOLECULE
NONAME
56 59 1 0 0 
SMALL
USER_CHARGES


@<TRIPOS>ATOM
  1 O       -0.4090     0.7670     1.0290 O.3   1 <1>  -0.5600 
  2 C       -0.0020     1.1570    -0.2370 C.3   1 <1>   0.1200 
  3 C       -1.8070     0.7440     1.0620 C.3   1 <1>   0.1200 
  4 C       -0.9490     2.3170    -0.5360 C.3   1 <1>   0.4230 
  5 C       -2.2650     1.7120    -0.0480 C.3   1 <1>  -0.0800 
  6 N       -0.6080     3.4520     0.3760 N.4   1 <1>  -0.9060 
  7 C       -3.0230     0.9770    -1.1760 C.3   1 <1>  -0.0170 
  8 C        0.2540     4.5440    -0.1450 C.3   1 <1>   0.4230 
  9 C       -4.3480     0.4260    -0.6610 C.ar  1 <1>  -0.1440 
 10 C        1.6810     4.0590    -0.4230 C.3   1 <1>  -0.1600 
 11 C        0.2710     5.6680     0.8930 C.3   1 <1>  -0.1600 
 12 C       -5.4800     1.2470    -0.4380 C.ar  1 <1>   0.0000 
 13 C       -4.4730    -0.9050    -0.3840 C.ar  1 <1>  -0.1500 
 14 C        2.6010     5.2170    -0.8200 C.3   1 <1>   0.3430 
 15 C        1.2000     6.8090     0.4740 C.3   1 <1>   0.3430 
 16 C       -6.6370     0.6380     0.1070 C.ar  1 <1>   0.3100 
 17 C       -5.5400     2.6310    -0.7280 C.ar  1 <1>  -0.1500 
 18 C       -5.6710    -1.4110     0.1330 C.ar  1 <1>   0.1600 
 19 N        2.5740     6.2810     0.2240 N.4   1 <1>  -0.9590 
 20 N       -6.7140    -0.6870     0.3850 N.ar  1 <1>  -0.6200 
 21 C       -7.7640     1.4310     0.3730 C.ar  1 <1>  -0.1500 
 22 C       -6.6580     3.3750    -0.4640 C.ar  1 <1>  -0.1500 
 23 C        3.5180     7.3760    -0.1520 C.3   1 <1>   0.3430 
 24 C       -7.7830     2.7710     0.1000 C.ar  1 <1>  -0.1500 
 25 C        3.8310     8.2300     1.0710 C.3   1 <1>  -0.2400 
 26 H        1.0390     1.4190    -0.2140 H     1 <1>   0.0800 
 27 H       -0.1500     0.3310    -0.9130 H     1 <1>   0.0800 
 28 H       -2.1300    -0.2690     0.8920 H     1 <1>   0.0800 
 29 H       -2.1320     1.0590     2.0400 H     1 <1>   0.0800 
 30 H       -0.9730     2.6110    -1.5730 H     1 <1>   0.0800 
 31 H       -2.9200     2.4600     0.3620 H     1 <1>   0.0800 
 32 H       -1.4920     3.8470     0.7170 H     1 <1>   0.4500 
 33 H       -0.1870     2.9920     1.2030 H     1 <1>   0.4500 
 34 H       -2.4280     0.1650    -1.5580 H     1 <1>   0.0800 
 35 H       -3.2140     1.6380    -2.0030 H     1 <1>   0.0800 
 36 H       -0.1720     4.9260    -1.0600 H     1 <1>   0.0800 
 37 H        2.0940     3.5720     0.4430 H     1 <1>   0.0800 
 38 H        1.6790     3.3600    -1.2390 H     1 <1>   0.0800 
 39 H       -0.7200     6.0720     1.0070 H     1 <1>   0.0800 
 40 H        0.5940     5.2970     1.8510 H     1 <1>   0.0800 
 41 H       -3.6690    -1.6010    -0.5430 H     1 <1>   0.1500 
 42 H        2.2830     5.6290    -1.7650 H     1 <1>   0.0800 
 43 H        3.6100     4.8500    -0.9420 H     1 <1>   0.0800 
 44 H        1.2270     7.5520     1.2560 H     1 <1>   0.0800 
 45 H        0.8230     7.2810    -0.4200 H     1 <1>   0.0800 
 46 H       -4.6970     3.1180    -1.1770 H     1 <1>   0.1500 
 47 H       -5.7280    -2.4660     0.3390 H     1 <1>   0.1500 
 48 H        2.9450     5.8900     1.1040 H     1 <1>   0.4500 
 49 H       -8.6220     0.9430     0.7990 H     1 <1>   0.1500 
 50 H       -6.6950     4.4280    -0.6880 H     1 <1>   0.1500 
 51 H        4.4400     6.9540    -0.5200 H     1 <1>   0.0800 
 52 H        3.0950     7.9890    -0.9340 H     1 <1>   0.0800 
 53 H       -8.6570     3.3650     0.3070 H     1 <1>   0.1500 
 54 H        4.2400     7.6310     1.8660 H     1 <1>   0.0800 
 55 H        2.9650     8.7600     1.4220 H     1 <1>   0.0800 
 56 H        4.5700     8.9650     0.8030 H     1 <1>   0.0800 
@<TRIPOS>BOND
  1   1   2  1   
  2   1   3  1   
  3   2   4  1   
  4   2  26  1   
  5   2  27  1   
  6   3   5  1   
  7   3  28  1   
  8   3  29  1   
  9   4   5  1   
 10   4   6  1   
 11   4  30  1   
 12   5   7  1   
 13   5  31  1   
 14   6   8  1   
 15   6  32  1   
 16   6  33  1   
 17   7   9  1   
 18   7  34  1   
 19   7  35  1   
 20   8  10  1   
 21   8  11  1   
 22   8  36  1   
 23   9  12  ar  
 24   9  13  ar  
 25  10  14  1   
 26  10  37  1   
 27  10  38  1   
 28  11  15  1   
 29  11  39  1   
 30  11  40  1   
 31  12  16  ar  
 32  12  17  ar  
 33  13  18  ar  
 34  13  41  1   
 35  14  19  1   
 36  14  42  1   
 37  14  43  1   
 38  15  19  1   
 39  15  44  1   
 40  15  45  1   
 41  16  20  ar  
 42  16  21  ar  
 43  17  22  ar  
 44  17  46  1   
 45  18  20  ar  
 46  18  47  1   
 47  19  23  1   
 48  19  48  1   
 49  21  24  ar  
 50  21  49  1   
 51  22  24  ar  
 52  22  50  1   
 53  23  25  1   
 54  23  51  1   
 55  23  52  1   
 56  24  53  1   
 57  25  54  1   
 58  25  55  1   
 59  25  56  1   
@<TRIPOS>SUBSTRUCTURE
  1 ****   5 GROUP 4 **** **** 0

# MOE 2024.06 (io_trps.svl 2023.06)
