@<TRIPOS>MOLECULE
NONAME
51 54 1 0 0 
SMALL
USER_CHARGES


@<TRIPOS>ATOM
  1 O        1.6400     0.2280     2.6550 O.2   1 <1>  -0.5700 
  2 C        1.9410    -0.7570     1.9920 C.2   1 <1>   0.4690 
  3 C        2.7150    -0.6520     0.7790 C.ar  1 <1>   0.0860 
  4 C        1.5200    -2.0430     2.4190 C.2   1 <1>  -0.1360 
  5 C        3.0210    -1.8250     0.0680 C.ar  1 <1>   0.1000 
  6 C        3.1730     0.5690     0.2740 C.ar  1 <1>  -0.1500 
  7 C        1.8320    -3.1590     1.7160 C.2   1 <1>  -0.0380 
  8 N        2.5680    -3.0400     0.5670 N.pl3 1 <1>  -0.6000 
  9 C        3.7620    -1.7580    -1.1170 C.ar  1 <1>  -0.1430 
 10 C        3.9040     0.6360    -0.8920 C.ar  1 <1>  -0.1430 
 11 C        1.4150    -4.5710     2.1150 C.3   1 <1>   0.2480 
 12 C        4.1950    -0.5340    -1.5840 C.ar  1 <1>  -0.1500 
 13 C        4.0960    -3.0240    -1.8960 C.3   1 <1>  -0.0970 
 14 C        4.3970     1.9660    -1.4320 C.3   1 <1>  -0.0970 
 15 N        0.9670    -5.3240     0.9300 N.3   1 <1>  -0.8100 
 16 C       -0.2780    -4.8130     0.3230 C.3   1 <1>   0.1100 
 17 C        0.8100    -6.7620     1.1630 C.3   1 <1>   0.1100 
 18 C       -1.1760    -6.0290     0.0700 C.3   1 <1>   0.2000 
 19 C       -0.2260    -7.2230     0.1350 C.3   1 <1>  -0.0800 
 20 O       -2.0800    -6.1420     1.1140 O.3   1 <1>  -0.6800 
 21 C        0.4090    -7.5010    -1.2440 C.3   1 <1>  -0.0170 
 22 C        1.2990    -8.7350    -1.2290 C.ar  1 <1>   0.1670 
 23 N        2.5990    -8.5340    -1.0810 N.ar  1 <1>  -0.6200 
 24 C        0.7280    -9.9990    -1.3710 C.ar  1 <1>   0.1600 
 25 C        3.2810    -9.6670    -1.0850 C.ar  1 <1>   0.1600 
 26 N        1.4080   -11.1340    -1.3720 N.ar  1 <1>  -0.6200 
 27 C        2.7050   -10.9240    -1.2250 C.ar  1 <1>   0.1600 
 28 H        0.9450    -2.0760     3.3240 H     1 <1>   0.1500 
 29 H        2.9390     1.4650     0.8220 H     1 <1>   0.1500 
 30 H        2.7010    -3.9010     0.0180 H     1 <1>   0.4000 
 31 H        0.6350    -4.5390     2.8560 H     1 <1>   0.0800 
 32 H        2.2710    -5.0670     2.5400 H     1 <1>   0.0800 
 33 H        4.7660    -0.4730    -2.4940 H     1 <1>   0.1500 
 34 H        4.6730    -2.7960    -2.7740 H     1 <1>   0.0800 
 35 H        3.1900    -3.5160    -2.2040 H     1 <1>   0.0800 
 36 H        4.6670    -3.6940    -1.2790 H     1 <1>   0.0800 
 37 H        5.4700     1.9610    -1.4960 H     1 <1>   0.0800 
 38 H        4.0960     2.7760    -0.7910 H     1 <1>   0.0800 
 39 H        3.9890     2.1360    -2.4120 H     1 <1>   0.0800 
 40 H       -0.7710    -4.0860     0.9460 H     1 <1>   0.0800 
 41 H       -0.0270    -4.3460    -0.6140 H     1 <1>   0.0800 
 42 H        1.7540    -7.2700     1.0600 H     1 <1>   0.0800 
 43 H        0.4280    -6.9340     2.1550 H     1 <1>   0.0800 
 44 H       -1.7320    -5.9590    -0.8490 H     1 <1>   0.0800 
 45 H       -0.7380    -8.1090     0.4680 H     1 <1>   0.0800 
 46 H       -1.5970    -6.0870     1.9600 H     1 <1>   0.4000 
 47 H        0.9890    -6.6520    -1.5630 H     1 <1>   0.0800 
 48 H       -0.3690    -7.6500    -1.9700 H     1 <1>   0.0800 
 49 H       -0.3380   -10.0750    -1.4870 H     1 <1>   0.1500 
 50 H        4.3480    -9.5990    -0.9710 H     1 <1>   0.1500 
 51 H        3.3440   -11.7890    -1.2150 H     1 <1>   0.1500 
@<TRIPOS>BOND
  1   1   2  2   
  2   2   3  1   
  3   2   4  1   
  4   3   5  ar  
  5   3   6  ar  
  6   4   7  2   
  7   4  28  1   
  8   5   8  1   
  9   5   9  ar  
 10   6  10  ar  
 11   6  29  1   
 12   7   8  1   
 13   7  11  1   
 14   8  30  1   
 15   9  12  ar  
 16   9  13  1   
 17  10  12  ar  
 18  10  14  1   
 19  11  15  1   
 20  11  31  1   
 21  11  32  1   
 22  12  33  1   
 23  13  34  1   
 24  13  35  1   
 25  13  36  1   
 26  14  37  1   
 27  14  38  1   
 28  14  39  1   
 29  15  16  1   
 30  15  17  1   
 31  16  18  1   
 32  16  40  1   
 33  16  41  1   
 34  17  19  1   
 35  17  42  1   
 36  17  43  1   
 37  18  19  1   
 38  18  20  1   
 39  18  44  1   
 40  19  21  1   
 41  19  45  1   
 42  20  46  1   
 43  21  22  1   
 44  21  47  1   
 45  21  48  1   
 46  22  23  ar  
 47  22  24  ar  
 48  23  25  ar  
 49  24  26  ar  
 50  24  49  1   
 51  25  27  ar  
 52  25  50  1   
 53  26  27  ar  
 54  27  51  1   
@<TRIPOS>SUBSTRUCTURE
  1 ****  15 GROUP 4 **** **** 0

# MOE 2024.06 (io_trps.svl 2023.06)
