@<TRIPOS>MOLECULE
NONAME
52 55 1 0 0 
SMALL
USER_CHARGES


@<TRIPOS>ATOM
  1 CL       0.3700    -1.2590     3.1370 Cl    1 <1>  -0.1770 
  2 C        0.7650    -2.4520     1.9260 C.ar  1 <1>   0.1770 
  3 C       -0.1410    -3.4540     1.6450 C.ar  1 <1>  -0.1500 
  4 C        1.9790    -2.3700     1.2710 C.ar  1 <1>  -0.1500 
  5 C        0.1470    -4.4210     0.6830 C.ar  1 <1>   0.0530 
  6 C        2.2840    -3.3200     0.3120 C.ar  1 <1>  -0.1500 
  7 C       -0.7940    -5.4760     0.3810 C.2   1 <1>   0.0870 
  8 C        1.3770    -4.3270     0.0270 C.ar  1 <1>  -0.1500 
  9 O       -0.4910    -6.4120    -0.5100 O.3   1 <1>  -0.2800 
 10 C       -2.0370    -5.7330     0.8640 C.2   1 <1>  -0.1500 
 11 C       -1.4940    -7.2610    -0.6140 C.2   1 <1>  -0.0400 
 12 C       -2.4910    -6.8850     0.2220 C.2   1 <1>  -0.1500 
 13 C       -1.3110    -8.4140    -1.6040 C.3   1 <1>   0.2900 
 14 N       -2.3400    -9.4780    -1.5710 N.3   1 <1>  -0.8100 
 15 C       -2.4170   -10.1400    -0.2490 C.3   1 <1>   0.1100 
 16 C       -3.6380    -8.9950    -2.0820 C.3   1 <1>   0.1100 
 17 C       -3.4630   -11.2820    -0.2430 C.3   1 <1>   0.4230 
 18 C       -4.6790   -10.1200    -2.0720 C.3   1 <1>  -0.1600 
 19 N       -3.5700   -12.0000     1.0730 N.4   1 <1>  -0.9590 
 20 C       -4.8430   -10.7400    -0.6610 C.3   1 <1>  -0.1060 
 21 C       -4.4910   -13.1630     1.0020 C.3   1 <1>   0.3430 
 22 C       -2.2830   -12.3260     1.7410 C.3   1 <1>   0.2630 
 23 C       -5.2970    -9.6820     0.3660 C.2   1 <1>   0.9060 
 24 C       -5.8590   -11.9050    -0.7400 C.3   1 <1>  -0.1600 
 25 C       -5.8870   -12.7130     0.5670 C.3   1 <1>  -0.1600 
 26 O       -4.9550    -9.8100     1.5540 O.co2 1 <1>  -0.9000 
 27 O       -5.9840    -8.7290     0.0010 O.co2 1 <1>  -0.9000 
 28 H       -1.0710    -3.4790     2.1800 H     1 <1>   0.1500 
 29 H        2.6670    -1.5790     1.5080 H     1 <1>   0.1500 
 30 H        3.2230    -3.2760    -0.2120 H     1 <1>   0.1500 
 31 H        1.6260    -5.0590    -0.7210 H     1 <1>   0.1500 
 32 H       -2.6030    -5.1860     1.5960 H     1 <1>   0.1500 
 33 H       -3.4550    -7.3350     0.4030 H     1 <1>   0.1500 
 34 H       -0.3540    -8.8650    -1.4090 H     1 <1>   0.0800 
 35 H       -1.2650    -8.0030    -2.5980 H     1 <1>   0.0800 
 36 H       -1.4470   -10.5450    -0.0290 H     1 <1>   0.0800 
 37 H       -2.6660    -9.4270     0.5150 H     1 <1>   0.0800 
 38 H       -4.0010    -8.1690    -1.4960 H     1 <1>   0.0800 
 39 H       -3.5140    -8.6410    -3.0920 H     1 <1>   0.0800 
 40 H       -3.1480   -11.9920    -0.9870 H     1 <1>   0.0800 
 41 H       -5.6210    -9.7120    -2.3960 H     1 <1>   0.0800 
 42 H       -4.3850   -10.8670    -2.7870 H     1 <1>   0.0800 
 43 H       -4.0720   -11.2670     1.6450 H     1 <1>   0.4500 
 44 H       -4.1080   -13.8830     0.2980 H     1 <1>   0.0800 
 45 H       -4.5590   -13.6320     1.9700 H     1 <1>   0.0800 
 46 H       -1.7010   -12.9930     1.1270 H     1 <1>   0.0800 
 47 H       -2.4700   -12.7950     2.6920 H     1 <1>   0.0800 
 48 H       -1.7190   -11.4240     1.9150 H     1 <1>   0.0800 
 49 H       -6.8410   -11.5060    -0.9370 H     1 <1>   0.0800 
 50 H       -5.6000   -12.5600    -1.5530 H     1 <1>   0.0800 
 51 H       -6.5140   -13.5770     0.4390 H     1 <1>   0.0800 
 52 H       -6.3230   -12.1180     1.3520 H     1 <1>   0.0800 
@<TRIPOS>BOND
  1   1   2  1   
  2   2   3  ar  
  3   2   4  ar  
  4   3   5  ar  
  5   3  28  1   
  6   4   6  ar  
  7   4  29  1   
  8   5   7  1   
  9   5   8  ar  
 10   6   8  ar  
 11   6  30  1   
 12   7   9  1   
 13   7  10  2   
 14   8  31  1   
 15   9  11  1   
 16  10  12  1   
 17  10  32  1   
 18  11  12  2   
 19  11  13  1   
 20  12  33  1   
 21  13  14  1   
 22  13  34  1   
 23  13  35  1   
 24  14  15  1   
 25  14  16  1   
 26  15  17  1   
 27  15  36  1   
 28  15  37  1   
 29  16  18  1   
 30  16  38  1   
 31  16  39  1   
 32  17  19  1   
 33  17  20  1   
 34  17  40  1   
 35  18  20  1   
 36  18  41  1   
 37  18  42  1   
 38  19  21  1   
 39  19  22  1   
 40  19  43  1   
 41  20  23  1   
 42  20  24  1   
 43  21  25  1   
 44  21  44  1   
 45  21  45  1   
 46  22  46  1   
 47  22  47  1   
 48  22  48  1   
 49  23  26  ar  
 50  23  27  ar  
 51  24  25  1   
 52  24  49  1   
 53  24  50  1   
 54  25  51  1   
 55  25  52  1   
@<TRIPOS>SUBSTRUCTURE
  1 ****  12 GROUP 4 **** **** 0

# MOE 2024.06 (io_trps.svl 2023.06)
