@<TRIPOS>MOLECULE
NONAME
53 55 1 0 0 
SMALL
USER_CHARGES


@<TRIPOS>ATOM
  1 O        2.0500    -0.6280    -1.1490 O.2   1 <1>  -0.5700 
  2 C        2.9500    -0.7280    -0.3500 C.2   1 <1>   0.5690 
  3 N        3.4880     0.3960     0.2330 N.am  1 <1>  -0.6600 
  4 C        3.4940    -2.1190    -0.0300 C.3   1 <1>  -0.0190 
  5 C        4.7450     0.4470     1.0420 C.3   1 <1>   0.1400 
  6 C        2.8320     1.7190     0.0470 C.3   1 <1>   0.1400 
  7 C        3.0210    -3.2140    -0.9750 C.3   1 <1>   0.1200 
  8 C        3.0520    -2.6700     1.3240 C.3   1 <1>  -0.1600 
  9 C        5.9500     0.9370     0.2140 C.3   1 <1>   0.3430 
 10 C        3.3090     2.3840    -1.2500 C.3   1 <1>  -0.1600 
 11 O        3.2190    -4.3830    -0.2550 O.3   1 <1>  -0.5600 
 12 C        2.8990    -4.1720     1.0830 C.3   1 <1>   0.1200 
 13 N        5.6860     2.2040    -0.5480 N.4   1 <1>  -0.9590 
 14 C        4.7360     2.0370    -1.6780 C.3   1 <1>   0.3430 
 15 C        6.9720     2.8250    -0.9460 C.3   1 <1>   0.5230 
 16 C        7.5550     3.4360     0.3190 C.2   1 <1>   0.0070 
 17 N        6.8090     3.9860     1.2300 N.2   1 <1>  -0.5650 
 18 N        8.8770     3.4320     0.6200 N.pl3 1 <1>   0.0480 
 19 C        7.6900     4.3750     2.1700 C.2   1 <1>   0.0770 
 20 C        8.9500     4.0430     1.8160 C.2   1 <1>  -0.3020 
 21 C       10.0210     2.8780    -0.1400 C.3   1 <1>   0.0960 
 22 C       10.1740     1.3700     0.0900 C.3   1 <1>   0.1200 
 23 O        9.0240     0.6950    -0.3360 O.3   1 <1>  -0.5600 
 24 C        9.1670    -0.6940    -0.2920 C.3   1 <1>   0.0400 
 25 H        4.5660    -2.1080    -0.0880 H     1 <1>   0.0800 
 26 H        4.9740    -0.5200     1.4500 H     1 <1>   0.0800 
 27 H        4.6040     1.1070     1.8810 H     1 <1>   0.0800 
 28 H        3.0540     2.3540     0.8880 H     1 <1>   0.0800 
 29 H        1.7610     1.5940     0.0150 H     1 <1>   0.0800 
 30 H        3.5870    -3.2540    -1.8890 H     1 <1>   0.0800 
 31 H        1.9690    -3.1310    -1.1920 H     1 <1>   0.0800 
 32 H        2.0990    -2.2620     1.6130 H     1 <1>   0.0800 
 33 H        3.7680    -2.4720     2.1010 H     1 <1>   0.0800 
 34 H        6.2420     0.1610    -0.4740 H     1 <1>   0.0800 
 35 H        6.7760     1.0920     0.8890 H     1 <1>   0.0800 
 36 H        3.2010     3.4500    -1.1610 H     1 <1>   0.0800 
 37 H        2.6480     2.0740    -2.0400 H     1 <1>   0.0800 
 38 H        1.8840    -4.4950     1.2420 H     1 <1>   0.0800 
 39 H        3.5720    -4.7550     1.6880 H     1 <1>   0.0800 
 40 H        5.3210     2.8950     0.1310 H     1 <1>   0.4500 
 41 H        5.0140     2.6770    -2.4990 H     1 <1>   0.0800 
 42 H        4.7630     1.0160    -2.0250 H     1 <1>   0.0800 
 43 H        6.8010     3.6120    -1.6610 H     1 <1>   0.0800 
 44 H        7.6340     2.0940    -1.3750 H     1 <1>   0.0800 
 45 H        7.3710     4.8830     3.0670 H     1 <1>   0.1500 
 46 H        9.8710     4.2120     2.3460 H     1 <1>   0.1500 
 47 H       10.9170     3.3770     0.1840 H     1 <1>   0.0800 
 48 H        9.8920     3.0790    -1.1870 H     1 <1>   0.0800 
 49 H       10.3330     1.1650     1.1360 H     1 <1>   0.0800 
 50 H       11.0180     1.0070    -0.4730 H     1 <1>   0.0800 
 51 H        8.2540    -1.1450    -0.6370 H     1 <1>   0.0800 
 52 H        9.3650    -1.0020     0.7210 H     1 <1>   0.0800 
 53 H        9.9770    -0.9910    -0.9370 H     1 <1>   0.0800 
@<TRIPOS>BOND
  1   1   2  2   
  2   2   3  am  
  3   2   4  1   
  4   3   5  1   
  5   3   6  1   
  6   4   7  1   
  7   4   8  1   
  8   4  25  1   
  9   5   9  1   
 10   5  26  1   
 11   5  27  1   
 12   6  10  1   
 13   6  28  1   
 14   6  29  1   
 15   7  11  1   
 16   7  30  1   
 17   7  31  1   
 18   8  12  1   
 19   8  32  1   
 20   8  33  1   
 21   9  13  1   
 22   9  34  1   
 23   9  35  1   
 24  10  14  1   
 25  10  36  1   
 26  10  37  1   
 27  11  12  1   
 28  12  38  1   
 29  12  39  1   
 30  13  14  1   
 31  13  15  1   
 32  13  40  1   
 33  14  41  1   
 34  14  42  1   
 35  15  16  1   
 36  15  43  1   
 37  15  44  1   
 38  16  17  2   
 39  16  18  1   
 40  17  19  1   
 41  18  20  1   
 42  18  21  1   
 43  19  20  2   
 44  19  45  1   
 45  20  46  1   
 46  21  22  1   
 47  21  47  1   
 48  21  48  1   
 49  22  23  1   
 50  22  49  1   
 51  22  50  1   
 52  23  24  1   
 53  24  51  1   
 54  24  52  1   
 55  24  53  1   
@<TRIPOS>SUBSTRUCTURE
  1 ****   9 GROUP 4 **** **** 0

# MOE 2024.06 (io_trps.svl 2023.06)
