@<TRIPOS>MOLECULE
NONAME
49 50 1 0 0 
SMALL
USER_CHARGES


@<TRIPOS>ATOM
  1 O       -0.4500     3.1560    -2.6510 O.2   1 <1>  -0.5700 
  2 C       -0.5850     3.0690    -1.4570 C.2   1 <1>   0.5690 
  3 N       -1.7600     2.8500    -0.8470 N.am  1 <1>  -0.7300 
  4 C        0.5430     3.1770    -0.4360 C.3   1 <1>   0.0610 
  5 C       -1.6770     2.8920     0.6160 C.3   1 <1>   0.1400 
  6 C       -0.2640     3.4490     0.8710 C.3   1 <1>  -0.0190 
  7 C        1.2450     1.7920    -0.3630 C.3   1 <1>  -0.1600 
  8 C        1.5580     4.2980    -0.7950 C.3   1 <1>  -0.1600 
  9 C       -0.3800     4.9200     1.2420 C.2   1 <1>   0.6590 
 10 C        2.7010     1.8890     0.0960 C.3   1 <1>   0.1400 
 11 C        2.7240     3.7700    -1.6300 C.3   1 <1>   0.1400 
 12 O        0.0520     5.3280     2.2880 O.2   1 <1>  -0.5700 
 13 O       -0.9780     5.7190     0.3690 O.3   1 <1>  -0.4300 
 14 N        3.4780     2.7620    -0.8290 N.am  1 <1>  -0.6600 
 15 C       -1.1150     7.1010     0.6000 C.3   1 <1>   0.1200 
 16 C        4.8430     2.6760    -0.9150 C.2   1 <1>   0.7800 
 17 C       -1.7990     7.7130    -0.6180 C.3   1 <1>  -0.2400 
 18 O        5.4890     3.3620    -1.6830 O.2   1 <1>  -0.5700 
 19 O        5.4430     1.8010    -0.1030 O.3   1 <1>  -0.4300 
 20 C        6.8250     1.5400     0.0050 C.3   1 <1>   0.2800 
 21 C        7.3670     0.9930    -1.3210 C.3   1 <1>  -0.2400 
 22 C        6.9420     0.4600     1.0800 C.3   1 <1>  -0.2400 
 23 C        7.5680     2.7980     0.4690 C.3   1 <1>  -0.2400 
 24 H       -2.6390     2.7930    -1.3670 H     1 <1>   0.3700 
 25 H       -1.7760     1.8940     1.0090 H     1 <1>   0.0800 
 26 H       -2.4480     3.5240     1.0270 H     1 <1>   0.0800 
 27 H        0.1810     2.9490     1.7120 H     1 <1>   0.0800 
 28 H        1.2490     1.3390    -1.3410 H     1 <1>   0.0800 
 29 H        0.7060     1.1210     0.2820 H     1 <1>   0.0800 
 30 H        1.9810     4.7340     0.0930 H     1 <1>   0.0800 
 31 H        1.0630     5.0830    -1.3410 H     1 <1>   0.0800 
 32 H        3.1360     0.9040     0.1140 H     1 <1>   0.0800 
 33 H        2.7520     2.3010     1.0890 H     1 <1>   0.0800 
 34 H        3.3720     4.5860    -1.9040 H     1 <1>   0.0800 
 35 H        2.3600     3.3110    -2.5340 H     1 <1>   0.0800 
 36 H       -0.1340     7.5220     0.7450 H     1 <1>   0.0800 
 37 H       -1.7050     7.2420     1.4900 H     1 <1>   0.0800 
 38 H       -1.2050     7.5480    -1.4990 H     1 <1>   0.0800 
 39 H       -1.9140     8.7720    -0.4750 H     1 <1>   0.0800 
 40 H       -2.7730     7.2780    -0.7540 H     1 <1>   0.0800 
 41 H        6.7760     0.1590    -1.6520 H     1 <1>   0.0800 
 42 H        8.3820     0.6640    -1.1940 H     1 <1>   0.0800 
 43 H        7.3660     1.7510    -2.0830 H     1 <1>   0.0800 
 44 H        6.4050    -0.4220     0.7830 H     1 <1>   0.0800 
 45 H        6.5430     0.8170     2.0120 H     1 <1>   0.0800 
 46 H        7.9730     0.1940     1.2330 H     1 <1>   0.0800 
 47 H        7.5670     3.5540    -0.2940 H     1 <1>   0.0800 
 48 H        8.5930     2.5590     0.6870 H     1 <1>   0.0800 
 49 H        7.1130     3.1940     1.3590 H     1 <1>   0.0800 
@<TRIPOS>BOND
  1   1   2  2   
  2   2   3  am  
  3   2   4  1   
  4   3   5  1   
  5   3  24  1   
  6   4   6  1   
  7   4   7  1   
  8   4   8  1   
  9   5   6  1   
 10   5  25  1   
 11   5  26  1   
 12   6   9  1   
 13   6  27  1   
 14   7  10  1   
 15   7  28  1   
 16   7  29  1   
 17   8  11  1   
 18   8  30  1   
 19   8  31  1   
 20   9  12  2   
 21   9  13  1   
 22  10  14  1   
 23  10  32  1   
 24  10  33  1   
 25  11  14  1   
 26  11  34  1   
 27  11  35  1   
 28  13  15  1   
 29  14  16  am  
 30  15  17  1   
 31  15  36  1   
 32  15  37  1   
 33  16  18  2   
 34  16  19  1   
 35  17  38  1   
 36  17  39  1   
 37  17  40  1   
 38  19  20  1   
 39  20  21  1   
 40  20  22  1   
 41  20  23  1   
 42  21  41  1   
 43  21  42  1   
 44  21  43  1   
 45  22  44  1   
 46  22  45  1   
 47  22  46  1   
 48  23  47  1   
 49  23  48  1   
 50  23  49  1   
@<TRIPOS>SUBSTRUCTURE
  1 ****   8 GROUP 4 **** **** 0

# MOE 2024.06 (io_trps.svl 2023.06)
