@<TRIPOS>MOLECULE
NONAME
52 54 1 0 0 
SMALL
USER_CHARGES


@<TRIPOS>ATOM
  1 F        0.7940    -4.2120    -3.8080 F     1 <1>  -0.1900 
  2 C        0.3710    -4.1560    -2.5740 C.ar  1 <1>   0.1900 
  3 C       -0.9840    -4.2600    -2.3280 C.ar  1 <1>  -0.1500 
  4 C        1.2960    -3.9940    -1.5600 C.ar  1 <1>  -0.1500 
  5 C       -1.4360    -4.2010    -1.0180 C.ar  1 <1>  -0.1440 
  6 C        0.8410    -3.9370    -0.2540 C.ar  1 <1>  -0.1500 
  7 C       -0.5170    -4.0400     0.0120 C.ar  1 <1>  -0.1500 
  8 C       -2.9230    -4.3120    -0.7200 C.3   1 <1>   0.2640 
  9 O       -3.3430    -5.6220    -1.0410 O.3   1 <1>  -0.3630 
 10 C       -4.4430    -6.1680    -0.4570 C.ar  1 <1>   0.0830 
 11 C       -5.6020    -5.4700    -0.0830 C.ar  1 <1>   0.0830 
 12 C       -4.3640    -7.5340    -0.2460 C.ar  1 <1>  -0.1500 
 13 O       -5.6920    -4.1300    -0.3260 O.3   1 <1>  -0.3620 
 14 C       -6.6450    -6.1750     0.5160 C.ar  1 <1>  -0.1500 
 15 C       -5.4130    -8.2300     0.3320 C.ar  1 <1>  -0.1430 
 16 C       -6.8580    -3.3890    -0.0370 C.3   1 <1>   0.0400 
 17 C       -6.5500    -7.5410     0.7200 C.ar  1 <1>  -0.1500 
 18 C       -5.3270    -9.7320     0.5280 C.3   1 <1>   0.4860 
 19 N       -5.3960   -10.3790    -0.8200 N.4   1 <1>  -0.9590 
 20 C       -4.9950   -11.8280    -0.7060 C.3   1 <1>   0.3430 
 21 C       -6.7700   -10.1610    -1.3880 C.3   1 <1>   0.3430 
 22 C       -6.1950   -12.7410    -0.4880 C.3   1 <1>  -0.1860 
 23 C       -7.1120   -11.2600    -2.3870 C.3   1 <1>  -0.1600 
 24 C       -6.7000   -12.3610     0.8790 C.2   1 <1>   0.9060 
 25 C       -7.1680   -12.6230    -1.6830 C.3   1 <1>   0.2000 
 26 O       -5.8860   -12.4110     1.8010 O.co2 1 <1>  -0.9000 
 27 O       -7.7900   -11.7940     1.0010 O.co2 1 <1>  -0.9000 
 28 O       -8.4570   -12.8230    -1.2560 O.3   1 <1>  -0.6800 
 29 H       -1.6680    -4.3890    -3.1470 H     1 <1>   0.1500 
 30 H        2.3430    -3.9170    -1.7920 H     1 <1>   0.1500 
 31 H        1.5410    -3.8130     0.5550 H     1 <1>   0.1500 
 32 H       -0.8550    -3.9960     1.0330 H     1 <1>   0.1500 
 33 H       -3.4800    -3.6200    -1.3260 H     1 <1>   0.0800 
 34 H       -3.1230    -4.1310     0.3220 H     1 <1>   0.0800 
 35 H       -3.4610    -8.0380    -0.5410 H     1 <1>   0.1500 
 36 H       -7.5460    -5.6830     0.8310 H     1 <1>   0.1500 
 37 H       -6.6900    -2.3710    -0.3400 H     1 <1>   0.0800 
 38 H       -7.0460    -3.4280     1.0210 H     1 <1>   0.0800 
 39 H       -7.6820    -3.8010    -0.5920 H     1 <1>   0.0800 
 40 H       -7.3710    -8.0670     1.1840 H     1 <1>   0.1500 
 41 H       -6.1410   -10.0650     1.1540 H     1 <1>   0.0800 
 42 H       -4.4040    -9.9860     1.0210 H     1 <1>   0.0800 
 43 H       -4.7190    -9.8840    -1.4070 H     1 <1>   0.4500 
 44 H       -4.5000   -12.1320    -1.6130 H     1 <1>   0.0800 
 45 H       -4.3000   -11.9560     0.1100 H     1 <1>   0.0800 
 46 H       -7.5010   -10.1880    -0.5940 H     1 <1>   0.0800 
 47 H       -6.8250    -9.1930    -1.8580 H     1 <1>   0.0800 
 48 H       -5.8520   -13.7550    -0.4230 H     1 <1>   0.0800 
 49 H       -6.3650   -11.2760    -3.1590 H     1 <1>   0.0800 
 50 H       -8.0580   -11.0510    -2.8570 H     1 <1>   0.0800 
 51 H       -6.9620   -13.3940    -2.4060 H     1 <1>   0.0800 
 52 H       -8.5300   -12.4320    -0.3320 H     1 <1>   0.4000 
@<TRIPOS>BOND
  1   1   2  1   
  2   2   3  ar  
  3   2   4  ar  
  4   3   5  ar  
  5   3  29  1   
  6   4   6  ar  
  7   4  30  1   
  8   5   7  ar  
  9   5   8  1   
 10   6   7  ar  
 11   6  31  1   
 12   7  32  1   
 13   8   9  1   
 14   8  33  1   
 15   8  34  1   
 16   9  10  1   
 17  10  11  ar  
 18  10  12  ar  
 19  11  13  1   
 20  11  14  ar  
 21  12  15  ar  
 22  12  35  1   
 23  13  16  1   
 24  14  17  ar  
 25  14  36  1   
 26  15  17  ar  
 27  15  18  1   
 28  16  37  1   
 29  16  38  1   
 30  16  39  1   
 31  17  40  1   
 32  18  19  1   
 33  18  41  1   
 34  18  42  1   
 35  19  20  1   
 36  19  21  1   
 37  19  43  1   
 38  20  22  1   
 39  20  44  1   
 40  20  45  1   
 41  21  23  1   
 42  21  46  1   
 43  21  47  1   
 44  22  24  1   
 45  22  25  1   
 46  22  48  1   
 47  23  25  1   
 48  23  49  1   
 49  23  50  1   
 50  24  26  ar  
 51  24  27  ar  
 52  25  28  1   
 53  25  51  1   
 54  28  52  1   
@<TRIPOS>SUBSTRUCTURE
  1 ****  12 GROUP 4 **** **** 0

# MOE 2024.06 (io_trps.svl 2023.06)
