@<TRIPOS>MOLECULE
NONAME
47 48 1 0 0 
SMALL
USER_CHARGES


@<TRIPOS>ATOM
  1 O       -1.1960     0.6680    -1.7080 O.2   1 <1>  -0.5700 
  2 C       -1.6580     0.4240    -0.6200 C.2   1 <1>   0.5690 
  3 N       -1.8590    -0.8490    -0.2020 N.am  1 <1>  -0.7300 
  4 C       -2.0620     1.5630     0.3140 C.3   1 <1>  -0.0190 
  5 C       -1.6680    -2.0770    -1.0030 C.3   1 <1>   0.1400 
  6 C       -3.1460     2.4580    -0.3160 C.3   1 <1>  -0.1600 
  7 C       -0.8440     2.4070     0.7580 C.3   1 <1>  -0.1600 
  8 C       -2.9120    -2.9700    -0.8800 C.3   1 <1>   0.2090 
  9 C       -3.6890     3.4960     0.6880 C.3   1 <1>   0.2000 
 10 C       -1.2230     3.8100     1.2790 C.3   1 <1>  -0.1600 
 11 N       -3.4130    -3.0030     0.5260 N.pl3 1 <1>  -0.8690 
 12 O       -4.0320     4.6620    -0.0200 O.3   1 <1>  -0.5600 
 13 C       -2.6630     3.8530     1.7960 C.3   1 <1>   0.2000 
 14 C       -4.7510    -3.2000     0.7080 C.ar  1 <1>   0.4100 
 15 C       -5.2390     4.6060    -0.7150 C.3   1 <1>   0.0400 
 16 O       -2.9170     5.1290     2.2550 O.3   1 <1>  -0.6800 
 17 N       -5.0250    -4.4290     1.1040 N.ar  1 <1>  -0.6200 
 18 C       -5.7140    -2.2030     0.5010 C.ar  1 <1>  -0.1440 
 19 C       -6.3050    -4.7020     1.2850 C.ar  1 <1>   0.1600 
 20 C       -7.0420    -2.5150     0.6930 C.ar  1 <1>  -0.1500 
 21 C       -5.3320    -0.7860     0.0920 C.3   1 <1>  -0.0970 
 22 C       -7.3370    -3.8020     1.0940 C.ar  1 <1>  -0.1500 
 23 H       -2.3650    -1.0510     0.6680 H     1 <1>   0.3700 
 24 H       -2.4880     1.1160     1.1950 H     1 <1>   0.0800 
 25 H       -1.4890    -1.8300    -2.0360 H     1 <1>   0.0800 
 26 H       -0.8100    -2.6060    -0.6290 H     1 <1>   0.0800 
 27 H       -3.9550     1.8480    -0.6740 H     1 <1>   0.0800 
 28 H       -2.7090     2.9660    -1.1610 H     1 <1>   0.0800 
 29 H       -0.3160     1.8680     1.5250 H     1 <1>   0.0800 
 30 H       -0.1660     2.5280    -0.0700 H     1 <1>   0.0800 
 31 H       -2.6750    -3.9690    -1.2020 H     1 <1>   0.0800 
 32 H       -3.6800    -2.5930    -1.5330 H     1 <1>   0.0800 
 33 H       -4.5730     3.1160     1.1720 H     1 <1>   0.0800 
 34 H       -1.1320     4.5150     0.4690 H     1 <1>   0.0800 
 35 H       -0.5420     4.1030     2.0590 H     1 <1>   0.0800 
 36 H       -2.9340    -3.7440     1.0450 H     1 <1>   0.4000 
 37 H       -2.7620     3.1790     2.6290 H     1 <1>   0.0800 
 38 H       -5.3950     5.5600    -1.1870 H     1 <1>   0.0800 
 39 H       -6.0400     4.4100    -0.0230 H     1 <1>   0.0800 
 40 H       -5.1870     3.8380    -1.4670 H     1 <1>   0.0800 
 41 H       -3.2750     5.6220     1.4810 H     1 <1>   0.4000 
 42 H       -6.5460    -5.7010     1.6040 H     1 <1>   0.1500 
 43 H       -7.8260    -1.7940     0.5450 H     1 <1>   0.1500 
 44 H       -6.1870    -0.1340     0.1170 H     1 <1>   0.0800 
 45 H       -4.9280    -0.7800    -0.9040 H     1 <1>   0.0800 
 46 H       -4.5940    -0.4030     0.7710 H     1 <1>   0.0800 
 47 H       -8.3550    -4.1030     1.2610 H     1 <1>   0.1500 
@<TRIPOS>BOND
  1   1   2  2   
  2   2   3  am  
  3   2   4  1   
  4   3   5  1   
  5   3  23  1   
  6   4   6  1   
  7   4   7  1   
  8   4  24  1   
  9   5   8  1   
 10   5  25  1   
 11   5  26  1   
 12   6   9  1   
 13   6  27  1   
 14   6  28  1   
 15   7  10  1   
 16   7  29  1   
 17   7  30  1   
 18   8  11  1   
 19   8  31  1   
 20   8  32  1   
 21   9  12  1   
 22   9  13  1   
 23   9  33  1   
 24  10  13  1   
 25  10  34  1   
 26  10  35  1   
 27  11  14  1   
 28  11  36  1   
 29  12  15  1   
 30  13  16  1   
 31  13  37  1   
 32  14  17  ar  
 33  14  18  ar  
 34  15  38  1   
 35  15  39  1   
 36  15  40  1   
 37  16  41  1   
 38  17  19  ar  
 39  18  20  ar  
 40  18  21  1   
 41  19  22  ar  
 42  19  42  1   
 43  20  22  ar  
 44  20  43  1   
 45  21  44  1   
 46  21  45  1   
 47  21  46  1   
 48  22  47  1   
@<TRIPOS>SUBSTRUCTURE
  1 ****  21 GROUP 4 **** **** 0

# MOE 2024.06 (io_trps.svl 2023.06)
