@<TRIPOS>MOLECULE
NONAME
49 50 1 0 0 
SMALL
USER_CHARGES


@<TRIPOS>ATOM
  1 S        1.3090     0.3020     1.8030 S.o2  1 <1>   1.3330 
  2 O        2.3180     1.1340     2.4200 O.2   1 <1>  -0.6500 
  3 O        0.3490     0.8940     0.9090 O.2   1 <1>  -0.6500 
  4 N        2.1610    -0.9250     0.9320 N.am  1 <1>  -0.6930 
  5 C        0.4770    -0.6340     3.0670 C.3   1 <1>  -0.1350 
  6 C        1.4570    -1.7650     0.0750 C.ar  1 <1>   0.1990 
  7 C        3.6140    -0.6580     0.6670 C.3   1 <1>   0.3370 
  8 C        1.1780    -3.0720     0.4570 C.ar  1 <1>  -0.1500 
  9 C        1.0210    -1.3250    -1.1700 C.ar  1 <1>  -0.1500 
 10 C        3.8550     0.4460    -0.3930 C.2   1 <1>   0.5690 
 11 C        4.3430    -1.9770     0.3550 C.3   1 <1>  -0.2400 
 12 C        0.4800    -3.9210    -0.3830 C.ar  1 <1>  -0.1500 
 13 C        0.3240    -2.1710    -2.0130 C.ar  1 <1>  -0.1500 
 14 O        4.2620     0.1390    -1.4920 O.2   1 <1>  -0.5700 
 15 N        3.6240     1.7470    -0.0280 N.am  1 <1>  -0.4940 
 16 C        0.0520    -3.4700    -1.6200 C.ar  1 <1>  -0.1500 
 17 C        3.8400     2.9890    -0.6750 C.2   1 <1>  -0.0880 
 18 N        3.8710     3.2670    -2.0100 N.pl3 1 <1>   0.3140 
 19 C        4.0460     4.1670    -0.0390 C.2   1 <1>  -0.1810 
 20 N        4.1080     4.5800    -2.2330 N.2   1 <1>  -0.7070 
 21 C        3.5740     2.3880    -3.1470 C.3   1 <1>   0.0160 
 22 C        4.2130     5.1040    -1.0550 C.2   1 <1>   0.1080 
 23 C        4.0850     4.4230     1.4590 C.3   1 <1>   0.0210 
 24 C        4.4820     6.5790    -0.8620 C.3   1 <1>  -0.0590 
 25 C        5.5000     4.2150     1.9990 C.3   1 <1>  -0.2400 
 26 H       -0.0790     0.0250     3.7050 H     1 <1>   0.0800 
 27 H        1.1890    -1.1710     3.6610 H     1 <1>   0.0800 
 28 H       -0.2030    -1.3330     2.6200 H     1 <1>   0.0800 
 29 H        4.0540    -0.3000     1.5800 H     1 <1>   0.0800 
 30 H        1.5140    -3.4220     1.4150 H     1 <1>   0.1500 
 31 H        1.2270    -0.3140    -1.4740 H     1 <1>   0.1500 
 32 H        4.0060    -2.3870    -0.5820 H     1 <1>   0.0800 
 33 H        4.1810    -2.6910     1.1410 H     1 <1>   0.0800 
 34 H        5.3990    -1.7920     0.2720 H     1 <1>   0.0800 
 35 H        0.2690    -4.9320    -0.0780 H     1 <1>   0.1500 
 36 H       -0.0080    -1.8170    -2.9740 H     1 <1>   0.1500 
 37 H        3.2780     1.8550     0.9360 H     1 <1>   0.3700 
 38 H       -0.4910    -4.1290    -2.2760 H     1 <1>   0.1500 
 39 H        2.7720     1.7250    -2.8840 H     1 <1>   0.0800 
 40 H        4.4540     1.8240    -3.3920 H     1 <1>   0.0800 
 41 H        3.2840     2.9870    -3.9890 H     1 <1>   0.0800 
 42 H        3.4070     3.7520     1.9570 H     1 <1>   0.0800 
 43 H        3.7570     5.4260     1.6650 H     1 <1>   0.0800 
 44 H        5.2250     6.7230    -0.1010 H     1 <1>   0.0800 
 45 H        3.5740     7.0750    -0.5780 H     1 <1>   0.0800 
 46 H        4.8400     7.0050    -1.7820 H     1 <1>   0.0800 
 47 H        5.8230     3.2070     1.8070 H     1 <1>   0.0800 
 48 H        5.5230     4.3930     3.0590 H     1 <1>   0.0800 
 49 H        6.1840     4.8910     1.5160 H     1 <1>   0.0800 
@<TRIPOS>BOND
  1   1   2  2   
  2   1   3  2   
  3   1   4  am  
  4   1   5  1   
  5   4   6  1   
  6   4   7  1   
  7   5  26  1   
  8   5  27  1   
  9   5  28  1   
 10   6   8  ar  
 11   6   9  ar  
 12   7  10  1   
 13   7  11  1   
 14   7  29  1   
 15   8  12  ar  
 16   8  30  1   
 17   9  13  ar  
 18   9  31  1   
 19  10  14  2   
 20  10  15  am  
 21  11  32  1   
 22  11  33  1   
 23  11  34  1   
 24  12  16  ar  
 25  12  35  1   
 26  13  16  ar  
 27  13  36  1   
 28  15  17  1   
 29  15  37  1   
 30  16  38  1   
 31  17  18  1   
 32  17  19  2   
 33  18  20  1   
 34  18  21  1   
 35  19  22  1   
 36  19  23  1   
 37  20  22  2   
 38  21  39  1   
 39  21  40  1   
 40  21  41  1   
 41  22  24  1   
 42  23  25  1   
 43  23  42  1   
 44  23  43  1   
 45  24  44  1   
 46  24  45  1   
 47  24  46  1   
 48  25  47  1   
 49  25  48  1   
 50  25  49  1   
@<TRIPOS>SUBSTRUCTURE
  1 ****  15 GROUP 4 **** **** 0

# MOE 2024.06 (io_trps.svl 2023.06)
