@<TRIPOS>MOLECULE
NONAME
44 45 1 0 0 
SMALL
USER_CHARGES


@<TRIPOS>ATOM
  1 O        0.7520    -0.9660     1.1180 O.co2 1 <1>  -0.9000 
  2 C        1.6220    -0.7780     0.2720 C.2   1 <1>   0.9060 
  3 O        1.6620    -1.3500    -0.8230 O.co2 1 <1>  -0.9000 
  4 C        2.7310     0.1960     0.5970 C.3   1 <1>  -0.1860 
  5 C        4.0900    -0.4840     0.4020 C.3   1 <1>   0.2000 
  6 C        2.6220     1.5100    -0.2210 C.3   1 <1>  -0.1600 
  7 O        4.2220    -0.8060    -0.9380 O.3   1 <1>  -0.6800 
  8 C        5.2390     0.4720     0.7850 C.3   1 <1>   0.3430 
  9 C        3.9840     2.1020    -0.5970 C.3   1 <1>   0.3430 
 10 N        4.9260     1.9390     0.5540 N.4   1 <1>  -0.9590 
 11 C        6.1940     2.7150     0.3830 C.3   1 <1>   0.3430 
 12 C        5.9690     4.2290     0.4140 C.3   1 <1>   0.1200 
 13 O        7.2320     4.8410     0.3370 O.3   1 <1>  -0.3630 
 14 C        7.3750     6.1930     0.2700 C.ar  1 <1>   0.0830 
 15 C        8.6550     6.7100     0.0590 C.ar  1 <1>  -0.1430 
 16 C        6.2890     7.0570     0.3990 C.ar  1 <1>  -0.1500 
 17 C        8.8290     8.0880    -0.0440 C.ar  1 <1>  -0.1430 
 18 C        9.8570     5.7720    -0.0700 C.3   1 <1>  -0.0970 
 19 C        6.4730     8.4210     0.3070 C.ar  1 <1>  -0.1500 
 20 C        7.7370     8.9320     0.0850 C.ar  1 <1>  -0.1500 
 21 C       10.1940     8.7160    -0.2980 C.3   1 <1>  -0.0970 
 22 H        2.6310     0.4330     1.6400 H     1 <1>   0.0800 
 23 H        4.1480    -1.4030     0.9610 H     1 <1>   0.0800 
 24 H        2.0360     2.2260     0.3260 H     1 <1>   0.0800 
 25 H        2.0940     1.3120    -1.1390 H     1 <1>   0.0800 
 26 H        3.3340    -1.1980    -1.2110 H     1 <1>   0.4000 
 27 H        6.1060     0.1810     0.2150 H     1 <1>   0.0800 
 28 H        5.4660     0.3280     1.8270 H     1 <1>   0.0800 
 29 H        3.8640     3.1400    -0.8600 H     1 <1>   0.0800 
 30 H        4.3740     1.5750    -1.4540 H     1 <1>   0.0800 
 31 H        4.4190     2.2650     1.3860 H     1 <1>   0.4500 
 32 H        6.8730     2.4630     1.1810 H     1 <1>   0.0800 
 33 H        6.6550     2.4470    -0.5530 H     1 <1>   0.0800 
 34 H        5.5100     4.5300     1.3380 H     1 <1>   0.0800 
 35 H        5.3920     4.5550    -0.4330 H     1 <1>   0.0800 
 36 H        5.2940     6.6990     0.5720 H     1 <1>   0.1500 
 37 H       10.7200     6.1880     0.4160 H     1 <1>   0.0800 
 38 H       10.0830     5.6170    -1.1090 H     1 <1>   0.0800 
 39 H        9.6710     4.8190     0.3870 H     1 <1>   0.0800 
 40 H        5.6370     9.0910     0.4070 H     1 <1>   0.1500 
 41 H        7.8640     9.9980     0.0120 H     1 <1>   0.1500 
 42 H       10.1030     9.7640    -0.5160 H     1 <1>   0.0800 
 43 H       10.6710     8.2420    -1.1370 H     1 <1>   0.0800 
 44 H       10.8160     8.6040     0.5720 H     1 <1>   0.0800 
@<TRIPOS>BOND
  1   1   2  ar  
  2   2   3  ar  
  3   2   4  1   
  4   4   5  1   
  5   4   6  1   
  6   4  22  1   
  7   5   7  1   
  8   5   8  1   
  9   5  23  1   
 10   6   9  1   
 11   6  24  1   
 12   6  25  1   
 13   7  26  1   
 14   8  10  1   
 15   8  27  1   
 16   8  28  1   
 17   9  10  1   
 18   9  29  1   
 19   9  30  1   
 20  10  11  1   
 21  10  31  1   
 22  11  12  1   
 23  11  32  1   
 24  11  33  1   
 25  12  13  1   
 26  12  34  1   
 27  12  35  1   
 28  13  14  1   
 29  14  15  ar  
 30  14  16  ar  
 31  15  17  ar  
 32  15  18  1   
 33  16  19  ar  
 34  16  36  1   
 35  17  20  ar  
 36  17  21  1   
 37  18  37  1   
 38  18  38  1   
 39  18  39  1   
 40  19  20  ar  
 41  19  40  1   
 42  20  41  1   
 43  21  42  1   
 44  21  43  1   
 45  21  44  1   
@<TRIPOS>SUBSTRUCTURE
  1 ****  12 GROUP 4 **** **** 0

# MOE 2024.06 (io_trps.svl 2023.06)
