@<TRIPOS>MOLECULE
NONAME
42 44 1 0 0 
SMALL
USER_CHARGES


@<TRIPOS>ATOM
  1 O        0.3030     0.0060     0.8350 O.3   1 <1>  -0.0190 
  2 N        0.4320     1.1050     0.1530 N.2   1 <1>  -0.4100 
  3 C        1.0140    -0.9680     0.3320 C.2   1 <1>  -0.0400 
  4 C        1.2460     0.8370    -0.8040 C.2   1 <1>   0.1080 
  5 C        1.6610    -0.4910    -0.7430 C.2   1 <1>  -0.1500 
  6 C        0.9930    -2.3370     0.9850 C.3   1 <1>   0.2900 
  7 C        1.6870     1.8360    -1.8510 C.3   1 <1>  -0.0590 
  8 N       -0.2950    -3.0040     0.7240 N.3   1 <1>  -0.6890 
  9 C       -1.4130    -2.4060     1.5100 C.3   1 <1>   0.2100 
 10 C       -0.4970    -4.2350     1.5320 C.3   1 <1>   0.2100 
 11 C       -2.0140    -3.8440     1.5410 C.3   1 <1>   0.4720 
 12 N       -2.8100    -4.1750     0.2940 N.4   1 <1>  -0.9280 
 13 C       -4.2720    -3.8770     0.4040 C.3   1 <1>   0.4230 
 14 C       -2.5750    -5.5830    -0.1490 C.3   1 <1>   0.3430 
 15 C       -4.9500    -4.1090    -0.9540 C.3   1 <1>  -0.1600 
 16 C       -4.5440    -2.4420     0.8560 C.3   1 <1>  -0.2400 
 17 C       -3.2220    -5.8350    -1.5100 C.3   1 <1>  -0.1600 
 18 C       -4.7200    -5.5280    -1.4840 C.3   1 <1>  -0.1600 
 19 H        2.3380    -0.9800    -1.4180 H     1 <1>   0.1500 
 20 H        1.1680    -2.2310     2.0430 H     1 <1>   0.0800 
 21 H        1.7850    -2.9350     0.5680 H     1 <1>   0.0800 
 22 H        1.2230     2.7880    -1.6670 H     1 <1>   0.0800 
 23 H        1.4030     1.4920    -2.8280 H     1 <1>   0.0800 
 24 H        2.7540     1.9570    -1.8130 H     1 <1>   0.0800 
 25 H       -1.9610    -1.6810     0.9390 H     1 <1>   0.0000 
 26 H       -1.0970    -2.0520     2.4780 H     1 <1>   0.0000 
 27 H       -0.0370    -4.1670     2.5040 H     1 <1>   0.0000 
 28 H       -0.2320    -5.1280     0.9980 H     1 <1>   0.0000 
 29 H       -2.5320    -4.1030     2.4470 H     1 <1>   0.0000 
 30 H       -2.4070    -3.5620    -0.4290 H     1 <1>   0.4500 
 31 H       -4.7120    -4.5510     1.1220 H     1 <1>   0.0800 
 32 H       -2.9860    -6.2660     0.5770 H     1 <1>   0.0800 
 33 H       -1.5200    -5.7770    -0.2390 H     1 <1>   0.0800 
 34 H       -4.5830    -3.3930    -1.6700 H     1 <1>   0.0800 
 35 H       -6.0100    -3.9470    -0.8560 H     1 <1>   0.0800 
 36 H       -4.0940    -1.7310     0.1860 H     1 <1>   0.0800 
 37 H       -4.2030    -2.2720     1.8600 H     1 <1>   0.0800 
 38 H       -5.6050    -2.2620     0.8560 H     1 <1>   0.0800 
 39 H       -3.0740    -6.8650    -1.7860 H     1 <1>   0.0800 
 40 H       -2.7330    -5.2300    -2.2550 H     1 <1>   0.0800 
 41 H       -5.1310    -5.6210    -2.4760 H     1 <1>   0.0800 
 42 H       -5.2260    -6.2380    -0.8500 H     1 <1>   0.0800 
@<TRIPOS>BOND
  1   1   2  1   
  2   1   3  1   
  3   2   4  2   
  4   3   5  2   
  5   3   6  1   
  6   4   5  1   
  7   4   7  1   
  8   5  19  1   
  9   6   8  1   
 10   6  20  1   
 11   6  21  1   
 12   7  22  1   
 13   7  23  1   
 14   7  24  1   
 15   8   9  1   
 16   8  10  1   
 17   9  11  1   
 18   9  25  1   
 19   9  26  1   
 20  10  11  1   
 21  10  27  1   
 22  10  28  1   
 23  11  12  1   
 24  11  29  1   
 25  12  13  1   
 26  12  14  1   
 27  12  30  1   
 28  13  15  1   
 29  13  16  1   
 30  13  31  1   
 31  14  17  1   
 32  14  32  1   
 33  14  33  1   
 34  15  18  1   
 35  15  34  1   
 36  15  35  1   
 37  16  36  1   
 38  16  37  1   
 39  16  38  1   
 40  17  18  1   
 41  17  39  1   
 42  17  40  1   
 43  18  41  1   
 44  18  42  1   
@<TRIPOS>SUBSTRUCTURE
  1 ****   8 GROUP 4 **** **** 0

# MOE 2024.06 (io_trps.svl 2023.06)
