@<TRIPOS>MOLECULE
NONAME
60 62 1 0 0 
SMALL
USER_CHARGES


@<TRIPOS>ATOM
  1 O       -0.0410     0.2350    -1.1230 O.2   1 <1>  -0.5700 
  2 C       -1.0130     0.7680    -0.6440 C.2   1 <1>   0.5690 
  3 N       -2.2300     0.1350    -0.5630 N.am  1 <1>  -0.6600 
  4 C       -0.8280     2.1970    -0.1660 C.3   1 <1>  -0.0990 
  5 C       -2.3800    -1.2690    -1.0690 C.3   1 <1>   0.1400 
  6 C       -3.4850     0.8200    -0.1170 C.3   1 <1>   0.1400 
  7 C       -1.1200     3.1990    -1.2930 C.3   1 <1>  -0.0990 
  8 C       -3.1120    -2.2210    -0.0820 C.3   1 <1>   0.0000 
  9 C       -4.6420    -0.1620     0.0870 C.3   1 <1>  -0.1600 
 10 C       -1.1000     4.6180    -0.7710 C.2   1 <1>   0.5690 
 11 C       -4.1150    -1.4070     0.7960 C.3   1 <1>   0.2000 
 12 C       -3.8810    -3.2710    -0.9310 C.3   1 <1>   0.1200 
 13 C       -2.1100    -2.9780     0.8390 C.3   1 <1>  -0.1600 
 14 O       -2.1130     5.0410    -0.2740 O.2   1 <1>  -0.5700 
 15 N        0.0700     5.3170    -0.8720 N.am  1 <1>  -0.5470 
 16 O       -5.2040    -2.1620     1.2060 O.3   1 <1>  -0.6800 
 17 O       -3.0450    -3.9530    -1.8110 O.3   1 <1>  -0.6800 
 18 C       -1.0830    -2.1100     1.5920 C.3   1 <1>  -0.1600 
 19 C        0.4070     6.6250    -0.4890 C.ar  1 <1>   0.1170 
 20 C       -0.2290    -2.9680     2.5290 C.3   1 <1>  -0.2400 
 21 C        1.7570     6.9470    -0.3670 C.ar  1 <1>  -0.1500 
 22 C       -0.5410     7.6180    -0.2410 C.ar  1 <1>  -0.1500 
 23 C        2.1310     8.2260    -0.0020 C.ar  1 <1>  -0.1440 
 24 C       -0.1600     8.8980     0.1260 C.ar  1 <1>  -0.1500 
 25 C        1.1860     9.1890     0.2420 C.ar  1 <1>  -0.1440 
 26 C        3.5260     8.7690     0.1870 C.3   1 <1>  -0.0170 
 27 C        1.8230    10.5010     0.6240 C.3   1 <1>  -0.0170 
 28 C        3.3080    10.2890     0.2830 C.3   1 <1>  -0.1600 
 29 H       -1.4520     2.3960     0.6840 H     1 <1>   0.0800 
 30 H        0.1890     2.3150     0.1610 H     1 <1>   0.0800 
 31 H       -2.9370    -1.2080    -1.9870 H     1 <1>   0.0800 
 32 H       -1.4200    -1.6910    -1.3160 H     1 <1>   0.0800 
 33 H       -3.2990     1.3110     0.8230 H     1 <1>   0.0800 
 34 H       -3.7670     1.5680    -0.8380 H     1 <1>   0.0800 
 35 H       -2.0920     3.0090    -1.7080 H     1 <1>   0.0800 
 36 H       -0.3990     3.0830    -2.0820 H     1 <1>   0.0800 
 37 H       -5.0740    -0.4150    -0.8640 H     1 <1>   0.0800 
 38 H       -5.3940     0.3160     0.6890 H     1 <1>   0.0800 
 39 H       -3.6260    -1.0850     1.6980 H     1 <1>   0.0800 
 40 H       -4.6530    -2.8010    -1.5140 H     1 <1>   0.0800 
 41 H       -4.3330    -4.0120    -0.2930 H     1 <1>   0.0800 
 42 H       -2.6750    -3.5480     1.5570 H     1 <1>   0.0800 
 43 H       -1.5550    -3.6880     0.2500 H     1 <1>   0.0800 
 44 H        0.8490     4.7900    -1.2610 H     1 <1>   0.3700 
 45 H       -5.8040    -2.3430     0.4590 H     1 <1>   0.4000 
 46 H       -2.5910    -3.3460    -2.4250 H     1 <1>   0.4000 
 47 H       -0.4290    -1.6240     0.8890 H     1 <1>   0.0800 
 48 H       -1.5700    -1.3490     2.1720 H     1 <1>   0.0800 
 49 H        0.2980    -3.7230     1.9720 H     1 <1>   0.0800 
 50 H       -0.8470    -3.4490     3.2670 H     1 <1>   0.0800 
 51 H        0.4920    -2.3520     3.0360 H     1 <1>   0.0800 
 52 H        2.5110     6.2060    -0.5510 H     1 <1>   0.1500 
 53 H       -1.5880     7.3980    -0.3350 H     1 <1>   0.1500 
 54 H       -0.9000     9.6540     0.3170 H     1 <1>   0.1500 
 55 H        3.9380     8.3860     1.1040 H     1 <1>   0.0800 
 56 H        4.1660     8.5130    -0.6390 H     1 <1>   0.0800 
 57 H        1.4020    11.3220     0.0700 H     1 <1>   0.0800 
 58 H        1.6940    10.6670     1.6790 H     1 <1>   0.0800 
 59 H        3.9550    10.7410     1.0140 H     1 <1>   0.0800 
 60 H        3.5060    10.7280    -0.6790 H     1 <1>   0.0800 
@<TRIPOS>BOND
  1   1   2  2   
  2   2   3  am  
  3   2   4  1   
  4   3   5  1   
  5   3   6  1   
  6   4   7  1   
  7   4  29  1   
  8   4  30  1   
  9   5   8  1   
 10   5  31  1   
 11   5  32  1   
 12   6   9  1   
 13   6  33  1   
 14   6  34  1   
 15   7  10  1   
 16   7  35  1   
 17   7  36  1   
 18   8  11  1   
 19   8  12  1   
 20   8  13  1   
 21   9  11  1   
 22   9  37  1   
 23   9  38  1   
 24  10  14  2   
 25  10  15  am  
 26  11  16  1   
 27  11  39  1   
 28  12  17  1   
 29  12  40  1   
 30  12  41  1   
 31  13  18  1   
 32  13  42  1   
 33  13  43  1   
 34  15  19  1   
 35  15  44  1   
 36  16  45  1   
 37  17  46  1   
 38  18  20  1   
 39  18  47  1   
 40  18  48  1   
 41  19  21  ar  
 42  19  22  ar  
 43  20  49  1   
 44  20  50  1   
 45  20  51  1   
 46  21  23  ar  
 47  21  52  1   
 48  22  24  ar  
 49  22  53  1   
 50  23  25  ar  
 51  23  26  1   
 52  24  25  ar  
 53  24  54  1   
 54  25  27  1   
 55  26  28  1   
 56  26  55  1   
 57  26  56  1   
 58  27  28  1   
 59  27  57  1   
 60  27  58  1   
 61  28  59  1   
 62  28  60  1   
@<TRIPOS>SUBSTRUCTURE
  1 ****   4 GROUP 4 **** **** 0

# MOE 2024.06 (io_trps.svl 2023.06)
