@<TRIPOS>MOLECULE
NONAME
53 56 1 0 0 
SMALL
USER_CHARGES


@<TRIPOS>ATOM
  1 O        4.1570     1.7400     1.6430 O.co2 1 <1>  -0.9000 
  2 C        3.8430     0.5890     1.3410 C.2   1 <1>   0.9060 
  3 O        4.4950    -0.3780     1.7480 O.co2 1 <1>  -0.9000 
  4 C        2.8680     0.3760     0.1680 C.3   1 <1>  -0.1060 
  5 C        3.7070    -0.3330    -0.9100 C.3   1 <1>   0.4230 
  6 C        2.3770     1.7320    -0.4330 C.3   1 <1>  -0.1600 
  7 C        1.6250    -0.4600     0.5690 C.3   1 <1>  -0.1600 
  8 N        4.0310    -1.7400    -0.4670 N.4   1 <1>  -0.9590 
  9 C        4.9670     0.5390    -1.2420 C.3   1 <1>   0.3430 
 10 C        3.4280     2.5470    -1.2120 C.3   1 <1>   0.3430 
 11 C        1.9680    -1.9250     0.8720 C.3   1 <1>  -0.1600 
 12 C        2.8140    -2.5620    -0.2300 C.3   1 <1>   0.3430 
 13 C        5.0490    -2.4840    -1.2630 C.3   1 <1>   0.2630 
 14 N        4.8000     2.0170    -0.9890 N.4   1 <1>  -0.9590 
 15 C        5.8820     2.8440    -1.5870 C.3   1 <1>   0.4860 
 16 C        5.8110     4.2540    -1.0420 C.ar  1 <1>  -0.1430 
 17 C        6.2960     4.4940     0.2450 C.ar  1 <1>   0.0820 
 18 C        5.2700     5.2910    -1.7960 C.ar  1 <1>  -0.1500 
 19 O        6.8230     3.4370     0.9110 O.3   1 <1>  -0.3620 
 20 C        6.2380     5.7700     0.8030 C.ar  1 <1>  -0.1500 
 21 C        5.2220     6.5460    -1.2230 C.ar  1 <1>   0.0820 
 22 C        6.6590     3.3540     2.3130 C.3   1 <1>   0.0400 
 23 C        5.6900     6.7790     0.0370 C.ar  1 <1>   0.0820 
 24 O        4.7460     7.6770    -1.7570 O.3   1 <1>  -0.3630 
 25 O        5.5320     8.0680     0.3540 O.3   1 <1>  -0.3620 
 26 C        4.9360     8.7000    -0.7780 C.3   1 <1>   0.4000 
 27 H        3.1090    -0.3960    -1.8030 H     1 <1>   0.0800 
 28 H        2.0040     2.3490     0.3680 H     1 <1>   0.0800 
 29 H        1.5450     1.5710    -1.0950 H     1 <1>   0.0800 
 30 H        1.1600    -0.0180     1.4360 H     1 <1>   0.0800 
 31 H        0.9000    -0.4460    -0.2270 H     1 <1>   0.0800 
 32 H        4.4170    -1.5740     0.5060 H     1 <1>   0.4500 
 33 H        5.2300     0.3800    -2.2740 H     1 <1>   0.0800 
 34 H        5.7810     0.1940    -0.6250 H     1 <1>   0.0800 
 35 H        3.3790     3.5740    -0.8850 H     1 <1>   0.0800 
 36 H        3.1980     2.5210    -2.2650 H     1 <1>   0.0800 
 37 H        1.0580    -2.4880     0.9880 H     1 <1>   0.0800 
 38 H        2.4980    -1.9930     1.8080 H     1 <1>   0.0800 
 39 H        2.2370    -2.6370    -1.1370 H     1 <1>   0.0800 
 40 H        3.0970    -3.5560     0.0780 H     1 <1>   0.0800 
 41 H        4.7010    -2.6380    -2.2720 H     1 <1>   0.0800 
 42 H        5.2340    -3.4460    -0.8130 H     1 <1>   0.0800 
 43 H        5.9800    -1.9430    -1.2880 H     1 <1>   0.0800 
 44 H        4.9160     2.1450     0.0580 H     1 <1>   0.4500 
 45 H        6.8420     2.4270    -1.3290 H     1 <1>   0.0800 
 46 H        5.7910     2.8620    -2.6600 H     1 <1>   0.0800 
 47 H        4.8950     5.1540    -2.7940 H     1 <1>   0.1500 
 48 H        6.6050     5.9850     1.7880 H     1 <1>   0.1500 
 49 H        6.8520     2.3400     2.6160 H     1 <1>   0.0800 
 50 H        5.6440     3.6100     2.5670 H     1 <1>   0.0800 
 51 H        7.3520     4.0220     2.7910 H     1 <1>   0.0800 
 52 H        3.9840     9.1160    -0.5000 H     1 <1>   0.0800 
 53 H        5.6020     9.4500    -1.1650 H     1 <1>   0.0800 
@<TRIPOS>BOND
  1   1   2  ar  
  2   2   3  ar  
  3   2   4  1   
  4   4   5  1   
  5   4   6  1   
  6   4   7  1   
  7   5   8  1   
  8   5   9  1   
  9   5  27  1   
 10   6  10  1   
 11   6  28  1   
 12   6  29  1   
 13   7  11  1   
 14   7  30  1   
 15   7  31  1   
 16   8  12  1   
 17   8  13  1   
 18   8  32  1   
 19   9  14  1   
 20   9  33  1   
 21   9  34  1   
 22  10  14  1   
 23  10  35  1   
 24  10  36  1   
 25  11  12  1   
 26  11  37  1   
 27  11  38  1   
 28  12  39  1   
 29  12  40  1   
 30  13  41  1   
 31  13  42  1   
 32  13  43  1   
 33  14  15  1   
 34  14  44  1   
 35  15  16  1   
 36  15  45  1   
 37  15  46  1   
 38  16  17  ar  
 39  16  18  ar  
 40  17  19  1   
 41  17  20  ar  
 42  18  21  ar  
 43  18  47  1   
 44  19  22  1   
 45  20  23  ar  
 46  20  48  1   
 47  21  23  ar  
 48  21  24  1   
 49  22  49  1   
 50  22  50  1   
 51  22  51  1   
 52  23  25  1   
 53  24  26  1   
 54  25  26  1   
 55  26  52  1   
 56  26  53  1   
@<TRIPOS>SUBSTRUCTURE
  1 ****  14 GROUP 4 **** **** 0

# MOE 2024.06 (io_trps.svl 2023.06)
