@<TRIPOS>MOLECULE
NONAME
61 65 1 0 0 
SMALL
USER_CHARGES


@<TRIPOS>ATOM
  1 O       -0.9490     0.1000    -1.8280 O.2   1 <1>  -0.5700 
  2 C       -0.0380     0.8940    -1.7060 C.2   1 <1>   0.5440 
  3 N        1.2150     0.5500    -1.2860 N.am  1 <1>  -0.6600 
  4 C       -0.0940     2.2950    -2.0020 C.ar  1 <1>   0.0860 
  5 C        2.1210     1.7320    -1.3920 C.3   1 <1>   0.2840 
  6 C        1.7680    -0.8370    -1.2210 C.3   1 <1>   0.1400 
  7 C        1.1670     2.8310    -1.8270 C.ar  1 <1>  -0.1440 
  8 C       -1.1420     3.1130    -2.4050 C.ar  1 <1>  -0.1500 
  9 C        1.9550    -1.3940     0.2220 C.3   1 <1>   0.0000 
 10 C        1.4120     4.1740    -2.0420 C.ar  1 <1>  -0.1500 
 11 C       -0.9080     4.4600    -2.6230 C.ar  1 <1>  -0.1500 
 12 C        2.8980    -0.5020     1.0700 C.3   1 <1>  -0.1600 
 13 C        2.5880    -2.8070     0.1430 C.3   1 <1>  -0.1600 
 14 C        0.5940    -1.4790     0.9640 C.3   1 <1>  -0.0990 
 15 C        0.3630     4.9890    -2.4420 C.ar  1 <1>  -0.1500 
 16 C        4.3410    -0.4610     0.5440 C.3   1 <1>  -0.1600 
 17 C        4.0450    -2.8140    -0.3550 C.3   1 <1>  -0.1600 
 18 C       -0.3450    -2.5790     0.5060 C.2   1 <1>   0.5690 
 19 C        4.9280    -1.8750     0.4740 C.3   1 <1>  -0.1600 
 20 O       -0.4570    -3.5770     1.1760 O.2   1 <1>  -0.5700 
 21 N       -1.0730    -2.4030    -0.6180 N.am  1 <1>  -0.7300 
 22 C       -2.2380    -3.2200    -1.0000 C.3   1 <1>   0.3200 
 23 C       -3.4560    -2.3500    -1.2570 C.2   1 <1>   0.0060 
 24 N       -4.2610    -2.5170    -2.2360 N.2   1 <1>  -0.3380 
 25 N       -3.8440    -1.3200    -0.5060 N.pl3 1 <1>   0.5930 
 26 N       -5.1800    -1.5700    -2.1070 N.2   1 <1>   0.0000 
 27 N       -4.9440    -0.8460    -1.0760 N.2   1 <1>  -0.4180 
 28 C       -3.2830    -0.7650     0.6810 C.ar  1 <1>  -0.0230 
 29 C       -3.1470    -1.5270     1.8380 C.ar  1 <1>  -0.1500 
 30 C       -2.8470     0.5560     0.6970 C.ar  1 <1>  -0.1500 
 31 C       -2.5760    -0.9850     2.9750 C.ar  1 <1>  -0.1500 
 32 C       -2.2780     1.1000     1.8340 C.ar  1 <1>  -0.1500 
 33 C       -2.1410     0.3290     2.9750 C.ar  1 <1>  -0.1500 
 34 H        2.8800     1.5620    -2.1360 H     1 <1>   0.0800 
 35 H        2.5680     1.9680    -0.4430 H     1 <1>   0.0800 
 36 H        2.7080    -0.8430    -1.7410 H     1 <1>   0.0800 
 37 H        1.1170    -1.4930    -1.7700 H     1 <1>   0.0800 
 38 H       -2.1210     2.6880    -2.5460 H     1 <1>   0.1500 
 39 H        2.3970     4.5870    -1.9040 H     1 <1>   0.1500 
 40 H       -1.7150     5.1020    -2.9360 H     1 <1>   0.1500 
 41 H        2.9340    -0.8910     2.0740 H     1 <1>   0.0800 
 42 H        2.5020     0.4930     1.1480 H     1 <1>   0.0800 
 43 H        2.0040    -3.4410    -0.5020 H     1 <1>   0.0800 
 44 H        2.5680    -3.2530     1.1230 H     1 <1>   0.0800 
 45 H        0.0770    -0.5400     0.8980 H     1 <1>   0.0800 
 46 H        0.7730    -1.6520     2.0100 H     1 <1>   0.0800 
 47 H        0.5350     6.0380    -2.6140 H     1 <1>   0.1500 
 48 H        4.9430     0.1400     1.2030 H     1 <1>   0.0800 
 49 H        4.3750    -0.0070    -0.4310 H     1 <1>   0.0800 
 50 H        4.0860    -2.5260    -1.3900 H     1 <1>   0.0800 
 51 H        4.4350    -3.8150    -0.2880 H     1 <1>   0.0800 
 52 H        5.0180    -2.2680     1.4730 H     1 <1>   0.0800 
 53 H        5.9160    -1.8370     0.0490 H     1 <1>   0.0800 
 54 H       -0.9750    -1.5170    -1.1410 H     1 <1>   0.3700 
 55 H       -2.4640    -3.9310    -0.2240 H     1 <1>   0.0800 
 56 H       -1.9990    -3.7690    -1.8950 H     1 <1>   0.0800 
 57 H       -3.4780    -2.5510     1.8540 H     1 <1>   0.1500 
 58 H       -2.9490     1.1590    -0.1900 H     1 <1>   0.1500 
 59 H       -2.4690    -1.5870     3.8610 H     1 <1>   0.1500 
 60 H       -1.9420     2.1230     1.8310 H     1 <1>   0.1500 
 61 H       -1.6980     0.7500     3.8610 H     1 <1>   0.1500 
@<TRIPOS>BOND
  1   1   2  2   
  2   2   3  am  
  3   2   4  1   
  4   3   5  1   
  5   3   6  1   
  6   4   7  ar  
  7   4   8  ar  
  8   5   7  1   
  9   5  34  1   
 10   5  35  1   
 11   6   9  1   
 12   6  36  1   
 13   6  37  1   
 14   7  10  ar  
 15   8  11  ar  
 16   8  38  1   
 17   9  12  1   
 18   9  13  1   
 19   9  14  1   
 20  10  15  ar  
 21  10  39  1   
 22  11  15  ar  
 23  11  40  1   
 24  12  16  1   
 25  12  41  1   
 26  12  42  1   
 27  13  17  1   
 28  13  43  1   
 29  13  44  1   
 30  14  18  1   
 31  14  45  1   
 32  14  46  1   
 33  15  47  1   
 34  16  19  1   
 35  16  48  1   
 36  16  49  1   
 37  17  19  1   
 38  17  50  1   
 39  17  51  1   
 40  18  20  2   
 41  18  21  am  
 42  19  52  1   
 43  19  53  1   
 44  21  22  1   
 45  21  54  1   
 46  22  23  1   
 47  22  55  1   
 48  22  56  1   
 49  23  24  2   
 50  23  25  1   
 51  24  26  1   
 52  25  27  1   
 53  25  28  1   
 54  26  27  2   
 55  28  29  ar  
 56  28  30  ar  
 57  29  31  ar  
 58  29  57  1   
 59  30  32  ar  
 60  30  58  1   
 61  31  33  ar  
 62  31  59  1   
 63  32  33  ar  
 64  32  60  1   
 65  33  61  1   
@<TRIPOS>SUBSTRUCTURE
  1 ****   1 GROUP 4 **** **** 0

# MOE 2024.06 (io_trps.svl 2023.06)
