@<TRIPOS>MOLECULE
NONAME
50 52 1 0 0 
SMALL
USER_CHARGES


@<TRIPOS>ATOM
  1 S       -0.4740    -0.8620     1.2820 S.o2  1 <1>   1.3330 
  2 O       -0.0130    -0.4920    -0.0350 O.2   1 <1>  -0.6500 
  3 O       -1.4100    -0.0380     2.0040 O.2   1 <1>  -0.6500 
  4 N       -1.2190    -2.3570     1.1870 N.am  1 <1>  -0.9140 
  5 C        0.9360    -1.2010     2.3130 C.3   1 <1>  -0.1350 
  6 C       -1.8910    -2.6260    -0.0670 C.3   1 <1>   0.2760 
  7 C       -3.1600    -1.7760    -0.2000 C.3   1 <1>  -0.1600 
  8 C       -2.2350    -4.1160    -0.0970 C.3   1 <1>  -0.1600 
  9 C       -3.9360    -2.1520    -1.4630 C.3   1 <1>   0.1400 
 10 C       -3.0150    -4.4770    -1.3620 C.3   1 <1>   0.1400 
 11 N       -4.2240    -3.6140    -1.4530 N.am  1 <1>  -0.6600 
 12 C       -5.5160    -4.0980    -1.3750 C.2   1 <1>   0.5440 
 13 O       -6.4280    -3.3230    -1.1590 O.2   1 <1>  -0.5700 
 14 C       -5.8160    -5.5080    -1.5310 C.ar  1 <1>   0.0860 
 15 C       -6.4380    -6.2210    -0.5110 C.ar  1 <1>  -0.1500 
 16 C       -5.4990    -6.1940    -2.7030 C.ar  1 <1>  -0.1500 
 17 C       -6.7340    -7.5730    -0.6250 C.ar  1 <1>   0.0000 
 18 C       -5.7810    -7.5400    -2.8390 C.ar  1 <1>  -0.1500 
 19 C       -7.3810    -8.2860     0.4540 C.ar  1 <1>   0.0000 
 20 C       -6.3930    -8.2230    -1.8050 C.ar  1 <1>  -0.1500 
 21 C       -8.7450    -8.1490     0.7260 C.ar  1 <1>  -0.1440 
 22 C       -6.6280    -9.1400     1.2530 C.ar  1 <1>  -0.1500 
 23 C       -9.3170    -8.8510     1.7750 C.ar  1 <1>  -0.1500 
 24 C       -9.6180    -7.2330    -0.1210 C.3   1 <1>  -0.0970 
 25 C       -7.2030    -9.8390     2.2970 C.ar  1 <1>  -0.1500 
 26 C       -8.5520    -9.6950     2.5590 C.ar  1 <1>  -0.1500 
 27 H       -1.9480    -2.3120     1.8970 H     1 <1>   0.4200 
 28 H        1.4970    -0.3020     2.4750 H     1 <1>   0.0800 
 29 H        1.5710    -1.9240     1.8410 H     1 <1>   0.0800 
 30 H        0.6180    -1.5850     3.2620 H     1 <1>   0.0800 
 31 H       -1.2270    -2.4190    -0.8930 H     1 <1>   0.0800 
 32 H       -2.9070    -0.7330    -0.2630 H     1 <1>   0.0800 
 33 H       -3.8030    -1.9200     0.6500 H     1 <1>   0.0800 
 34 H       -2.8310    -4.3760     0.7600 H     1 <1>   0.0800 
 35 H       -1.3280    -4.6920    -0.0680 H     1 <1>   0.0800 
 36 H       -3.3540    -1.9150    -2.3370 H     1 <1>   0.0800 
 37 H       -4.8480    -1.5810    -1.5110 H     1 <1>   0.0800 
 38 H       -3.2810    -5.5180    -1.3260 H     1 <1>   0.0800 
 39 H       -2.4020    -4.3170    -2.2330 H     1 <1>   0.0800 
 40 H       -6.7000    -5.7040     0.3950 H     1 <1>   0.1500 
 41 H       -5.0300    -5.6580    -3.5100 H     1 <1>   0.1500 
 42 H       -5.5290    -8.0560    -3.7500 H     1 <1>   0.1500 
 43 H       -6.6180    -9.2710    -1.9080 H     1 <1>   0.1500 
 44 H       -5.5770    -9.2530     1.0520 H     1 <1>   0.1500 
 45 H      -10.3660    -8.7450     1.9880 H     1 <1>   0.1500 
 46 H       -9.4850    -7.4560    -1.1650 H     1 <1>   0.0800 
 47 H       -9.3470    -6.2060     0.0490 H     1 <1>   0.0800 
 48 H      -10.6570    -7.3560     0.1200 H     1 <1>   0.0800 
 49 H       -6.6030   -10.4940     2.9040 H     1 <1>   0.1500 
 50 H       -9.0060   -10.2360     3.3710 H     1 <1>   0.1500 
@<TRIPOS>BOND
  1   1   2  2   
  2   1   3  2   
  3   1   4  am  
  4   1   5  1   
  5   4   6  1   
  6   4  27  1   
  7   5  28  1   
  8   5  29  1   
  9   5  30  1   
 10   6   7  1   
 11   6   8  1   
 12   6  31  1   
 13   7   9  1   
 14   7  32  1   
 15   7  33  1   
 16   8  10  1   
 17   8  34  1   
 18   8  35  1   
 19   9  11  1   
 20   9  36  1   
 21   9  37  1   
 22  10  11  1   
 23  10  38  1   
 24  10  39  1   
 25  11  12  am  
 26  12  13  2   
 27  12  14  1   
 28  14  15  ar  
 29  14  16  ar  
 30  15  17  ar  
 31  15  40  1   
 32  16  18  ar  
 33  16  41  1   
 34  17  19  1   
 35  17  20  ar  
 36  18  20  ar  
 37  18  42  1   
 38  19  21  ar  
 39  19  22  ar  
 40  20  43  1   
 41  21  23  ar  
 42  21  24  1   
 43  22  25  ar  
 44  22  44  1   
 45  23  26  ar  
 46  23  45  1   
 47  24  46  1   
 48  24  47  1   
 49  24  48  1   
 50  25  26  ar  
 51  25  49  1   
 52  26  50  1   
@<TRIPOS>SUBSTRUCTURE
  1 ****  14 GROUP 4 **** **** 0

# MOE 2024.06 (io_trps.svl 2023.06)
