@<TRIPOS>MOLECULE
NONAME
43 44 1 0 0 
SMALL
USER_CHARGES


@<TRIPOS>ATOM
  1 S        0.4080    -0.1700    -1.5410 S.o2  1 <1>   1.2040 
  2 O        1.5960    -0.4260    -2.3250 O.2   1 <1>  -0.6500 
  3 O       -0.8730    -0.0670    -2.2060 O.2   1 <1>  -0.6500 
  4 C        0.2990    -1.3850    -0.2030 C.ar  1 <1>  -0.0090 
  5 C        0.6560     1.3480    -0.6490 C.3   1 <1>  -0.0550 
  6 C        1.4490    -1.9630     0.3300 C.ar  1 <1>  -0.1500 
  7 C       -0.9340    -1.7450     0.3380 C.ar  1 <1>  -0.1500 
  8 C        0.8290     2.5050    -1.6210 C.3   1 <1>   0.2090 
  9 C        1.3810    -2.8740     1.3710 C.ar  1 <1>  -0.1500 
 10 C       -1.0240    -2.6550     1.3790 C.ar  1 <1>  -0.1500 
 11 N        0.9610     3.7680    -0.8540 N.pl3 1 <1>  -0.8690 
 12 C        0.1400    -3.2050     1.8780 C.ar  1 <1>   0.1900 
 13 C        2.1490     4.2160    -0.3230 C.ar  1 <1>   0.4100 
 14 F        0.0650    -4.0620     2.8580 F     1 <1>  -0.1900 
 15 N        3.1430     3.3540    -0.2740 N.ar  1 <1>  -0.6200 
 16 C        2.2930     5.5190     0.1410 C.ar  1 <1>  -0.1430 
 17 C        4.2750     3.8000     0.2250 C.ar  1 <1>   0.4770 
 18 C        3.5280     5.8540     0.6430 C.ar  1 <1>   0.1600 
 19 C        1.1130     6.4960     0.0810 C.3   1 <1>  -0.0170 
 20 N        4.5340     5.0050     0.6920 N.ar  1 <1>  -0.6200 
 21 C        5.4170     2.8140     0.2750 C.3   1 <1>  -0.0970 
 22 C        1.3740     7.8820     0.6900 C.3   1 <1>  -0.1600 
 23 C        0.1300     8.7730     0.6000 C.3   1 <1>  -0.2400 
 24 H        1.5350     1.2710    -0.0390 H     1 <1>   0.0800 
 25 H       -0.1880     1.5440    -0.0180 H     1 <1>   0.0800 
 26 H        2.4120    -1.7000    -0.0790 H     1 <1>   0.1500 
 27 H       -1.8370    -1.3140    -0.0640 H     1 <1>   0.1500 
 28 H       -0.0260     2.5700    -2.2740 H     1 <1>   0.0800 
 29 H        1.7070     2.3500    -2.2280 H     1 <1>   0.0800 
 30 H        2.2680    -3.3230     1.7820 H     1 <1>   0.1500 
 31 H       -1.9750    -2.9370     1.7960 H     1 <1>   0.1500 
 32 H        0.2770     4.4870    -1.0980 H     1 <1>   0.4000 
 33 H        3.7240     6.8400     1.0220 H     1 <1>   0.1500 
 34 H        0.2810     6.0490     0.5980 H     1 <1>   0.0800 
 35 H        0.8320     6.6230    -0.9500 H     1 <1>   0.0800 
 36 H        5.2360     1.9960    -0.3960 H     1 <1>   0.0800 
 37 H        5.5150     2.4370     1.2750 H     1 <1>   0.0800 
 38 H        6.3300     3.3020    -0.0090 H     1 <1>   0.0800 
 39 H        2.1830     8.3630     0.1660 H     1 <1>   0.0800 
 40 H        1.6520     7.7770     1.7250 H     1 <1>   0.0800 
 41 H       -0.1610     8.9150    -0.4260 H     1 <1>   0.0800 
 42 H        0.3370     9.7370     1.0310 H     1 <1>   0.0800 
 43 H       -0.6920     8.3310     1.1360 H     1 <1>   0.0800 
@<TRIPOS>BOND
  1   1   2  2   
  2   1   3  2   
  3   1   4  1   
  4   1   5  1   
  5   4   6  ar  
  6   4   7  ar  
  7   5   8  1   
  8   5  24  1   
  9   5  25  1   
 10   6   9  ar  
 11   6  26  1   
 12   7  10  ar  
 13   7  27  1   
 14   8  11  1   
 15   8  28  1   
 16   8  29  1   
 17   9  12  ar  
 18   9  30  1   
 19  10  12  ar  
 20  10  31  1   
 21  11  13  1   
 22  11  32  1   
 23  12  14  1   
 24  13  15  ar  
 25  13  16  ar  
 26  15  17  ar  
 27  16  18  ar  
 28  16  19  1   
 29  17  20  ar  
 30  17  21  1   
 31  18  20  ar  
 32  18  33  1   
 33  19  22  1   
 34  19  34  1   
 35  19  35  1   
 36  21  36  1   
 37  21  37  1   
 38  21  38  1   
 39  22  23  1   
 40  22  39  1   
 41  22  40  1   
 42  23  41  1   
 43  23  42  1   
 44  23  43  1   
@<TRIPOS>SUBSTRUCTURE
  1 ****   5 GROUP 4 **** **** 0

# MOE 2024.06 (io_trps.svl 2023.06)
