@<TRIPOS>MOLECULE
NONAME
46 47 1 0 0 
SMALL
USER_CHARGES


@<TRIPOS>ATOM
  1 O        1.1970     0.2930     1.3880 O.2   1 <1>  -0.5700 
  2 C        1.9290     0.2840     0.4130 C.2   1 <1>   0.5440 
  3 N        2.2260     1.4810    -0.1850 N.am  1 <1>  -0.7300 
  4 C        2.4670    -0.9510    -0.1130 C.ar  1 <1>   0.0860 
  5 C        1.7520     2.8160     0.2670 C.3   1 <1>   0.0600 
  6 C        1.7240    -2.1500    -0.0920 C.ar  1 <1>   0.4100 
  7 C        3.7440    -1.0000    -0.6610 C.ar  1 <1>  -0.1500 
  8 N        2.1640    -3.3080    -0.5810 N.ar  1 <1>  -0.6200 
  9 N        0.4570    -2.1920     0.4480 N.pl3 1 <1>  -0.8690 
 10 C        4.1990    -2.1990    -1.1600 C.ar  1 <1>  -0.1500 
 11 C        3.3780    -3.3100    -1.0980 C.ar  1 <1>   0.1600 
 12 C       -0.1690    -3.4210     0.9890 C.3   1 <1>   0.2090 
 13 C       -0.7560    -4.2620    -0.1640 C.3   1 <1>   0.3430 
 14 N       -0.4860    -5.7400    -0.0510 N.4   1 <1>  -0.9590 
 15 C        0.9800    -5.9990    -0.2660 C.3   1 <1>   0.3430 
 16 C       -1.3070    -6.4810    -1.0490 C.3   1 <1>   0.3430 
 17 C        1.3280    -7.4890    -0.1770 C.3   1 <1>  -0.0190 
 18 C       -1.0430    -7.9840    -0.9260 C.3   1 <1>  -0.1600 
 19 C        2.8020    -7.6560    -0.5080 C.2   1 <1>   0.5690 
 20 C        0.4430    -8.3170    -1.1270 C.3   1 <1>  -0.1600 
 21 O        3.3490    -6.8550    -1.2210 O.2   1 <1>  -0.5700 
 22 N        3.4920    -8.6950    -0.0080 N.am  1 <1>  -0.8000 
 23 H        2.7460     1.4760    -1.0640 H     1 <1>   0.3700 
 24 H        1.2470     2.7380     1.2150 H     1 <1>   0.0800 
 25 H        1.0670     3.2230    -0.4560 H     1 <1>   0.0800 
 26 H        2.5900     3.4820     0.3770 H     1 <1>   0.0800 
 27 H        4.3690    -0.1250    -0.6890 H     1 <1>   0.1500 
 28 H        0.2410    -1.3330     0.9910 H     1 <1>   0.4000 
 29 H        5.1810    -2.2810    -1.5920 H     1 <1>   0.1500 
 30 H        3.7480    -4.2440    -1.4930 H     1 <1>   0.1500 
 31 H       -0.9550    -3.1430     1.6700 H     1 <1>   0.0800 
 32 H        0.5750    -3.9740     1.5350 H     1 <1>   0.0800 
 33 H       -0.3260    -3.9000    -1.0850 H     1 <1>   0.0800 
 34 H       -1.8170    -4.0860    -0.2040 H     1 <1>   0.0800 
 35 H       -0.7450    -6.0620     0.8890 H     1 <1>   0.4500 
 36 H        1.5660    -5.4590     0.4610 H     1 <1>   0.0800 
 37 H        1.2680    -5.6330    -1.2390 H     1 <1>   0.0800 
 38 H       -1.0500    -6.1530    -2.0440 H     1 <1>   0.0800 
 39 H       -2.3550    -6.2830    -0.8870 H     1 <1>   0.0800 
 40 H        1.1740    -7.8130     0.8360 H     1 <1>   0.0800 
 41 H       -1.6240    -8.5010    -1.6700 H     1 <1>   0.0800 
 42 H       -1.3760    -8.3300     0.0370 H     1 <1>   0.0800 
 43 H        0.6080    -9.3690    -0.9610 H     1 <1>   0.0800 
 44 H        0.7190    -8.1020    -2.1470 H     1 <1>   0.0800 
 45 H        4.4790    -8.8010    -0.2550 H     1 <1>   0.3700 
 46 H        3.1040    -9.4370     0.5750 H     1 <1>   0.3700 
@<TRIPOS>BOND
  1   1   2  2   
  2   2   3  am  
  3   2   4  1   
  4   3   5  1   
  5   3  23  1   
  6   4   6  ar  
  7   4   7  ar  
  8   5  24  1   
  9   5  25  1   
 10   5  26  1   
 11   6   8  ar  
 12   6   9  1   
 13   7  10  ar  
 14   7  27  1   
 15   8  11  ar  
 16   9  12  1   
 17   9  28  1   
 18  10  11  ar  
 19  10  29  1   
 20  11  30  1   
 21  12  13  1   
 22  12  31  1   
 23  12  32  1   
 24  13  14  1   
 25  13  33  1   
 26  13  34  1   
 27  14  15  1   
 28  14  16  1   
 29  14  35  1   
 30  15  17  1   
 31  15  36  1   
 32  15  37  1   
 33  16  18  1   
 34  16  38  1   
 35  16  39  1   
 36  17  19  1   
 37  17  20  1   
 38  17  40  1   
 39  18  20  1   
 40  18  41  1   
 41  18  42  1   
 42  19  21  2   
 43  19  22  am  
 44  20  43  1   
 45  20  44  1   
 46  22  45  1   
 47  22  46  1   
@<TRIPOS>SUBSTRUCTURE
  1 ****   8 GROUP 4 **** **** 0

# MOE 2024.06 (io_trps.svl 2023.06)
