@<TRIPOS>MOLECULE
NONAME
53 55 1 0 0 
SMALL
USER_CHARGES


@<TRIPOS>ATOM
  1 S       -0.4360    -0.1230    -1.4080 S.o2  1 <1>   1.5760 
  2 O       -1.0440     1.0170    -2.0600 O.2   1 <1>  -0.6500 
  3 O        0.1400    -1.1910    -2.1930 O.2   1 <1>  -0.6500 
  4 N       -1.5480    -0.7920    -0.3300 N.am  1 <1>  -0.8490 
  5 N        0.7240     0.4600    -0.3300 N.am  1 <1>  -0.8490 
  6 C       -2.8240    -1.0530    -1.0200 C.3   1 <1>   0.1960 
  7 C       -1.0110    -1.9990     0.3120 C.3   1 <1>   0.1960 
  8 C        1.9470     0.8330    -1.0420 C.3   1 <1>   0.1960 
  9 C        0.2090     1.5820     0.4590 C.3   1 <1>   0.1960 
 10 C       -3.9580    -1.5330    -0.1010 C.3   1 <1>   0.2090 
 11 C       -1.6970    -2.2230     1.6630 C.3   1 <1>  -0.1600 
 12 C        3.0410     1.2340    -0.0450 C.3   1 <1>  -0.1600 
 13 C        1.2360     2.0010     1.5160 C.3   1 <1>  -0.1600 
 14 N       -3.7270    -2.9370     0.3540 N.pl3 1 <1>  -0.8380 
 15 C       -2.9620    -3.0880     1.6160 C.3   1 <1>   0.2090 
 16 C        2.5770     2.3720     0.8720 C.3   1 <1>  -0.1600 
 17 C       -4.7010    -3.8850     0.0950 C.ar  1 <1>   0.4100 
 18 N       -5.9340    -3.5350     0.4460 N.ar  1 <1>  -0.6200 
 19 C       -4.3770    -5.1200    -0.4880 C.ar  1 <1>   0.0730 
 20 C       -6.8860    -4.4150     0.2170 C.ar  1 <1>   0.1670 
 21 C       -3.0160    -5.4090    -0.8220 C.1   1 <1>   0.4840 
 22 C       -5.3960    -6.0340    -0.7220 C.ar  1 <1>  -0.1430 
 23 C       -6.6720    -5.6560    -0.3560 C.ar  1 <1>  -0.1500 
 24 C       -8.2820    -3.9940     0.6240 C.3   1 <1>  -0.0970 
 25 N       -1.9370    -5.6870    -1.0740 N.1   1 <1>  -0.5570 
 26 C       -5.1480    -7.3990    -1.3530 C.3   1 <1>  -0.0970 
 27 H       -2.6780    -1.7760    -1.8050 H     1 <1>   0.0800 
 28 H       -3.1580    -0.1380    -1.4790 H     1 <1>   0.0800 
 29 H        0.0400    -1.8590     0.5050 H     1 <1>   0.0800 
 30 H       -1.1080    -2.8590    -0.3330 H     1 <1>   0.0800 
 31 H        1.7440     1.6490    -1.7170 H     1 <1>   0.0800 
 32 H        2.2980    -0.0040    -1.6220 H     1 <1>   0.0800 
 33 H       -0.7020     1.2910     0.9540 H     1 <1>   0.0800 
 34 H       -0.0130     2.4170    -0.1870 H     1 <1>   0.0800 
 35 H       -4.8780    -1.4860    -0.6580 H     1 <1>   0.0800 
 36 H       -4.0550    -0.8730     0.7430 H     1 <1>   0.0800 
 37 H       -1.9220    -1.2720     2.1120 H     1 <1>   0.0800 
 38 H       -1.0010    -2.7150     2.3170 H     1 <1>   0.0800 
 39 H        3.9210     1.5380    -0.5840 H     1 <1>   0.0800 
 40 H        3.2990     0.3730     0.5460 H     1 <1>   0.0800 
 41 H        1.3740     1.1860     2.2040 H     1 <1>   0.0800 
 42 H        0.8560     2.8410     2.0700 H     1 <1>   0.0800 
 43 H       -3.6010    -2.8430     2.4490 H     1 <1>   0.0800 
 44 H       -2.6760    -4.1210     1.7200 H     1 <1>   0.0800 
 45 H        2.4590     3.2720     0.2920 H     1 <1>   0.0800 
 46 H        3.3150     2.5570     1.6330 H     1 <1>   0.0800 
 47 H       -7.5000    -6.3220    -0.5130 H     1 <1>   0.1500 
 48 H       -8.5590    -3.1030     0.0910 H     1 <1>   0.0800 
 49 H       -8.3000    -3.7840     1.6780 H     1 <1>   0.0800 
 50 H       -9.0000    -4.7640     0.4110 H     1 <1>   0.0800 
 51 H       -4.4730    -7.9730    -0.7430 H     1 <1>   0.0800 
 52 H       -4.7170    -7.2840    -2.3320 H     1 <1>   0.0800 
 53 H       -6.0660    -7.9510    -1.4510 H     1 <1>   0.0800 
@<TRIPOS>BOND
  1   1   2  2   
  2   1   3  2   
  3   1   4  am  
  4   1   5  am  
  5   4   6  1   
  6   4   7  1   
  7   5   8  1   
  8   5   9  1   
  9   6  10  1   
 10   6  27  1   
 11   6  28  1   
 12   7  11  1   
 13   7  29  1   
 14   7  30  1   
 15   8  12  1   
 16   8  31  1   
 17   8  32  1   
 18   9  13  1   
 19   9  33  1   
 20   9  34  1   
 21  10  14  1   
 22  10  35  1   
 23  10  36  1   
 24  11  15  1   
 25  11  37  1   
 26  11  38  1   
 27  12  16  1   
 28  12  39  1   
 29  12  40  1   
 30  13  16  1   
 31  13  41  1   
 32  13  42  1   
 33  14  15  1   
 34  14  17  1   
 35  15  43  1   
 36  15  44  1   
 37  16  45  1   
 38  16  46  1   
 39  17  18  ar  
 40  17  19  ar  
 41  18  20  ar  
 42  19  21  1   
 43  19  22  ar  
 44  20  23  ar  
 45  20  24  1   
 46  21  25  3   
 47  22  23  ar  
 48  22  26  1   
 49  23  47  1   
 50  24  48  1   
 51  24  49  1   
 52  24  50  1   
 53  26  51  1   
 54  26  52  1   
 55  26  53  1   
@<TRIPOS>SUBSTRUCTURE
  1 ****   6 GROUP 4 **** **** 0

# MOE 2024.06 (io_trps.svl 2023.06)
