@<TRIPOS>MOLECULE
NONAME
53 56 1 0 0 
SMALL
USER_CHARGES


@<TRIPOS>ATOM
  1 N        0.1130     0.0970    -0.4910 N.ar  1 <1>  -0.1790 
  2 C        1.0760    -0.4210     0.3300 C.ar  1 <1>   0.7710 
  3 C       -0.7600    -0.6680    -1.1590 C.ar  1 <1>   0.4610 
  4 N        1.2190    -1.6950     0.5460 N.ar  1 <1>  -0.5670 
  5 N        1.9400     0.4030     0.9680 N.pl3 1 <1>  -0.8690 
  6 N       -1.6850    -0.1110    -1.9590 N.pl3 1 <1>  -0.9000 
  7 C       -0.6330    -2.0470    -0.9570 C.ar  1 <1>   0.0000 
  8 C        0.3490    -2.5050    -0.1110 C.ar  1 <1>   0.1050 
  9 C        2.2170     1.8600     0.8810 C.3   1 <1>   0.2090 
 10 C       -1.2740    -3.2150    -1.3990 C.2   1 <1>   0.1390 
 11 N        0.2460    -3.8570    -0.0910 N.pl3 1 <1>   0.3140 
 12 C        3.6730     2.0980     0.4320 C.3   1 <1>  -0.0800 
 13 N       -0.7610    -4.2840    -0.8930 N.2   1 <1>  -0.7070 
 14 C        1.0660    -4.8140     0.6670 C.3   1 <1>   0.0160 
 15 C        4.7040     1.4760     1.3960 C.3   1 <1>  -0.1600 
 16 C        3.9560     3.6050     0.2920 C.3   1 <1>  -0.1600 
 17 C        6.1440     1.7920     0.9810 C.3   1 <1>   0.3430 
 18 C        5.4070     3.8840    -0.1080 C.3   1 <1>   0.3430 
 19 N        6.3380     3.2660     0.8830 N.4   1 <1>  -0.9590 
 20 C        7.7850     3.5840     0.6640 C.3   1 <1>   0.4230 
 21 C        8.0540     5.0760     0.8540 C.3   1 <1>  -0.1600 
 22 C        8.2650     3.2920    -0.7600 C.3   1 <1>  -0.1600 
 23 C        8.0510     5.7300    -0.5340 C.3   1 <1>  -0.1600 
 24 C        8.1430     4.5950    -1.5590 C.3   1 <1>  -0.1600 
 25 H        0.0650     1.1000    -0.5580 H     1 <1>   0.4570 
 26 H        2.5310    -0.0960     1.6440 H     1 <1>   0.4000 
 27 H       -2.3640    -0.6840    -2.4790 H     1 <1>   0.4000 
 28 H       -1.8320     0.8880    -2.1440 H     1 <1>   0.4000 
 29 H        2.0570     2.3050     1.8510 H     1 <1>   0.0800 
 30 H        1.5450     2.3330     0.1850 H     1 <1>   0.0800 
 31 H       -2.1040    -3.2280    -2.0860 H     1 <1>   0.1500 
 32 H        3.7970     1.6470    -0.5400 H     1 <1>   0.0800 
 33 H        1.8650    -4.2970     1.1650 H     1 <1>   0.0800 
 34 H        1.4720    -5.5410    -0.0120 H     1 <1>   0.0800 
 35 H        0.4460    -5.3090     1.3910 H     1 <1>   0.0800 
 36 H        4.5950     0.4060     1.4090 H     1 <1>   0.0800 
 37 H        4.5410     1.8300     2.4000 H     1 <1>   0.0800 
 38 H        3.7450     4.1160     1.2160 H     1 <1>   0.0800 
 39 H        3.3130     4.0270    -0.4620 H     1 <1>   0.0800 
 40 H        6.3510     1.3330     0.0280 H     1 <1>   0.0800 
 41 H        6.8250     1.3780     1.7080 H     1 <1>   0.0800 
 42 H        5.5670     4.9490    -0.1490 H     1 <1>   0.0800 
 43 H        5.5980     3.4780    -1.0880 H     1 <1>   0.0800 
 44 H        6.1030     3.6630     1.8000 H     1 <1>   0.4500 
 45 H        8.3760     3.0230     1.3710 H     1 <1>   0.0800 
 46 H        9.0450     5.1800     1.2640 H     1 <1>   0.0800 
 47 H        7.3660     5.5490     1.5320 H     1 <1>   0.0800 
 48 H        7.7530     2.4730    -1.2310 H     1 <1>   0.0800 
 49 H        9.3100     3.0390    -0.7050 H     1 <1>   0.0800 
 50 H        8.8900     6.4000    -0.6340 H     1 <1>   0.0800 
 51 H        7.1510     6.3000    -0.6890 H     1 <1>   0.0800 
 52 H        7.2610     4.5820    -2.1770 H     1 <1>   0.0800 
 53 H        8.9970     4.7270    -2.2040 H     1 <1>   0.0800 
@<TRIPOS>BOND
  1   1   2  ar  
  2   1   3  ar  
  3   1  25  1   
  4   2   4  ar  
  5   2   5  1   
  6   3   6  1   
  7   3   7  ar  
  8   4   8  ar  
  9   5   9  1   
 10   5  26  1   
 11   6  27  1   
 12   6  28  1   
 13   7   8  ar  
 14   7  10  1   
 15   8  11  1   
 16   9  12  1   
 17   9  29  1   
 18   9  30  1   
 19  10  13  2   
 20  10  31  1   
 21  11  13  1   
 22  11  14  1   
 23  12  15  1   
 24  12  16  1   
 25  12  32  1   
 26  14  33  1   
 27  14  34  1   
 28  14  35  1   
 29  15  17  1   
 30  15  36  1   
 31  15  37  1   
 32  16  18  1   
 33  16  38  1   
 34  16  39  1   
 35  17  19  1   
 36  17  40  1   
 37  17  41  1   
 38  18  19  1   
 39  18  42  1   
 40  18  43  1   
 41  19  20  1   
 42  19  44  1   
 43  20  21  1   
 44  20  22  1   
 45  20  45  1   
 46  21  23  1   
 47  21  46  1   
 48  21  47  1   
 49  22  24  1   
 50  22  48  1   
 51  22  49  1   
 52  23  24  1   
 53  23  50  1   
 54  23  51  1   
 55  24  52  1   
 56  24  53  1   
@<TRIPOS>SUBSTRUCTURE
  1 ****   5 GROUP 4 **** **** 0

# MOE 2024.06 (io_trps.svl 2023.06)
