@<TRIPOS>MOLECULE
NONAME
47 50 1 0 0 
SMALL
USER_CHARGES


@<TRIPOS>ATOM
  1 S       -0.5750    -0.0670    -1.1140 S.3   1 <1>  -0.0800 
  2 C       -0.9700     1.2090     0.0180 C.ar  1 <1>   0.0400 
  3 C       -1.7960    -1.0900    -0.3630 C.2   1 <1>   0.1980 
  4 C       -1.9750     0.7480     0.8470 C.ar  1 <1>   0.2270 
  5 C       -0.4160     2.4720     0.1190 C.ar  1 <1>  -0.1500 
  6 N       -2.4170    -0.5520     0.6070 N.2   1 <1>  -0.5650 
  7 C       -1.9590    -2.4800    -0.9520 C.3   1 <1>   0.0200 
  8 C       -2.4530     1.5980     1.8340 C.ar  1 <1>  -0.1500 
  9 C       -0.9050     3.3070     1.1090 C.ar  1 <1>  -0.1500 
 10 C       -3.1180    -3.2530    -0.3060 C.3   1 <1>  -0.0990 
 11 C       -1.9180     2.8710     1.9610 C.ar  1 <1>  -0.1500 
 12 C       -3.2130    -4.6580    -0.8560 C.2   1 <1>   0.5690 
 13 O       -3.3450    -4.8200    -2.0430 O.2   1 <1>  -0.5700 
 14 N       -3.1520    -5.7010     0.0040 N.am  1 <1>  -0.7300 
 15 C       -3.1950    -7.1290    -0.3890 C.3   1 <1>   0.2200 
 16 C       -4.5470    -7.7530    -0.0680 C.3   1 <1>  -0.0800 
 17 C       -2.2950    -7.9220     0.5490 C.3   1 <1>   0.1200 
 18 C       -4.4070    -8.1460     1.4070 C.3   1 <1>   0.1200 
 19 C       -5.7810    -6.8860    -0.3800 C.3   1 <1>  -0.0170 
 20 O       -3.0440    -8.0820     1.7150 O.3   1 <1>  -0.5600 
 21 C       -7.0650    -7.6540    -0.1100 C.ar  1 <1>  -0.1430 
 22 C       -7.5780    -8.5530    -1.0230 C.ar  1 <1>  -0.1500 
 23 C       -7.7840    -7.4970     1.0590 C.ar  1 <1>  -0.1500 
 24 C       -8.7470    -9.2350    -0.7310 C.ar  1 <1>   0.1600 
 25 C       -8.9430    -8.2290     1.2530 C.ar  1 <1>   0.1600 
 26 N       -9.4410    -9.0970     0.3880 N.ar  1 <1>  -0.6200 
 27 H        0.3650     2.7840    -0.5510 H     1 <1>   0.1500 
 28 H       -2.1350    -2.3910    -2.0090 H     1 <1>   0.0800 
 29 H       -1.0420    -3.0230    -0.8100 H     1 <1>   0.0800 
 30 H       -3.2350     1.2530     2.4850 H     1 <1>   0.1500 
 31 H       -0.5020     4.2990     1.2230 H     1 <1>   0.1500 
 32 H       -4.0430    -2.7430    -0.5060 H     1 <1>   0.0800 
 33 H       -2.9780    -3.2880     0.7580 H     1 <1>   0.0800 
 34 H       -2.2880     3.5320     2.7260 H     1 <1>   0.1500 
 35 H       -3.0690    -5.5530     1.0130 H     1 <1>   0.3700 
 36 H       -2.9160    -7.2480    -1.4230 H     1 <1>   0.0800 
 37 H       -4.6280    -8.6630    -0.6350 H     1 <1>   0.0800 
 38 H       -1.3730    -7.4160     0.7730 H     1 <1>   0.0800 
 39 H       -2.0920    -8.9000     0.1490 H     1 <1>   0.0800 
 40 H       -4.7610    -9.1470     1.5880 H     1 <1>   0.0800 
 41 H       -4.9190    -7.4570     2.0560 H     1 <1>   0.0800 
 42 H       -5.7550    -6.5870    -1.4140 H     1 <1>   0.0800 
 43 H       -5.7720    -5.9890     0.2140 H     1 <1>   0.0800 
 44 H       -7.0800    -8.7280    -1.9590 H     1 <1>   0.1500 
 45 H       -7.4560    -6.8120     1.8190 H     1 <1>   0.1500 
 46 H       -9.1310    -9.9320    -1.4550 H     1 <1>   0.1500 
 47 H       -9.4900    -8.0940     2.1710 H     1 <1>   0.1500 
@<TRIPOS>BOND
  1   1   2  1   
  2   1   3  1   
  3   2   4  ar  
  4   2   5  ar  
  5   3   6  2   
  6   3   7  1   
  7   4   6  1   
  8   4   8  ar  
  9   5   9  ar  
 10   5  27  1   
 11   7  10  1   
 12   7  28  1   
 13   7  29  1   
 14   8  11  ar  
 15   8  30  1   
 16   9  11  ar  
 17   9  31  1   
 18  10  12  1   
 19  10  32  1   
 20  10  33  1   
 21  11  34  1   
 22  12  13  2   
 23  12  14  am  
 24  14  15  1   
 25  14  35  1   
 26  15  16  1   
 27  15  17  1   
 28  15  36  1   
 29  16  18  1   
 30  16  19  1   
 31  16  37  1   
 32  17  20  1   
 33  17  38  1   
 34  17  39  1   
 35  18  20  1   
 36  18  40  1   
 37  18  41  1   
 38  19  21  1   
 39  19  42  1   
 40  19  43  1   
 41  21  22  ar  
 42  21  23  ar  
 43  22  24  ar  
 44  22  44  1   
 45  23  25  ar  
 46  23  45  1   
 47  24  26  ar  
 48  24  46  1   
 49  25  26  ar  
 50  25  47  1   
@<TRIPOS>SUBSTRUCTURE
  1 ****  10 GROUP 4 **** **** 0

# MOE 2024.06 (io_trps.svl 2023.06)
