@<TRIPOS>MOLECULE
NONAME
56 58 1 0 0 
SMALL
USER_CHARGES


@<TRIPOS>ATOM
  1 O        0.0930     1.0800     1.1660 O.2   1 <1>  -0.5700 
  2 C        0.0610     2.0200     0.3960 C.2   1 <1>   0.5440 
  3 N        1.1280     2.1890    -0.4650 N.am  1 <1>  -0.6600 
  4 C       -1.1280     2.8510     0.3450 C.ar  1 <1>   0.0860 
  5 C        1.6200     3.5190    -0.9540 C.3   1 <1>   0.1400 
  6 C        1.7540     0.9810    -1.0800 C.3   1 <1>   0.0600 
  7 C       -1.1650     4.1680     0.7950 C.ar  1 <1>  -0.1500 
  8 C       -2.3080     2.3210    -0.1750 C.ar  1 <1>  -0.1500 
  9 C        3.1600     3.6930    -0.9300 C.3   1 <1>   0.1400 
 10 C       -2.3080     4.9500     0.6680 C.ar  1 <1>   0.0830 
 11 C       -3.4670     3.0710    -0.2700 C.ar  1 <1>  -0.1500 
 12 N        3.7710     3.8570     0.4370 N.am  1 <1>  -0.6600 
 13 O       -2.3030     6.2700     1.0110 O.3   1 <1>  -0.3630 
 14 C       -3.4790     4.3980     0.1450 C.ar  1 <1>   0.0830 
 15 C        4.5450     4.9280     0.8380 C.2   1 <1>   0.5690 
 16 C        3.6430     2.6650     1.3340 C.3   1 <1>   0.0600 
 17 C       -1.1370     6.9900     0.6980 C.3   1 <1>   0.1200 
 18 O       -4.5800     5.1900     0.0540 O.3   1 <1>  -0.3630 
 19 O        5.1620     4.9150     1.8770 O.2   1 <1>  -0.5700 
 20 C        4.6360     6.2190     0.0340 C.3   1 <1>  -0.0990 
 21 C       -1.4150     8.4870     0.5330 C.3   1 <1>   0.0960 
 22 C       -5.8150     4.7030    -0.4220 C.3   1 <1>   0.0400 
 23 C        3.3300     7.0080     0.1780 C.3   1 <1>  -0.1600 
 24 N       -0.1850     9.0500    -0.0480 N.pl3 1 <1>   0.3140 
 25 C        3.3190     8.3970    -0.4820 C.3   1 <1>   0.0210 
 26 N       -0.0400     9.1710    -1.3730 N.2   1 <1>  -0.4180 
 27 C        1.0170     8.8830     0.5060 C.2   1 <1>  -0.3020 
 28 C        1.8680     8.8290    -0.5260 C.2   1 <1>   0.0460 
 29 N        1.2100     9.0580    -1.6640 N.2   1 <1>  -0.2270 
 30 H        1.1860     4.3130    -0.3780 H     1 <1>   0.0800 
 31 H        1.2840     3.6380    -1.9690 H     1 <1>   0.0800 
 32 H        1.1550     0.1090    -0.8830 H     1 <1>   0.0800 
 33 H        2.7320     0.8170    -0.6670 H     1 <1>   0.0800 
 34 H        1.8320     1.1070    -2.1460 H     1 <1>   0.0800 
 35 H       -0.2800     4.5670     1.2530 H     1 <1>   0.1500 
 36 H       -2.3090     1.2960    -0.5040 H     1 <1>   0.1500 
 37 H        3.3850     4.5540    -1.5280 H     1 <1>   0.0800 
 38 H        3.6260     2.8580    -1.4210 H     1 <1>   0.0800 
 39 H       -4.3450     2.6050    -0.6740 H     1 <1>   0.1500 
 40 H        3.9980     1.7850     0.8300 H     1 <1>   0.0800 
 41 H        2.6170     2.5240     1.6210 H     1 <1>   0.0800 
 42 H        4.2210     2.7860     2.2340 H     1 <1>   0.0800 
 43 H       -0.7530     6.6040    -0.2330 H     1 <1>   0.0800 
 44 H       -0.4280     6.8220     1.4880 H     1 <1>   0.0800 
 45 H        4.8600     6.0090    -0.9950 H     1 <1>   0.0800 
 46 H        5.4480     6.8060     0.4260 H     1 <1>   0.0800 
 47 H       -1.6170     8.9540     1.4780 H     1 <1>   0.0800 
 48 H       -2.2290     8.6460    -0.1500 H     1 <1>   0.0800 
 49 H       -6.5280     5.5060    -0.3790 H     1 <1>   0.0800 
 50 H       -6.1380     3.8940     0.2090 H     1 <1>   0.0800 
 51 H       -5.6930     4.3770    -1.4390 H     1 <1>   0.0800 
 52 H        3.1170     7.1240     1.2270 H     1 <1>   0.0800 
 53 H        2.5340     6.4220    -0.2470 H     1 <1>   0.0800 
 54 H        3.7060     8.3420    -1.4840 H     1 <1>   0.0800 
 55 H        3.9050     9.1000     0.0830 H     1 <1>   0.0800 
 56 H        1.1800     8.7350     1.5560 H     1 <1>   0.1500 
@<TRIPOS>BOND
  1   1   2  2   
  2   2   3  am  
  3   2   4  1   
  4   3   5  1   
  5   3   6  1   
  6   4   7  ar  
  7   4   8  ar  
  8   5   9  1   
  9   5  30  1   
 10   5  31  1   
 11   6  32  1   
 12   6  33  1   
 13   6  34  1   
 14   7  10  ar  
 15   7  35  1   
 16   8  11  ar  
 17   8  36  1   
 18   9  12  1   
 19   9  37  1   
 20   9  38  1   
 21  10  13  1   
 22  10  14  ar  
 23  11  14  ar  
 24  11  39  1   
 25  12  15  am  
 26  12  16  1   
 27  13  17  1   
 28  14  18  1   
 29  15  19  2   
 30  15  20  1   
 31  16  40  1   
 32  16  41  1   
 33  16  42  1   
 34  17  21  1   
 35  17  43  1   
 36  17  44  1   
 37  18  22  1   
 38  20  23  1   
 39  20  45  1   
 40  20  46  1   
 41  21  24  1   
 42  21  47  1   
 43  21  48  1   
 44  22  49  1   
 45  22  50  1   
 46  22  51  1   
 47  23  25  1   
 48  23  52  1   
 49  23  53  1   
 50  24  26  1   
 51  24  27  1   
 52  25  28  1   
 53  25  54  1   
 54  25  55  1   
 55  26  29  2   
 56  27  28  2   
 57  27  56  1   
 58  28  29  1   
@<TRIPOS>SUBSTRUCTURE
  1 ****   7 GROUP 4 **** **** 0

# MOE 2024.06 (io_trps.svl 2023.06)
