@<TRIPOS>MOLECULE
NONAME
35 37 1 0 0 
SMALL
USER_CHARGES


@<TRIPOS>ATOM
  1 S        0.9590    -0.5760     1.3030 S.3   1 <1>  -0.0800 
  2 C        1.7820     0.8770     0.7760 C.2   1 <1>  -0.1400 
  3 C        1.8490    -1.5340     0.1280 C.2   1 <1>  -0.1100 
  4 C        2.6590     0.6190    -0.2040 C.2   1 <1>  -0.1810 
  5 C        1.4960     2.2230     1.3950 C.3   1 <1>   0.0200 
  6 C        2.6960    -0.7630    -0.5820 C.2   1 <1>  -0.1500 
  7 C        3.5180     1.7080    -0.8300 C.3   1 <1>   0.3900 
  8 C        2.0530     3.3190     0.4700 C.3   1 <1>   0.2090 
  9 N        3.4300     2.9820    -0.0300 N.pl3 1 <1>  -0.8380 
 10 C        4.5320     3.5010     0.5580 C.ar  1 <1>   0.4100 
 11 N        5.2650     2.6580     1.2580 N.ar  1 <1>  -0.6200 
 12 C        4.8700     4.8750     0.4330 C.ar  1 <1>  -0.1430 
 13 C        6.3040     3.1350     1.9000 C.ar  1 <1>   0.7710 
 14 C        5.9590     5.3170     1.1180 C.ar  1 <1>   0.2110 
 15 C        4.0330     5.7910    -0.4690 C.3   1 <1>  -0.0170 
 16 N        6.6630     4.4270     1.8590 N.ar  1 <1>  -0.1790 
 17 N        7.0070     2.2620     2.6140 N.pl3 1 <1>  -0.9000 
 18 C        4.7180     7.1040    -0.8700 C.3   1 <1>  -0.2400 
 19 H        1.6390    -2.5880     0.0930 H     1 <1>   0.1500 
 20 H        1.9680     2.2790     2.3590 H     1 <1>   0.0800 
 21 H        0.4380     2.3570     1.5210 H     1 <1>   0.0800 
 22 H        3.3510    -1.1140    -1.3600 H     1 <1>   0.1500 
 23 H        3.1770     1.8950    -1.8330 H     1 <1>   0.0800 
 24 H        4.5390     1.3710    -0.8790 H     1 <1>   0.0800 
 25 H        2.0660     4.2510     1.0060 H     1 <1>   0.0800 
 26 H        1.3990     3.4290    -0.3780 H     1 <1>   0.0800 
 27 H        6.2960     6.3400     1.0980 H     1 <1>   0.1500 
 28 H        3.1040     6.0230     0.0210 H     1 <1>   0.0800 
 29 H        3.7930     5.2580    -1.3750 H     1 <1>   0.0800 
 30 H        7.4830     4.6950     2.3940 H     1 <1>   0.4570 
 31 H        7.8390     2.4100     3.1860 H     1 <1>   0.4000 
 32 H        6.6730     1.2910     2.6140 H     1 <1>   0.4000 
 33 H        4.8670     7.7420    -0.0170 H     1 <1>   0.0800 
 34 H        4.0930     7.6340    -1.5680 H     1 <1>   0.0800 
 35 H        5.6620     6.9120    -1.3490 H     1 <1>   0.0800 
@<TRIPOS>BOND
  1   1   2  1   
  2   1   3  1   
  3   2   4  2   
  4   2   5  1   
  5   3   6  2   
  6   3  19  1   
  7   4   6  1   
  8   4   7  1   
  9   5   8  1   
 10   5  20  1   
 11   5  21  1   
 12   6  22  1   
 13   7   9  1   
 14   7  23  1   
 15   7  24  1   
 16   8   9  1   
 17   8  25  1   
 18   8  26  1   
 19   9  10  1   
 20  10  11  ar  
 21  10  12  ar  
 22  11  13  ar  
 23  12  14  ar  
 24  12  15  1   
 25  13  16  ar  
 26  13  17  1   
 27  14  16  ar  
 28  14  27  1   
 29  15  18  1   
 30  15  28  1   
 31  15  29  1   
 32  16  30  1   
 33  17  31  1   
 34  17  32  1   
 35  18  33  1   
 36  18  34  1   
 37  18  35  1   
@<TRIPOS>SUBSTRUCTURE
  1 ****   9 GROUP 4 **** **** 0

# MOE 2024.06 (io_trps.svl 2023.06)
