@<TRIPOS>MOLECULE
NONAME
35 38 1 0 0 
SMALL
USER_CHARGES


@<TRIPOS>ATOM
  1 S       -0.2770     0.4710     1.0240 S.3   1 <1>  -0.2300 
  2 S        0.4750    -1.3600    -0.8010 S.3   1 <1>  -0.2300 
  3 C       -0.7900     0.7850    -0.2210 C.3   1 <1>   0.5910 
  4 C        1.0220    -1.6560     0.4560 C.3   1 <1>   0.5910 
  5 N       -1.5740    -0.6440     0.2190 N.am  1 <1>  -0.6600 
  6 C        0.9160     0.9440    -0.3800 C.2   1 <1>   0.5690 
  7 C       -1.5990     2.0980    -0.1070 C.3   1 <1>   0.1200 
  8 N        1.7810    -0.2610     0.0310 N.am  1 <1>  -0.6600 
  9 C       -0.6750    -1.8480     0.6120 C.2   1 <1>   0.5690 
 10 C        2.0860    -2.7500     0.3360 C.3   1 <1>  -0.0220 
 11 C       -3.0550    -0.7230     0.1300 C.3   1 <1>   0.0600 
 12 O        1.4110     1.9400    -0.8720 O.2   1 <1>  -0.5700 
 13 O       -2.4410     2.2850    -1.2100 O.3   1 <1>  -0.6800 
 14 C        3.2200    -0.5210    -0.1690 C.3   1 <1>   0.3580 
 15 O       -1.1440    -2.8890     1.0310 O.2   1 <1>  -0.5700 
 16 C        3.4020    -1.9600     0.3480 C.2   1 <1>  -0.2760 
 17 C        4.1930     0.4850     0.5190 C.3   1 <1>   0.3380 
 18 C        4.5940    -2.3820     0.7970 C.2   1 <1>  -0.1500 
 19 O        3.7640     0.8380     1.7880 O.3   1 <1>  -0.6800 
 20 C        5.5590    -0.1530     0.7360 C.2   1 <1>  -0.2880 
 21 C        5.7170    -1.4820     0.8610 C.2   1 <1>  -0.1500 
 22 H       -0.9340     2.9430    -0.0550 H     1 <1>   0.0800 
 23 H       -2.2210     2.0900     0.7720 H     1 <1>   0.0800 
 24 H        2.0270    -3.4070     1.1840 H     1 <1>   0.0800 
 25 H        1.9880    -3.3390    -0.5610 H     1 <1>   0.0800 
 26 H       -3.3800    -1.7290     0.3350 H     1 <1>   0.0800 
 27 H       -3.3760    -0.4440    -0.8580 H     1 <1>   0.0800 
 28 H       -3.5000    -0.0590     0.8490 H     1 <1>   0.0800 
 29 H       -1.9310     2.5510    -2.0030 H     1 <1>   0.4000 
 30 H        3.4190    -0.5150    -1.2260 H     1 <1>   0.0800 
 31 H        4.2660     1.3800    -0.0750 H     1 <1>   0.0800 
 32 H        4.7640    -3.3880     1.1450 H     1 <1>   0.1500 
 33 H        3.7860     0.0350     2.3400 H     1 <1>   0.4000 
 34 H        6.3620     0.5590     0.8030 H     1 <1>   0.1500 
 35 H        6.6810    -1.9300     1.0360 H     1 <1>   0.1500 
@<TRIPOS>BOND
  1   1   2  1   
  2   1   3  1   
  3   2   4  1   
  4   3   5  1   
  5   3   6  1   
  6   3   7  1   
  7   4   8  1   
  8   4   9  1   
  9   4  10  1   
 10   5   9  am  
 11   5  11  1   
 12   6   8  am  
 13   6  12  2   
 14   7  13  1   
 15   7  22  1   
 16   7  23  1   
 17   8  14  1   
 18   9  15  2   
 19  10  16  1   
 20  10  24  1   
 21  10  25  1   
 22  11  26  1   
 23  11  27  1   
 24  11  28  1   
 25  13  29  1   
 26  14  16  1   
 27  14  17  1   
 28  14  30  1   
 29  16  18  2   
 30  17  19  1   
 31  17  20  1   
 32  17  31  1   
 33  18  21  1   
 34  18  32  1   
 35  19  33  1   
 36  20  21  2   
 37  20  34  1   
 38  21  35  1   
@<TRIPOS>SUBSTRUCTURE
  1 ****   8 GROUP 4 **** **** 0

# MOE 2024.06 (io_trps.svl 2023.06)
