@<TRIPOS>MOLECULE
NONAME
46 48 1 0 0 
SMALL
USER_CHARGES


@<TRIPOS>ATOM
  1 O       -1.2270     2.6840     3.7680 O.co2 1 <1>  -0.9000 
  2 C       -1.3400     2.0090     2.7290 C.2   1 <1>   0.9790 
  3 O       -0.5110     1.1060     2.5190 O.co2 1 <1>  -0.9000 
  4 C       -2.3900     2.3310     1.8050 C.ar  1 <1>  -0.1790 
  5 C       -2.2140     2.5760     0.4440 C.ar  1 <1>   0.1000 
  6 C       -3.6810     2.4350     2.3490 C.ar  1 <1>   0.1600 
  7 N       -1.0030     2.5090    -0.2260 N.pl3 1 <1>  -0.8380 
  8 C       -3.3770     2.9100    -0.2710 C.ar  1 <1>   0.0000 
  9 N       -4.7790     2.7380     1.6990 N.ar  1 <1>  -0.5670 
 10 C        0.1870     3.2770     0.2690 C.3   1 <1>   0.3890 
 11 C       -0.6390     1.1590    -0.7240 C.3   1 <1>   0.1290 
 12 C       -4.5820     2.9710     0.3870 C.ar  1 <1>   0.1050 
 13 C       -3.6970     3.2710    -1.5960 C.2   1 <1>   0.1080 
 14 C        0.3310     4.6030    -0.4670 C.2   1 <1>   0.0060 
 15 N       -5.5060     3.3320    -0.5430 N.pl3 1 <1>   0.3140 
 16 N       -4.9530     3.5220    -1.7650 N.2   1 <1>  -0.7070 
 17 C       -2.6900     3.3770    -2.7210 C.3   1 <1>  -0.0590 
 18 N        1.2580     4.8400    -1.3370 N.2   1 <1>  -0.3380 
 19 N       -0.4600     5.6740    -0.2950 N.pl3 1 <1>   0.0480 
 20 C       -6.9370     3.5330    -0.2930 C.3   1 <1>   0.0160 
 21 N        1.0890     6.0900    -1.7660 N.2   1 <1>  -0.3380 
 22 C        0.0700     6.5610    -1.1390 C.2   1 <1>   0.0370 
 23 C       -1.6370     5.9200     0.5700 C.3   1 <1>   0.0960 
 24 C       -1.2880     5.8000     2.0510 C.3   1 <1>   0.1200 
 25 O       -2.3160     6.3840     2.7860 O.3   1 <1>  -0.5600 
 26 C       -2.4660     5.8180     4.0520 C.3   1 <1>   0.0400 
 27 H       -3.7710     2.2500     3.4070 H     1 <1>   0.1500 
 28 H        1.0810     2.7000     0.1120 H     1 <1>   0.0800 
 29 H        0.1220     3.4590     1.3230 H     1 <1>   0.0800 
 30 H       -1.5270     0.6140    -0.9920 H     1 <1>   0.0800 
 31 H       -0.1210     0.6120     0.0460 H     1 <1>   0.0800 
 32 H       -0.0060     1.2470    -1.5890 H     1 <1>   0.0800 
 33 H       -1.8870     4.0300    -2.4330 H     1 <1>   0.0800 
 34 H       -3.1610     3.7680    -3.6030 H     1 <1>   0.0800 
 35 H       -2.2880     2.4060    -2.9360 H     1 <1>   0.0800 
 36 H       -7.3380     2.6480     0.1630 H     1 <1>   0.0800 
 37 H       -7.4360     3.7240    -1.2250 H     1 <1>   0.0800 
 38 H       -7.0590     4.3690     0.3680 H     1 <1>   0.0800 
 39 H       -0.3220     7.5530    -1.2680 H     1 <1>   0.1500 
 40 H       -2.4140     5.2260     0.3190 H     1 <1>   0.0800 
 41 H       -1.9960     6.9140     0.3780 H     1 <1>   0.0800 
 42 H       -0.3780     6.3240     2.2840 H     1 <1>   0.0800 
 43 H       -1.1980     4.7660     2.3270 H     1 <1>   0.0800 
 44 H       -3.2260     6.3640     4.5810 H     1 <1>   0.0800 
 45 H       -1.5320     5.8760     4.5850 H     1 <1>   0.0800 
 46 H       -2.7650     4.7890     3.9470 H     1 <1>   0.0800 
@<TRIPOS>BOND
  1   1   2  ar  
  2   2   3  ar  
  3   2   4  1   
  4   4   5  ar  
  5   4   6  ar  
  6   5   7  1   
  7   5   8  ar  
  8   6   9  ar  
  9   6  27  1   
 10   7  10  1   
 11   7  11  1   
 12   8  12  ar  
 13   8  13  1   
 14   9  12  ar  
 15  10  14  1   
 16  10  28  1   
 17  10  29  1   
 18  11  30  1   
 19  11  31  1   
 20  11  32  1   
 21  12  15  1   
 22  13  16  2   
 23  13  17  1   
 24  14  18  2   
 25  14  19  1   
 26  15  16  1   
 27  15  20  1   
 28  17  33  1   
 29  17  34  1   
 30  17  35  1   
 31  18  21  1   
 32  19  22  1   
 33  19  23  1   
 34  20  36  1   
 35  20  37  1   
 36  20  38  1   
 37  21  22  2   
 38  22  39  1   
 39  23  24  1   
 40  23  40  1   
 41  23  41  1   
 42  24  25  1   
 43  24  42  1   
 44  24  43  1   
 45  25  26  1   
 46  26  44  1   
 47  26  45  1   
 48  26  46  1   
@<TRIPOS>SUBSTRUCTURE
  1 ****   5 GROUP 4 **** **** 0

# MOE 2024.06 (io_trps.svl 2023.06)
