@<TRIPOS>MOLECULE
NONAME
52 54 1 0 0 
SMALL
USER_CHARGES


@<TRIPOS>ATOM
  1 S       -0.0800     0.8690    -1.6810 S.3   1 <1>  -0.0800 
  2 C        0.8520    -0.5120    -1.1410 C.2   1 <1>   0.1980 
  3 C        0.9150     1.8920    -0.6880 C.2   1 <1>  -0.1100 
  4 N        1.7910    -0.2220    -0.3310 N.2   1 <1>  -0.5650 
  5 C        0.4730    -1.8790    -1.7020 C.3   1 <1>   0.2900 
  6 C        1.8350     1.1400    -0.0610 C.2   1 <1>   0.0460 
  7 N       -0.4060    -2.6690    -0.7970 N.3   1 <1>  -0.8100 
  8 C        2.9130     1.6150     0.9120 C.3   1 <1>   0.1010 
  9 C       -0.4500    -4.0880    -1.1690 C.3   1 <1>   0.1100 
 10 C       -1.7450    -2.0740    -0.6590 C.3   1 <1>   0.1100 
 11 C        2.6870     3.0590     1.3790 C.3   1 <1>  -0.2400 
 12 C        4.3020     1.4850     0.2770 C.3   1 <1>  -0.2400 
 13 C       -1.2280    -4.8970    -0.1020 C.3   1 <1>   0.4230 
 14 C       -2.5330    -2.8310     0.4150 C.3   1 <1>  -0.1600 
 15 N       -1.1650    -6.4060    -0.3030 N.4   1 <1>  -0.9590 
 16 C       -2.6660    -4.3490     0.1210 C.3   1 <1>   0.0000 
 17 C       -2.2170    -7.1640     0.4510 C.3   1 <1>   0.3430 
 18 C       -1.1330    -6.8640    -1.7300 C.3   1 <1>   0.2630 
 19 C       -3.2980    -5.0480     1.3610 C.3   1 <1>  -0.1600 
 20 C       -3.5390    -4.5850    -1.1440 C.3   1 <1>   0.1200 
 21 C       -2.6530    -6.4050     1.7030 C.3   1 <1>  -0.1600 
 22 O       -4.7550    -3.9270    -1.0620 O.3   1 <1>  -0.6800 
 23 H        0.7020     2.9450    -0.6810 H     1 <1>   0.1500 
 24 H        1.3940    -2.4160    -1.8510 H     1 <1>   0.0800 
 25 H        0.0020    -1.7560    -2.6610 H     1 <1>   0.0800 
 26 H        2.8720     0.9740     1.7770 H     1 <1>   0.0800 
 27 H       -0.9020    -4.1840    -2.1400 H     1 <1>   0.0800 
 28 H        0.5590    -4.4600    -1.2130 H     1 <1>   0.0800 
 29 H       -1.6570    -1.0480    -0.3460 H     1 <1>   0.0800 
 30 H       -2.2680    -2.0920    -1.6020 H     1 <1>   0.0800 
 31 H        2.7510     3.7400     0.5500 H     1 <1>   0.0800 
 32 H        3.4290     3.3330     2.1070 H     1 <1>   0.0800 
 33 H        1.7160     3.1520     1.8340 H     1 <1>   0.0800 
 34 H        4.3680     2.0950    -0.6070 H     1 <1>   0.0800 
 35 H        4.4830     0.4620    -0.0010 H     1 <1>   0.0800 
 36 H        5.0650     1.7890     0.9710 H     1 <1>   0.0800 
 37 H       -0.7110    -4.6940     0.8220 H     1 <1>   0.0800 
 38 H       -2.0190    -2.6780     1.3490 H     1 <1>   0.0800 
 39 H       -3.5020    -2.3750     0.5180 H     1 <1>   0.0800 
 40 H       -0.2660    -6.6790     0.1190 H     1 <1>   0.4500 
 41 H       -3.0810    -7.3090    -0.1770 H     1 <1>   0.0800 
 42 H       -1.8410    -8.1370     0.7260 H     1 <1>   0.0800 
 43 H       -2.0340    -6.5700    -2.2420 H     1 <1>   0.0800 
 44 H       -1.0490    -7.9380    -1.7750 H     1 <1>   0.0800 
 45 H       -0.2870    -6.4390    -2.2450 H     1 <1>   0.0800 
 46 H       -3.2110    -4.4230     2.2340 H     1 <1>   0.0800 
 47 H       -4.3530    -5.1930     1.2060 H     1 <1>   0.0800 
 48 H       -3.7520    -5.6290    -1.2840 H     1 <1>   0.0800 
 49 H       -3.0550    -4.2150    -2.0300 H     1 <1>   0.0800 
 50 H       -3.3610    -7.0030     2.2520 H     1 <1>   0.0800 
 51 H       -1.8000    -6.2600     2.3430 H     1 <1>   0.0800 
 52 H       -5.2610    -4.1820    -0.2660 H     1 <1>   0.4000 
@<TRIPOS>BOND
  1   1   2  1   
  2   1   3  1   
  3   2   4  2   
  4   2   5  1   
  5   3   6  2   
  6   3  23  1   
  7   4   6  1   
  8   5   7  1   
  9   5  24  1   
 10   5  25  1   
 11   6   8  1   
 12   7   9  1   
 13   7  10  1   
 14   8  11  1   
 15   8  12  1   
 16   8  26  1   
 17   9  13  1   
 18   9  27  1   
 19   9  28  1   
 20  10  14  1   
 21  10  29  1   
 22  10  30  1   
 23  11  31  1   
 24  11  32  1   
 25  11  33  1   
 26  12  34  1   
 27  12  35  1   
 28  12  36  1   
 29  13  15  1   
 30  13  16  1   
 31  13  37  1   
 32  14  16  1   
 33  14  38  1   
 34  14  39  1   
 35  15  17  1   
 36  15  18  1   
 37  15  40  1   
 38  16  19  1   
 39  16  20  1   
 40  17  21  1   
 41  17  41  1   
 42  17  42  1   
 43  18  43  1   
 44  18  44  1   
 45  18  45  1   
 46  19  21  1   
 47  19  46  1   
 48  19  47  1   
 49  20  22  1   
 50  20  48  1   
 51  20  49  1   
 52  21  50  1   
 53  21  51  1   
 54  22  52  1   
@<TRIPOS>SUBSTRUCTURE
  1 ****   7 GROUP 4 **** **** 0

# MOE 2024.06 (io_trps.svl 2023.06)
