@<TRIPOS>MOLECULE
NONAME
46 49 1 0 0 
SMALL
USER_CHARGES


@<TRIPOS>ATOM
  1 F       -2.7640     0.0300    -1.9210 F     1 <1>  -0.1900 
  2 C       -2.9330    -0.7350    -0.8760 C.ar  1 <1>   0.1900 
  3 C       -3.2090    -2.0690    -1.0620 C.ar  1 <1>  -0.1500 
  4 C       -2.8270    -0.1650     0.3830 C.ar  1 <1>  -0.1500 
  5 C       -3.3950    -2.9020     0.0480 C.ar  1 <1>   0.0860 
  6 C       -3.0050    -0.9730     1.4850 C.ar  1 <1>  -0.1500 
  7 C       -3.6950    -4.3080    -0.0760 C.2   1 <1>   0.4690 
  8 C       -3.2870    -2.3310     1.3300 C.ar  1 <1>   0.1000 
  9 O       -3.7940    -4.8070    -1.1890 O.2   1 <1>  -0.5700 
 10 C       -3.8860    -5.0800     1.1110 C.2   1 <1>   0.0290 
 11 N       -3.4650    -3.1420     2.4430 N.pl3 1 <1>  -0.6000 
 12 C       -4.1980    -6.4780     1.0250 C.2   1 <1>   0.6160 
 13 C       -3.7470    -4.4700     2.3280 C.2   1 <1>  -0.0500 
 14 O       -3.4120    -7.2690     1.5200 O.2   1 <1>  -0.5700 
 15 N       -5.3800    -6.9720     0.4970 N.am  1 <1>  -0.6600 
 16 C       -6.4970    -6.0830     0.0570 C.3   1 <1>   0.2200 
 17 C       -5.5790    -8.4520     0.4200 C.3   1 <1>   0.0600 
 18 C       -7.8180    -6.3610     0.7700 C.3   1 <1>  -0.1600 
 19 C       -6.8300    -6.2020    -1.4280 C.3   1 <1>  -0.1600 
 20 C       -8.8810    -5.7370    -0.1430 C.3   1 <1>  -0.0800 
 21 C       -8.2560    -5.6490    -1.5480 C.3   1 <1>  -0.0800 
 22 C       -9.2580    -4.3020     0.2510 C.3   1 <1>  -0.1600 
 23 C       -8.3010    -4.1680    -1.9530 C.3   1 <1>  -0.1600 
 24 C       -9.3800    -3.5620    -1.0710 C.3   1 <1>   0.2000 
 25 O       -9.1460    -2.2170    -0.8870 O.3   1 <1>  -0.6800 
 26 H       -3.2810    -2.4710    -2.0570 H     1 <1>   0.1500 
 27 H       -2.6090     0.8840     0.4780 H     1 <1>   0.1500 
 28 H       -2.9260    -0.5550     2.4730 H     1 <1>   0.1500 
 29 H       -3.3500    -2.7180     3.3730 H     1 <1>   0.4000 
 30 H       -3.8570    -5.0430     3.2360 H     1 <1>   0.1500 
 31 H       -6.2490    -5.0540     0.2480 H     1 <1>   0.0800 
 32 H       -6.3880    -8.7110    -0.2370 H     1 <1>   0.0800 
 33 H       -5.7890    -8.8350     1.4030 H     1 <1>   0.0800 
 34 H       -4.6800    -8.9190     0.0540 H     1 <1>   0.0800 
 35 H       -8.0010    -7.4180     0.8280 H     1 <1>   0.0800 
 36 H       -7.8310    -5.9470     1.7620 H     1 <1>   0.0800 
 37 H       -6.1270    -5.6640    -2.0390 H     1 <1>   0.0800 
 38 H       -6.8340    -7.2310    -1.7360 H     1 <1>   0.0800 
 39 H       -9.7670    -6.3500    -0.1700 H     1 <1>   0.0800 
 40 H       -8.8300    -6.2340    -2.2480 H     1 <1>   0.0800 
 41 H       -8.4760    -3.8600     0.8430 H     1 <1>   0.0800 
 42 H      -10.1830    -4.2760     0.7990 H     1 <1>   0.0800 
 43 H       -8.5410    -4.0550    -2.9960 H     1 <1>   0.0800 
 44 H       -7.3550    -3.6980    -1.7490 H     1 <1>   0.0800 
 45 H      -10.3590    -3.6950    -1.5030 H     1 <1>   0.0800 
 46 H       -8.2450    -2.0820    -0.5430 H     1 <1>   0.4000 
@<TRIPOS>BOND
  1   1   2  1   
  2   2   3  ar  
  3   2   4  ar  
  4   3   5  ar  
  5   3  26  1   
  6   4   6  ar  
  7   4  27  1   
  8   5   7  1   
  9   5   8  ar  
 10   6   8  ar  
 11   6  28  1   
 12   7   9  2   
 13   7  10  1   
 14   8  11  1   
 15  10  12  1   
 16  10  13  2   
 17  11  13  1   
 18  11  29  1   
 19  12  14  2   
 20  12  15  am  
 21  13  30  1   
 22  15  16  1   
 23  15  17  1   
 24  16  18  1   
 25  16  19  1   
 26  16  31  1   
 27  17  32  1   
 28  17  33  1   
 29  17  34  1   
 30  18  20  1   
 31  18  35  1   
 32  18  36  1   
 33  19  21  1   
 34  19  37  1   
 35  19  38  1   
 36  20  21  1   
 37  20  22  1   
 38  20  39  1   
 39  21  23  1   
 40  21  40  1   
 41  22  24  1   
 42  22  41  1   
 43  22  42  1   
 44  23  24  1   
 45  23  43  1   
 46  23  44  1   
 47  24  25  1   
 48  24  45  1   
 49  25  46  1   
@<TRIPOS>SUBSTRUCTURE
  1 ****   7 GROUP 4 **** **** 0

# MOE 2024.06 (io_trps.svl 2023.06)
