@<TRIPOS>MOLECULE
NONAME
53 56 1 0 0 
SMALL
USER_CHARGES


@<TRIPOS>ATOM
  1 F        0.7530     0.3380    -1.0230 F     1 <1>  -0.3400 
  2 C        1.6790    -0.0770    -0.1710 C.3   1 <1>   1.1640 
  3 F        1.5080     0.6120     0.9470 F     1 <1>  -0.3400 
  4 F        2.8490     0.2990    -0.6710 F     1 <1>  -0.3400 
  5 C        1.6010    -1.5990     0.0700 C.ar  1 <1>  -0.1440 
  6 C        2.6350    -2.4600    -0.2300 C.ar  1 <1>  -0.1500 
  7 C        0.4460    -2.1460     0.6360 C.ar  1 <1>  -0.1500 
  8 C        2.5350    -3.8410     0.0030 C.ar  1 <1>   0.3610 
  9 C        0.3270    -3.4960     0.8420 C.ar  1 <1>  -0.1500 
 10 N        3.6380    -4.6420    -0.1670 N.ar  1 <1>  -0.1790 
 11 C        1.3290    -4.4140     0.4660 C.ar  1 <1>   0.0000 
 12 C        3.6170    -5.9560     0.0990 C.ar  1 <1>   0.2180 
 13 C        1.2320    -5.8490     0.5690 C.ar  1 <1>   0.1000 
 14 C        2.4400    -6.5530     0.4670 C.ar  1 <1>  -0.1500 
 15 C        4.9120    -6.7410    -0.0360 C.3   1 <1>  -0.0970 
 16 N        0.0630    -6.5480     0.7060 N.pl3 1 <1>  -0.8380 
 17 C       -1.3200    -6.0500     0.4060 C.3   1 <1>   0.2090 
 18 C       -0.0420    -8.0150     1.0110 C.3   1 <1>   0.2090 
 19 C       -2.1480    -7.2930     0.0850 C.3   1 <1>   0.2000 
 20 C       -1.5410    -8.3690     0.9990 C.3   1 <1>   0.4230 
 21 O       -3.5030    -7.1110     0.3640 O.3   1 <1>  -0.6800 
 22 N       -1.8770    -9.8050     0.6450 N.4   1 <1>  -0.9590 
 23 C       -1.5210   -10.2010    -0.7530 C.3   1 <1>   0.3430 
 24 C       -3.3280   -10.0620     0.9110 C.3   1 <1>   0.3430 
 25 C       -1.7660   -11.7000    -0.9390 C.3   1 <1>  -0.1600 
 26 C       -3.6230   -11.5550     0.7630 C.3   1 <1>  -0.1600 
 27 C       -3.2180   -12.0790    -0.6210 C.3   1 <1>  -0.1600 
 28 H        3.5500    -2.0700    -0.6430 H     1 <1>   0.1500 
 29 H       -0.3630    -1.4880     0.9240 H     1 <1>   0.1500 
 30 H       -0.5620    -3.8420     1.3280 H     1 <1>   0.1500 
 31 H        4.5090    -4.1960    -0.4640 H     1 <1>   0.4570 
 32 H        2.4540    -7.6080     0.6580 H     1 <1>   0.1500 
 33 H        4.7590    -7.7780     0.2070 H     1 <1>   0.0800 
 34 H        5.6600    -6.3510     0.6330 H     1 <1>   0.0800 
 35 H        5.2820    -6.6870    -1.0450 H     1 <1>   0.0800 
 36 H       -1.7260    -5.5800     1.2860 H     1 <1>   0.0800 
 37 H       -1.3110    -5.3630    -0.4240 H     1 <1>   0.0800 
 38 H        0.4780    -8.5700     0.2520 H     1 <1>   0.0800 
 39 H        0.3840    -8.2210     1.9780 H     1 <1>   0.0800 
 40 H       -2.0340    -7.5400    -0.9550 H     1 <1>   0.0800 
 41 H       -1.9030    -8.1700     1.9950 H     1 <1>   0.0800 
 42 H       -3.9010    -6.4110    -0.1980 H     1 <1>   0.4000 
 43 H       -1.3650   -10.4280     1.2810 H     1 <1>   0.4500 
 44 H       -2.1290    -9.6530    -1.4550 H     1 <1>   0.0800 
 45 H       -0.4850    -9.9840    -0.9550 H     1 <1>   0.0800 
 46 H       -3.5870    -9.7400     1.9070 H     1 <1>   0.0800 
 47 H       -3.9330    -9.5050     0.2120 H     1 <1>   0.0800 
 48 H       -1.5450   -11.9680    -1.9580 H     1 <1>   0.0800 
 49 H       -1.0940   -12.2560    -0.3090 H     1 <1>   0.0800 
 50 H       -3.1030   -12.1020     1.5310 H     1 <1>   0.0800 
 51 H       -4.6760   -11.7200     0.9100 H     1 <1>   0.0800 
 52 H       -3.3340   -13.1500    -0.6570 H     1 <1>   0.0800 
 53 H       -3.8700   -11.6560    -1.3680 H     1 <1>   0.0800 
@<TRIPOS>BOND
  1   1   2  1   
  2   2   3  1   
  3   2   4  1   
  4   2   5  1   
  5   5   6  ar  
  6   5   7  ar  
  7   6   8  ar  
  8   6  28  1   
  9   7   9  ar  
 10   7  29  1   
 11   8  10  ar  
 12   8  11  ar  
 13   9  11  ar  
 14   9  30  1   
 15  10  12  ar  
 16  10  31  1   
 17  11  13  ar  
 18  12  14  ar  
 19  12  15  1   
 20  13  14  ar  
 21  13  16  1   
 22  14  32  1   
 23  15  33  1   
 24  15  34  1   
 25  15  35  1   
 26  16  17  1   
 27  16  18  1   
 28  17  19  1   
 29  17  36  1   
 30  17  37  1   
 31  18  20  1   
 32  18  38  1   
 33  18  39  1   
 34  19  20  1   
 35  19  21  1   
 36  19  40  1   
 37  20  22  1   
 38  20  41  1   
 39  21  42  1   
 40  22  23  1   
 41  22  24  1   
 42  22  43  1   
 43  23  25  1   
 44  23  44  1   
 45  23  45  1   
 46  24  26  1   
 47  24  46  1   
 48  24  47  1   
 49  25  27  1   
 50  25  48  1   
 51  25  49  1   
 52  26  27  1   
 53  26  50  1   
 54  26  51  1   
 55  27  52  1   
 56  27  53  1   
@<TRIPOS>SUBSTRUCTURE
  1 ****  16 GROUP 4 **** **** 0

# MOE 2024.06 (io_trps.svl 2023.06)
