@<TRIPOS>MOLECULE
NONAME
54 56 1 0 0 
SMALL
USER_CHARGES


@<TRIPOS>ATOM
  1 O       -0.6610     0.3460     1.1070 O.2   1 <1>  -0.5700 
  2 C       -1.6490     0.9810     0.7890 C.2   1 <1>   0.5440 
  3 N       -2.8390     0.3140     0.6110 N.am  1 <1>  -0.6600 
  4 C       -1.5530     2.4140     0.5790 C.ar  1 <1>   0.0860 
  5 C       -3.9430     0.8000    -0.2580 C.3   1 <1>   0.1400 
  6 C       -3.0040    -1.1370     0.8570 C.3   1 <1>   0.1400 
  7 C       -0.5480     2.9570    -0.2160 C.ar  1 <1>  -0.1500 
  8 C       -2.4550     3.3030     1.1560 C.ar  1 <1>  -0.1500 
  9 C       -4.8250    -0.4230    -0.5470 C.3   1 <1>   0.2000 
 10 C       -3.9040    -1.6190    -0.2800 C.3   1 <1>  -0.0800 
 11 C       -0.4610     4.3190    -0.4430 C.ar  1 <1>  -0.1500 
 12 C       -2.3700     4.6640     0.9300 C.ar  1 <1>  -0.1500 
 13 O       -5.8920    -0.4640     0.3600 O.3   1 <1>  -0.5600 
 14 C       -4.6340    -2.9390     0.0290 C.3   1 <1>   0.0200 
 15 C       -1.3740     5.2040     0.1230 C.ar  1 <1>  -0.1430 
 16 C       -7.0140     0.2730    -0.0100 C.3   1 <1>   0.0400 
 17 C       -3.6970    -4.1330     0.1130 C.2   1 <1>  -0.0400 
 18 C       -1.3200     6.7310    -0.1000 C.3   1 <1>   0.1440 
 19 O       -4.1910    -5.2950     0.4490 O.3   1 <1>  -0.0190 
 20 C       -2.3800    -4.2960    -0.0950 C.2   1 <1>  -0.1500 
 21 C       -1.1330     7.4410     1.2490 C.3   1 <1>  -0.2400 
 22 C       -0.1660     7.1680    -1.0180 C.3   1 <1>  -0.2400 
 23 C       -2.6300     7.2040    -0.7480 C.3   1 <1>  -0.2400 
 24 N       -3.2790    -6.2230     0.4790 N.2   1 <1>  -0.4100 
 25 C       -2.1760    -5.6490     0.1570 C.2   1 <1>   0.1080 
 26 C       -0.8420    -6.3550     0.0670 C.3   1 <1>  -0.0590 
 27 H       -4.5010     1.5780     0.2310 H     1 <1>   0.0800 
 28 H       -3.5250     1.1750    -1.1760 H     1 <1>   0.0800 
 29 H       -2.0570    -1.6480     0.8650 H     1 <1>   0.0800 
 30 H       -3.4900    -1.2720     1.8080 H     1 <1>   0.0800 
 31 H        0.1750     2.2940    -0.6580 H     1 <1>   0.1500 
 32 H       -3.2290     2.9160     1.7950 H     1 <1>   0.1500 
 33 H       -5.2120    -0.4310    -1.5520 H     1 <1>   0.0800 
 34 H       -3.2880    -1.7570    -1.1510 H     1 <1>   0.0800 
 35 H        0.3400     4.6650    -1.0690 H     1 <1>   0.1500 
 36 H       -3.0940     5.3060     1.3990 H     1 <1>   0.1500 
 37 H       -5.3600    -3.1320    -0.7410 H     1 <1>   0.0800 
 38 H       -5.1640    -2.8530     0.9620 H     1 <1>   0.0800 
 39 H       -7.7490     0.1730     0.7700 H     1 <1>   0.0800 
 40 H       -7.4100    -0.1190    -0.9300 H     1 <1>   0.0800 
 41 H       -6.7470     1.3090    -0.1220 H     1 <1>   0.0800 
 42 H       -1.6270    -3.5880    -0.3860 H     1 <1>   0.1500 
 43 H       -1.0560     8.5040     1.1120 H     1 <1>   0.0800 
 44 H       -0.2350     7.0910     1.7260 H     1 <1>   0.0800 
 45 H       -1.9600     7.2490     1.9070 H     1 <1>   0.0800 
 46 H       -0.1680     8.2360    -1.1480 H     1 <1>   0.0800 
 47 H       -0.2630     6.7160    -1.9890 H     1 <1>   0.0800 
 48 H        0.7810     6.8880    -0.5930 H     1 <1>   0.0800 
 49 H       -2.5980     8.2600    -0.9440 H     1 <1>   0.0800 
 50 H       -3.4720     7.0100    -0.1090 H     1 <1>   0.0800 
 51 H       -2.7870     6.6870    -1.6780 H     1 <1>   0.0800 
 52 H       -0.1310    -5.8750     0.7140 H     1 <1>   0.0800 
 53 H       -0.4820    -6.3240    -0.9440 H     1 <1>   0.0800 
 54 H       -0.9500    -7.3810     0.3680 H     1 <1>   0.0800 
@<TRIPOS>BOND
  1   1   2  2   
  2   2   3  am  
  3   2   4  1   
  4   3   5  1   
  5   3   6  1   
  6   4   7  ar  
  7   4   8  ar  
  8   5   9  1   
  9   5  27  1   
 10   5  28  1   
 11   6  10  1   
 12   6  29  1   
 13   6  30  1   
 14   7  11  ar  
 15   7  31  1   
 16   8  12  ar  
 17   8  32  1   
 18   9  10  1   
 19   9  13  1   
 20   9  33  1   
 21  10  14  1   
 22  10  34  1   
 23  11  15  ar  
 24  11  35  1   
 25  12  15  ar  
 26  12  36  1   
 27  13  16  1   
 28  14  17  1   
 29  14  37  1   
 30  14  38  1   
 31  15  18  1   
 32  16  39  1   
 33  16  40  1   
 34  16  41  1   
 35  17  19  1   
 36  17  20  2   
 37  18  21  1   
 38  18  22  1   
 39  18  23  1   
 40  19  24  1   
 41  20  25  1   
 42  20  42  1   
 43  21  43  1   
 44  21  44  1   
 45  21  45  1   
 46  22  46  1   
 47  22  47  1   
 48  22  48  1   
 49  23  49  1   
 50  23  50  1   
 51  23  51  1   
 52  24  25  2   
 53  25  26  1   
 54  26  52  1   
 55  26  53  1   
 56  26  54  1   
@<TRIPOS>SUBSTRUCTURE
  1 ****   3 GROUP 4 **** **** 0

# MOE 2024.06 (io_trps.svl 2023.06)
