@<TRIPOS>MOLECULE
NONAME
43 44 1 0 0 
SMALL
USER_CHARGES


@<TRIPOS>ATOM
  1 S       -0.1580     0.6280     1.4580 S.o2  1 <1>   1.4470 
  2 O       -0.6750     1.9030     1.9140 O.2   1 <1>  -0.6500 
  3 O        0.2910    -0.2990     2.4790 O.2   1 <1>  -0.6500 
  4 N       -1.3920    -0.1590     0.6040 N.am  1 <1>  -0.8490 
  5 C        1.1660     0.8780     0.2460 C.ar  1 <1>  -0.0090 
  6 C       -0.9620    -1.4680     0.0560 C.3   1 <1>   0.1960 
  7 C       -2.6320    -0.2490     1.3650 C.3   1 <1>   0.1960 
  8 C        1.0240     1.7640    -0.8170 C.ar  1 <1>   0.0820 
  9 C        2.3630     0.1770     0.3450 C.ar  1 <1>  -0.1500 
 10 C       -2.1290    -2.4220    -0.2430 C.3   1 <1>  -0.1860 
 11 C       -3.7850    -0.6180     0.4240 C.3   1 <1>  -0.1600 
 12 O       -0.1220     2.4510    -0.9840 O.3   1 <1>  -0.3620 
 13 C        2.0410     1.9410    -1.7440 C.ar  1 <1>  -0.1500 
 14 C        3.3890     0.3490    -0.5710 C.ar  1 <1>  -0.1440 
 15 C       -1.7070    -3.4510    -1.2720 C.2   1 <1>   0.9060 
 16 C       -3.3630    -1.6200    -0.6590 C.3   1 <1>   0.2000 
 17 C       -0.1110     3.8060    -0.6050 C.3   1 <1>   0.1200 
 18 C        3.2220     1.2370    -1.6190 C.ar  1 <1>  -0.1500 
 19 C        4.6760    -0.4450    -0.4310 C.3   1 <1>  -0.0970 
 20 O       -0.5090    -3.7270    -1.3840 O.co2 1 <1>  -0.9000 
 21 O       -2.5760    -4.0140    -1.9530 O.co2 1 <1>  -0.9000 
 22 O       -4.4060    -2.4900    -0.8830 O.3   1 <1>  -0.6800 
 23 C       -1.5420     4.3260    -0.6810 C.3   1 <1>  -0.2400 
 24 H       -0.4150    -1.2800    -0.8540 H     1 <1>   0.0800 
 25 H       -0.2910    -1.9700     0.7340 H     1 <1>   0.0800 
 26 H       -2.5230    -0.9930     2.1380 H     1 <1>   0.0800 
 27 H       -2.8550     0.6940     1.8350 H     1 <1>   0.0800 
 28 H        2.4910    -0.5230     1.1540 H     1 <1>   0.1500 
 29 H       -2.3550    -2.9660     0.6530 H     1 <1>   0.0800 
 30 H       -4.1380     0.2740    -0.0570 H     1 <1>   0.0800 
 31 H       -4.5870    -1.0200     1.0160 H     1 <1>   0.0800 
 32 H        1.8970     2.6210    -2.5630 H     1 <1>   0.1500 
 33 H       -3.1550    -1.1060    -1.5840 H     1 <1>   0.0800 
 34 H        0.2650     3.8770     0.4020 H     1 <1>   0.0800 
 35 H        0.5350     4.3450    -1.2760 H     1 <1>   0.0800 
 36 H        4.0060     1.3760    -2.3440 H     1 <1>   0.1500 
 37 H        5.4970     0.0830    -0.8810 H     1 <1>   0.0800 
 38 H        4.5660    -1.3980    -0.9160 H     1 <1>   0.0800 
 39 H        4.9040    -0.6090     0.6070 H     1 <1>   0.0800 
 40 H       -4.0040    -3.2430    -1.4120 H     1 <1>   0.4000 
 41 H       -2.1660     3.7670    -0.0050 H     1 <1>   0.0800 
 42 H       -1.9200     4.2290    -1.6830 H     1 <1>   0.0800 
 43 H       -1.5700     5.3620    -0.3970 H     1 <1>   0.0800 
@<TRIPOS>BOND
  1   1   2  2   
  2   1   3  2   
  3   1   4  am  
  4   1   5  1   
  5   4   6  1   
  6   4   7  1   
  7   5   8  ar  
  8   5   9  ar  
  9   6  10  1   
 10   6  24  1   
 11   6  25  1   
 12   7  11  1   
 13   7  26  1   
 14   7  27  1   
 15   8  12  1   
 16   8  13  ar  
 17   9  14  ar  
 18   9  28  1   
 19  10  15  1   
 20  10  16  1   
 21  10  29  1   
 22  11  16  1   
 23  11  30  1   
 24  11  31  1   
 25  12  17  1   
 26  13  18  ar  
 27  13  32  1   
 28  14  18  ar  
 29  14  19  1   
 30  15  20  ar  
 31  15  21  ar  
 32  16  22  1   
 33  16  33  1   
 34  17  23  1   
 35  17  34  1   
 36  17  35  1   
 37  18  36  1   
 38  19  37  1   
 39  19  38  1   
 40  19  39  1   
 41  22  40  1   
 42  23  41  1   
 43  23  42  1   
 44  23  43  1   
@<TRIPOS>SUBSTRUCTURE
  1 ****   4 GROUP 4 **** **** 0

# MOE 2024.06 (io_trps.svl 2023.06)
