@<TRIPOS>MOLECULE
NONAME
46 48 1 0 0 
SMALL
USER_CHARGES


@<TRIPOS>ATOM
  1 F       -3.1500    -0.5960     2.1060 F     1 <1>  -0.1900 
  2 C       -2.7470     0.2430     1.1900 C.ar  1 <1>   0.1900 
  3 C       -2.6240    -0.2030    -0.1270 C.ar  1 <1>   0.0860 
  4 C       -2.4760     1.5420     1.5850 C.ar  1 <1>  -0.1500 
  5 C       -2.9140    -1.5680    -0.4930 C.2   1 <1>   0.5440 
  6 C       -2.2080     0.7330    -1.0730 C.ar  1 <1>  -0.1500 
  7 C       -2.0630     2.4580     0.6320 C.ar  1 <1>  -0.1500 
  8 O       -2.0510    -2.4160    -0.3820 O.2   1 <1>  -0.5700 
  9 N       -4.1550    -1.9560    -0.9570 N.am  1 <1>  -0.6600 
 10 C       -1.9400     2.0300    -0.6800 C.ar  1 <1>   0.1900 
 11 C       -4.3900    -3.3650    -1.3690 C.3   1 <1>   0.1400 
 12 C       -5.4050    -1.2170    -0.6340 C.3   1 <1>   0.1400 
 13 F       -1.5550     2.8900    -1.5820 F     1 <1>  -0.1900 
 14 C       -5.0370    -4.1150    -0.1860 C.3   1 <1>   0.4230 
 15 C       -6.0930    -1.9360     0.5360 C.3   1 <1>  -0.1600 
 16 N       -5.1300    -5.6220    -0.3830 N.4   1 <1>  -0.9590 
 17 C       -6.3710    -3.4460     0.2690 C.3   1 <1>   0.0000 
 18 C       -6.0990    -6.3000     0.5380 C.3   1 <1>   0.3430 
 19 C       -5.3550    -6.0780    -1.7940 C.3   1 <1>   0.2630 
 20 C       -6.8480    -4.1080     1.5970 C.3   1 <1>  -0.1600 
 21 C       -7.4550    -3.6070    -0.8360 C.3   1 <1>   0.1200 
 22 C       -6.2640    -5.5140     1.8370 C.3   1 <1>  -0.1600 
 23 O       -8.5880    -2.8610    -0.5570 O.3   1 <1>  -0.6800 
 24 H       -2.5860     1.8280     2.6170 H     1 <1>   0.1500 
 25 H       -2.0910     0.4480    -2.1040 H     1 <1>   0.1500 
 26 H       -1.8410     3.4780     0.8910 H     1 <1>   0.1500 
 27 H       -5.0210    -3.3690    -2.2380 H     1 <1>   0.0800 
 28 H       -3.4570    -3.8330    -1.6320 H     1 <1>   0.0800 
 29 H       -5.1910    -0.1970    -0.3610 H     1 <1>   0.0800 
 30 H       -6.0490    -1.1950    -1.4980 H     1 <1>   0.0800 
 31 H       -4.3550    -3.9650     0.6360 H     1 <1>   0.0800 
 32 H       -5.4530    -1.8310     1.3940 H     1 <1>   0.0800 
 33 H       -7.0050    -1.4160     0.7730 H     1 <1>   0.0800 
 34 H       -4.1950    -5.9640    -0.1090 H     1 <1>   0.4500 
 35 H       -7.0630    -6.3750     0.0610 H     1 <1>   0.0800 
 36 H       -5.7580    -7.3000     0.7560 H     1 <1>   0.0800 
 37 H       -6.3000    -5.7140    -2.1630 H     1 <1>   0.0800 
 38 H       -5.3600    -7.1550    -1.8410 H     1 <1>   0.0800 
 39 H       -4.5690    -5.7170    -2.4380 H     1 <1>   0.0800 
 40 H       -6.5730    -3.5000     2.4440 H     1 <1>   0.0800 
 41 H       -7.9220    -4.1690     1.6150 H     1 <1>   0.0800 
 42 H       -7.7640    -4.6310    -0.9400 H     1 <1>   0.0800 
 43 H       -7.0980    -3.2620    -1.7890 H     1 <1>   0.0800 
 44 H       -6.9160    -6.0570     2.5000 H     1 <1>   0.0800 
 45 H       -5.3080    -5.4400     2.3280 H     1 <1>   0.0800 
 46 H       -9.0310    -3.1510     0.2650 H     1 <1>   0.4000 
@<TRIPOS>BOND
  1   1   2  1   
  2   2   3  ar  
  3   2   4  ar  
  4   3   5  1   
  5   3   6  ar  
  6   4   7  ar  
  7   4  24  1   
  8   5   8  2   
  9   5   9  am  
 10   6  10  ar  
 11   6  25  1   
 12   7  10  ar  
 13   7  26  1   
 14   9  11  1   
 15   9  12  1   
 16  10  13  1   
 17  11  14  1   
 18  11  27  1   
 19  11  28  1   
 20  12  15  1   
 21  12  29  1   
 22  12  30  1   
 23  14  16  1   
 24  14  17  1   
 25  14  31  1   
 26  15  17  1   
 27  15  32  1   
 28  15  33  1   
 29  16  18  1   
 30  16  19  1   
 31  16  34  1   
 32  17  20  1   
 33  17  21  1   
 34  18  22  1   
 35  18  35  1   
 36  18  36  1   
 37  19  37  1   
 38  19  38  1   
 39  19  39  1   
 40  20  22  1   
 41  20  40  1   
 42  20  41  1   
 43  21  23  1   
 44  21  42  1   
 45  21  43  1   
 46  22  44  1   
 47  22  45  1   
 48  23  46  1   
@<TRIPOS>SUBSTRUCTURE
  1 ****   9 GROUP 4 **** **** 0

# MOE 2024.06 (io_trps.svl 2023.06)
