@<TRIPOS>MOLECULE
NONAME
51 53 1 0 0 
SMALL
USER_CHARGES


@<TRIPOS>ATOM
  1 S       -0.4510    -0.1020    -0.7390 S.3   1 <1>  -0.0800 
  2 C       -1.2170     1.2430     0.1060 C.2   1 <1>   0.4620 
  3 C       -1.4090    -1.2240     0.1880 C.2   1 <1>  -0.1400 
  4 N       -2.0820     0.8570     0.9740 N.2   1 <1>  -0.5650 
  5 N       -0.8710     2.5400    -0.2030 N.pl3 1 <1>  -0.8220 
  6 C       -2.1830    -0.5170     1.0250 C.2   1 <1>   0.0770 
  7 C       -1.2090    -2.6930    -0.1060 C.3   1 <1>   0.5230 
  8 C       -1.5350     3.6950     0.4750 C.3   1 <1>   0.2090 
  9 C        0.2470     2.9530    -1.1060 C.3   1 <1>   0.2090 
 10 N       -2.5130    -3.4000    -0.2150 N.4   1 <1>  -0.9590 
 11 C       -0.4900     4.6390     1.0950 C.3   1 <1>   0.1200 
 12 C        1.1850     3.9430    -0.3910 C.3   1 <1>   0.1200 
 13 C       -2.3240    -4.8610    -0.3870 C.3   1 <1>   0.4810 
 14 C       -3.4580    -2.7570    -1.1890 C.3   1 <1>   0.3430 
 15 O        0.4700     5.0210     0.1460 O.3   1 <1>  -0.5600 
 16 C       -3.6710    -5.5400    -0.3580 C.2   1 <1>  -0.2880 
 17 C       -4.8590    -2.6170    -0.5500 C.3   1 <1>   0.1200 
 18 C       -4.2520    -6.0540     0.7400 C.2   1 <1>  -0.1780 
 19 O       -4.7480    -2.5040     0.8410 O.3   1 <1>  -0.6800 
 20 C       -5.5460    -6.6920     0.8320 C.ar  1 <1>   0.0280 
 21 C       -6.1790    -6.8020     2.0670 C.ar  1 <1>  -0.1500 
 22 C       -6.2040    -7.2090    -0.2820 C.ar  1 <1>  -0.1500 
 23 C       -7.4240    -7.3940     2.1870 C.ar  1 <1>  -0.1500 
 24 C       -7.4490    -7.8000    -0.1690 C.ar  1 <1>  -0.1500 
 25 C       -8.0630    -7.8930     1.0670 C.ar  1 <1>  -0.1500 
 26 H       -2.8840    -0.9240     1.7350 H     1 <1>   0.1500 
 27 H       -0.6110    -3.1300     0.6770 H     1 <1>   0.0800 
 28 H       -0.6700    -2.7910    -1.0350 H     1 <1>   0.0800 
 29 H       -2.1190     4.2400    -0.2460 H     1 <1>   0.0800 
 30 H       -2.2020     3.3530     1.2470 H     1 <1>   0.0800 
 31 H        0.8210     2.1060    -1.4300 H     1 <1>   0.0800 
 32 H       -0.1640     3.4290    -1.9790 H     1 <1>   0.0800 
 33 H       -3.0240    -3.2660     0.6790 H     1 <1>   0.4500 
 34 H        0.0100     4.1540     1.9150 H     1 <1>   0.0800 
 35 H       -0.9660     5.5310     1.4580 H     1 <1>   0.0800 
 36 H        1.9030     4.3400    -1.0870 H     1 <1>   0.0800 
 37 H        1.7130     3.4490     0.4060 H     1 <1>   0.0800 
 38 H       -1.8200    -5.0790    -1.3150 H     1 <1>   0.0800 
 39 H       -1.7250    -5.2420     0.4240 H     1 <1>   0.0800 
 40 H       -3.1130    -1.7670    -1.4390 H     1 <1>   0.0800 
 41 H       -3.5190    -3.3210    -2.1050 H     1 <1>   0.0800 
 42 H       -4.1410    -5.5670    -1.3240 H     1 <1>   0.1500 
 43 H       -5.4620    -3.4830    -0.7670 H     1 <1>   0.0800 
 44 H       -5.3590    -1.7420    -0.9310 H     1 <1>   0.0800 
 45 H       -3.7450    -5.9990     1.6900 H     1 <1>   0.1500 
 46 H       -5.6370    -2.3950     1.2490 H     1 <1>   0.4000 
 47 H       -5.6990    -6.4200     2.9500 H     1 <1>   0.1500 
 48 H       -5.7450    -7.1610    -1.2510 H     1 <1>   0.1500 
 49 H       -7.8970    -7.4680     3.1510 H     1 <1>   0.1500 
 50 H       -7.9430    -8.1940    -1.0410 H     1 <1>   0.1500 
 51 H       -9.0310    -8.3540     1.1570 H     1 <1>   0.1500 
@<TRIPOS>BOND
  1   1   2  1   
  2   1   3  1   
  3   2   4  2   
  4   2   5  1   
  5   3   6  2   
  6   3   7  1   
  7   4   6  1   
  8   5   8  1   
  9   5   9  1   
 10   6  26  1   
 11   7  10  1   
 12   7  27  1   
 13   7  28  1   
 14   8  11  1   
 15   8  29  1   
 16   8  30  1   
 17   9  12  1   
 18   9  31  1   
 19   9  32  1   
 20  10  13  1   
 21  10  14  1   
 22  10  33  1   
 23  11  15  1   
 24  11  34  1   
 25  11  35  1   
 26  12  15  1   
 27  12  36  1   
 28  12  37  1   
 29  13  16  1   
 30  13  38  1   
 31  13  39  1   
 32  14  17  1   
 33  14  40  1   
 34  14  41  1   
 35  16  18  2   
 36  16  42  1   
 37  17  19  1   
 38  17  43  1   
 39  17  44  1   
 40  18  20  1   
 41  18  45  1   
 42  19  46  1   
 43  20  21  ar  
 44  20  22  ar  
 45  21  23  ar  
 46  21  47  1   
 47  22  24  ar  
 48  22  48  1   
 49  23  25  ar  
 50  23  49  1   
 51  24  25  ar  
 52  24  50  1   
 53  25  51  1   
@<TRIPOS>SUBSTRUCTURE
  1 ****  10 GROUP 4 **** **** 0

# MOE 2024.06 (io_trps.svl 2023.06)
