@<TRIPOS>MOLECULE
NONAME
51 53 1 0 0 
SMALL
USER_CHARGES


@<TRIPOS>ATOM
  1 O       -2.0560     0.7730    -1.8090 O.2   1 <1>  -0.5700 
  2 C       -2.1760     0.8820    -0.6130 C.2   1 <1>   0.5690 
  3 N       -2.3830    -0.1970     0.1860 N.am  1 <1>  -0.7300 
  4 C       -2.0940     2.2610     0.0450 C.3   1 <1>  -0.0190 
  5 C       -2.4760    -1.6010    -0.2880 C.3   1 <1>   0.1400 
  6 C       -2.4280     3.4150    -0.9230 C.3   1 <1>  -0.1600 
  7 C       -0.7070     2.4810     0.6950 C.3   1 <1>  -0.1600 
  8 C       -3.8800    -2.1520    -0.0360 C.3   1 <1>   0.0210 
  9 C       -2.4890     4.7820    -0.2080 C.3   1 <1>   0.2000 
 10 C       -0.3670     3.9630     0.9530 C.3   1 <1>  -0.1600 
 11 C       -3.9980    -3.6210    -0.4070 C.2   1 <1>  -0.1810 
 12 O       -2.0290     5.7720    -1.0950 O.3   1 <1>  -0.5600 
 13 C       -1.6300     4.8200     1.0840 C.3   1 <1>   0.2000 
 14 C       -5.1470    -4.3950    -0.1270 C.ar  1 <1>   0.0000 
 15 C       -3.1060    -4.4290    -1.0330 C.2   1 <1>  -0.3020 
 16 C       -2.9360     6.1550    -2.0820 C.3   1 <1>   0.0400 
 17 O       -1.2410     6.1190     1.3330 O.3   1 <1>  -0.6800 
 18 C       -4.8900    -5.6740    -0.6060 C.ar  1 <1>  -0.1520 
 19 C       -6.3740    -4.1250     0.4860 C.ar  1 <1>  -0.1500 
 20 N       -3.6350    -5.6810    -1.1610 N.pl3 1 <1>   0.0330 
 21 C       -5.8370    -6.6930    -0.4820 C.ar  1 <1>  -0.1500 
 22 C       -7.3140    -5.1230     0.6140 C.ar  1 <1>   0.0820 
 23 C       -7.0410    -6.4160     0.1260 C.ar  1 <1>  -0.1500 
 24 O       -8.4850    -4.7870     1.2240 O.3   1 <1>  -0.3620 
 25 C       -9.5130    -5.7370     1.3930 C.3   1 <1>   0.0400 
 26 H       -2.4540    -0.0690     1.1960 H     1 <1>   0.3700 
 27 H       -2.8370     2.2760     0.8220 H     1 <1>   0.0800 
 28 H       -2.2570    -1.6510    -1.3420 H     1 <1>   0.0800 
 29 H       -1.7500    -2.1990     0.2360 H     1 <1>   0.0800 
 30 H       -3.3720     3.2200    -1.4000 H     1 <1>   0.0800 
 31 H       -1.6680     3.4430    -1.6870 H     1 <1>   0.0800 
 32 H       -0.6720     1.9390     1.6240 H     1 <1>   0.0800 
 33 H        0.0570     2.0690     0.0560 H     1 <1>   0.0800 
 34 H       -4.1210    -2.0450     1.0060 H     1 <1>   0.0800 
 35 H       -4.5900    -1.5900    -0.6160 H     1 <1>   0.0800 
 36 H       -3.5040     5.0110     0.0680 H     1 <1>   0.0800 
 37 H        0.2090     4.3360     0.1240 H     1 <1>   0.0800 
 38 H        0.2290     4.0490     1.8450 H     1 <1>   0.0800 
 39 H       -2.2060     4.4810     1.9280 H     1 <1>   0.0800 
 40 H       -2.1220    -4.1970    -1.4020 H     1 <1>   0.1500 
 41 H       -2.4800     6.9320    -2.6700 H     1 <1>   0.0800 
 42 H       -3.8310     6.5310    -1.6180 H     1 <1>   0.0800 
 43 H       -3.1590     5.3120    -2.7130 H     1 <1>   0.0800 
 44 H       -1.1560     6.5450     0.4490 H     1 <1>   0.4000 
 45 H       -6.5800    -3.1390     0.8550 H     1 <1>   0.1500 
 46 H       -3.1880    -6.4930    -1.5980 H     1 <1>   0.2700 
 47 H       -5.6200    -7.6770    -0.8580 H     1 <1>   0.1500 
 48 H       -7.7650    -7.2010     0.2200 H     1 <1>   0.1500 
 49 H      -10.3360    -5.2540     1.8890 H     1 <1>   0.0800 
 50 H       -9.1450    -6.5460     1.9990 H     1 <1>   0.0800 
 51 H       -9.8260    -6.0890     0.4260 H     1 <1>   0.0800 
@<TRIPOS>BOND
  1   1   2  2   
  2   2   3  am  
  3   2   4  1   
  4   3   5  1   
  5   3  26  1   
  6   4   6  1   
  7   4   7  1   
  8   4  27  1   
  9   5   8  1   
 10   5  28  1   
 11   5  29  1   
 12   6   9  1   
 13   6  30  1   
 14   6  31  1   
 15   7  10  1   
 16   7  32  1   
 17   7  33  1   
 18   8  11  1   
 19   8  34  1   
 20   8  35  1   
 21   9  12  1   
 22   9  13  1   
 23   9  36  1   
 24  10  13  1   
 25  10  37  1   
 26  10  38  1   
 27  11  14  1   
 28  11  15  2   
 29  12  16  1   
 30  13  17  1   
 31  13  39  1   
 32  14  18  ar  
 33  14  19  ar  
 34  15  20  1   
 35  15  40  1   
 36  16  41  1   
 37  16  42  1   
 38  16  43  1   
 39  17  44  1   
 40  18  20  1   
 41  18  21  ar  
 42  19  22  ar  
 43  19  45  1   
 44  20  46  1   
 45  21  23  ar  
 46  21  47  1   
 47  22  23  ar  
 48  22  24  1   
 49  23  48  1   
 50  24  25  1   
 51  25  49  1   
 52  25  50  1   
 53  25  51  1   
@<TRIPOS>SUBSTRUCTURE
  1 ****   8 GROUP 4 **** **** 0

# MOE 2024.06 (io_trps.svl 2023.06)
