@<TRIPOS>MOLECULE
NONAME
61 64 1 0 0 
SMALL
USER_CHARGES


@<TRIPOS>ATOM
  1 O       -3.6480     3.4260     1.6570 O.2   1 <1>  -0.5700 
  2 C       -3.0130     3.5460     0.6310 C.2   1 <1>   0.5690 
  3 N       -3.2540     2.6790    -0.4260 N.am  1 <1>  -0.6600 
  4 C       -1.9450     4.6860     0.5580 C.3   1 <1>   0.2040 
  5 C       -4.3500     1.6670    -0.2990 C.3   1 <1>   0.2200 
  6 C       -2.4490     2.6380    -1.6890 C.3   1 <1>   0.0600 
  7 C       -0.5100     4.1090     0.4710 C.ar  1 <1>  -0.1440 
  8 C       -2.3190     5.6290    -0.6240 C.3   1 <1>  -0.1600 
  9 C       -1.9580     5.6350     1.7900 C.3   1 <1>  -0.1600 
 10 C       -3.8230     0.2760     0.0330 C.3   1 <1>  -0.1600 
 11 C       -5.2050     1.4640    -1.5500 C.3   1 <1>  -0.1600 
 12 C        0.5240     4.8130    -0.1390 C.ar  1 <1>  -0.1500 
 13 C       -0.2140     2.8710     1.0350 C.ar  1 <1>  -0.1500 
 14 C       -2.3220     7.0620    -0.0930 C.3   1 <1>  -0.1600 
 15 C       -2.6990     6.9010     1.3710 C.3   1 <1>  -0.1600 
 16 C       -4.9730    -0.6700    -0.3400 C.3   1 <1>  -0.0800 
 17 C       -5.8660     0.0970    -1.3340 C.3   1 <1>  -0.0800 
 18 C        1.8050     4.2930    -0.2130 C.ar  1 <1>   0.0830 
 19 C        1.0600     2.3350     0.9550 C.ar  1 <1>  -0.1500 
 20 C       -5.8670    -1.0360     0.8550 C.3   1 <1>  -0.1600 
 21 C       -7.2550     0.1880    -0.6860 C.3   1 <1>  -0.1600 
 22 O        2.7560     5.0610    -0.8000 O.3   1 <1>  -0.3630 
 23 C        2.0720     3.0270     0.3150 C.ar  1 <1>   0.0830 
 24 C       -7.2870    -0.9540     0.3160 C.3   1 <1>   0.2000 
 25 C        3.7830     5.5310     0.0450 C.3   1 <1>   0.0400 
 26 O        3.2860     2.4290     0.2350 O.3   1 <1>  -0.3630 
 27 O       -8.1650    -0.6660     1.3360 O.3   1 <1>  -0.6800 
 28 C        3.7450     2.1070    -1.0600 C.3   1 <1>   0.0400 
 29 H       -5.0240     1.9560     0.4910 H     1 <1>   0.0800 
 30 H       -2.2880     1.6210    -1.9970 H     1 <1>   0.0800 
 31 H       -1.4850     3.0920    -1.5670 H     1 <1>   0.0800 
 32 H       -2.9760     3.1590    -2.4690 H     1 <1>   0.0800 
 33 H       -1.6760     5.5200    -1.4780 H     1 <1>   0.0800 
 34 H       -3.3220     5.4090    -0.9490 H     1 <1>   0.0800 
 35 H       -2.3910     5.1980     2.6720 H     1 <1>   0.0800 
 36 H       -0.9500     5.9150     2.0400 H     1 <1>   0.0800 
 37 H       -2.9710     0.0460    -0.5800 H     1 <1>   0.0800 
 38 H       -3.5410     0.2010     1.0680 H     1 <1>   0.0800 
 39 H       -5.9230     2.2550    -1.6730 H     1 <1>   0.0800 
 40 H       -4.5960     1.3960    -2.4320 H     1 <1>   0.0800 
 41 H        0.3630     5.7880    -0.5570 H     1 <1>   0.1500 
 42 H       -0.9720     2.3030     1.5480 H     1 <1>   0.1500 
 43 H       -1.3350     7.4850    -0.1670 H     1 <1>   0.0800 
 44 H       -3.0180     7.6900    -0.6220 H     1 <1>   0.0800 
 45 H       -3.7610     6.7440     1.4610 H     1 <1>   0.0800 
 46 H       -2.4120     7.7540     1.9620 H     1 <1>   0.0800 
 47 H       -4.5920    -1.5680    -0.7970 H     1 <1>   0.0800 
 48 H       -5.9370    -0.4450    -2.2630 H     1 <1>   0.0800 
 49 H        1.2730     1.3740     1.3870 H     1 <1>   0.1500 
 50 H       -5.7390    -0.3200     1.6480 H     1 <1>   0.0800 
 51 H       -5.6470    -2.0230     1.2220 H     1 <1>   0.0800 
 52 H       -8.0380     0.0870    -1.4170 H     1 <1>   0.0800 
 53 H       -7.3630     1.1260    -0.1690 H     1 <1>   0.0800 
 54 H       -7.5810    -1.8780    -0.1540 H     1 <1>   0.0800 
 55 H        4.4050     6.2000    -0.5210 H     1 <1>   0.0800 
 56 H        4.3640     4.6990     0.3980 H     1 <1>   0.0800 
 57 H        3.3380     6.0530     0.8740 H     1 <1>   0.0800 
 58 H       -7.8920     0.1590     1.7810 H     1 <1>   0.4000 
 59 H        4.6490     1.5350    -0.9640 H     1 <1>   0.0800 
 60 H        3.9400     3.0130    -1.6050 H     1 <1>   0.0800 
 61 H        2.9910     1.5250    -1.5600 H     1 <1>   0.0800 
@<TRIPOS>BOND
  1   1   2  2   
  2   2   3  am  
  3   2   4  1   
  4   3   5  1   
  5   3   6  1   
  6   4   7  1   
  7   4   8  1   
  8   4   9  1   
  9   5  10  1   
 10   5  11  1   
 11   5  29  1   
 12   6  30  1   
 13   6  31  1   
 14   6  32  1   
 15   7  12  ar  
 16   7  13  ar  
 17   8  14  1   
 18   8  33  1   
 19   8  34  1   
 20   9  15  1   
 21   9  35  1   
 22   9  36  1   
 23  10  16  1   
 24  10  37  1   
 25  10  38  1   
 26  11  17  1   
 27  11  39  1   
 28  11  40  1   
 29  12  18  ar  
 30  12  41  1   
 31  13  19  ar  
 32  13  42  1   
 33  14  15  1   
 34  14  43  1   
 35  14  44  1   
 36  15  45  1   
 37  15  46  1   
 38  16  17  1   
 39  16  20  1   
 40  16  47  1   
 41  17  21  1   
 42  17  48  1   
 43  18  22  1   
 44  18  23  ar  
 45  19  23  ar  
 46  19  49  1   
 47  20  24  1   
 48  20  50  1   
 49  20  51  1   
 50  21  24  1   
 51  21  52  1   
 52  21  53  1   
 53  22  25  1   
 54  23  26  1   
 55  24  27  1   
 56  24  54  1   
 57  25  55  1   
 58  25  56  1   
 59  25  57  1   
 60  26  28  1   
 61  27  58  1   
 62  28  59  1   
 63  28  60  1   
 64  28  61  1   
@<TRIPOS>SUBSTRUCTURE
  1 ****   3 GROUP 4 **** **** 0

# MOE 2024.06 (io_trps.svl 2023.06)
