@<TRIPOS>MOLECULE
NONAME
56 60 1 0 0 
SMALL
USER_CHARGES


@<TRIPOS>ATOM
  1 O       -2.1080     0.4740     1.5400 O.2   1 <1>  -0.5700 
  2 C       -1.9220     0.9170     0.4340 C.2   1 <1>   0.5690 
  3 N       -2.0170     0.1510    -0.6850 N.am  1 <1>  -0.7300 
  4 C       -1.5930     2.3900     0.2770 C.3   1 <1>  -0.0990 
  5 C       -2.2510    -1.3180    -0.7530 C.3   1 <1>   0.2200 
  6 C       -0.0840     2.7250     0.2700 C.3   1 <1>   0.0000 
  7 C       -3.5450    -1.7480    -0.0540 C.3   1 <1>  -0.0800 
  8 C       -1.1580    -2.1270    -0.0460 C.3   1 <1>   0.1200 
  9 C        0.0850     4.2580     0.1350 C.3   1 <1>  -0.1600 
 10 C        0.5950     2.2760     1.5860 C.3   1 <1>  -0.1600 
 11 C        0.6500     2.0500    -0.9150 C.3   1 <1>  -0.1600 
 12 C       -3.0330    -2.6420     1.0770 C.3   1 <1>   0.1200 
 13 C       -4.4730    -2.5090    -1.0180 C.3   1 <1>  -0.0170 
 14 O       -1.8280    -3.1530     0.6110 O.3   1 <1>  -0.5600 
 15 C        1.5730     4.6510     0.1320 C.3   1 <1>  -0.0800 
 16 C        2.0870     2.6590     1.5890 C.3   1 <1>  -0.0800 
 17 C        2.1420     2.4330    -0.9230 C.3   1 <1>  -0.0800 
 18 C       -5.7580    -2.9570    -0.3360 C.ar  1 <1>  -0.1440 
 19 C        2.2200     4.1860     1.4490 C.3   1 <1>  -0.1600 
 20 C        2.2750     3.9610    -1.0520 C.3   1 <1>  -0.1600 
 21 C        2.7870     1.9780     0.3990 C.3   1 <1>  -0.1600 
 22 C       -6.7520    -2.0630     0.0040 C.ar  1 <1>  -0.1500 
 23 C       -5.9950    -4.2800    -0.0220 C.ar  1 <1>  -0.1500 
 24 C       -7.9030    -2.5210     0.6250 C.ar  1 <1>   0.1600 
 25 C       -7.1820    -4.6340     0.6000 C.ar  1 <1>   0.1600 
 26 N       -8.1420    -3.7860     0.9300 N.ar  1 <1>  -0.6200 
 27 H       -1.8220     0.5930    -1.5830 H     1 <1>   0.3700 
 28 H       -2.0460     2.7460    -0.6300 H     1 <1>   0.0800 
 29 H       -2.0630     2.9130     1.0900 H     1 <1>   0.0800 
 30 H       -2.2720    -1.6110    -1.7880 H     1 <1>   0.0800 
 31 H       -4.0750    -0.9110     0.3620 H     1 <1>   0.0800 
 32 H       -0.6450    -1.5400     0.6970 H     1 <1>   0.0800 
 33 H       -0.4560    -2.5580    -0.7360 H     1 <1>   0.0800 
 34 H       -0.3740     4.6000    -0.7770 H     1 <1>   0.0800 
 35 H       -0.4090     4.7530     0.9530 H     1 <1>   0.0800 
 36 H        0.1040     2.7350     2.4260 H     1 <1>   0.0800 
 37 H        0.5080     1.2110     1.7060 H     1 <1>   0.0800 
 38 H        0.5750     0.9800    -0.8370 H     1 <1>   0.0800 
 39 H        0.2000     2.3490    -1.8450 H     1 <1>   0.0800 
 40 H       -3.6930    -3.4530     1.3250 H     1 <1>   0.0800 
 41 H       -2.8270    -2.0590     1.9600 H     1 <1>   0.0800 
 42 H       -3.9570    -3.3670    -1.4150 H     1 <1>   0.0800 
 43 H       -4.7290    -1.8710    -1.8450 H     1 <1>   0.0800 
 44 H        1.6680     5.7200     0.0380 H     1 <1>   0.0800 
 45 H        2.5410     2.3370     2.5110 H     1 <1>   0.0800 
 46 H        2.6370     1.9550    -1.7510 H     1 <1>   0.0800 
 47 H        1.7420     4.6710     2.2820 H     1 <1>   0.0800 
 48 H        3.2600     4.4640     1.4620 H     1 <1>   0.0800 
 49 H        3.3150     4.2360    -1.0680 H     1 <1>   0.0800 
 50 H        1.8360     4.2900    -1.9780 H     1 <1>   0.0800 
 51 H        2.7090     0.9090     0.4950 H     1 <1>   0.0800 
 52 H        3.8330     2.2290     0.4000 H     1 <1>   0.0800 
 53 H       -6.6430    -1.0150    -0.2060 H     1 <1>   0.1500 
 54 H       -5.2700    -5.0390    -0.2510 H     1 <1>   0.1500 
 55 H       -8.6670    -1.8080     0.8830 H     1 <1>   0.1500 
 56 H       -7.3490    -5.6710     0.8370 H     1 <1>   0.1500 
@<TRIPOS>BOND
  1   1   2  2   
  2   2   3  am  
  3   2   4  1   
  4   3   5  1   
  5   3  27  1   
  6   4   6  1   
  7   4  28  1   
  8   4  29  1   
  9   5   7  1   
 10   5   8  1   
 11   5  30  1   
 12   6   9  1   
 13   6  10  1   
 14   6  11  1   
 15   7  12  1   
 16   7  13  1   
 17   7  31  1   
 18   8  14  1   
 19   8  32  1   
 20   8  33  1   
 21   9  15  1   
 22   9  34  1   
 23   9  35  1   
 24  10  16  1   
 25  10  36  1   
 26  10  37  1   
 27  11  17  1   
 28  11  38  1   
 29  11  39  1   
 30  12  14  1   
 31  12  40  1   
 32  12  41  1   
 33  13  18  1   
 34  13  42  1   
 35  13  43  1   
 36  15  19  1   
 37  15  20  1   
 38  15  44  1   
 39  16  19  1   
 40  16  21  1   
 41  16  45  1   
 42  17  20  1   
 43  17  21  1   
 44  17  46  1   
 45  18  22  ar  
 46  18  23  ar  
 47  19  47  1   
 48  19  48  1   
 49  20  49  1   
 50  20  50  1   
 51  21  51  1   
 52  21  52  1   
 53  22  24  ar  
 54  22  53  1   
 55  23  25  ar  
 56  23  54  1   
 57  24  26  ar  
 58  24  55  1   
 59  25  26  ar  
 60  25  56  1   
@<TRIPOS>SUBSTRUCTURE
  1 ****   2 GROUP 4 **** **** 0

# MOE 2024.06 (io_trps.svl 2023.06)
