@<TRIPOS>MOLECULE
NONAME
52 54 1 0 0 
SMALL
USER_CHARGES


@<TRIPOS>ATOM
  1 F        1.6750    -2.1580    -0.5400 F     1 <1>  -0.3400 
  2 C        0.9450    -2.3390     0.5510 C.3   1 <1>   1.1640 
  3 F        0.1790    -1.2610     0.6700 F     1 <1>  -0.3400 
  4 F        1.7830    -2.3190     1.5790 F     1 <1>  -0.3400 
  5 C        0.1010    -3.6230     0.4670 C.ar  1 <1>  -0.1440 
  6 C       -1.0030    -3.6770    -0.3770 C.ar  1 <1>  -0.1500 
  7 C        0.4110    -4.7510     1.2170 C.ar  1 <1>  -0.1500 
  8 C       -1.7900    -4.8170    -0.4690 C.ar  1 <1>  -0.1440 
  9 C       -0.3600    -5.8940     1.1210 C.ar  1 <1>  -0.1500 
 10 C       -1.4610    -5.9420     0.2810 C.ar  1 <1>  -0.1430 
 11 C       -3.0010    -4.7960    -1.3870 C.3   1 <1>   0.4870 
 12 C       -2.2600    -7.2370     0.2070 C.3   1 <1>  -0.0970 
 13 N       -4.0220    -3.8810    -0.8050 N.4   1 <1>  -0.9590 
 14 C       -4.5100    -4.3720     0.5160 C.3   1 <1>   0.3430 
 15 C       -5.1360    -3.6170    -1.7550 C.3   1 <1>   0.3430 
 16 C       -5.4480    -3.3390     1.1280 C.3   1 <1>  -0.1600 
 17 C       -6.0670    -2.5600    -1.1680 C.3   1 <1>  -0.1600 
 18 C       -6.6220    -2.9870     0.2010 C.3   1 <1>   0.2800 
 19 O       -7.2110    -1.8650     0.7910 O.3   1 <1>  -0.5600 
 20 C       -7.6470    -4.1490     0.0890 C.3   1 <1>  -0.1600 
 21 C       -8.5080    -1.5170     0.3960 C.3   1 <1>   0.1200 
 22 C       -8.8430    -3.9770     1.0290 C.3   1 <1>   0.2800 
 23 C       -9.5090    -2.6200     0.7790 C.3   1 <1>  -0.1600 
 24 O       -8.3660    -3.9660     2.3120 O.3   1 <1>  -0.6800 
 25 C       -9.8320    -5.1360     0.9400 C.3   1 <1>  -0.2400 
 26 H       -1.2390    -2.8080    -0.9710 H     1 <1>   0.1500 
 27 H        1.2610    -4.7530     1.8810 H     1 <1>   0.1500 
 28 H       -0.0870    -6.7530     1.7110 H     1 <1>   0.1500 
 29 H       -3.4070    -5.7870    -1.4990 H     1 <1>   0.0800 
 30 H       -2.6970    -4.4430    -2.3590 H     1 <1>   0.0800 
 31 H       -3.2740    -7.0810     0.5280 H     1 <1>   0.0800 
 32 H       -1.8270    -7.9900     0.8420 H     1 <1>   0.0800 
 33 H       -2.2590    -7.6200    -0.7980 H     1 <1>   0.0800 
 34 H       -3.5410    -2.9920    -0.6180 H     1 <1>   0.4500 
 35 H       -3.6770    -4.5340     1.1830 H     1 <1>   0.0800 
 36 H       -5.0300    -5.3080     0.3930 H     1 <1>   0.0800 
 37 H       -5.6870    -4.5250    -1.9360 H     1 <1>   0.0800 
 38 H       -4.7440    -3.2630    -2.6960 H     1 <1>   0.0800 
 39 H       -4.8830    -2.4510     1.3510 H     1 <1>   0.0800 
 40 H       -5.8150    -3.7270     2.0610 H     1 <1>   0.0800 
 41 H       -6.8730    -2.3930    -1.8590 H     1 <1>   0.0800 
 42 H       -5.5280    -1.6350    -1.0660 H     1 <1>   0.0800 
 43 H       -7.1860    -5.1010     0.2720 H     1 <1>   0.0800 
 44 H       -8.0330    -4.1890    -0.9130 H     1 <1>   0.0800 
 45 H       -8.5110    -1.3480    -0.6670 H     1 <1>   0.0800 
 46 H       -8.7660    -0.5940     0.8860 H     1 <1>   0.0800 
 47 H      -10.2130    -2.7100    -0.0290 H     1 <1>   0.0800 
 48 H      -10.0760    -2.3230     1.6440 H     1 <1>   0.0800 
 49 H       -7.9150    -3.1050     2.4440 H     1 <1>   0.4000 
 50 H      -10.2380    -5.2080    -0.0520 H     1 <1>   0.0800 
 51 H      -10.6440    -4.9830     1.6280 H     1 <1>   0.0800 
 52 H       -9.3440    -6.0640     1.1780 H     1 <1>   0.0800 
@<TRIPOS>BOND
  1   1   2  1   
  2   2   3  1   
  3   2   4  1   
  4   2   5  1   
  5   5   6  ar  
  6   5   7  ar  
  7   6   8  ar  
  8   6  26  1   
  9   7   9  ar  
 10   7  27  1   
 11   8  10  ar  
 12   8  11  1   
 13   9  10  ar  
 14   9  28  1   
 15  10  12  1   
 16  11  13  1   
 17  11  29  1   
 18  11  30  1   
 19  12  31  1   
 20  12  32  1   
 21  12  33  1   
 22  13  14  1   
 23  13  15  1   
 24  13  34  1   
 25  14  16  1   
 26  14  35  1   
 27  14  36  1   
 28  15  17  1   
 29  15  37  1   
 30  15  38  1   
 31  16  18  1   
 32  16  39  1   
 33  16  40  1   
 34  17  18  1   
 35  17  41  1   
 36  17  42  1   
 37  18  19  1   
 38  18  20  1   
 39  19  21  1   
 40  20  22  1   
 41  20  43  1   
 42  20  44  1   
 43  21  23  1   
 44  21  45  1   
 45  21  46  1   
 46  22  23  1   
 47  22  24  1   
 48  22  25  1   
 49  23  47  1   
 50  23  48  1   
 51  24  49  1   
 52  25  50  1   
 53  25  51  1   
 54  25  52  1   
@<TRIPOS>SUBSTRUCTURE
  1 ****  14 GROUP 4 **** **** 0

# MOE 2024.06 (io_trps.svl 2023.06)
