@<TRIPOS>MOLECULE
NONAME
40 43 1 0 0 
SMALL
USER_CHARGES


@<TRIPOS>ATOM
  1 CL       0.7350     2.4950     0.7690 Cl    1 <1>  -0.1770 
  2 C       -0.9780     2.4490     0.4140 C.ar  1 <1>   0.1770 
  3 C       -1.4530     2.8780    -0.8220 C.ar  1 <1>  -0.1440 
  4 C       -1.8280     1.9920     1.4050 C.ar  1 <1>  -0.1500 
  5 C       -2.8220     2.8420    -1.0520 C.ar  1 <1>  -0.1500 
  6 C       -0.5220     3.3830    -1.9250 C.3   1 <1>   0.0450 
  7 C       -3.1890     1.9640     1.1640 C.ar  1 <1>   0.0830 
  8 C       -3.6860     2.3830    -0.0720 C.ar  1 <1>   0.0830 
  9 C       -0.2050     4.8640    -1.7980 C.2   1 <1>   0.5690 
 10 O       -4.0180     1.5310     2.1470 O.3   1 <1>  -0.3630 
 11 O       -5.0150     2.3450    -0.3410 O.3   1 <1>  -0.3630 
 12 O       -0.2970     5.5540    -2.7830 O.2   1 <1>  -0.5700 
 13 N        0.1950     5.3350    -0.5770 N.am  1 <1>  -0.4940 
 14 C       -5.3990     1.8010     1.9890 C.3   1 <1>   0.1200 
 15 C       -5.8240     1.5760     0.5310 C.3   1 <1>   0.1200 
 16 C        0.6250     6.6120    -0.1440 C.2   1 <1>  -0.0880 
 17 N        0.2690     7.8460    -0.6160 N.pl3 1 <1>   0.3140 
 18 C        1.4860     6.8430     0.8730 C.2   1 <1>  -0.1810 
 19 N        0.8860     8.8390     0.0770 N.2   1 <1>  -0.7070 
 20 C       -0.7130     8.1910    -1.6510 C.3   1 <1>   0.0160 
 21 C        1.6060     8.2140     0.9530 C.2   1 <1>   0.1080 
 22 C        2.2830     6.0160     1.8530 C.3   1 <1>   0.2510 
 23 C        2.5250     8.7680     2.0170 C.3   1 <1>   0.2510 
 24 S        3.1450     7.2700     2.8490 S.3   1 <1>  -0.4600 
 25 H       -1.4420     1.6660     2.3520 H     1 <1>   0.1500 
 26 H       -3.2350     3.1660    -1.9910 H     1 <1>   0.1500 
 27 H       -0.9810     3.2160    -2.8820 H     1 <1>   0.0800 
 28 H        0.4000     2.8320    -1.9230 H     1 <1>   0.0800 
 29 H        0.2720     4.6080     0.1370 H     1 <1>   0.3700 
 30 H       -5.5750     2.8230     2.2760 H     1 <1>   0.0800 
 31 H       -5.9420     1.1510     2.6500 H     1 <1>   0.0800 
 32 H       -5.7120     0.5400     0.2650 H     1 <1>   0.0800 
 33 H       -6.8470     1.8710     0.3810 H     1 <1>   0.0800 
 34 H       -1.5470     7.5170    -1.5900 H     1 <1>   0.0800 
 35 H       -0.2470     8.1110    -2.6150 H     1 <1>   0.0800 
 36 H       -1.0510     9.1980    -1.4970 H     1 <1>   0.0800 
 37 H        3.0240     5.4060     1.3680 H     1 <1>   0.0800 
 38 H        1.6580     5.4380     2.5090 H     1 <1>   0.0800 
 39 H        1.9960     9.3670     2.7350 H     1 <1>   0.0800 
 40 H        3.3590     9.2950     1.5930 H     1 <1>   0.0800 
@<TRIPOS>BOND
  1   1   2  1   
  2   2   3  ar  
  3   2   4  ar  
  4   3   5  ar  
  5   3   6  1   
  6   4   7  ar  
  7   4  25  1   
  8   5   8  ar  
  9   5  26  1   
 10   6   9  1   
 11   6  27  1   
 12   6  28  1   
 13   7   8  ar  
 14   7  10  1   
 15   8  11  1   
 16   9  12  2   
 17   9  13  am  
 18  10  14  1   
 19  11  15  1   
 20  13  16  1   
 21  13  29  1   
 22  14  15  1   
 23  14  30  1   
 24  14  31  1   
 25  15  32  1   
 26  15  33  1   
 27  16  17  1   
 28  16  18  2   
 29  17  19  1   
 30  17  20  1   
 31  18  21  1   
 32  18  22  1   
 33  19  21  2   
 34  20  34  1   
 35  20  35  1   
 36  20  36  1   
 37  21  23  1   
 38  22  24  1   
 39  22  37  1   
 40  22  38  1   
 41  23  24  1   
 42  23  39  1   
 43  23  40  1   
@<TRIPOS>SUBSTRUCTURE
  1 ****  13 GROUP 4 **** **** 0

# MOE 2024.06 (io_trps.svl 2023.06)
