@<TRIPOS>MOLECULE
NONAME
43 45 1 0 0 
SMALL
USER_CHARGES


@<TRIPOS>ATOM
  1 CL       2.2920     0.8220    -1.8080 Cl    1 <1>  -0.1770 
  2 C        1.1700     1.9750    -1.1210 C.ar  1 <1>   0.1770 
  3 C        1.3680     2.5250     0.1430 C.ar  1 <1>  -0.1440 
  4 C        0.0760     2.3180    -1.8960 C.ar  1 <1>  -0.1500 
  5 C        0.4320     3.4430     0.6060 C.ar  1 <1>  -0.1500 
  6 C        2.5540     2.1710     1.0390 C.3   1 <1>   0.3640 
  7 C       -0.8460     3.2290    -1.4160 C.ar  1 <1>  -0.1500 
  8 C       -0.6650     3.7910    -0.1650 C.ar  1 <1>  -0.1500 
  9 N        2.4890     0.7230     1.3530 N.am  1 <1>  -0.7300 
 10 C        3.9250     2.6140     0.4470 C.3   1 <1>   0.2610 
 11 C        3.5290    -0.1250     1.2010 C.2   1 <1>   0.5690 
 12 O        4.9990     1.8050     0.9210 O.3   1 <1>  -0.5600 
 13 C        4.1820     4.0880     0.7840 C.2   1 <1>   0.5690 
 14 O        3.4170    -1.2940     1.4700 O.2   1 <1>  -0.5700 
 15 C        4.8510     0.4250     0.6640 C.3   1 <1>   0.1810 
 16 O        3.3340     4.9150     0.5470 O.2   1 <1>  -0.5700 
 17 N        5.3690     4.4420     1.3480 N.am  1 <1>  -0.7300 
 18 C        5.7680     5.8080     1.7370 C.3   1 <1>   0.1400 
 19 C        6.7420     6.3560     0.6960 C.3   1 <1>  -0.1600 
 20 C        7.0890     7.8210     0.9930 C.3   1 <1>   0.0960 
 21 N        8.0580     8.3410     0.0100 N.pl3 1 <1>   0.3140 
 22 N        9.3650     8.4420     0.2680 N.2   1 <1>  -0.4180 
 23 C        7.8140     8.7740    -1.2280 C.2   1 <1>  -0.3020 
 24 N        9.9500     8.9260    -0.7730 N.2   1 <1>  -0.2270 
 25 C        9.0140     9.1370    -1.7040 C.2   1 <1>   0.0770 
 26 H       -0.0490     1.8740    -2.8670 H     1 <1>   0.1500 
 27 H        0.5500     3.9030     1.5730 H     1 <1>   0.1500 
 28 H        2.4350     2.6930     1.9730 H     1 <1>   0.0800 
 29 H       -1.7000     3.5030    -2.0130 H     1 <1>   0.1500 
 30 H       -1.3780     4.5060     0.2100 H     1 <1>   0.1500 
 31 H        1.5920     0.3430     1.6580 H     1 <1>   0.3700 
 32 H        3.9090     2.5300    -0.6230 H     1 <1>   0.0800 
 33 H        4.9050     0.2640    -0.3970 H     1 <1>   0.0800 
 34 H        5.6680    -0.0890     1.1370 H     1 <1>   0.0800 
 35 H        6.0450     3.6870     1.5140 H     1 <1>   0.3700 
 36 H        4.8930     6.4360     1.7890 H     1 <1>   0.0800 
 37 H        6.2280     5.7830     2.7110 H     1 <1>   0.0800 
 38 H        6.2860     6.2920    -0.2780 H     1 <1>   0.0800 
 39 H        7.6430     5.7670     0.7050 H     1 <1>   0.0800 
 40 H        7.5250     7.9080     1.9720 H     1 <1>   0.0800 
 41 H        6.2050     8.4310     0.9540 H     1 <1>   0.0800 
 42 H        6.8400     8.7960    -1.6790 H     1 <1>   0.1500 
 43 H        9.2610     9.5400    -2.6700 H     1 <1>   0.1500 
@<TRIPOS>BOND
  1   1   2  1   
  2   2   3  ar  
  3   2   4  ar  
  4   3   5  ar  
  5   3   6  1   
  6   4   7  ar  
  7   4  26  1   
  8   5   8  ar  
  9   5  27  1   
 10   6   9  1   
 11   6  10  1   
 12   6  28  1   
 13   7   8  ar  
 14   7  29  1   
 15   8  30  1   
 16   9  11  am  
 17   9  31  1   
 18  10  12  1   
 19  10  13  1   
 20  10  32  1   
 21  11  14  2   
 22  11  15  1   
 23  12  15  1   
 24  13  16  2   
 25  13  17  am  
 26  15  33  1   
 27  15  34  1   
 28  17  18  1   
 29  17  35  1   
 30  18  19  1   
 31  18  36  1   
 32  18  37  1   
 33  19  20  1   
 34  19  38  1   
 35  19  39  1   
 36  20  21  1   
 37  20  40  1   
 38  20  41  1   
 39  21  22  1   
 40  21  23  1   
 41  22  24  2   
 42  23  25  2   
 43  23  42  1   
 44  24  25  1   
 45  25  43  1   
@<TRIPOS>SUBSTRUCTURE
  1 ****  13 GROUP 4 **** **** 0

# MOE 2024.06 (io_trps.svl 2023.06)
