@<TRIPOS>MOLECULE
NONAME
52 55 1 0 0 
SMALL
USER_CHARGES


@<TRIPOS>ATOM
  1 O       -0.7140     0.1420     0.1870 O.2   1 <1>  -0.5700 
  2 C       -1.6710     0.8240     0.5050 C.2   1 <1>   0.7030 
  3 N       -2.8790     0.1920     0.7120 N.am  1 <1>  -0.6600 
  4 C       -1.5130     2.2640     0.6260 C.2   1 <1>   0.2770 
  5 C       -2.9490    -1.2770     1.0180 C.3   1 <1>   0.1400 
  6 C       -4.1770     0.7310     0.1970 C.3   1 <1>   0.1400 
  7 N       -0.6720     3.0490    -0.1760 N.pl3 1 <1>  -0.6290 
  8 C       -2.0990     3.1260     1.5070 C.2   1 <1>   0.1820 
  9 C       -3.5850    -2.0690    -0.1380 C.3   1 <1>   0.3440 
 10 C       -4.7360    -0.1650    -0.9340 C.3   1 <1>   0.2000 
 11 C       -0.7970     4.3200     0.2350 C.cat 1 <1>   0.9620 
 12 C        0.2090     2.7430    -1.1770 C.2   1 <1>   0.2290 
 13 N       -1.6590     4.3840     1.2370 N.pl3 1 <1>  -0.7000 
 14 C       -3.0650     2.8860     2.6550 C.3   1 <1>  -0.0720 
 15 O       -4.8130    -1.4880    -0.4910 O.3   1 <1>  -0.5600 
 16 C       -3.8060    -3.5220     0.2720 C.ar  1 <1>  -0.1440 
 17 C       -6.1370     0.2510    -1.4390 C.3   1 <1>  -0.0800 
 18 N       -0.1450     5.3600    -0.2840 N.2   1 <1>  -0.6120 
 19 C        0.9020     3.7720    -1.7280 C.2   1 <1>  -0.1360 
 20 C       -2.8300    -4.4690    -0.0050 C.ar  1 <1>  -0.1500 
 21 C       -4.9610    -3.9180     0.9340 C.ar  1 <1>  -0.1500 
 22 C       -6.1300     1.6520    -2.0710 C.3   1 <1>  -0.2400 
 23 C       -7.2340     0.1760    -0.3620 C.3   1 <1>  -0.2400 
 24 C        0.6830     5.0740    -1.2420 C.2   1 <1>   0.3760 
 25 C       -3.0040    -5.7890     0.3760 C.ar  1 <1>  -0.1500 
 26 C       -5.1360    -5.2370     1.3150 C.ar  1 <1>  -0.1500 
 27 C       -4.1570    -6.1730     1.0370 C.ar  1 <1>  -0.1500 
 28 H       -1.9680    -1.6750     1.2170 H     1 <1>   0.0800 
 29 H       -3.5420    -1.4270     1.9040 H     1 <1>   0.0800 
 30 H       -4.8860     0.7650     1.0050 H     1 <1>   0.0800 
 31 H       -4.0470     1.7290    -0.1790 H     1 <1>   0.0800 
 32 H       -2.9420    -2.0380    -1.0010 H     1 <1>   0.0800 
 33 H       -4.0580    -0.1420    -1.7710 H     1 <1>   0.0800 
 34 H        0.3270     1.7140    -1.4890 H     1 <1>   0.1500 
 35 H       -1.8720     5.2710     1.6960 H     1 <1>   0.4500 
 36 H       -3.2060     1.8360     2.8340 H     1 <1>   0.0800 
 37 H       -4.0180     3.3320     2.4370 H     1 <1>   0.0800 
 38 H       -2.6770     3.3270     3.5570 H     1 <1>   0.0800 
 39 H       -6.3990    -0.4460    -2.2190 H     1 <1>   0.0800 
 40 H        1.6130     3.6210    -2.5200 H     1 <1>   0.1500 
 41 H       -1.9270    -4.1880    -0.5180 H     1 <1>   0.1500 
 42 H       -5.7320    -3.1990     1.1510 H     1 <1>   0.1500 
 43 H       -5.9540     2.4150    -1.3350 H     1 <1>   0.0800 
 44 H       -7.0830     1.8480    -2.5320 H     1 <1>   0.0800 
 45 H       -5.3750     1.7170    -2.8350 H     1 <1>   0.0800 
 46 H       -7.0750     0.9010     0.4150 H     1 <1>   0.0800 
 47 H       -7.2580    -0.8050     0.0790 H     1 <1>   0.0800 
 48 H       -8.1970     0.3610    -0.8050 H     1 <1>   0.0800 
 49 H        1.2390     5.8770    -1.6940 H     1 <1>   0.0600 
 50 H       -2.2430    -6.5170     0.1570 H     1 <1>   0.1500 
 51 H       -6.0350    -5.5330     1.8260 H     1 <1>   0.1500 
 52 H       -4.2930    -7.1990     1.3320 H     1 <1>   0.1500 
@<TRIPOS>BOND
  1   1   2  2   
  2   2   3  am  
  3   2   4  1   
  4   3   5  1   
  5   3   6  1   
  6   4   7  1   
  7   4   8  2   
  8   5   9  1   
  9   5  28  1   
 10   5  29  1   
 11   6  10  1   
 12   6  30  1   
 13   6  31  1   
 14   7  11  ar  
 15   7  12  1   
 16   8  13  1   
 17   8  14  1   
 18   9  15  1   
 19   9  16  1   
 20   9  32  1   
 21  10  15  1   
 22  10  17  1   
 23  10  33  1   
 24  11  13  ar  
 25  11  18  1   
 26  12  19  2   
 27  12  34  1   
 28  13  35  1   
 29  14  36  1   
 30  14  37  1   
 31  14  38  1   
 32  16  20  ar  
 33  16  21  ar  
 34  17  22  1   
 35  17  23  1   
 36  17  39  1   
 37  18  24  2   
 38  19  24  1   
 39  19  40  1   
 40  20  25  ar  
 41  20  41  1   
 42  21  26  ar  
 43  21  42  1   
 44  22  43  1   
 45  22  44  1   
 46  22  45  1   
 47  23  46  1   
 48  23  47  1   
 49  23  48  1   
 50  24  49  1   
 51  25  27  ar  
 52  25  50  1   
 53  26  27  ar  
 54  26  51  1   
 55  27  52  1   
@<TRIPOS>SUBSTRUCTURE
  1 ****   3 GROUP 4 **** **** 0

# MOE 2024.06 (io_trps.svl 2023.06)
