@<TRIPOS>MOLECULE
NONAME
41 43 1 0 0 
SMALL
USER_CHARGES


@<TRIPOS>ATOM
  1 CL      -1.4840    -0.6910    -1.8190 Cl    1 <1>  -0.1770 
  2 C       -2.2090     0.5040    -0.7600 C.ar  1 <1>   0.1770 
  3 C       -2.1230     1.8480    -1.0970 C.ar  1 <1>   0.0820 
  4 C       -2.8700     0.0910     0.3880 C.ar  1 <1>  -0.1440 
  5 O       -1.4840     2.2530    -2.2100 O.3   1 <1>  -0.5320 
  6 C       -2.7060     2.7960    -0.2750 C.ar  1 <1>  -0.1500 
  7 C       -3.4460     1.0530     1.2090 C.ar  1 <1>  -0.1500 
  8 C       -2.9570    -1.3810     0.7360 C.3   1 <1>   0.4860 
  9 C       -3.3650     2.3970     0.8760 C.ar  1 <1>  -0.1500 
 10 N       -3.8710    -2.0520    -0.2280 N.4   1 <1>  -0.9590 
 11 C       -5.2710    -1.5260    -0.2030 C.3   1 <1>   0.3430 
 12 C       -3.9290    -3.5350    -0.0530 C.3   1 <1>   0.3430 
 13 C       -6.1520    -2.7270    -0.5430 C.3   1 <1>   0.2000 
 14 C       -5.4090    -3.9290     0.0260 C.3   1 <1>  -0.0800 
 15 O       -7.4140    -2.6230     0.0200 O.3   1 <1>  -0.6800 
 16 C       -5.7400    -5.2380    -0.7180 C.3   1 <1>  -0.0170 
 17 C       -5.0230    -6.4420    -0.1210 C.ar  1 <1>   0.1670 
 18 N       -3.6990    -6.4270    -0.1770 N.ar  1 <1>  -0.6200 
 19 C       -5.7580    -7.4860     0.4390 C.ar  1 <1>   0.1600 
 20 C       -3.1680    -7.5240     0.3460 C.ar  1 <1>   0.1600 
 21 N       -5.2270    -8.5710     0.9750 N.ar  1 <1>  -0.6200 
 22 C       -3.9080    -8.5590     0.9040 C.ar  1 <1>   0.1600 
 23 H       -1.0560     1.5270    -2.7050 H     1 <1>   0.4500 
 24 H       -2.6390     3.8380    -0.5370 H     1 <1>   0.1500 
 25 H       -3.9610     0.7770     2.1150 H     1 <1>   0.1500 
 26 H       -3.3240    -1.5000     1.7430 H     1 <1>   0.0800 
 27 H       -1.9740    -1.8190     0.6780 H     1 <1>   0.0800 
 28 H       -3.8130     3.1410     1.5150 H     1 <1>   0.1500 
 29 H       -3.4810    -1.8660    -1.1650 H     1 <1>   0.4500 
 30 H       -5.5150    -1.1770     0.7860 H     1 <1>   0.0800 
 31 H       -5.4040    -0.7270    -0.9140 H     1 <1>   0.0800 
 32 H       -3.4680    -4.0200    -0.9000 H     1 <1>   0.0800 
 33 H       -3.4140    -3.8540     0.8390 H     1 <1>   0.0800 
 34 H       -6.2680    -2.7980    -1.6120 H     1 <1>   0.0800 
 35 H       -5.6510    -4.0480     1.0680 H     1 <1>   0.0800 
 36 H       -7.4190    -2.7630     0.9880 H     1 <1>   0.4000 
 37 H       -5.4610    -5.1560    -1.7540 H     1 <1>   0.0800 
 38 H       -6.8040    -5.4010    -0.6870 H     1 <1>   0.0800 
 39 H       -6.8330    -7.4280     0.4450 H     1 <1>   0.1500 
 40 H       -2.0960    -7.6120     0.3340 H     1 <1>   0.1500 
 41 H       -3.3870    -9.4110     1.3070 H     1 <1>   0.1500 
@<TRIPOS>BOND
  1   1   2  1   
  2   2   3  ar  
  3   2   4  ar  
  4   3   5  1   
  5   3   6  ar  
  6   4   7  ar  
  7   4   8  1   
  8   5  23  1   
  9   6   9  ar  
 10   6  24  1   
 11   7   9  ar  
 12   7  25  1   
 13   8  10  1   
 14   8  26  1   
 15   8  27  1   
 16   9  28  1   
 17  10  11  1   
 18  10  12  1   
 19  10  29  1   
 20  11  13  1   
 21  11  30  1   
 22  11  31  1   
 23  12  14  1   
 24  12  32  1   
 25  12  33  1   
 26  13  14  1   
 27  13  15  1   
 28  13  34  1   
 29  14  16  1   
 30  14  35  1   
 31  15  36  1   
 32  16  17  1   
 33  16  37  1   
 34  16  38  1   
 35  17  18  ar  
 36  17  19  ar  
 37  18  20  ar  
 38  19  21  ar  
 39  19  39  1   
 40  20  22  ar  
 41  20  40  1   
 42  21  22  ar  
 43  22  41  1   
@<TRIPOS>SUBSTRUCTURE
  1 ****  10 GROUP 4 **** **** 0

# MOE 2024.06 (io_trps.svl 2023.06)
