@<TRIPOS>MOLECULE
NONAME
31 32 1 0 0 
SMALL
USER_CHARGES


@<TRIPOS>ATOM
  1 O        3.7210    -0.8500     0.6610 O.2   1 <1>  -0.5700 
  2 C        2.6090    -1.0010     0.1960 C.2   1 <1>   0.7160 
  3 N        1.9840     0.0440    -0.4100 N.am  1 <1>  -0.4930 
  4 C        1.9480    -2.2790     0.2450 C.2   1 <1>  -0.0860 
  5 C        2.3310     1.3910    -0.5940 C.2   1 <1>   0.3520 
  6 C        0.6380    -2.6730     0.1620 C.2   1 <1>  -0.3320 
  7 C        2.6350    -3.4860     0.3930 C.2   1 <1>   0.1390 
  8 N        1.5510     2.1410    -1.2690 N.2   1 <1>  -0.4100 
  9 C        3.4240     2.1670    -0.1650 C.2   1 <1>   0.3520 
 10 N        0.6230    -4.0200     0.2370 N.pl3 1 <1>   0.3140 
 11 C       -0.6350    -1.8420     0.0350 C.3   1 <1>  -0.0600 
 12 N        1.8560    -4.5180     0.3810 N.2   1 <1>  -0.7070 
 13 O        2.1350     3.3000    -1.2540 O.3   1 <1>   0.2420 
 14 N        3.2560     3.3550    -0.6040 N.2   1 <1>  -0.4100 
 15 N        4.5260     1.7570     0.6080 N.am  1 <1>  -0.4930 
 16 C       -0.5410    -4.9170     0.1960 C.3   1 <1>   0.0160 
 17 C        5.5910     2.4220     1.1230 C.2   1 <1>   0.5690 
 18 O        6.4190     1.8200     1.7560 O.2   1 <1>  -0.5700 
 19 C        5.7820     3.9100     0.9360 C.3   1 <1>  -0.1790 
 20 H        1.1070    -0.2060    -0.8600 H     1 <1>   0.3700 
 21 H        3.7050    -3.5540     0.5020 H     1 <1>   0.1500 
 22 H       -0.4560    -0.8070     0.2630 H     1 <1>   0.0800 
 23 H       -1.3780    -2.1970     0.7270 H     1 <1>   0.0800 
 24 H       -1.0300    -1.9170    -0.9630 H     1 <1>   0.0800 
 25 H        4.5440     0.7520     0.8260 H     1 <1>   0.3700 
 26 H       -1.1660    -4.6550    -0.6360 H     1 <1>   0.0800 
 27 H       -1.0880    -4.8250     1.1150 H     1 <1>   0.0800 
 28 H       -0.1990    -5.9300     0.0820 H     1 <1>   0.0800 
 29 H        4.9400     4.4400     1.3400 H     1 <1>   0.0800 
 30 H        5.8840     4.1360    -0.1080 H     1 <1>   0.0800 
 31 H        6.6700     4.2300     1.4480 H     1 <1>   0.0800 
@<TRIPOS>BOND
  1   1   2  2   
  2   2   3  am  
  3   2   4  1   
  4   3   5  1   
  5   3  20  1   
  6   4   6  2   
  7   4   7  1   
  8   5   8  2   
  9   5   9  1   
 10   6  10  1   
 11   6  11  1   
 12   7  12  2   
 13   7  21  1   
 14   8  13  1   
 15   9  14  2   
 16   9  15  1   
 17  10  12  1   
 18  10  16  1   
 19  11  22  1   
 20  11  23  1   
 21  11  24  1   
 22  13  14  1   
 23  15  17  am  
 24  15  25  1   
 25  16  26  1   
 26  16  27  1   
 27  16  28  1   
 28  17  18  2   
 29  17  19  1   
 30  19  29  1   
 31  19  30  1   
 32  19  31  1   
@<TRIPOS>SUBSTRUCTURE
  1 ****   2 GROUP 4 **** **** 0

# MOE 2024.06 (io_trps.svl 2023.06)
