@<TRIPOS>MOLECULE
NONAME
54 55 1 0 0 
SMALL
USER_CHARGES


@<TRIPOS>ATOM
  1 S        1.1310     2.9670     0.0930 S.o2  1 <1>   1.3330 
  2 O        0.3220     1.8630    -0.3730 O.2   1 <1>  -0.6500 
  3 O        0.7000     4.3200    -0.1740 O.2   1 <1>  -0.6500 
  4 N        1.2880     2.8140     1.7770 N.am  1 <1>  -0.8490 
  5 C        2.8010     2.7310    -0.5210 C.3   1 <1>  -0.0550 
  6 C        1.9090     3.9840     2.4100 C.3   1 <1>   0.1160 
  7 C        0.0020     2.5280     2.4180 C.3   1 <1>   0.1160 
  8 C        3.3050     1.2760    -0.4400 C.3   1 <1>  -0.0800 
  9 C        4.6790     1.0430    -1.0480 C.3   1 <1>   0.2200 
 10 C        3.4660     0.7180     0.9790 C.3   1 <1>   0.1200 
 11 N        5.6220     2.1120    -0.6470 N.am  1 <1>  -0.7300 
 12 C        5.0760    -0.2460    -0.3420 C.3   1 <1>   0.1200 
 13 O        4.5950    -0.1090     0.9610 O.3   1 <1>  -0.5600 
 14 C        6.2020     3.0270    -1.4710 C.2   1 <1>   0.5690 
 15 O        5.8800     3.0940    -2.6360 O.2   1 <1>  -0.5700 
 16 C        7.2930     3.9740    -0.8960 C.3   1 <1>   0.3410 
 17 O        6.9010     4.4840     0.3760 O.3   1 <1>  -0.3630 
 18 C        8.5650     3.1610    -0.6140 C.3   1 <1>  -0.2400 
 19 C        7.6850     5.1550    -1.8090 C.3   1 <1>  -0.2400 
 20 C        5.8040     5.2440     0.6410 C.ar  1 <1>   0.0820 
 21 C        4.8170     5.5780    -0.2840 C.ar  1 <1>  -0.1500 
 22 C        5.6900     5.7040     1.9430 C.ar  1 <1>  -0.1500 
 23 C        3.7390     6.3630     0.0910 C.ar  1 <1>  -0.1440 
 24 C        4.6170     6.4910     2.3210 C.ar  1 <1>  -0.1500 
 25 C        3.6440     6.8220     1.3950 C.ar  1 <1>  -0.1500 
 26 C        2.6700     6.7290    -0.9240 C.3   1 <1>  -0.0970 
 27 H        2.8310     3.0360    -1.5490 H     1 <1>   0.0800 
 28 H        3.4650     3.3700     0.0220 H     1 <1>   0.0800 
 29 H        2.0220     3.8170     3.4670 H     1 <1>   0.0800 
 30 H        1.3050     4.8630     2.2570 H     1 <1>   0.0800 
 31 H        2.8850     4.1600     1.9940 H     1 <1>   0.0800 
 32 H        0.1320     2.4130     3.4810 H     1 <1>   0.0800 
 33 H       -0.4080     1.6120     2.0280 H     1 <1>   0.0800 
 34 H       -0.6960     3.3270     2.2300 H     1 <1>   0.0800 
 35 H        2.6040     0.6450    -0.9580 H     1 <1>   0.0800 
 36 H        4.6530     0.9340    -2.1200 H     1 <1>   0.0800 
 37 H        2.6100     0.1400     1.2830 H     1 <1>   0.0800 
 38 H        3.6510     1.4980     1.6970 H     1 <1>   0.0800 
 39 H        5.8680     2.1070     0.3480 H     1 <1>   0.3700 
 40 H        6.1410    -0.4020    -0.3230 H     1 <1>   0.0800 
 41 H        4.5860    -1.0940    -0.7880 H     1 <1>   0.0800 
 42 H        8.9350     2.7300    -1.5270 H     1 <1>   0.0800 
 43 H        8.3560     2.3620     0.0750 H     1 <1>   0.0800 
 44 H        9.3310     3.7900    -0.1980 H     1 <1>   0.0800 
 45 H        8.1120     4.7800    -2.7210 H     1 <1>   0.0800 
 46 H        8.4120     5.7790    -1.3220 H     1 <1>   0.0800 
 47 H        6.8370     5.7530    -2.0770 H     1 <1>   0.0800 
 48 H        4.8640     5.2390    -1.3000 H     1 <1>   0.1500 
 49 H        6.4510     5.4480     2.6580 H     1 <1>   0.1500 
 50 H        4.5430     6.8510     3.3330 H     1 <1>   0.1500 
 51 H        2.8140     7.4390     1.6900 H     1 <1>   0.1500 
 52 H        1.7190     6.8600    -0.4390 H     1 <1>   0.0800 
 53 H        2.5650     5.9530    -1.6600 H     1 <1>   0.0800 
 54 H        2.9360     7.6450    -1.4200 H     1 <1>   0.0800 
@<TRIPOS>BOND
  1   1   2  2   
  2   1   3  2   
  3   1   4  am  
  4   1   5  1   
  5   4   6  1   
  6   4   7  1   
  7   5   8  1   
  8   5  27  1   
  9   5  28  1   
 10   6  29  1   
 11   6  30  1   
 12   6  31  1   
 13   7  32  1   
 14   7  33  1   
 15   7  34  1   
 16   8   9  1   
 17   8  10  1   
 18   8  35  1   
 19   9  11  1   
 20   9  12  1   
 21   9  36  1   
 22  10  13  1   
 23  10  37  1   
 24  10  38  1   
 25  11  14  am  
 26  11  39  1   
 27  12  13  1   
 28  12  40  1   
 29  12  41  1   
 30  14  15  2   
 31  14  16  1   
 32  16  17  1   
 33  16  18  1   
 34  16  19  1   
 35  17  20  1   
 36  18  42  1   
 37  18  43  1   
 38  18  44  1   
 39  19  45  1   
 40  19  46  1   
 41  19  47  1   
 42  20  21  ar  
 43  20  22  ar  
 44  21  23  ar  
 45  21  48  1   
 46  22  24  ar  
 47  22  49  1   
 48  23  25  ar  
 49  23  26  1   
 50  24  25  ar  
 51  24  50  1   
 52  25  51  1   
 53  26  52  1   
 54  26  53  1   
 55  26  54  1   
@<TRIPOS>SUBSTRUCTURE
  1 ****   5 GROUP 4 **** **** 0

# MOE 2024.06 (io_trps.svl 2023.06)
