@<TRIPOS>MOLECULE
NONAME
46 49 1 0 0 
SMALL
USER_CHARGES


@<TRIPOS>ATOM
  1 S        0.2450     0.4480     0.6010 S.3   1 <1>  -0.2860 
  2 C        1.3070     1.8420     0.8130 C.2   1 <1>   0.2420 
  3 C       -0.6470     1.1930    -0.8360 C.3   1 <1>   0.0700 
  4 N        2.2460     2.0690     1.6650 N.2   1 <1>  -0.5650 
  5 N        1.0620     2.7960    -0.0830 N.pl3 1 <1>   0.0480 
  6 C        0.0030     2.5770    -1.0910 C.3   1 <1>   0.0960 
  7 C        2.6640     3.3020     1.2890 C.2   1 <1>   0.0460 
  8 C        1.9510     3.7600     0.2230 C.2   1 <1>  -0.3020 
  9 C        3.8020     3.9820     2.0410 C.3   1 <1>   0.3900 
 10 N        3.9020     5.4270     1.6760 N.pl3 1 <1>  -0.8690 
 11 C        4.8710     6.0120     0.9430 C.ar  1 <1>   0.4100 
 12 N        5.8560     5.2450     0.5280 N.ar  1 <1>  -0.6200 
 13 C        4.8150     7.3930     0.6410 C.ar  1 <1>  -0.1430 
 14 C        6.8240     5.7920    -0.1880 C.ar  1 <1>   0.7710 
 15 C        5.8320     7.9310    -0.0830 C.ar  1 <1>   0.2180 
 16 C        3.6420     8.2470     1.1310 C.3   1 <1>  -0.0160 
 17 N        6.8210     7.1000    -0.4890 N.ar  1 <1>  -0.1790 
 18 N        7.8480     5.0130    -0.6380 N.pl3 1 <1>  -0.8380 
 19 C        5.9170     9.4050    -0.4690 C.3   1 <1>  -0.0170 
 20 C        3.5690     9.6110     0.4290 C.3   1 <1>  -0.1600 
 21 C        7.8070     3.5200    -0.4730 C.3   1 <1>   0.1290 
 22 C        9.1280     5.4740    -1.2630 C.3   1 <1>   0.1290 
 23 C        4.9500    10.2690     0.3510 C.3   1 <1>  -0.1600 
 24 H       -1.6840     1.2780    -0.5670 H     1 <1>   0.0800 
 25 H       -0.5290     0.5300    -1.6740 H     1 <1>   0.0800 
 26 H       -0.7300     3.3580    -1.0050 H     1 <1>   0.0800 
 27 H        0.4430     2.6090    -2.0710 H     1 <1>   0.0800 
 28 H        2.0340     4.6860    -0.3140 H     1 <1>   0.1500 
 29 H        4.7190     3.4610     1.8280 H     1 <1>   0.0800 
 30 H        3.6170     3.9000     3.0970 H     1 <1>   0.0800 
 31 H        3.0770     5.9520     1.9660 H     1 <1>   0.4000 
 32 H        3.7480     8.3990     2.1920 H     1 <1>   0.0800 
 33 H        2.7110     7.7320     0.9630 H     1 <1>   0.0800 
 34 H        7.5940     7.4120    -1.0590 H     1 <1>   0.4570 
 35 H        5.6760     9.5030    -1.5130 H     1 <1>   0.0800 
 36 H        6.9170     9.7740    -0.3190 H     1 <1>   0.0800 
 37 H        2.8890    10.2520     0.9660 H     1 <1>   0.0800 
 38 H        3.1760     9.4820    -0.5660 H     1 <1>   0.0800 
 39 H        6.7940     3.1580    -0.4190 H     1 <1>   0.0800 
 40 H        8.3210     3.2380     0.4300 H     1 <1>   0.0800 
 41 H        8.2820     3.0380    -1.3110 H     1 <1>   0.0800 
 42 H        9.3160     6.5150    -1.0730 H     1 <1>   0.0800 
 43 H        9.0980     5.3030    -2.3260 H     1 <1>   0.0800 
 44 H        9.9530     4.9140    -0.8530 H     1 <1>   0.0800 
 45 H        4.8650    11.2450    -0.0980 H     1 <1>   0.0800 
 46 H        5.3360    10.4000     1.3490 H     1 <1>   0.0800 
@<TRIPOS>BOND
  1   1   2  1   
  2   1   3  1   
  3   2   4  2   
  4   2   5  1   
  5   3   6  1   
  6   3  24  1   
  7   3  25  1   
  8   4   7  1   
  9   5   6  1   
 10   5   8  1   
 11   6  26  1   
 12   6  27  1   
 13   7   8  2   
 14   7   9  1   
 15   8  28  1   
 16   9  10  1   
 17   9  29  1   
 18   9  30  1   
 19  10  11  1   
 20  10  31  1   
 21  11  12  ar  
 22  11  13  ar  
 23  12  14  ar  
 24  13  15  ar  
 25  13  16  1   
 26  14  17  ar  
 27  14  18  1   
 28  15  17  ar  
 29  15  19  1   
 30  16  20  1   
 31  16  32  1   
 32  16  33  1   
 33  17  34  1   
 34  18  21  1   
 35  18  22  1   
 36  19  23  1   
 37  19  35  1   
 38  19  36  1   
 39  20  23  1   
 40  20  37  1   
 41  20  38  1   
 42  21  39  1   
 43  21  40  1   
 44  21  41  1   
 45  22  42  1   
 46  22  43  1   
 47  22  44  1   
 48  23  45  1   
 49  23  46  1   
@<TRIPOS>SUBSTRUCTURE
  1 ****  11 GROUP 4 **** **** 0

# MOE 2024.06 (io_trps.svl 2023.06)
