@<TRIPOS>MOLECULE
NONAME
50 54 1 0 0 
SMALL
USER_CHARGES


@<TRIPOS>ATOM
  1 O       -0.5670    -0.0640     0.0360 O.2   1 <1>  -0.5700 
  2 C       -1.6070     0.5750    -0.0370 C.2   1 <1>   0.7160 
  3 N       -2.7470    -0.1350    -0.3720 N.am  1 <1>  -0.6600 
  4 C       -1.5960     2.0190     0.2190 C.2   1 <1>   0.2030 
  5 C       -4.0810     0.4480    -0.6540 C.3   1 <1>   0.1400 
  6 C       -2.7580    -1.6020    -0.5720 C.3   1 <1>   0.1400 
  7 N       -2.6470     2.8120     0.4020 N.2   1 <1>  -0.7070 
  8 C       -0.4230     2.7860     0.3170 C.2   1 <1>  -0.1810 
  9 C       -4.9180    -0.7170    -1.1840 C.3   1 <1>   0.2000 
 10 C       -4.2360    -1.9810    -0.6630 C.3   1 <1>  -0.0800 
 11 N       -2.1520     4.0420     0.6130 N.pl3 1 <1>   0.3000 
 12 C       -0.8100     4.0420     0.5730 C.2   1 <1>  -0.3320 
 13 C        1.0430     2.3950     0.1840 C.3   1 <1>   0.3010 
 14 O       -6.2240    -0.6630    -0.7240 O.3   1 <1>  -0.6800 
 15 C       -4.5020    -3.2110    -1.5450 C.3   1 <1>  -0.0170 
 16 C        0.1750     5.1770     0.7550 C.3   1 <1>   0.0200 
 17 O        1.8320     3.5540     0.0390 O.3   1 <1>  -0.5600 
 18 C       -3.8110    -4.4490    -0.9830 C.ar  1 <1>  -0.1440 
 19 C        1.5800     4.5770     0.9690 C.3   1 <1>   0.1200 
 20 C       -4.3260    -5.1670     0.1230 C.ar  1 <1>   0.0000 
 21 C       -2.6490    -4.8980    -1.5400 C.ar  1 <1>  -0.1500 
 22 C       -3.5880    -6.2840     0.5830 C.ar  1 <1>   0.3100 
 23 C       -5.5270    -4.8440     0.7970 C.ar  1 <1>  -0.1500 
 24 C       -2.0020    -6.0210    -1.0120 C.ar  1 <1>   0.1600 
 25 N       -2.4310    -6.6980     0.0050 N.ar  1 <1>  -0.6200 
 26 C       -4.0660    -7.0070     1.6870 C.ar  1 <1>  -0.1500 
 27 C       -5.9670    -5.5720     1.8690 C.ar  1 <1>  -0.1500 
 28 C       -5.2280    -6.6660     2.3240 C.ar  1 <1>  -0.1500 
 29 H       -4.4950     0.8400     0.2590 H     1 <1>   0.0800 
 30 H       -4.0020     1.2310    -1.3890 H     1 <1>   0.0800 
 31 H       -2.2410    -1.8300    -1.4880 H     1 <1>   0.0800 
 32 H       -2.2710    -2.1060     0.2470 H     1 <1>   0.0800 
 33 H       -4.9340    -0.6940    -2.2600 H     1 <1>   0.0800 
 34 H       -4.5690    -2.1730     0.3410 H     1 <1>   0.0800 
 35 H       -2.7500     4.8600     0.7810 H     1 <1>   0.2700 
 36 H        1.1960     1.7830    -0.6880 H     1 <1>   0.0800 
 37 H        1.3740     1.8580     1.0560 H     1 <1>   0.0800 
 38 H       -6.2360    -0.5980     0.2510 H     1 <1>   0.4000 
 39 H       -4.1440    -3.0190    -2.5420 H     1 <1>   0.0800 
 40 H       -5.5600    -3.3870    -1.6260 H     1 <1>   0.0800 
 41 H       -0.0890     5.7800     1.6050 H     1 <1>   0.0800 
 42 H        0.1820     5.8010    -0.1210 H     1 <1>   0.0800 
 43 H        1.6660     4.1580     1.9570 H     1 <1>   0.0800 
 44 H        2.3350     5.3320     0.8420 H     1 <1>   0.0800 
 45 H       -2.2000    -4.4080    -2.3840 H     1 <1>   0.1500 
 46 H       -6.1140    -4.0100     0.4620 H     1 <1>   0.1500 
 47 H       -1.0870    -6.3420    -1.4810 H     1 <1>   0.1500 
 48 H       -3.4820    -7.8460     2.0170 H     1 <1>   0.1500 
 49 H       -6.8830    -5.3140     2.3730 H     1 <1>   0.1500 
 50 H       -5.5830    -7.2300     3.1690 H     1 <1>   0.1500 
@<TRIPOS>BOND
  1   1   2  2   
  2   2   3  am  
  3   2   4  1   
  4   3   5  1   
  5   3   6  1   
  6   4   7  2   
  7   4   8  1   
  8   5   9  1   
  9   5  29  1   
 10   5  30  1   
 11   6  10  1   
 12   6  31  1   
 13   6  32  1   
 14   7  11  1   
 15   8  12  2   
 16   8  13  1   
 17   9  10  1   
 18   9  14  1   
 19   9  33  1   
 20  10  15  1   
 21  10  34  1   
 22  11  12  1   
 23  11  35  1   
 24  12  16  1   
 25  13  17  1   
 26  13  36  1   
 27  13  37  1   
 28  14  38  1   
 29  15  18  1   
 30  15  39  1   
 31  15  40  1   
 32  16  19  1   
 33  16  41  1   
 34  16  42  1   
 35  17  19  1   
 36  18  20  ar  
 37  18  21  ar  
 38  19  43  1   
 39  19  44  1   
 40  20  22  ar  
 41  20  23  ar  
 42  21  24  ar  
 43  21  45  1   
 44  22  25  ar  
 45  22  26  ar  
 46  23  27  ar  
 47  23  46  1   
 48  24  25  ar  
 49  24  47  1   
 50  26  28  ar  
 51  26  48  1   
 52  27  28  ar  
 53  27  49  1   
 54  28  50  1   
@<TRIPOS>SUBSTRUCTURE
  1 ****   6 GROUP 4 **** **** 0

# MOE 2024.06 (io_trps.svl 2023.06)
