@<TRIPOS>MOLECULE
NONAME
42 44 1 0 0 
SMALL
USER_CHARGES


@<TRIPOS>ATOM
  1 CL      -0.1610    -1.0760     2.8650 Cl    1 <1>  -0.1770 
  2 C       -1.5130    -1.5990     1.8920 C.ar  1 <1>   0.1770 
  3 C       -1.8910    -2.9260     1.9160 C.ar  1 <1>  -0.1500 
  4 C       -2.1820    -0.6730     1.1140 C.ar  1 <1>  -0.1500 
  5 C       -2.9630    -3.3450     1.1450 C.ar  1 <1>   0.0830 
  6 C       -3.2550    -1.0880     0.3420 C.ar  1 <1>  -0.1500 
  7 O       -3.2830    -4.6600     1.2130 O.3   1 <1>  -0.3630 
  8 C       -3.6450    -2.4180     0.3560 C.ar  1 <1>  -0.1500 
  9 C       -4.3590    -5.1960     0.4790 C.3   1 <1>   0.1200 
 10 C       -4.4480    -6.6910     0.7830 C.3   1 <1>  -0.1600 
 11 C       -5.5790    -7.3420    -0.0180 C.3   1 <1>   0.1100 
 12 N       -5.7850    -8.7320     0.4090 N.3   1 <1>  -0.8100 
 13 C       -7.1270    -9.2180    -0.0060 C.3   1 <1>   0.2900 
 14 C       -4.7250    -9.6290    -0.0870 C.3   1 <1>   0.0300 
 15 C       -7.4790   -10.6030     0.5320 C.2   1 <1>   0.2980 
 16 O       -7.5800   -10.7690     1.8250 O.3   1 <1>  -0.0190 
 17 N       -7.6980   -11.6390    -0.1700 N.2   1 <1>  -0.5650 
 18 N       -7.8900   -12.0230     1.9600 N.2   1 <1>  -0.4100 
 19 C       -7.9570   -12.5400     0.7850 C.2   1 <1>   0.5150 
 20 C       -8.2720   -13.9260     0.5080 C.2   1 <1>   0.1410 
 21 O       -8.3260   -14.3910    -0.7380 O.3   1 <1>  -0.2800 
 22 C       -8.5510   -14.9480     1.3620 C.2   1 <1>  -0.1500 
 23 C       -8.6310   -15.6720    -0.6970 C.2   1 <1>  -0.0100 
 24 C       -8.7840   -16.0810     0.5790 C.2   1 <1>  -0.1500 
 25 H       -1.3590    -3.6310     2.5270 H     1 <1>   0.1500 
 26 H       -1.8650     0.3550     1.1150 H     1 <1>   0.1500 
 27 H       -3.7840    -0.3770    -0.2690 H     1 <1>   0.1500 
 28 H       -4.4800    -2.7120    -0.2520 H     1 <1>   0.1500 
 29 H       -4.1680    -5.0300    -0.5680 H     1 <1>   0.0800 
 30 H       -5.2600    -4.6910     0.7810 H     1 <1>   0.0800 
 31 H       -4.6400    -6.8240     1.8330 H     1 <1>   0.0800 
 32 H       -3.5080    -7.1460     0.5320 H     1 <1>   0.0800 
 33 H       -5.3650    -7.3040    -1.0740 H     1 <1>   0.0800 
 34 H       -6.4810    -6.7810     0.1640 H     1 <1>   0.0800 
 35 H       -7.1830    -9.2420    -1.0810 H     1 <1>   0.0800 
 36 H       -7.8760    -8.5340     0.3510 H     1 <1>   0.0800 
 37 H       -3.7630    -9.3090     0.2710 H     1 <1>   0.0800 
 38 H       -4.7120    -9.6440    -1.1640 H     1 <1>   0.0800 
 39 H       -4.8840   -10.6320     0.2720 H     1 <1>   0.0800 
 40 H       -8.5890   -14.9070     2.4360 H     1 <1>   0.1500 
 41 H       -8.7180   -16.2150    -1.6220 H     1 <1>   0.1500 
 42 H       -9.0320   -17.0610     0.9470 H     1 <1>   0.1500 
@<TRIPOS>BOND
  1   1   2  1   
  2   2   3  ar  
  3   2   4  ar  
  4   3   5  ar  
  5   3  25  1   
  6   4   6  ar  
  7   4  26  1   
  8   5   7  1   
  9   5   8  ar  
 10   6   8  ar  
 11   6  27  1   
 12   7   9  1   
 13   8  28  1   
 14   9  10  1   
 15   9  29  1   
 16   9  30  1   
 17  10  11  1   
 18  10  31  1   
 19  10  32  1   
 20  11  12  1   
 21  11  33  1   
 22  11  34  1   
 23  12  13  1   
 24  12  14  1   
 25  13  15  1   
 26  13  35  1   
 27  13  36  1   
 28  14  37  1   
 29  14  38  1   
 30  14  39  1   
 31  15  16  1   
 32  15  17  2   
 33  16  18  1   
 34  17  19  1   
 35  18  19  2   
 36  19  20  1   
 37  20  21  1   
 38  20  22  2   
 39  21  23  1   
 40  22  24  1   
 41  22  40  1   
 42  23  24  2   
 43  23  41  1   
 44  24  42  1   
@<TRIPOS>SUBSTRUCTURE
  1 ****  12 GROUP 4 **** **** 0

# MOE 2024.06 (io_trps.svl 2023.06)
