@<TRIPOS>MOLECULE
NONAME
48 50 1 0 0 
SMALL
USER_CHARGES


@<TRIPOS>ATOM
  1 O        1.4390    -0.4260    -1.5640 O.3   1 <1>  -0.0190 
  2 N        1.7490     0.8010    -1.2540 N.2   1 <1>  -0.4100 
  3 C        1.9950    -1.2860    -0.7530 C.2   1 <1>  -0.0400 
  4 C        2.5160     0.7300    -0.2220 C.2   1 <1>   0.1080 
  5 C        2.7130    -0.5980     0.1480 C.2   1 <1>  -0.1500 
  6 C        1.7740    -2.7780    -0.9440 C.3   1 <1>   0.2900 
  7 C        3.1240     1.9270     0.5010 C.3   1 <1>   0.1010 
  8 N        0.3820    -3.1930    -0.6870 N.3   1 <1>  -0.8100 
  9 C        2.0270     2.8260     1.0950 C.3   1 <1>  -0.1600 
 10 C        4.0380     2.7340    -0.4370 C.3   1 <1>  -0.1600 
 11 C        0.1970    -4.6320    -0.9940 C.3   1 <1>   0.2900 
 12 C       -0.1080    -2.7890     0.6380 C.3   1 <1>   0.0300 
 13 C        2.6220     4.0500     1.8070 C.3   1 <1>  -0.1600 
 14 C        4.6380     3.9580     0.2720 C.3   1 <1>  -0.1600 
 15 C       -1.2530    -5.1100    -0.9250 C.2   1 <1>   0.0070 
 16 C        3.5370     4.8460     0.8660 C.3   1 <1>  -0.1600 
 17 N       -2.0780    -5.0170    -1.9220 N.2   1 <1>  -0.5650 
 18 N       -1.7980    -5.7090     0.1680 N.pl3 1 <1>   0.0480 
 19 C       -3.2160    -5.5610    -1.4590 C.2   1 <1>   0.0770 
 20 C       -3.0640    -5.9910    -0.1900 C.2   1 <1>  -0.3020 
 21 C       -1.1850    -6.0470     1.4710 C.3   1 <1>   0.0960 
 22 C       -0.6190    -7.4700     1.4450 C.3   1 <1>  -0.2400 
 23 H        3.3090    -0.9520     0.9680 H     1 <1>   0.1500 
 24 H        2.4340    -3.3160    -0.2850 H     1 <1>   0.0800 
 25 H        2.0350    -3.0270    -1.9590 H     1 <1>   0.0800 
 26 H        3.7250     1.5550     1.3120 H     1 <1>   0.0800 
 27 H        1.4320     2.2570     1.7880 H     1 <1>   0.0800 
 28 H        1.3770     3.1580     0.3030 H     1 <1>   0.0800 
 29 H        3.4670     3.0630    -1.2890 H     1 <1>   0.0800 
 30 H        4.8300     2.1010    -0.7990 H     1 <1>   0.0800 
 31 H        0.8070    -5.2260    -0.3380 H     1 <1>   0.0800 
 32 H        0.5350    -4.8090    -2.0010 H     1 <1>   0.0800 
 33 H       -0.0570    -1.7180     0.7390 H     1 <1>   0.0800 
 34 H        0.4780    -3.2430     1.4170 H     1 <1>   0.0800 
 35 H       -1.1410    -3.0690     0.7500 H     1 <1>   0.0800 
 36 H        3.1860     3.7270     2.6650 H     1 <1>   0.0800 
 37 H        1.8250     4.6850     2.1560 H     1 <1>   0.0800 
 38 H        5.2210     4.5290    -0.4300 H     1 <1>   0.0800 
 39 H        5.2960     3.6300     1.0580 H     1 <1>   0.0800 
 40 H        3.9840     5.6640     1.4050 H     1 <1>   0.0800 
 41 H        2.9470     5.2620     0.0670 H     1 <1>   0.0800 
 42 H       -4.0970    -5.6160    -2.0770 H     1 <1>   0.1500 
 43 H       -3.7730    -6.4710     0.4590 H     1 <1>   0.1500 
 44 H       -1.9380    -5.9640     2.2340 H     1 <1>   0.0800 
 45 H       -0.4040    -5.3440     1.6900 H     1 <1>   0.0800 
 46 H       -1.4030    -8.1790     1.2480 H     1 <1>   0.0800 
 47 H       -0.1800    -7.7050     2.3980 H     1 <1>   0.0800 
 48 H        0.1390    -7.5600     0.6870 H     1 <1>   0.0800 
@<TRIPOS>BOND
  1   1   2  1   
  2   1   3  1   
  3   2   4  2   
  4   3   5  2   
  5   3   6  1   
  6   4   5  1   
  7   4   7  1   
  8   5  23  1   
  9   6   8  1   
 10   6  24  1   
 11   6  25  1   
 12   7   9  1   
 13   7  10  1   
 14   7  26  1   
 15   8  11  1   
 16   8  12  1   
 17   9  13  1   
 18   9  27  1   
 19   9  28  1   
 20  10  14  1   
 21  10  29  1   
 22  10  30  1   
 23  11  15  1   
 24  11  31  1   
 25  11  32  1   
 26  12  33  1   
 27  12  34  1   
 28  12  35  1   
 29  13  16  1   
 30  13  36  1   
 31  13  37  1   
 32  14  16  1   
 33  14  38  1   
 34  14  39  1   
 35  15  17  2   
 36  15  18  1   
 37  16  40  1   
 38  16  41  1   
 39  17  19  1   
 40  18  20  1   
 41  18  21  1   
 42  19  20  2   
 43  19  42  1   
 44  20  43  1   
 45  21  22  1   
 46  21  44  1   
 47  21  45  1   
 48  22  46  1   
 49  22  47  1   
 50  22  48  1   
@<TRIPOS>SUBSTRUCTURE
  1 ****   3 GROUP 4 **** **** 0

# MOE 2024.06 (io_trps.svl 2023.06)
