@<TRIPOS>MOLECULE
NONAME
41 42 1 0 0 
SMALL
USER_CHARGES


@<TRIPOS>ATOM
  1 F       -1.5150    -1.2670     0.1360 F     1 <1>  -0.1900 
  2 C       -2.0140    -0.0740    -0.0880 C.ar  1 <1>   0.1900 
  3 C       -1.5310     1.0000     0.6550 C.ar  1 <1>   0.0830 
  4 C       -2.9900     0.0670    -1.0640 C.ar  1 <1>  -0.1440 
  5 O       -0.5760     0.7680     1.5990 O.3   1 <1>  -0.3630 
  6 C       -2.0510     2.2640     0.3910 C.ar  1 <1>  -0.1500 
  7 C       -3.4840     1.3410    -1.3110 C.ar  1 <1>  -0.1500 
  8 C       -3.4970    -1.1320    -1.8530 C.3   1 <1>   0.2540 
  9 C       -0.0150     1.8180     2.3560 C.3   1 <1>   0.0400 
 10 C       -3.0180     2.4280    -0.5880 C.ar  1 <1>  -0.1500 
 11 N       -4.4510    -1.9270    -1.0550 N.3   1 <1>  -0.8100 
 12 C       -4.5970    -3.2790    -1.6260 C.3   1 <1>   0.2900 
 13 C       -5.7460    -1.2230    -0.8930 C.3   1 <1>   0.1100 
 14 C       -5.0480    -4.2700    -0.5720 C.2   1 <1>  -0.3320 
 15 C       -6.5640    -1.7420     0.2970 C.3   1 <1>   0.1200 
 16 N       -4.4340    -4.4670     0.6130 N.pl3 1 <1>   0.0480 
 17 C       -6.0950    -5.1250    -0.6070 C.2   1 <1>   0.0770 
 18 O       -7.5260    -0.7980     0.6300 O.3   1 <1>  -0.6800 
 19 C       -5.1630    -5.4320     1.2180 C.2   1 <1>   0.0360 
 20 C       -3.2460    -3.7790     1.1500 C.3   1 <1>   0.0160 
 21 N       -6.1660    -5.8550     0.5200 N.2   1 <1>  -0.5650 
 22 H       -1.7170     3.1290     0.9320 H     1 <1>   0.1500 
 23 H       -4.2360     1.4930    -2.0660 H     1 <1>   0.1500 
 24 H       -2.6450    -1.7380    -2.1140 H     1 <1>   0.0800 
 25 H       -3.9630    -0.8110    -2.7690 H     1 <1>   0.0800 
 26 H        0.7210     1.3960     3.0160 H     1 <1>   0.0800 
 27 H       -0.7920     2.2890     2.9300 H     1 <1>   0.0800 
 28 H        0.4540     2.5190     1.6880 H     1 <1>   0.0800 
 29 H       -3.4130     3.4100    -0.7880 H     1 <1>   0.1500 
 30 H       -3.6480    -3.6230    -2.0010 H     1 <1>   0.0800 
 31 H       -5.2920    -3.2640    -2.4490 H     1 <1>   0.0800 
 32 H       -6.3290    -1.3040    -1.7940 H     1 <1>   0.0800 
 33 H       -5.5550    -0.1820    -0.7080 H     1 <1>   0.0800 
 34 H       -5.9350    -1.8990     1.1550 H     1 <1>   0.0800 
 35 H       -7.0730    -2.6550     0.0460 H     1 <1>   0.0800 
 36 H       -6.8150    -5.2570    -1.3960 H     1 <1>   0.1500 
 37 H       -7.1050    -0.0210     1.0450 H     1 <1>   0.4000 
 38 H       -4.9130    -5.8010     2.1970 H     1 <1>   0.1500 
 39 H       -2.4580    -3.8070     0.4200 H     1 <1>   0.0800 
 40 H       -2.9180    -4.2630     2.0510 H     1 <1>   0.0800 
 41 H       -3.4960    -2.7550     1.3610 H     1 <1>   0.0800 
@<TRIPOS>BOND
  1   1   2  1   
  2   2   3  ar  
  3   2   4  ar  
  4   3   5  1   
  5   3   6  ar  
  6   4   7  ar  
  7   4   8  1   
  8   5   9  1   
  9   6  10  ar  
 10   6  22  1   
 11   7  10  ar  
 12   7  23  1   
 13   8  11  1   
 14   8  24  1   
 15   8  25  1   
 16   9  26  1   
 17   9  27  1   
 18   9  28  1   
 19  10  29  1   
 20  11  12  1   
 21  11  13  1   
 22  12  14  1   
 23  12  30  1   
 24  12  31  1   
 25  13  15  1   
 26  13  32  1   
 27  13  33  1   
 28  14  16  1   
 29  14  17  2   
 30  15  18  1   
 31  15  34  1   
 32  15  35  1   
 33  16  19  1   
 34  16  20  1   
 35  17  21  1   
 36  17  36  1   
 37  18  37  1   
 38  19  21  2   
 39  19  38  1   
 40  20  39  1   
 41  20  40  1   
 42  20  41  1   
@<TRIPOS>SUBSTRUCTURE
  1 ****  11 GROUP 4 **** **** 0

# MOE 2024.06 (io_trps.svl 2023.06)
