@<TRIPOS>MOLECULE
NONAME
53 56 1 0 0 
SMALL
USER_CHARGES


@<TRIPOS>ATOM
  1 CL      -2.4140    -3.0280    -1.8300 Cl    1 <1>  -0.1240 
  2 C       -2.8330    -1.5590    -0.9750 C.2   1 <1>  -0.0280 
  3 N       -2.2160    -0.3870    -1.2100 N.pl3 1 <1>   0.3140 
  4 C       -3.7710    -1.3720    -0.0220 C.2   1 <1>  -0.1810 
  5 N       -2.7440     0.5720    -0.4280 N.2   1 <1>  -0.7070 
  6 C       -1.1230    -0.1140    -2.1530 C.3   1 <1>   0.0160 
  7 C       -3.6600    -0.0150     0.2800 C.2   1 <1>   0.1080 
  8 C       -4.7340    -2.3490     0.6160 C.3   1 <1>   0.5240 
  9 C       -4.4810     0.7520     1.3040 C.3   1 <1>   0.0210 
 10 N       -5.2540    -3.2870    -0.4070 N.4   1 <1>  -0.9590 
 11 C       -4.0100     0.4580     2.7330 C.3   1 <1>  -0.2400 
 12 C       -5.8750    -2.6500    -1.6140 C.3   1 <1>   0.3430 
 13 C       -6.2180    -4.2940     0.0860 C.3   1 <1>   0.3430 
 14 C       -7.0630    -3.5490    -2.0050 C.3   1 <1>   0.2000 
 15 C       -6.8560    -4.8330    -1.1970 C.3   1 <1>  -0.0800 
 16 O       -8.2550    -2.9530    -1.6110 O.3   1 <1>  -0.6800 
 17 C       -5.9370    -5.8120    -1.9780 C.3   1 <1>  -0.0170 
 18 C       -4.9650    -6.5740    -1.0910 C.ar  1 <1>   0.1670 
 19 N       -3.8880    -5.9430    -0.7240 N.ar  1 <1>  -0.6200 
 20 C       -5.2740    -7.8870    -0.7050 C.ar  1 <1>  -0.1500 
 21 C       -3.0050    -6.6150     0.0650 C.ar  1 <1>   0.3100 
 22 C       -4.4170    -8.5710     0.1020 C.ar  1 <1>  -0.1500 
 23 C       -3.2370    -7.9320     0.5170 C.ar  1 <1>   0.0000 
 24 C       -1.8180    -5.9750     0.4590 C.ar  1 <1>  -0.1500 
 25 C       -2.2870    -8.5480     1.3540 C.ar  1 <1>  -0.1500 
 26 C       -0.9050    -6.5920     1.2720 C.ar  1 <1>  -0.1500 
 27 C       -1.1450    -7.8930     1.7260 C.ar  1 <1>  -0.1500 
 28 H       -0.2840    -0.7400    -1.9140 H     1 <1>   0.0800 
 29 H       -0.8370     0.9180    -2.0710 H     1 <1>   0.0800 
 30 H       -1.4580    -0.3170    -3.1530 H     1 <1>   0.0800 
 31 H       -5.5510    -1.8060     1.0600 H     1 <1>   0.0800 
 32 H       -4.2240    -2.8960     1.3920 H     1 <1>   0.0800 
 33 H       -4.3720     1.8060     1.1110 H     1 <1>   0.0800 
 34 H       -5.5220     0.5100     1.1970 H     1 <1>   0.0800 
 35 H       -4.4360    -3.8450    -0.7340 H     1 <1>   0.4500 
 36 H       -2.9710     0.7210     2.8330 H     1 <1>   0.0800 
 37 H       -4.1260    -0.5820     2.9750 H     1 <1>   0.0800 
 38 H       -4.5780     1.0430     3.4350 H     1 <1>   0.0800 
 39 H       -6.2210    -1.6510    -1.4040 H     1 <1>   0.0800 
 40 H       -5.1540    -2.6140    -2.4140 H     1 <1>   0.0800 
 41 H       -5.7320    -5.0680     0.6600 H     1 <1>   0.0800 
 42 H       -6.9690    -3.8200     0.6960 H     1 <1>   0.0800 
 43 H       -7.1170    -3.7110    -3.0690 H     1 <1>   0.0800 
 44 H       -7.7870    -5.3280    -0.9790 H     1 <1>   0.0800 
 45 H       -8.3620    -2.8900    -0.6430 H     1 <1>   0.4000 
 46 H       -5.3450    -5.2810    -2.7040 H     1 <1>   0.0800 
 47 H       -6.5460    -6.5040    -2.5340 H     1 <1>   0.0800 
 48 H       -6.1830    -8.3470    -1.0490 H     1 <1>   0.1500 
 49 H       -4.6170    -9.5790     0.4210 H     1 <1>   0.1500 
 50 H       -1.6370    -4.9800     0.0990 H     1 <1>   0.1500 
 51 H       -2.4720    -9.5510     1.6970 H     1 <1>   0.1500 
 52 H        0.0030    -6.0930     1.5680 H     1 <1>   0.1500 
 53 H       -0.4190    -8.3670     2.3650 H     1 <1>   0.1500 
@<TRIPOS>BOND
  1   1   2  1   
  2   2   3  1   
  3   2   4  2   
  4   3   5  1   
  5   3   6  1   
  6   4   7  1   
  7   4   8  1   
  8   5   7  2   
  9   6  28  1   
 10   6  29  1   
 11   6  30  1   
 12   7   9  1   
 13   8  10  1   
 14   8  31  1   
 15   8  32  1   
 16   9  11  1   
 17   9  33  1   
 18   9  34  1   
 19  10  12  1   
 20  10  13  1   
 21  10  35  1   
 22  11  36  1   
 23  11  37  1   
 24  11  38  1   
 25  12  14  1   
 26  12  39  1   
 27  12  40  1   
 28  13  15  1   
 29  13  41  1   
 30  13  42  1   
 31  14  15  1   
 32  14  16  1   
 33  14  43  1   
 34  15  17  1   
 35  15  44  1   
 36  16  45  1   
 37  17  18  1   
 38  17  46  1   
 39  17  47  1   
 40  18  19  ar  
 41  18  20  ar  
 42  19  21  ar  
 43  20  22  ar  
 44  20  48  1   
 45  21  23  ar  
 46  21  24  ar  
 47  22  23  ar  
 48  22  49  1   
 49  23  25  ar  
 50  24  26  ar  
 51  24  50  1   
 52  25  27  ar  
 53  25  51  1   
 54  26  27  ar  
 55  26  52  1   
 56  27  53  1   
@<TRIPOS>SUBSTRUCTURE
  1 ****  10 GROUP 4 **** **** 0

# MOE 2024.06 (io_trps.svl 2023.06)
