@<TRIPOS>MOLECULE
NONAME
49 51 1 0 0 
SMALL
USER_CHARGES


@<TRIPOS>ATOM
  1 O        0.1920    -0.0150    -0.5650 O.3   1 <1>  -0.5600 
  2 C        1.4040    -0.6710    -0.8420 C.3   1 <1>   0.2000 
  3 C        0.2260     1.3500    -0.8670 C.3   1 <1>   0.1200 
  4 C        2.5460    -0.0400     0.0040 C.3   1 <1>   0.3340 
  5 C        1.1830    -2.1670    -0.5630 C.3   1 <1>   0.1200 
  6 C        1.3090     2.0550    -0.0350 C.3   1 <1>   0.1100 
  7 N        2.6300     1.4240    -0.2230 N.3   1 <1>  -0.8100 
  8 C        3.8870    -0.7090    -0.3000 C.ar  1 <1>  -0.1440 
  9 O        2.1810    -2.9460    -1.1440 O.3   1 <1>  -0.6800 
 10 C        3.6880     2.0600     0.6090 C.3   1 <1>   0.2530 
 11 C        4.4500    -1.5870     0.6160 C.ar  1 <1>  -0.1500 
 12 C        4.5490    -0.4610    -1.4950 C.ar  1 <1>  -0.1500 
 13 C        3.7840     3.5800     0.4480 C.ar  1 <1>   0.1670 
 14 C        5.6500    -2.2190     0.3430 C.ar  1 <1>   0.0830 
 15 C        5.7590    -1.0750    -1.7690 C.ar  1 <1>  -0.1500 
 16 N        4.4180     4.0450    -0.6220 N.ar  1 <1>  -0.6200 
 17 C        3.2220     4.3960     1.4210 C.ar  1 <1>  -0.1500 
 18 O        6.1120    -3.0990     1.2650 O.3   1 <1>  -0.3630 
 19 C        6.3250    -1.9420    -0.8510 C.ar  1 <1>   0.0830 
 20 C        4.4850     5.3610    -0.7290 C.ar  1 <1>   0.1600 
 21 C        3.3010     5.7670     1.2970 C.ar  1 <1>  -0.1500 
 22 C        6.1720    -4.4510     0.8620 C.3   1 <1>   0.0400 
 23 O        7.5280    -2.4840    -1.1580 O.3   1 <1>  -0.3630 
 24 C        3.9520     6.2530     0.1850 C.ar  1 <1>  -0.1500 
 25 C        8.6150    -2.0740    -0.3580 C.3   1 <1>   0.0400 
 26 H        1.6100    -0.5430    -1.8900 H     1 <1>   0.0800 
 27 H        0.4210     1.4700    -1.9190 H     1 <1>   0.0800 
 28 H       -0.7430     1.7610    -0.6450 H     1 <1>   0.0800 
 29 H        2.3080    -0.2100     1.0400 H     1 <1>   0.0800 
 30 H        0.2470    -2.4840    -0.9880 H     1 <1>   0.0800 
 31 H        1.1770    -2.3590     0.4960 H     1 <1>   0.0800 
 32 H        1.0280     2.0280     1.0040 H     1 <1>   0.0800 
 33 H        1.3540     3.0850    -0.3460 H     1 <1>   0.0800 
 34 H        3.0720    -2.5840    -0.9360 H     1 <1>   0.4000 
 35 H        3.5140     1.8260     1.6440 H     1 <1>   0.0800 
 36 H        4.6470     1.6520     0.3410 H     1 <1>   0.0800 
 37 H        3.9610    -1.8000     1.5490 H     1 <1>   0.1500 
 38 H        4.1230     0.2240    -2.2110 H     1 <1>   0.1500 
 39 H        6.2720    -0.8750    -2.6920 H     1 <1>   0.1500 
 40 H        2.7250     3.9640     2.2690 H     1 <1>   0.1500 
 41 H        4.9930     5.7510    -1.5950 H     1 <1>   0.1500 
 42 H        2.8740     6.4260     2.0340 H     1 <1>   0.1500 
 43 H        6.4350    -5.0450     1.7180 H     1 <1>   0.0800 
 44 H        6.9190    -4.5620     0.0970 H     1 <1>   0.0800 
 45 H        5.2080    -4.7470     0.4880 H     1 <1>   0.0800 
 46 H        4.0500     7.3110     0.0260 H     1 <1>   0.1500 
 47 H        9.5140    -2.4980    -0.7680 H     1 <1>   0.0800 
 48 H        8.4690    -2.4250     0.6470 H     1 <1>   0.0800 
 49 H        8.6720    -1.0000    -0.3750 H     1 <1>   0.0800 
@<TRIPOS>BOND
  1   1   2  1   
  2   1   3  1   
  3   2   4  1   
  4   2   5  1   
  5   2  26  1   
  6   3   6  1   
  7   3  27  1   
  8   3  28  1   
  9   4   7  1   
 10   4   8  1   
 11   4  29  1   
 12   5   9  1   
 13   5  30  1   
 14   5  31  1   
 15   6   7  1   
 16   6  32  1   
 17   6  33  1   
 18   7  10  1   
 19   8  11  ar  
 20   8  12  ar  
 21   9  34  1   
 22  10  13  1   
 23  10  35  1   
 24  10  36  1   
 25  11  14  ar  
 26  11  37  1   
 27  12  15  ar  
 28  12  38  1   
 29  13  16  ar  
 30  13  17  ar  
 31  14  18  1   
 32  14  19  ar  
 33  15  19  ar  
 34  15  39  1   
 35  16  20  ar  
 36  17  21  ar  
 37  17  40  1   
 38  18  22  1   
 39  19  23  1   
 40  20  24  ar  
 41  20  41  1   
 42  21  24  ar  
 43  21  42  1   
 44  22  43  1   
 45  22  44  1   
 46  22  45  1   
 47  23  25  1   
 48  24  46  1   
 49  25  47  1   
 50  25  48  1   
 51  25  49  1   
@<TRIPOS>SUBSTRUCTURE
  1 ****   8 GROUP 4 **** **** 0

# MOE 2024.06 (io_trps.svl 2023.06)
