@<TRIPOS>MOLECULE
NONAME
40 42 1 0 0 
SMALL
USER_CHARGES


@<TRIPOS>ATOM
  1 O       -0.3950     3.3010    -3.1820 O.co2 1 <1>  -0.9000 
  2 C        0.0420     2.7070    -2.1820 C.2   1 <1>   0.9060 
  3 O        0.7370     1.6860    -2.3090 O.co2 1 <1>  -0.9000 
  4 C       -0.2800     3.2370    -0.7680 C.3   1 <1>   0.0380 
  5 C       -1.2510     2.2780    -0.0350 C.ar  1 <1>  -0.1440 
  6 C        1.0520     3.3800    -0.0040 C.3   1 <1>   0.2090 
  7 C       -0.7780     4.7010    -0.7930 C.3   1 <1>  -0.1600 
  8 C       -0.7850     1.0390     0.3880 C.ar  1 <1>  -0.1500 
  9 C       -2.5850     2.5910     0.2060 C.ar  1 <1>  -0.1500 
 10 N        1.4390     4.8190    -0.0580 N.pl3 1 <1>  -0.8380 
 11 C        0.4860     5.5330    -0.9210 C.3   1 <1>   0.2090 
 12 C       -1.6090     0.1540     1.0610 C.ar  1 <1>  -0.1500 
 13 C       -3.4140     1.7100     0.8800 C.ar  1 <1>  -0.1500 
 14 C        2.7200     5.2570     0.1720 C.ar  1 <1>   0.7200 
 15 C       -2.9260     0.4910     1.3130 C.ar  1 <1>  -0.1500 
 16 N        3.0300     6.4820    -0.2540 N.ar  1 <1>  -0.6200 
 17 N        3.5350     4.4240     0.8190 N.ar  1 <1>  -0.6200 
 18 C        4.2550     6.8820    -0.0330 C.ar  1 <1>   0.1670 
 19 C        4.7540     4.8450     1.0290 C.ar  1 <1>   0.1670 
 20 C        5.1710     6.0870     0.6140 C.ar  1 <1>  -0.1500 
 21 C        4.6200     8.2660    -0.5240 C.3   1 <1>  -0.0970 
 22 C        5.6880     3.8980     1.7490 C.3   1 <1>  -0.0970 
 23 H        1.8270     2.7630    -0.4260 H     1 <1>   0.0800 
 24 H        0.9190     3.1080     1.0280 H     1 <1>   0.0800 
 25 H       -1.2390     4.9580     0.1430 H     1 <1>   0.0800 
 26 H       -1.4670     4.8960    -1.5950 H     1 <1>   0.0800 
 27 H        0.2320     0.7540     0.1750 H     1 <1>   0.1500 
 28 H       -2.9980     3.5220    -0.1340 H     1 <1>   0.1500 
 29 H        0.3390     6.5450    -0.5870 H     1 <1>   0.0800 
 30 H        0.8440     5.5240    -1.9380 H     1 <1>   0.0800 
 31 H       -1.2210    -0.7970     1.3780 H     1 <1>   0.1500 
 32 H       -4.4400     1.9740     1.0600 H     1 <1>   0.1500 
 33 H       -3.5680    -0.1950     1.8350 H     1 <1>   0.1500 
 34 H        6.1740     6.4240     0.7890 H     1 <1>   0.1500 
 35 H        3.9820     8.9910    -0.0550 H     1 <1>   0.0800 
 36 H        4.4760     8.3150    -1.5880 H     1 <1>   0.0800 
 37 H        5.6440     8.5000    -0.2990 H     1 <1>   0.0800 
 38 H        5.2820     3.6650     2.7170 H     1 <1>   0.0800 
 39 H        6.6620     4.3320     1.8720 H     1 <1>   0.0800 
 40 H        5.7760     2.9880     1.1840 H     1 <1>   0.0800 
@<TRIPOS>BOND
  1   1   2  ar  
  2   2   3  ar  
  3   2   4  1   
  4   4   5  1   
  5   4   6  1   
  6   4   7  1   
  7   5   8  ar  
  8   5   9  ar  
  9   6  10  1   
 10   6  23  1   
 11   6  24  1   
 12   7  11  1   
 13   7  25  1   
 14   7  26  1   
 15   8  12  ar  
 16   8  27  1   
 17   9  13  ar  
 18   9  28  1   
 19  10  11  1   
 20  10  14  1   
 21  11  29  1   
 22  11  30  1   
 23  12  15  ar  
 24  12  31  1   
 25  13  15  ar  
 26  13  32  1   
 27  14  16  ar  
 28  14  17  ar  
 29  15  33  1   
 30  16  18  ar  
 31  17  19  ar  
 32  18  20  ar  
 33  18  21  1   
 34  19  20  ar  
 35  19  22  1   
 36  20  34  1   
 37  21  35  1   
 38  21  36  1   
 39  21  37  1   
 40  22  38  1   
 41  22  39  1   
 42  22  40  1   
@<TRIPOS>SUBSTRUCTURE
  1 ****   6 GROUP 4 **** **** 0

# MOE 2024.06 (io_trps.svl 2023.06)
