@<TRIPOS>MOLECULE
NONAME
48 50 1 0 0 
SMALL
USER_CHARGES


@<TRIPOS>ATOM
  1 CL       1.0440    -0.3160     0.2880 Cl    1 <1>  -0.1770 
  2 C        0.5840    -1.9460    -0.1210 C.ar  1 <1>   0.1770 
  3 C        0.9060    -2.9760     0.7410 C.ar  1 <1>  -0.1500 
  4 C       -0.0990    -2.1830    -1.3030 C.ar  1 <1>  -0.1500 
  5 C        0.5190    -4.2520     0.3840 C.ar  1 <1>   0.1900 
  6 C       -0.4740    -3.4750    -1.6410 C.ar  1 <1>  -0.1500 
  7 F        0.7980    -5.2370     1.1970 F     1 <1>  -0.1900 
  8 C       -0.1660    -4.5320    -0.7910 C.ar  1 <1>  -0.1440 
  9 C       -0.5570    -5.9570    -1.1340 C.3   1 <1>   0.4870 
 10 N       -1.4780    -6.4760    -0.0760 N.4   1 <1>  -0.9590 
 11 C       -1.6530    -7.9700    -0.1430 C.3   1 <1>   0.3430 
 12 C       -2.7780    -5.7240    -0.0600 C.3   1 <1>   0.3430 
 13 C       -2.7840    -8.3970     0.8290 C.3   1 <1>   0.4230 
 14 C       -3.8310    -6.4250     0.8260 C.3   1 <1>  -0.1600 
 15 N       -2.7250    -9.7820     1.4480 N.4   1 <1>  -0.9590 
 16 C       -4.1950    -7.8970     0.2560 C.3   1 <1>   0.0000 
 17 C       -2.7200   -10.8910     0.4760 C.3   1 <1>   0.3430 
 18 C       -1.6500    -9.9620     2.4780 C.3   1 <1>   0.2630 
 19 C       -4.5620    -9.3310    -0.3960 C.3   1 <1>  -0.1600 
 20 C       -5.6250    -7.3510    -0.2290 C.3   1 <1>   0.1200 
 21 C       -3.5340   -10.4450    -0.7180 C.3   1 <1>  -0.1600 
 22 O       -6.4350    -7.2950     0.9000 O.3   1 <1>  -0.6800 
 23 H        1.4380    -2.7820     1.6550 H     1 <1>   0.1500 
 24 H       -0.3280    -1.3530    -1.9510 H     1 <1>   0.1500 
 25 H       -0.9970    -3.6360    -2.5700 H     1 <1>   0.1500 
 26 H        0.3370    -6.5590    -1.1760 H     1 <1>   0.0800 
 27 H       -1.0350    -5.9880    -2.1000 H     1 <1>   0.0800 
 28 H       -0.9890    -6.2350     0.8040 H     1 <1>   0.4500 
 29 H       -1.9190    -8.2600    -1.1460 H     1 <1>   0.0800 
 30 H       -0.7310    -8.4540     0.1310 H     1 <1>   0.0800 
 31 H       -2.6120    -4.7190     0.3010 H     1 <1>   0.0800 
 32 H       -3.1660    -5.6490    -1.0640 H     1 <1>   0.0800 
 33 H       -2.5420    -7.8210     1.7000 H     1 <1>   0.0800 
 34 H       -3.5370    -6.4020     1.8640 H     1 <1>   0.0800 
 35 H       -4.6210    -5.6910     0.8860 H     1 <1>   0.0800 
 36 H       -3.6290    -9.8730     1.9460 H     1 <1>   0.4500 
 37 H       -1.7170   -11.1370     0.1670 H     1 <1>   0.0800 
 38 H       -3.1660   -11.7670     0.9220 H     1 <1>   0.0800 
 39 H       -0.6740    -9.8990     2.0270 H     1 <1>   0.0800 
 40 H       -1.7450   -10.9280     2.9500 H     1 <1>   0.0800 
 41 H       -1.7300    -9.2070     3.2440 H     1 <1>   0.0800 
 42 H       -5.3430    -9.7840     0.1990 H     1 <1>   0.0800 
 43 H       -4.9510    -9.2180    -1.3970 H     1 <1>   0.0800 
 44 H       -6.2180    -7.9080    -0.9360 H     1 <1>   0.0800 
 45 H       -5.5930    -6.3750    -0.6880 H     1 <1>   0.0800 
 46 H       -2.8700   -10.1260    -1.5010 H     1 <1>   0.0800 
 47 H       -4.0530   -11.3070    -1.1070 H     1 <1>   0.0800 
 48 H       -7.3490    -7.0150     0.6760 H     1 <1>   0.4000 
@<TRIPOS>BOND
  1   1   2  1   
  2   2   3  ar  
  3   2   4  ar  
  4   3   5  ar  
  5   3  23  1   
  6   4   6  ar  
  7   4  24  1   
  8   5   7  1   
  9   5   8  ar  
 10   6   8  ar  
 11   6  25  1   
 12   8   9  1   
 13   9  10  1   
 14   9  26  1   
 15   9  27  1   
 16  10  11  1   
 17  10  12  1   
 18  10  28  1   
 19  11  13  1   
 20  11  29  1   
 21  11  30  1   
 22  12  14  1   
 23  12  31  1   
 24  12  32  1   
 25  13  15  1   
 26  13  16  1   
 27  13  33  1   
 28  14  16  1   
 29  14  34  1   
 30  14  35  1   
 31  15  17  1   
 32  15  18  1   
 33  15  36  1   
 34  16  19  1   
 35  16  20  1   
 36  17  21  1   
 37  17  37  1   
 38  17  38  1   
 39  18  39  1   
 40  18  40  1   
 41  18  41  1   
 42  19  21  1   
 43  19  42  1   
 44  19  43  1   
 45  20  22  1   
 46  20  44  1   
 47  20  45  1   
 48  21  46  1   
 49  21  47  1   
 50  22  48  1   
@<TRIPOS>SUBSTRUCTURE
  1 ****  10 GROUP 4 **** **** 0

# MOE 2024.06 (io_trps.svl 2023.06)
