@<TRIPOS>MOLECULE
NONAME
52 54 1 0 0 
SMALL
USER_CHARGES


@<TRIPOS>ATOM
  1 O       -1.1860    -0.3710     1.5200 O.2   1 <1>  -0.5700 
  2 C       -1.5200     0.1690     0.4810 C.2   1 <1>   0.7160 
  3 N       -1.9640    -0.6010    -0.5740 N.am  1 <1>  -0.6600 
  4 C       -1.4870     1.5880     0.3640 C.2   1 <1>  -0.0860 
  5 C       -2.5730    -1.9470    -0.3470 C.3   1 <1>   0.1400 
  6 C       -2.0320    -0.0710    -1.9660 C.3   1 <1>   0.0600 
  7 C       -2.6430     2.3640     0.3180 C.2   1 <1>   0.3720 
  8 C       -0.4840     2.4900     0.2070 C.2   1 <1>   0.0870 
  9 C       -4.0870    -1.9530    -0.6330 C.3   1 <1>   0.2000 
 10 N       -2.3620     3.6050     0.1300 N.2   1 <1>  -0.4100 
 11 N       -3.9300     1.8360     0.4820 N.pl3 1 <1>  -0.8210 
 12 O       -1.0560     3.6620     0.0700 O.3   1 <1>  -0.0190 
 13 C        0.9500     2.3610     0.1390 C.ar  1 <1>   0.0530 
 14 O       -4.7360    -0.9760     0.1270 O.3   1 <1>  -0.6800 
 15 C       -4.7130    -3.3200    -0.3210 C.3   1 <1>   0.1200 
 16 C       -5.0450     2.5430    -0.2050 C.3   1 <1>   0.2090 
 17 C       -4.3020     1.6490     1.9160 C.3   1 <1>   0.2090 
 18 C        1.7140     3.2690    -0.5960 C.ar  1 <1>  -0.1500 
 19 C        1.6340     1.3350     0.7940 C.ar  1 <1>  -0.1500 
 20 O       -6.0900    -3.2270    -0.4340 O.3   1 <1>  -0.6800 
 21 C       -6.2610     2.3070     0.6750 C.3   1 <1>  -0.1600 
 22 C       -5.6860     2.2650     2.0830 C.3   1 <1>  -0.1600 
 23 C        3.0880     3.1510    -0.6830 C.ar  1 <1>  -0.1500 
 24 C        3.0080     1.2090     0.7100 C.ar  1 <1>  -0.1500 
 25 C        3.7490     2.1210    -0.0360 C.ar  1 <1>   0.0830 
 26 O        5.0950     2.0710    -0.1720 O.3   1 <1>  -0.3620 
 27 C        5.8630     1.0680     0.4540 C.3   1 <1>   0.0400 
 28 H       -2.4110    -2.2640     0.6690 H     1 <1>   0.0800 
 29 H       -2.0850    -2.6610    -0.9860 H     1 <1>   0.0800 
 30 H       -1.2760     0.6810    -2.1190 H     1 <1>   0.0800 
 31 H       -2.9990     0.3690    -2.1420 H     1 <1>   0.0800 
 32 H       -1.8670    -0.8650    -2.6730 H     1 <1>   0.0800 
 33 H       -4.2550    -1.7260    -1.6710 H     1 <1>   0.0800 
 34 H       -4.2570    -0.1090     0.0720 H     1 <1>   0.4000 
 35 H       -4.4800    -3.6190     0.6860 H     1 <1>   0.0800 
 36 H       -4.3680    -4.0760    -1.0050 H     1 <1>   0.0800 
 37 H       -5.1940     2.1460    -1.1940 H     1 <1>   0.0800 
 38 H       -4.8430     3.5990    -0.2700 H     1 <1>   0.0800 
 39 H       -3.5920     2.1230     2.5740 H     1 <1>   0.0800 
 40 H       -4.3340     0.5960     2.1420 H     1 <1>   0.0800 
 41 H        1.2240     4.0780    -1.1090 H     1 <1>   0.1500 
 42 H        1.0880     0.6250     1.3870 H     1 <1>   0.1500 
 43 H       -6.3490    -2.3650    -0.0370 H     1 <1>   0.4000 
 44 H       -6.6950     1.3540     0.4250 H     1 <1>   0.0800 
 45 H       -7.0000     3.0790     0.5530 H     1 <1>   0.0800 
 46 H       -5.5780     3.2650     2.4650 H     1 <1>   0.0800 
 47 H       -6.2970     1.6930     2.7590 H     1 <1>   0.0800 
 48 H        3.6620     3.8580    -1.2560 H     1 <1>   0.1500 
 49 H        3.4840     0.4010     1.2310 H     1 <1>   0.1500 
 50 H        6.8950     1.2340     0.2050 H     1 <1>   0.0800 
 51 H        5.5480     0.1070     0.0870 H     1 <1>   0.0800 
 52 H        5.7270     1.1380     1.5190 H     1 <1>   0.0800 
@<TRIPOS>BOND
  1   1   2  2   
  2   2   3  am  
  3   2   4  1   
  4   3   5  1   
  5   3   6  1   
  6   4   7  1   
  7   4   8  2   
  8   5   9  1   
  9   5  28  1   
 10   5  29  1   
 11   6  30  1   
 12   6  31  1   
 13   6  32  1   
 14   7  10  2   
 15   7  11  1   
 16   8  12  1   
 17   8  13  1   
 18   9  14  1   
 19   9  15  1   
 20   9  33  1   
 21  10  12  1   
 22  11  16  1   
 23  11  17  1   
 24  13  18  ar  
 25  13  19  ar  
 26  14  34  1   
 27  15  20  1   
 28  15  35  1   
 29  15  36  1   
 30  16  21  1   
 31  16  37  1   
 32  16  38  1   
 33  17  22  1   
 34  17  39  1   
 35  17  40  1   
 36  18  23  ar  
 37  18  41  1   
 38  19  24  ar  
 39  19  42  1   
 40  20  43  1   
 41  21  22  1   
 42  21  44  1   
 43  21  45  1   
 44  22  46  1   
 45  22  47  1   
 46  23  25  ar  
 47  23  48  1   
 48  24  25  ar  
 49  24  49  1   
 50  25  26  1   
 51  26  27  1   
 52  27  50  1   
 53  27  51  1   
 54  27  52  1   
@<TRIPOS>SUBSTRUCTURE
  1 ****   4 GROUP 4 **** **** 0

# MOE 2024.06 (io_trps.svl 2023.06)
