@<TRIPOS>MOLECULE
NONAME
47 48 1 0 0 
SMALL
USER_CHARGES


@<TRIPOS>ATOM
  1 O       -0.9180    -2.0620    -0.4970 O.co2 1 <1>  -0.9000 
  2 C       -0.9000    -2.5610     0.6360 C.2   1 <1>   1.0330 
  3 O       -1.9630    -3.0910     1.0240 O.co2 1 <1>  -0.9000 
  4 C        0.3290    -2.7800     1.3300 C.2   1 <1>  -0.2330 
  5 C        0.5180    -3.8140     2.2430 C.2   1 <1>   0.3720 
  6 C        1.5630    -2.2150     1.2350 C.2   1 <1>   0.0870 
  7 N        1.7410    -3.9030     2.6160 N.2   1 <1>  -0.4100 
  8 N       -0.4920    -4.6540     2.6880 N.pl3 1 <1>  -0.8520 
  9 O        2.3570    -2.9220     2.0080 O.3   1 <1>  -0.0190 
 10 C        2.1050    -1.0970     0.4980 C.ar  1 <1>   0.0530 
 11 C       -0.3090    -6.1080     2.5380 C.3   1 <1>   0.2090 
 12 C        1.3110    -0.0310     0.0720 C.ar  1 <1>  -0.1500 
 13 C        3.4660    -1.0350     0.1900 C.ar  1 <1>  -0.1500 
 14 C       -1.3680    -6.7480     1.6180 C.3   1 <1>  -0.0800 
 15 C        1.8380     1.0360    -0.6310 C.ar  1 <1>  -0.1500 
 16 C        4.0030     0.0290    -0.5100 C.ar  1 <1>  -0.1500 
 17 C       -1.0770    -6.4910     0.1190 C.3   1 <1>   0.3430 
 18 C       -2.8070    -6.4640     2.0960 C.3   1 <1>  -0.2400 
 19 C        3.1970     1.0730    -0.9300 C.ar  1 <1>   0.0830 
 20 N       -1.7820    -5.3340    -0.5090 N.4   1 <1>  -0.9590 
 21 O        3.7940     2.0770    -1.6140 O.3   1 <1>  -0.3620 
 22 C       -3.1710    -5.5920    -0.9680 C.3   1 <1>   0.2630 
 23 C       -0.9840    -4.7340    -1.6190 C.3   1 <1>   0.2630 
 24 C        3.0480     3.1590    -2.1260 C.3   1 <1>   0.0400 
 25 H       -1.3970    -4.3030     2.3190 H     1 <1>   0.4000 
 26 H       -0.3820    -6.5470     3.5190 H     1 <1>   0.0800 
 27 H        0.6820    -6.3190     2.1690 H     1 <1>   0.0800 
 28 H        0.2590    -0.0380     0.2920 H     1 <1>   0.1500 
 29 H        4.1130    -1.8340     0.5040 H     1 <1>   0.1500 
 30 H       -1.2170    -7.8050     1.7440 H     1 <1>   0.0800 
 31 H        1.1760     1.8220    -0.9380 H     1 <1>   0.1500 
 32 H        5.0530     0.0570    -0.7380 H     1 <1>   0.1500 
 33 H       -1.3300    -7.3790    -0.4350 H     1 <1>   0.0800 
 34 H       -0.0140    -6.3450     0.0160 H     1 <1>   0.0800 
 35 H       -3.0660    -5.4260     1.9710 H     1 <1>   0.0800 
 36 H       -2.8980    -6.6980     3.1430 H     1 <1>   0.0800 
 37 H       -3.5130    -7.0710     1.5610 H     1 <1>   0.0800 
 38 H       -1.8650    -4.5580     0.2010 H     1 <1>   0.4500 
 39 H       -3.1810    -6.3550    -1.7280 H     1 <1>   0.0800 
 40 H       -3.5900    -4.6850    -1.3750 H     1 <1>   0.0800 
 41 H       -3.7900    -5.9040    -0.1450 H     1 <1>   0.0800 
 42 H       -0.8770    -5.4280    -2.4340 H     1 <1>   0.0800 
 43 H       -0.0080    -4.4490    -1.2610 H     1 <1>   0.0800 
 44 H       -1.4700    -3.8390    -1.9750 H     1 <1>   0.0800 
 45 H        3.7240     3.8160    -2.6430 H     1 <1>   0.0800 
 46 H        2.5840     3.6800    -1.3080 H     1 <1>   0.0800 
 47 H        2.3100     2.7800    -2.8110 H     1 <1>   0.0800 
@<TRIPOS>BOND
  1   1   2  ar  
  2   2   3  ar  
  3   2   4  1   
  4   4   5  1   
  5   4   6  2   
  6   5   7  2   
  7   5   8  1   
  8   6   9  1   
  9   6  10  1   
 10   7   9  1   
 11   8  11  1   
 12   8  25  1   
 13  10  12  ar  
 14  10  13  ar  
 15  11  14  1   
 16  11  26  1   
 17  11  27  1   
 18  12  15  ar  
 19  12  28  1   
 20  13  16  ar  
 21  13  29  1   
 22  14  17  1   
 23  14  18  1   
 24  14  30  1   
 25  15  19  ar  
 26  15  31  1   
 27  16  19  ar  
 28  16  32  1   
 29  17  20  1   
 30  17  33  1   
 31  17  34  1   
 32  18  35  1   
 33  18  36  1   
 34  18  37  1   
 35  19  21  1   
 36  20  22  1   
 37  20  23  1   
 38  20  38  1   
 39  21  24  1   
 40  22  39  1   
 41  22  40  1   
 42  22  41  1   
 43  23  42  1   
 44  23  43  1   
 45  23  44  1   
 46  24  45  1   
 47  24  46  1   
 48  24  47  1   
@<TRIPOS>SUBSTRUCTURE
  1 ****   4 GROUP 4 **** **** 0

# MOE 2024.06 (io_trps.svl 2023.06)
