@<TRIPOS>MOLECULE
NONAME
46 48 1 0 0 
SMALL
USER_CHARGES


@<TRIPOS>ATOM
  1 S        0.1420     0.0230     0.3430 S.o2  1 <1>   1.3330 
  2 O        0.3120    -1.3170     0.8580 O.2   1 <1>  -0.6500 
  3 O       -0.2560     1.0890     1.2350 O.2   1 <1>  -0.6500 
  4 N       -0.9710    -0.0490    -0.9370 N.am  1 <1>  -0.8490 
  5 C        1.6570     0.5260    -0.4670 C.3   1 <1>  -0.0550 
  6 C       -0.9320    -1.3160    -1.6750 C.3   1 <1>   0.1160 
  7 C       -2.3420     0.2290    -0.4980 C.3   1 <1>   0.1160 
  8 C        2.8160     0.7550     0.5170 C.3   1 <1>  -0.0800 
  9 C        4.0800     1.2270    -0.1770 C.3   1 <1>   0.2890 
 10 C        3.2950    -0.4890     1.2530 C.3   1 <1>   0.1200 
 11 N        4.1060     2.7080    -0.2070 N.pl3 1 <1>  -0.8690 
 12 C        5.2060     0.6290     0.6680 C.3   1 <1>   0.1200 
 13 O        4.6060    -0.2030     1.6180 O.3   1 <1>  -0.5600 
 14 C        4.4940     3.4920    -1.2610 C.ar  1 <1>   0.4100 
 15 N        4.9200     2.8610    -2.3410 N.ar  1 <1>  -0.6200 
 16 C        4.4540     4.8910    -1.1980 C.ar  1 <1>   0.0000 
 17 C        5.3220     3.6210    -3.3500 C.ar  1 <1>   0.4700 
 18 C        4.9120     5.5140    -2.3360 C.ar  1 <1>   0.2970 
 19 C        4.0250     5.8350    -0.1810 C.2   1 <1>  -0.1810 
 20 N        5.3550     4.9340    -3.4310 N.ar  1 <1>  -0.5670 
 21 S        4.8370     7.2610    -2.1630 S.3   1 <1>  -0.0800 
 22 C        4.1670     7.1290    -0.5370 C.2   1 <1>  -0.1400 
 23 C        3.4610     5.3670     1.1530 C.3   1 <1>  -0.0590 
 24 C        3.8780     8.4550     0.1410 C.3   1 <1>  -0.0600 
 25 H        1.9410    -0.2150    -1.1880 H     1 <1>   0.0800 
 26 H        1.4760     1.4430    -0.9950 H     1 <1>   0.0800 
 27 H       -1.5930    -1.2700    -2.5240 H     1 <1>   0.0800 
 28 H       -1.2340    -2.1320    -1.0400 H     1 <1>   0.0800 
 29 H        0.0650    -1.5070    -2.0320 H     1 <1>   0.0800 
 30 H       -3.0180     0.1920    -1.3350 H     1 <1>   0.0800 
 31 H       -2.3990     1.2130    -0.0640 H     1 <1>   0.0800 
 32 H       -2.6520    -0.4920     0.2410 H     1 <1>   0.0800 
 33 H        2.5170     1.4740     1.2610 H     1 <1>   0.0800 
 34 H        4.1420     0.8200    -1.1720 H     1 <1>   0.0800 
 35 H        3.3080    -1.3550     0.6130 H     1 <1>   0.0800 
 36 H        2.7180    -0.6960     2.1390 H     1 <1>   0.0800 
 37 H        3.9400     3.1620     0.6910 H     1 <1>   0.4000 
 38 H        5.7660     1.3870     1.1860 H     1 <1>   0.0800 
 39 H        5.8620     0.0310     0.0620 H     1 <1>   0.0800 
 40 H        5.6690     3.0910    -4.2220 H     1 <1>   0.1500 
 41 H        2.6050     4.7380     0.9890 H     1 <1>   0.0800 
 42 H        3.1480     6.1970     1.7580 H     1 <1>   0.0800 
 43 H        4.2100     4.8220     1.6980 H     1 <1>   0.0800 
 44 H        3.4920     8.3150     1.1320 H     1 <1>   0.0800 
 45 H        3.1560     9.0060    -0.4340 H     1 <1>   0.0800 
 46 H        4.7820     9.0340     0.2050 H     1 <1>   0.0800 
@<TRIPOS>BOND
  1   1   2  2   
  2   1   3  2   
  3   1   4  am  
  4   1   5  1   
  5   4   6  1   
  6   4   7  1   
  7   5   8  1   
  8   5  25  1   
  9   5  26  1   
 10   6  27  1   
 11   6  28  1   
 12   6  29  1   
 13   7  30  1   
 14   7  31  1   
 15   7  32  1   
 16   8   9  1   
 17   8  10  1   
 18   8  33  1   
 19   9  11  1   
 20   9  12  1   
 21   9  34  1   
 22  10  13  1   
 23  10  35  1   
 24  10  36  1   
 25  11  14  1   
 26  11  37  1   
 27  12  13  1   
 28  12  38  1   
 29  12  39  1   
 30  14  15  ar  
 31  14  16  ar  
 32  15  17  ar  
 33  16  18  ar  
 34  16  19  1   
 35  17  20  ar  
 36  17  40  1   
 37  18  20  ar  
 38  18  21  1   
 39  19  22  2   
 40  19  23  1   
 41  21  22  1   
 42  22  24  1   
 43  23  41  1   
 44  23  42  1   
 45  23  43  1   
 46  24  44  1   
 47  24  45  1   
 48  24  46  1   
@<TRIPOS>SUBSTRUCTURE
  1 ****  11 GROUP 4 **** **** 0

# MOE 2024.06 (io_trps.svl 2023.06)
