@<TRIPOS>MOLECULE
NONAME
23 23 1 0 0 
SMALL
USER_CHARGES


@<TRIPOS>ATOM
  1 F        0.0150    -0.4780     0.1410 F     1 <1>  -0.2980 
  2 C       -0.8280    -1.3120    -0.4610 C.3   1 <1>   0.5960 
  3 F       -1.4840    -0.6370    -1.4020 F     1 <1>  -0.2980 
  4 C       -0.2070    -2.6490    -0.9320 C.3   1 <1>   0.0000 
  5 C       -1.7410    -2.1100     0.5030 C.3   1 <1>   0.0000 
  6 C       -1.5280    -3.3250    -0.4510 C.3   1 <1>   0.0000 
  7 C       -1.4480    -4.7520     0.1550 C.3   1 <1>  -0.1060 
  8 C       -0.9840    -5.6970    -0.9830 C.2   1 <1>   0.9060 
  9 C       -0.4920    -4.8660     1.3730 C.3   1 <1>  -0.2400 
 10 C       -2.8590    -5.1290     0.6700 C.3   1 <1>  -0.2400 
 11 O        0.2250    -5.7820    -1.2360 O.co2 1 <1>  -0.9000 
 12 O       -1.8230    -6.3330    -1.6340 O.co2 1 <1>  -0.9000 
 13 H        0.6570    -2.9240    -0.3540 H     1 <1>   0.0000 
 14 H       -0.0580    -2.7170    -1.9950 H     1 <1>   0.0000 
 15 H       -2.7600    -1.7670     0.5320 H     1 <1>   0.0000 
 16 H       -1.2960    -2.2310     1.4730 H     1 <1>   0.0000 
 17 H       -2.2550    -3.2970    -1.2470 H     1 <1>   0.0000 
 18 H        0.5090    -4.5820     1.1050 H     1 <1>   0.0800 
 19 H       -0.4520    -5.8920     1.6930 H     1 <1>   0.0800 
 20 H       -0.8200    -4.2690     2.2030 H     1 <1>   0.0800 
 21 H       -3.5740    -5.0650    -0.1320 H     1 <1>   0.0800 
 22 H       -3.1720    -4.4780     1.4660 H     1 <1>   0.0800 
 23 H       -2.8580    -6.1440     1.0260 H     1 <1>   0.0800 
@<TRIPOS>BOND
  1   1   2  1   
  2   2   3  1   
  3   2   4  1   
  4   2   5  1   
  5   4   6  1   
  6   4  13  1   
  7   4  14  1   
  8   5   6  1   
  9   5  15  1   
 10   5  16  1   
 11   6   7  1   
 12   6  17  1   
 13   7   8  1   
 14   7   9  1   
 15   7  10  1   
 16   8  11  ar  
 17   8  12  ar  
 18   9  18  1   
 19   9  19  1   
 20   9  20  1   
 21  10  21  1   
 22  10  22  1   
 23  10  23  1   
@<TRIPOS>SUBSTRUCTURE
  1 ****   6 GROUP 4 **** **** 0

# MOE 2024.06 (io_trps.svl 2023.06)
