@<TRIPOS>MOLECULE
NONAME
55 58 1 0 0 
SMALL
USER_CHARGES


@<TRIPOS>ATOM
  1 O        2.9290    -0.4430     2.2650 O.co2 1 <1>  -0.9000 
  2 C        2.3000     0.5950     1.9990 C.2   1 <1>   0.9060 
  3 O        1.5970     1.1520     2.8400 O.co2 1 <1>  -0.9000 
  4 C        2.3040     1.1390     0.5560 C.3   1 <1>  -0.1060 
  5 C        3.3080     0.3640    -0.3180 C.3   1 <1>   0.4230 
  6 C        2.6880     2.6510     0.5850 C.3   1 <1>  -0.1600 
  7 C        0.9100     0.9300    -0.0810 C.3   1 <1>  -0.1600 
  8 N        3.0160    -1.1060    -0.2720 N.4   1 <1>  -0.9590 
  9 C        4.7460     0.8080     0.0280 C.3   1 <1>   0.1100 
 10 C        3.7380     3.0550    -0.4600 C.3   1 <1>   0.1100 
 11 C        0.5760    -0.5730    -0.1640 C.3   1 <1>  -0.1600 
 12 C        1.6730    -1.4070    -0.8390 C.3   1 <1>   0.3430 
 13 C        4.0800    -2.0030    -0.7870 C.3   1 <1>   0.2630 
 14 N        4.9650     2.2340    -0.3320 N.3   1 <1>  -0.8100 
 15 C        5.9180     2.4250    -1.4450 C.3   1 <1>   0.2900 
 16 C        6.1960     3.8920    -1.7450 C.2   1 <1>  -0.0400 
 17 O        6.8030     4.6350    -0.8430 O.3   1 <1>  -0.2800 
 18 C        5.9230     4.6270    -2.8440 C.2   1 <1>  -0.1500 
 19 C        6.9380     5.8680    -1.3160 C.2   1 <1>   0.0870 
 20 C        6.4030     5.9090    -2.5660 C.2   1 <1>  -0.1500 
 21 C        7.5700     6.8910    -0.5130 C.ar  1 <1>   0.0530 
 22 C        7.8470     6.6860     0.8380 C.ar  1 <1>  -0.1500 
 23 C        7.9250     8.1250    -1.0560 C.ar  1 <1>  -0.1500 
 24 C        8.4490     7.6630     1.6090 C.ar  1 <1>  -0.1500 
 25 C        8.5270     9.1060    -0.2890 C.ar  1 <1>  -0.1500 
 26 C        8.7920     8.8820     1.0510 C.ar  1 <1>  -0.1440 
 27 C        9.4540     9.9560     1.8950 C.3   1 <1>  -0.0970 
 28 H        3.1530     0.6770    -1.3360 H     1 <1>   0.0800 
 29 H        3.1010     2.8980     1.5500 H     1 <1>   0.0800 
 30 H        1.8110     3.2630     0.4730 H     1 <1>   0.0800 
 31 H        0.1640     1.4240     0.5200 H     1 <1>   0.0800 
 32 H        0.8850     1.3650    -1.0650 H     1 <1>   0.0800 
 33 H        2.9500    -1.2490     0.7730 H     1 <1>   0.4500 
 34 H        5.4690     0.1970    -0.4790 H     1 <1>   0.0800 
 35 H        4.9040     0.7000     1.0890 H     1 <1>   0.0800 
 36 H        3.9920     4.0930    -0.3150 H     1 <1>   0.0800 
 37 H        3.3240     2.9480    -1.4480 H     1 <1>   0.0800 
 38 H       -0.3470    -0.7030    -0.7000 H     1 <1>   0.0800 
 39 H        0.4150    -0.9570     0.8300 H     1 <1>   0.0800 
 40 H        1.6780    -1.1930    -1.8940 H     1 <1>   0.0800 
 41 H        1.4490    -2.4530    -0.7070 H     1 <1>   0.0800 
 42 H        4.2600    -1.8120    -1.8320 H     1 <1>   0.0800 
 43 H        3.7860    -3.0320    -0.6630 H     1 <1>   0.0800 
 44 H        4.9930    -1.8470    -0.2360 H     1 <1>   0.0800 
 45 H        6.8520     1.9530    -1.1930 H     1 <1>   0.0800 
 46 H        5.5290     1.9570    -2.3320 H     1 <1>   0.0800 
 47 H        5.4390     4.3270    -3.7550 H     1 <1>   0.1500 
 48 H        6.3440     6.7480    -3.2340 H     1 <1>   0.1500 
 49 H        7.5840     5.7450     1.2890 H     1 <1>   0.1500 
 50 H        7.7320     8.3200    -2.0940 H     1 <1>   0.1500 
 51 H        8.6490     7.4680     2.6480 H     1 <1>   0.1500 
 52 H        8.7900    10.0460    -0.7410 H     1 <1>   0.1500 
 53 H        9.1390     9.8760     2.9190 H     1 <1>   0.0800 
 54 H        9.1900    10.9340     1.5340 H     1 <1>   0.0800 
 55 H       10.5230     9.8460     1.8500 H     1 <1>   0.0800 
@<TRIPOS>BOND
  1   1   2  ar  
  2   2   3  ar  
  3   2   4  1   
  4   4   5  1   
  5   4   6  1   
  6   4   7  1   
  7   5   8  1   
  8   5   9  1   
  9   5  28  1   
 10   6  10  1   
 11   6  29  1   
 12   6  30  1   
 13   7  11  1   
 14   7  31  1   
 15   7  32  1   
 16   8  12  1   
 17   8  13  1   
 18   8  33  1   
 19   9  14  1   
 20   9  34  1   
 21   9  35  1   
 22  10  14  1   
 23  10  36  1   
 24  10  37  1   
 25  11  12  1   
 26  11  38  1   
 27  11  39  1   
 28  12  40  1   
 29  12  41  1   
 30  13  42  1   
 31  13  43  1   
 32  13  44  1   
 33  14  15  1   
 34  15  16  1   
 35  15  45  1   
 36  15  46  1   
 37  16  17  1   
 38  16  18  2   
 39  17  19  1   
 40  18  20  1   
 41  18  47  1   
 42  19  20  2   
 43  19  21  1   
 44  20  48  1   
 45  21  22  ar  
 46  21  23  ar  
 47  22  24  ar  
 48  22  49  1   
 49  23  25  ar  
 50  23  50  1   
 51  24  26  ar  
 52  24  51  1   
 53  25  26  ar  
 54  25  52  1   
 55  26  27  1   
 56  27  53  1   
 57  27  54  1   
 58  27  55  1   
@<TRIPOS>SUBSTRUCTURE
  1 ****  14 GROUP 4 **** **** 0

# MOE 2024.06 (io_trps.svl 2023.06)
