@<TRIPOS>MOLECULE
NONAME
52 54 1 0 0 
SMALL
USER_CHARGES


@<TRIPOS>ATOM
  1 O       -2.4710    -2.8410    -0.5980 O.2   1 <1>  -0.5700 
  2 C       -2.5570    -3.5690     0.3610 C.2   1 <1>   0.5690 
  3 N       -2.5910    -4.9250     0.3060 N.am  1 <1>  -0.6600 
  4 C       -2.6340    -3.0730     1.7770 C.3   1 <1>  -0.0990 
  5 C       -2.5470    -5.5250     1.6540 C.3   1 <1>   0.1400 
  6 C       -2.2830    -5.7650    -0.8910 C.3   1 <1>   0.1400 
  7 C       -2.8540    -4.3540     2.5970 C.3   1 <1>  -0.1600 
  8 C       -2.9020    -5.1980    -2.1840 C.3   1 <1>   0.3430 
  9 N       -4.3390    -4.8390    -1.9760 N.4   1 <1>  -0.9590 
 10 C       -5.2640    -6.0170    -2.0690 C.3   1 <1>   0.3430 
 11 C       -4.7320    -3.6540    -2.7850 C.3   1 <1>   0.3430 
 12 C       -6.7470    -5.6500    -1.8600 C.3   1 <1>   0.1400 
 13 C       -5.5500    -2.6810    -1.9300 C.3   1 <1>  -0.1600 
 14 N       -6.8930    -4.5260    -0.8930 N.am  1 <1>  -0.6600 
 15 C       -6.9380    -3.1660    -1.4900 C.3   1 <1>   0.1400 
 16 C       -6.6410    -4.7160     0.4470 C.2   1 <1>   0.7160 
 17 O       -5.9360    -3.9030     1.0150 O.2   1 <1>  -0.5700 
 18 C       -7.0840    -5.9060     1.1300 C.2   1 <1>  -0.0860 
 19 C       -8.2110    -6.6770     1.0490 C.2   1 <1>  -0.3320 
 20 C       -6.3290    -6.5530     2.1070 C.2   1 <1>   0.1390 
 21 N       -8.0570    -7.7040     1.9080 N.pl3 1 <1>   0.3140 
 22 C       -9.4660    -6.4620     0.2130 C.3   1 <1>  -0.0600 
 23 N       -6.8840    -7.6310     2.5520 N.2   1 <1>  -0.7070 
 24 C       -9.0090    -8.7860     2.2030 C.3   1 <1>   0.0160 
 25 H       -3.4500    -2.3830     1.8910 H     1 <1>   0.0800 
 26 H       -1.7070    -2.5960     2.0360 H     1 <1>   0.0800 
 27 H       -1.5600    -5.9120     1.8440 H     1 <1>   0.0800 
 28 H       -3.2710    -6.3150     1.7520 H     1 <1>   0.0800 
 29 H       -2.6540    -6.7620    -0.7280 H     1 <1>   0.0800 
 30 H       -1.2140    -5.8270    -1.0080 H     1 <1>   0.0800 
 31 H       -3.8840    -4.4060     2.9060 H     1 <1>   0.0800 
 32 H       -2.2330    -4.3820     3.4750 H     1 <1>   0.0800 
 33 H       -2.7980    -5.9030    -2.9920 H     1 <1>   0.0800 
 34 H       -2.3480    -4.3110    -2.4450 H     1 <1>   0.0800 
 35 H       -4.3760    -4.4930    -0.9960 H     1 <1>   0.4500 
 36 H       -4.9890    -6.7340    -1.3120 H     1 <1>   0.0800 
 37 H       -5.1550    -6.4980    -3.0260 H     1 <1>   0.0800 
 38 H       -5.2880    -3.9550    -3.6570 H     1 <1>   0.0800 
 39 H       -3.8440    -3.1360    -3.1120 H     1 <1>   0.0800 
 40 H       -7.2750    -6.5180    -1.5090 H     1 <1>   0.0800 
 41 H       -7.1830    -5.3730    -2.8040 H     1 <1>   0.0800 
 42 H       -5.6870    -1.7770    -2.4960 H     1 <1>   0.0800 
 43 H       -4.9850    -2.4030    -1.0590 H     1 <1>   0.0800 
 44 H       -7.6110    -3.1700    -2.3310 H     1 <1>   0.0800 
 45 H       -7.3360    -2.4750    -0.7640 H     1 <1>   0.0800 
 46 H       -5.3800    -6.1940     2.4610 H     1 <1>   0.1500 
 47 H       -9.4160    -5.5300    -0.3190 H     1 <1>   0.0800 
 48 H      -10.3320    -6.4310     0.8520 H     1 <1>   0.0800 
 49 H       -9.5870    -7.2610    -0.4960 H     1 <1>   0.0800 
 50 H       -9.3160    -9.2520     1.2860 H     1 <1>   0.0800 
 51 H       -9.8600    -8.3750     2.7110 H     1 <1>   0.0800 
 52 H       -8.5320    -9.5130     2.8340 H     1 <1>   0.0800 
@<TRIPOS>BOND
  1   1   2  2   
  2   2   3  am  
  3   2   4  1   
  4   3   5  1   
  5   3   6  1   
  6   4   7  1   
  7   4  25  1   
  8   4  26  1   
  9   5   7  1   
 10   5  27  1   
 11   5  28  1   
 12   6   8  1   
 13   6  29  1   
 14   6  30  1   
 15   7  31  1   
 16   7  32  1   
 17   8   9  1   
 18   8  33  1   
 19   8  34  1   
 20   9  10  1   
 21   9  11  1   
 22   9  35  1   
 23  10  12  1   
 24  10  36  1   
 25  10  37  1   
 26  11  13  1   
 27  11  38  1   
 28  11  39  1   
 29  12  14  1   
 30  12  40  1   
 31  12  41  1   
 32  13  15  1   
 33  13  42  1   
 34  13  43  1   
 35  14  15  1   
 36  14  16  am  
 37  15  44  1   
 38  15  45  1   
 39  16  17  2   
 40  16  18  1   
 41  18  19  2   
 42  18  20  1   
 43  19  21  1   
 44  19  22  1   
 45  20  23  2   
 46  20  46  1   
 47  21  23  1   
 48  21  24  1   
 49  22  47  1   
 50  22  48  1   
 51  22  49  1   
 52  24  50  1   
 53  24  51  1   
 54  24  52  1   
@<TRIPOS>SUBSTRUCTURE
  1 ****  16 GROUP 4 **** **** 0

# MOE 2024.06 (io_trps.svl 2023.06)
