@<TRIPOS>MOLECULE
NONAME
49 50 1 0 0 
SMALL
USER_CHARGES


@<TRIPOS>ATOM
  1 O        4.0580    -2.2670    -2.0590 O.2   1 <1>  -0.5700 
  2 C        3.3370    -2.0520    -1.1160 C.2   1 <1>   0.5690 
  3 N        2.8510    -0.8200    -0.8520 N.am  1 <1>  -0.7300 
  4 C        2.9540    -3.1930    -0.1950 C.3   1 <1>  -0.0990 
  5 C        3.1290     0.3920    -1.6350 C.3   1 <1>   0.2840 
  6 C        1.4530    -3.5170    -0.2650 C.3   1 <1>  -0.1600 
  7 C        3.1210     1.5910    -0.7020 C.ar  1 <1>  -0.1440 
  8 C        1.0790    -4.6900     0.6480 C.3   1 <1>  -0.0160 
  9 C        1.9810     1.9360     0.0320 C.ar  1 <1>   0.4100 
 10 C        4.2580     2.3570    -0.5580 C.ar  1 <1>  -0.1500 
 11 C       -0.4150    -4.9520     0.5770 C.ar  1 <1>  -0.1440 
 12 N        1.9070     2.9570     0.8620 N.ar  1 <1>  -0.6200 
 13 N        0.8160     1.2400    -0.0410 N.pl3 1 <1>  -0.9000 
 14 C        4.1910     3.4270     0.3100 C.ar  1 <1>  -0.1500 
 15 C       -1.2790    -4.3160     1.4540 C.ar  1 <1>  -0.1500 
 16 C       -0.9290    -5.8220    -0.3700 C.ar  1 <1>  -0.1500 
 17 C        3.0100     3.6770     0.9830 C.ar  1 <1>   0.1600 
 18 C       -2.6450    -4.5410     1.3950 C.ar  1 <1>  -0.1440 
 19 C       -2.2900    -6.0550    -0.4400 C.ar  1 <1>  -0.1500 
 20 C       -3.1590    -5.4170     0.4430 C.ar  1 <1>   0.0820 
 21 C       -3.5720    -3.8310     2.3710 C.3   1 <1>  -0.0970 
 22 O       -4.5050    -5.6080     0.4230 O.3   1 <1>  -0.3620 
 23 C       -5.1140    -6.4970    -0.4830 C.3   1 <1>   0.1200 
 24 C       -6.6160    -6.4820    -0.2200 C.3   1 <1>  -0.2400 
 25 H        2.2080    -0.6550    -0.0700 H     1 <1>   0.3700 
 26 H        3.2280    -2.9250     0.8100 H     1 <1>   0.0800 
 27 H        3.5250    -4.0610    -0.4740 H     1 <1>   0.0800 
 28 H        2.3720     0.5100    -2.3900 H     1 <1>   0.0800 
 29 H        4.0840     0.2960    -2.1240 H     1 <1>   0.0800 
 30 H        1.1900    -3.7620    -1.2810 H     1 <1>   0.0800 
 31 H        0.8800    -2.6520     0.0230 H     1 <1>   0.0800 
 32 H        1.3560    -4.4670     1.6640 H     1 <1>   0.0800 
 33 H        1.6160    -5.5730     0.3490 H     1 <1>   0.0800 
 34 H        5.1670     2.1350    -1.0920 H     1 <1>   0.1500 
 35 H        0.1060     1.6830     0.5460 H     1 <1>   0.4000 
 36 H        0.4600     1.0720    -0.9820 H     1 <1>   0.4000 
 37 H        5.0470     4.0600     0.4650 H     1 <1>   0.1500 
 38 H       -0.8830    -3.6380     2.1890 H     1 <1>   0.1500 
 39 H       -0.2700    -6.3200    -1.0590 H     1 <1>   0.1500 
 40 H        2.9690     4.5140     1.6590 H     1 <1>   0.1500 
 41 H       -2.6520    -6.7340    -1.1860 H     1 <1>   0.1500 
 42 H       -3.0240    -3.1810     3.0280 H     1 <1>   0.0800 
 43 H       -4.0980    -4.5580     2.9640 H     1 <1>   0.0800 
 44 H       -4.2910    -3.2450     1.8270 H     1 <1>   0.0800 
 45 H       -4.7080    -7.4800    -0.3190 H     1 <1>   0.0800 
 46 H       -4.8990    -6.1640    -1.4840 H     1 <1>   0.0800 
 47 H       -6.8170    -6.7990     0.7880 H     1 <1>   0.0800 
 48 H       -7.1120    -7.1530    -0.8970 H     1 <1>   0.0800 
 49 H       -7.0060    -5.4910    -0.3690 H     1 <1>   0.0800 
@<TRIPOS>BOND
  1   1   2  2   
  2   2   3  am  
  3   2   4  1   
  4   3   5  1   
  5   3  25  1   
  6   4   6  1   
  7   4  26  1   
  8   4  27  1   
  9   5   7  1   
 10   5  28  1   
 11   5  29  1   
 12   6   8  1   
 13   6  30  1   
 14   6  31  1   
 15   7   9  ar  
 16   7  10  ar  
 17   8  11  1   
 18   8  32  1   
 19   8  33  1   
 20   9  12  ar  
 21   9  13  1   
 22  10  14  ar  
 23  10  34  1   
 24  11  15  ar  
 25  11  16  ar  
 26  12  17  ar  
 27  13  35  1   
 28  13  36  1   
 29  14  17  ar  
 30  14  37  1   
 31  15  18  ar  
 32  15  38  1   
 33  16  19  ar  
 34  16  39  1   
 35  17  40  1   
 36  18  20  ar  
 37  18  21  1   
 38  19  20  ar  
 39  19  41  1   
 40  20  22  1   
 41  21  42  1   
 42  21  43  1   
 43  21  44  1   
 44  22  23  1   
 45  23  24  1   
 46  23  45  1   
 47  23  46  1   
 48  24  47  1   
 49  24  48  1   
 50  24  49  1   
@<TRIPOS>SUBSTRUCTURE
  1 ****   6 GROUP 4 **** **** 0

# MOE 2024.06 (io_trps.svl 2023.06)
