@<TRIPOS>MOLECULE
NONAME
46 47 1 0 0 
SMALL
USER_CHARGES


@<TRIPOS>ATOM
  1 O        0.8820     3.7400     2.1570 O.2   1 <1>  -0.5700 
  2 C        0.1900     3.0220     1.4500 C.2   1 <1>   0.5440 
  3 N        0.3590     1.6490     1.5470 N.am  1 <1>  -0.6600 
  4 C       -0.7730     3.6300     0.5290 C.ar  1 <1>   0.3960 
  5 C        1.1420     1.0330     2.6560 C.3   1 <1>   0.0600 
  6 C       -0.0780     0.6850     0.4990 C.3   1 <1>   0.0600 
  7 N       -0.3490     4.6020    -0.2920 N.ar  1 <1>  -0.6200 
  8 C       -2.0980     3.2020     0.5290 C.ar  1 <1>  -0.1500 
  9 C       -1.2290     5.1750    -1.0910 C.ar  1 <1>   0.4100 
 10 C       -3.0170     3.7680    -0.3280 C.ar  1 <1>  -0.1500 
 11 N       -0.7290     6.2360    -1.8450 N.pl3 1 <1>  -0.8380 
 12 C       -2.5630     4.7700    -1.1490 C.ar  1 <1>  -0.1500 
 13 C        0.6340     6.1230    -2.4910 C.3   1 <1>   0.2090 
 14 C       -1.6570     7.2010    -2.5080 C.3   1 <1>   0.1290 
 15 C        1.8030     6.2430    -1.4810 C.3   1 <1>   0.3430 
 16 N        1.3670     6.9710    -0.2570 N.4   1 <1>  -0.9590 
 17 C        1.3370     8.4640    -0.3280 C.3   1 <1>   0.3430 
 18 C        1.9490     6.4550     1.0170 C.3   1 <1>   0.3430 
 19 C        1.1690     9.1030     1.0690 C.3   1 <1>   0.1200 
 20 C        1.1920     7.0370     2.2340 C.3   1 <1>   0.1200 
 21 O        0.5010     8.2300     1.9350 O.3   1 <1>  -0.5600 
 22 H        1.2660     1.7290     3.4690 H     1 <1>   0.0800 
 23 H        2.1140     0.7430     2.2970 H     1 <1>   0.0800 
 24 H        0.6280     0.1650     3.0290 H     1 <1>   0.0800 
 25 H       -0.3650     1.1970    -0.4030 H     1 <1>   0.0800 
 26 H       -0.9120     0.1090     0.8600 H     1 <1>   0.0800 
 27 H        0.7310     0.0160     0.2610 H     1 <1>   0.0800 
 28 H       -2.4020     2.4260     1.2080 H     1 <1>   0.1500 
 29 H       -4.0440     3.4420    -0.3470 H     1 <1>   0.1500 
 30 H       -3.2450     5.2380    -1.8320 H     1 <1>   0.1500 
 31 H        0.7460     6.8920    -3.2350 H     1 <1>   0.0800 
 32 H        0.7090     5.1760    -3.0000 H     1 <1>   0.0800 
 33 H       -2.4930     7.4160    -1.8650 H     1 <1>   0.0800 
 34 H       -2.0200     6.7860    -3.4330 H     1 <1>   0.0800 
 35 H       -1.1480     8.1260    -2.7150 H     1 <1>   0.0800 
 36 H        2.6570     6.7150    -1.9340 H     1 <1>   0.0800 
 37 H        2.0860     5.2410    -1.2010 H     1 <1>   0.0800 
 38 H        0.3640     6.6740    -0.2030 H     1 <1>   0.4500 
 39 H        0.5140     8.7690    -0.9530 H     1 <1>   0.0800 
 40 H        2.2450     8.8350    -0.7730 H     1 <1>   0.0800 
 41 H        2.9870     6.7320     1.0820 H     1 <1>   0.0800 
 42 H        1.8950     5.3800     1.0440 H     1 <1>   0.0800 
 43 H        0.5930    10.0090     0.9980 H     1 <1>   0.0800 
 44 H        2.1260     9.3420     1.4980 H     1 <1>   0.0800 
 45 H        1.8760     7.2290     3.0410 H     1 <1>   0.0800 
 46 H        0.4630     6.3240     2.5790 H     1 <1>   0.0800 
@<TRIPOS>BOND
  1   1   2  2   
  2   2   3  am  
  3   2   4  1   
  4   3   5  1   
  5   3   6  1   
  6   4   7  ar  
  7   4   8  ar  
  8   5  22  1   
  9   5  23  1   
 10   5  24  1   
 11   6  25  1   
 12   6  26  1   
 13   6  27  1   
 14   7   9  ar  
 15   8  10  ar  
 16   8  28  1   
 17   9  11  1   
 18   9  12  ar  
 19  10  12  ar  
 20  10  29  1   
 21  11  13  1   
 22  11  14  1   
 23  12  30  1   
 24  13  15  1   
 25  13  31  1   
 26  13  32  1   
 27  14  33  1   
 28  14  34  1   
 29  14  35  1   
 30  15  16  1   
 31  15  36  1   
 32  15  37  1   
 33  16  17  1   
 34  16  18  1   
 35  16  38  1   
 36  17  19  1   
 37  17  39  1   
 38  17  40  1   
 39  18  20  1   
 40  18  41  1   
 41  18  42  1   
 42  19  21  1   
 43  19  43  1   
 44  19  44  1   
 45  20  21  1   
 46  20  45  1   
 47  20  46  1   
@<TRIPOS>SUBSTRUCTURE
  1 ****   7 GROUP 4 **** **** 0

# MOE 2024.06 (io_trps.svl 2023.06)
