@<TRIPOS>MOLECULE
NONAME
55 58 1 0 0 
SMALL
USER_CHARGES


@<TRIPOS>ATOM
  1 O       -2.1490    -1.4450    -0.2220 O.3   1 <1>  -0.5600 
  2 C       -2.8730    -2.5520     0.2350 C.3   1 <1>   0.1200 
  3 C       -1.0170    -1.7750    -0.9680 C.3   1 <1>   0.1200 
  4 C       -2.0000    -3.4290     1.1480 C.3   1 <1>   0.2090 
  5 C       -0.0330    -2.6040    -0.1200 C.3   1 <1>   0.2090 
  6 N       -0.7080    -3.8170     0.4640 N.pl3 1 <1>  -0.8380 
  7 C       -0.2960    -5.1120     0.3970 C.ar  1 <1>   0.7710 
  8 N       -1.1040    -6.0750     0.8170 N.ar  1 <1>  -0.6200 
  9 N        0.9280    -5.3890    -0.0890 N.ar  1 <1>  -0.1790 
 10 C       -0.6900    -7.3170     0.7380 C.ar  1 <1>   0.4100 
 11 C        1.3990    -6.6560    -0.1830 C.ar  1 <1>   0.2180 
 12 N       -1.5660    -8.2310     1.1760 N.pl3 1 <1>  -0.8690 
 13 C        0.5800    -7.6510     0.2360 C.ar  1 <1>  -0.1500 
 14 C        2.7990    -6.8890    -0.7400 C.3   1 <1>  -0.0170 
 15 C       -1.5050    -9.7090     1.1880 C.3   1 <1>   0.3890 
 16 C        3.8850    -6.2600     0.1430 C.3   1 <1>  -0.2400 
 17 C       -2.9130   -10.2630     1.1700 C.2   1 <1>  -0.0400 
 18 O       -3.7170   -10.0170     2.1680 O.3   1 <1>  -0.0190 
 19 C       -3.5810   -11.0150     0.2860 C.2   1 <1>  -0.1500 
 20 N       -4.8840   -10.5610     1.9980 N.2   1 <1>  -0.4100 
 21 C       -4.8460   -11.1910     0.8620 C.2   1 <1>   0.2350 
 22 C       -5.9560   -11.9270     0.2880 C.ar  1 <1>   0.0540 
 23 C       -5.8000   -13.1330    -0.4130 C.ar  1 <1>   0.0820 
 24 C       -7.2490   -11.4240     0.4350 C.ar  1 <1>  -0.1500 
 25 O       -4.5470   -13.6490    -0.5340 O.3   1 <1>  -0.3630 
 26 C       -6.9100   -13.7780    -0.9540 C.ar  1 <1>  -0.1500 
 27 C       -8.3470   -12.0700    -0.0990 C.ar  1 <1>  -0.1500 
 28 C       -4.3100   -14.9410    -1.0490 C.3   1 <1>   0.0400 
 29 C       -8.1780   -13.2500    -0.7980 C.ar  1 <1>  -0.1500 
 30 H       -3.2240    -3.1140    -0.6130 H     1 <1>   0.0800 
 31 H       -3.7250    -2.1830     0.7800 H     1 <1>   0.0800 
 32 H       -0.5570    -0.8540    -1.2820 H     1 <1>   0.0800 
 33 H       -1.3280    -2.3200    -1.8430 H     1 <1>   0.0800 
 34 H       -2.5770    -4.2870     1.4440 H     1 <1>   0.0800 
 35 H       -1.7730    -2.8740     2.0430 H     1 <1>   0.0800 
 36 H        0.3330    -1.9810     0.6800 H     1 <1>   0.0800 
 37 H        0.8010    -2.8730    -0.7410 H     1 <1>   0.0800 
 38 H        1.4930    -4.5920    -0.3470 H     1 <1>   0.4570 
 39 H       -2.4590    -7.8760     1.5390 H     1 <1>   0.4000 
 40 H        0.8750    -8.6820     0.2010 H     1 <1>   0.1500 
 41 H        2.8650    -6.4880    -1.7370 H     1 <1>   0.0800 
 42 H        2.9830    -7.9470    -0.8100 H     1 <1>   0.0800 
 43 H       -1.0030   -10.0420     2.0810 H     1 <1>   0.0800 
 44 H       -0.9690   -10.0670     0.3270 H     1 <1>   0.0800 
 45 H        3.7930    -5.1900     0.1850 H     1 <1>   0.0800 
 46 H        4.8580    -6.4960    -0.2540 H     1 <1>   0.0800 
 47 H        3.8310    -6.6530     1.1450 H     1 <1>   0.0800 
 48 H       -3.2690   -11.4160    -0.6600 H     1 <1>   0.1500 
 49 H       -7.3910   -10.5070     0.9800 H     1 <1>   0.1500 
 50 H       -6.8130   -14.6960    -1.5010 H     1 <1>   0.1500 
 51 H       -9.3320   -11.6550     0.0300 H     1 <1>   0.1500 
 52 H       -3.2580   -15.1470    -0.9660 H     1 <1>   0.0800 
 53 H       -4.6060   -14.9660    -2.0830 H     1 <1>   0.0800 
 54 H       -4.8680   -15.6560    -0.4700 H     1 <1>   0.0800 
 55 H       -9.0320   -13.7540    -1.2170 H     1 <1>   0.1500 
@<TRIPOS>BOND
  1   1   2  1   
  2   1   3  1   
  3   2   4  1   
  4   2  30  1   
  5   2  31  1   
  6   3   5  1   
  7   3  32  1   
  8   3  33  1   
  9   4   6  1   
 10   4  34  1   
 11   4  35  1   
 12   5   6  1   
 13   5  36  1   
 14   5  37  1   
 15   6   7  1   
 16   7   8  ar  
 17   7   9  ar  
 18   8  10  ar  
 19   9  11  ar  
 20   9  38  1   
 21  10  12  1   
 22  10  13  ar  
 23  11  13  ar  
 24  11  14  1   
 25  12  15  1   
 26  12  39  1   
 27  13  40  1   
 28  14  16  1   
 29  14  41  1   
 30  14  42  1   
 31  15  17  1   
 32  15  43  1   
 33  15  44  1   
 34  16  45  1   
 35  16  46  1   
 36  16  47  1   
 37  17  18  1   
 38  17  19  2   
 39  18  20  1   
 40  19  21  1   
 41  19  48  1   
 42  20  21  2   
 43  21  22  1   
 44  22  23  ar  
 45  22  24  ar  
 46  23  25  1   
 47  23  26  ar  
 48  24  27  ar  
 49  24  49  1   
 50  25  28  1   
 51  26  29  ar  
 52  26  50  1   
 53  27  29  ar  
 54  27  51  1   
 55  28  52  1   
 56  28  53  1   
 57  28  54  1   
 58  29  55  1   
@<TRIPOS>SUBSTRUCTURE
  1 ****  12 GROUP 4 **** **** 0

# MOE 2024.06 (io_trps.svl 2023.06)
