@<TRIPOS>MOLECULE
NONAME
52 55 1 0 0 
SMALL
USER_CHARGES


@<TRIPOS>ATOM
  1 O       -2.8540     0.7250    -2.3580 O.2   1 <1>  -0.5700 
  2 C       -2.4650     1.0580    -1.2550 C.2   1 <1>   0.5440 
  3 N       -2.5400     0.1090    -0.2590 N.am  1 <1>  -0.6600 
  4 C       -2.0260     2.4170    -0.9890 C.ar  1 <1>   0.0860 
  5 C       -3.3430     0.3810     0.9690 C.3   1 <1>   0.1400 
  6 C       -2.4940    -1.3350    -0.6280 C.3   1 <1>   0.1400 
  7 C       -1.1370     2.7230     0.0190 C.ar  1 <1>  -0.1500 
  8 C       -2.5160     3.4880    -1.7660 C.ar  1 <1>  -0.1500 
  9 C       -4.7780    -0.1910     0.8400 C.3   1 <1>   0.4230 
 10 C       -3.9240    -1.8690    -0.8180 C.3   1 <1>   0.3430 
 11 C       -0.7340     4.0400     0.3060 C.ar  1 <1>   0.0000 
 12 C       -2.1440     4.7790    -1.5170 C.ar  1 <1>  -0.1500 
 13 N       -4.7820    -1.6520     0.4130 N.4   1 <1>  -0.9590 
 14 C       -5.6320     0.6690    -0.1220 C.3   1 <1>   0.1200 
 15 C       -1.2520     5.0940    -0.4740 C.ar  1 <1>   0.0000 
 16 C        0.1680     4.3500     1.3450 C.ar  1 <1>  -0.1500 
 17 C       -6.2050    -2.1140     0.2360 C.3   1 <1>   0.4230 
 18 O       -6.9280     0.1520    -0.2070 O.3   1 <1>  -0.5600 
 19 C       -0.8560     6.4150    -0.1840 C.ar  1 <1>  -0.1500 
 20 C        0.5360     5.6410     1.6060 C.ar  1 <1>  -0.1500 
 21 C       -7.0030    -1.1610    -0.6870 C.3   1 <1>   0.1200 
 22 C       -6.2460    -3.5770    -0.2370 C.3   1 <1>  -0.1600 
 23 C        0.0170     6.6850     0.8330 C.ar  1 <1>  -0.1500 
 24 C       -7.6360    -4.2110    -0.0630 C.3   1 <1>  -0.1600 
 25 C       -7.6150    -5.6870    -0.4660 C.3   1 <1>  -0.2400 
 26 H       -2.8520    -0.0640     1.8160 H     1 <1>   0.0800 
 27 H       -3.3970     1.4420     1.1510 H     1 <1>   0.0800 
 28 H       -1.9430    -1.4590    -1.5460 H     1 <1>   0.0800 
 29 H       -1.9830    -1.8910     0.1370 H     1 <1>   0.0800 
 30 H       -0.7180     1.9350     0.6180 H     1 <1>   0.1500 
 31 H       -3.1940     3.2660    -2.5730 H     1 <1>   0.1500 
 32 H       -5.2420    -0.1120     1.8100 H     1 <1>   0.0800 
 33 H       -3.8730    -2.9190    -1.0540 H     1 <1>   0.0800 
 34 H       -4.3600    -1.3610    -1.6640 H     1 <1>   0.0800 
 35 H       -2.5280     5.5820    -2.1210 H     1 <1>   0.1500 
 36 H       -4.3730    -2.2000     1.1770 H     1 <1>   0.4500 
 37 H       -5.2090     0.7020    -1.1120 H     1 <1>   0.0800 
 38 H       -5.7100     1.6770     0.2470 H     1 <1>   0.0800 
 39 H        0.5690     3.5460     1.9360 H     1 <1>   0.1500 
 40 H       -6.6870    -2.0810     1.1990 H     1 <1>   0.0800 
 41 H       -1.2550     7.2140    -0.7820 H     1 <1>   0.1500 
 42 H        1.2250     5.8720     2.4000 H     1 <1>   0.1500 
 43 H       -8.0430    -1.4340    -0.7000 H     1 <1>   0.0800 
 44 H       -6.6320    -1.1840    -1.6970 H     1 <1>   0.0800 
 45 H       -5.9700    -3.6420    -1.2760 H     1 <1>   0.0800 
 46 H       -5.5460    -4.1540     0.3420 H     1 <1>   0.0800 
 47 H        0.3170     7.6960     1.0510 H     1 <1>   0.1500 
 48 H       -7.9500    -4.1360     0.9650 H     1 <1>   0.0800 
 49 H       -8.3640    -3.7020    -0.6720 H     1 <1>   0.0800 
 50 H       -6.9250    -6.2430     0.1450 H     1 <1>   0.0800 
 51 H       -7.3320    -5.7980    -1.4990 H     1 <1>   0.0800 
 52 H       -8.5950    -6.1160    -0.3390 H     1 <1>   0.0800 
@<TRIPOS>BOND
  1   1   2  2   
  2   2   3  am  
  3   2   4  1   
  4   3   5  1   
  5   3   6  1   
  6   4   7  ar  
  7   4   8  ar  
  8   5   9  1   
  9   5  26  1   
 10   5  27  1   
 11   6  10  1   
 12   6  28  1   
 13   6  29  1   
 14   7  11  ar  
 15   7  30  1   
 16   8  12  ar  
 17   8  31  1   
 18   9  13  1   
 19   9  14  1   
 20   9  32  1   
 21  10  13  1   
 22  10  33  1   
 23  10  34  1   
 24  11  15  ar  
 25  11  16  ar  
 26  12  15  ar  
 27  12  35  1   
 28  13  17  1   
 29  13  36  1   
 30  14  18  1   
 31  14  37  1   
 32  14  38  1   
 33  15  19  ar  
 34  16  20  ar  
 35  16  39  1   
 36  17  21  1   
 37  17  22  1   
 38  17  40  1   
 39  18  21  1   
 40  19  23  ar  
 41  19  41  1   
 42  20  23  ar  
 43  20  42  1   
 44  21  43  1   
 45  21  44  1   
 46  22  24  1   
 47  22  45  1   
 48  22  46  1   
 49  23  47  1   
 50  24  25  1   
 51  24  48  1   
 52  24  49  1   
 53  25  50  1   
 54  25  51  1   
 55  25  52  1   
@<TRIPOS>SUBSTRUCTURE
  1 ****   3 GROUP 4 **** **** 0

# MOE 2024.06 (io_trps.svl 2023.06)
