@<TRIPOS>MOLECULE
NONAME
42 45 1 0 0 
SMALL
USER_CHARGES


@<TRIPOS>ATOM
  1 S       -0.8770     0.9420     2.6260 S.3   1 <1>  -0.0800 
  2 C       -1.3080     1.2670     0.9540 C.2   1 <1>  -0.1400 
  3 C       -2.1290    -0.2890     2.7410 C.2   1 <1>  -0.1100 
  4 C       -2.3300     0.4910     0.5680 C.2   1 <1>  -0.1810 
  5 C       -0.5870     2.3060     0.1010 C.3   1 <1>   0.4600 
  6 C       -2.8000    -0.4050     1.5790 C.2   1 <1>  -0.1500 
  7 C       -2.8750     0.6190    -0.8360 C.3   1 <1>   0.0210 
  8 O       -1.0650     2.2070    -1.2270 O.3   1 <1>  -0.5600 
  9 C        0.9170     2.0170     0.0390 C.3   1 <1>  -0.1600 
 10 C       -0.8360     3.7300     0.6180 C.3   1 <1>  -0.1600 
 11 C       -2.4410     1.9770    -1.4230 C.3   1 <1>   0.1200 
 12 C        1.6620     3.0750    -0.7760 C.3   1 <1>   0.1400 
 13 C       -0.0760     4.7680    -0.2090 C.3   1 <1>   0.1400 
 14 N        1.3740     4.4250    -0.2140 N.am  1 <1>  -0.6600 
 15 C        2.3860     5.2810     0.1700 C.2   1 <1>   0.5690 
 16 O        3.5480     4.9510     0.0530 O.2   1 <1>  -0.5700 
 17 C        2.0650     6.6710     0.7800 C.3   1 <1>   0.2610 
 18 O        1.4560     7.5160    -0.1600 O.3   1 <1>  -0.5600 
 19 C        3.2730     7.4910     1.2390 C.3   1 <1>  -0.1600 
 20 C        2.4340     8.1570    -0.9150 C.3   1 <1>   0.1200 
 21 C        3.6520     8.2860    -0.0030 C.3   1 <1>  -0.1600 
 22 H       -2.2290    -0.8030     3.6810 H     1 <1>   0.1500 
 23 H       -3.6110    -1.0860     1.3890 H     1 <1>   0.1500 
 24 H       -3.9480     0.5630    -0.8240 H     1 <1>   0.0800 
 25 H       -2.4970    -0.1810    -1.4470 H     1 <1>   0.0800 
 26 H        1.3260     2.0040     1.0320 H     1 <1>   0.0800 
 27 H        1.0730     1.0450    -0.3910 H     1 <1>   0.0800 
 28 H       -1.8860     3.9480     0.6120 H     1 <1>   0.0800 
 29 H       -0.5040     3.7970     1.6380 H     1 <1>   0.0800 
 30 H       -2.9900     2.7770    -0.9600 H     1 <1>   0.0800 
 31 H       -2.6280     2.0000    -2.4820 H     1 <1>   0.0800 
 32 H        1.3380     3.0460    -1.8030 H     1 <1>   0.0800 
 33 H        2.7180     2.8670    -0.7540 H     1 <1>   0.0800 
 34 H       -0.2520     5.7460     0.1970 H     1 <1>   0.0800 
 35 H       -0.4380     4.7640    -1.2240 H     1 <1>   0.0800 
 36 H        1.3820     6.5340     1.5980 H     1 <1>   0.0800 
 37 H        2.9610     8.1590     2.0210 H     1 <1>   0.0800 
 38 H        4.0780     6.8790     1.6050 H     1 <1>   0.0800 
 39 H        2.6540     7.5410    -1.7710 H     1 <1>   0.0800 
 40 H        2.0550     9.1130    -1.2320 H     1 <1>   0.0800 
 41 H        4.5120     7.8570    -0.4880 H     1 <1>   0.0800 
 42 H        3.8560     9.3160     0.2330 H     1 <1>   0.0800 
@<TRIPOS>BOND
  1   1   2  1   
  2   1   3  1   
  3   2   4  2   
  4   2   5  1   
  5   3   6  2   
  6   3  22  1   
  7   4   6  1   
  8   4   7  1   
  9   5   8  1   
 10   5   9  1   
 11   5  10  1   
 12   6  23  1   
 13   7  11  1   
 14   7  24  1   
 15   7  25  1   
 16   8  11  1   
 17   9  12  1   
 18   9  26  1   
 19   9  27  1   
 20  10  13  1   
 21  10  28  1   
 22  10  29  1   
 23  11  30  1   
 24  11  31  1   
 25  12  14  1   
 26  12  32  1   
 27  12  33  1   
 28  13  14  1   
 29  13  34  1   
 30  13  35  1   
 31  14  15  am  
 32  15  16  2   
 33  15  17  1   
 34  17  18  1   
 35  17  19  1   
 36  17  36  1   
 37  18  20  1   
 38  19  21  1   
 39  19  37  1   
 40  19  38  1   
 41  20  21  1   
 42  20  39  1   
 43  20  40  1   
 44  21  41  1   
 45  21  42  1   
@<TRIPOS>SUBSTRUCTURE
  1 ****  10 GROUP 4 **** **** 0

# MOE 2024.06 (io_trps.svl 2023.06)
