@<TRIPOS>MOLECULE
NONAME
45 47 1 0 0 
SMALL
USER_CHARGES


@<TRIPOS>ATOM
  1 O        0.7350     0.2210    -2.1270 O.2   1 <1>  -0.5700 
  2 C        1.4660     0.6630    -1.2570 C.2   1 <1>   0.5440 
  3 N        1.0660     1.7940    -0.5790 N.am  1 <1>  -0.6600 
  4 C        2.7180     0.0130    -0.9570 C.ar  1 <1>   0.0860 
  5 C        1.5950     2.2080     0.7410 C.3   1 <1>   0.1400 
  6 C       -0.2130     2.4770    -0.8720 C.3   1 <1>   0.1400 
  7 C        2.7660    -1.3570    -0.6360 C.ar  1 <1>   0.4100 
  8 C        3.9130     0.7190    -0.9700 C.ar  1 <1>  -0.1500 
  9 C        0.4480     2.9670     1.3970 C.3   1 <1>  -0.1600 
 10 C       -0.3640     3.5200     0.2300 C.3   1 <1>  -0.1600 
 11 N        3.8880    -2.0030    -0.3190 N.ar  1 <1>  -0.6200 
 12 N        1.6150    -2.1110    -0.6340 N.pl3 1 <1>  -0.8690 
 13 C        5.0710     0.0470    -0.6520 C.ar  1 <1>  -0.1500 
 14 C        5.0010    -1.2980    -0.3350 C.ar  1 <1>   0.1600 
 15 C        1.5960    -3.5840    -0.5600 C.3   1 <1>   0.2090 
 16 C        0.1580    -4.0530    -0.3560 C.3   1 <1>  -0.1600 
 17 C        0.0950    -5.5750    -0.1660 C.3   1 <1>  -0.0170 
 18 C       -1.3360    -6.0470     0.0250 C.ar  1 <1>   0.1670 
 19 N       -2.0240    -6.3060    -1.0760 N.ar  1 <1>  -0.6200 
 20 C       -1.8470    -6.1840     1.3080 C.ar  1 <1>  -0.1500 
 21 C       -3.2680    -6.7160    -0.8930 C.ar  1 <1>   0.1600 
 22 C       -3.1450    -6.6140     1.4850 C.ar  1 <1>  -0.1500 
 23 C       -3.8680    -6.8850     0.3440 C.ar  1 <1>  -0.1500 
 24 H        2.4380     2.8600     0.5930 H     1 <1>   0.0800 
 25 H        1.8900     1.3550     1.3300 H     1 <1>   0.0800 
 26 H       -1.0140     1.7580    -0.8260 H     1 <1>   0.0800 
 27 H       -0.1880     2.9260    -1.8500 H     1 <1>   0.0800 
 28 H        3.9250     1.7640    -1.2260 H     1 <1>   0.1500 
 29 H        0.8040     3.7400     2.0550 H     1 <1>   0.0800 
 30 H       -0.1500     2.2730     1.9620 H     1 <1>   0.0800 
 31 H       -1.3960     3.6820     0.4860 H     1 <1>   0.0800 
 32 H        0.0630     4.4480    -0.1080 H     1 <1>   0.0800 
 33 H        0.8420    -1.7020    -1.1820 H     1 <1>   0.4000 
 34 H        6.0200     0.5530    -0.6480 H     1 <1>   0.1500 
 35 H        5.9100    -1.8170    -0.0840 H     1 <1>   0.1500 
 36 H        2.2110    -3.9060     0.2640 H     1 <1>   0.0800 
 37 H        2.0010    -3.9910    -1.4720 H     1 <1>   0.0800 
 38 H       -0.4330    -3.7800    -1.2120 H     1 <1>   0.0800 
 39 H       -0.2520    -3.5710     0.5140 H     1 <1>   0.0800 
 40 H        0.6830    -5.8590     0.6880 H     1 <1>   0.0800 
 41 H        0.5100    -6.0670    -1.0290 H     1 <1>   0.0800 
 42 H       -1.2360    -5.9540     2.1620 H     1 <1>   0.1500 
 43 H       -3.8430    -6.9290    -1.7780 H     1 <1>   0.1500 
 44 H       -3.5720    -6.7310     2.4650 H     1 <1>   0.1500 
 45 H       -4.8860    -7.2220     0.4080 H     1 <1>   0.1500 
@<TRIPOS>BOND
  1   1   2  2   
  2   2   3  am  
  3   2   4  1   
  4   3   5  1   
  5   3   6  1   
  6   4   7  ar  
  7   4   8  ar  
  8   5   9  1   
  9   5  24  1   
 10   5  25  1   
 11   6  10  1   
 12   6  26  1   
 13   6  27  1   
 14   7  11  ar  
 15   7  12  1   
 16   8  13  ar  
 17   8  28  1   
 18   9  10  1   
 19   9  29  1   
 20   9  30  1   
 21  10  31  1   
 22  10  32  1   
 23  11  14  ar  
 24  12  15  1   
 25  12  33  1   
 26  13  14  ar  
 27  13  34  1   
 28  14  35  1   
 29  15  16  1   
 30  15  36  1   
 31  15  37  1   
 32  16  17  1   
 33  16  38  1   
 34  16  39  1   
 35  17  18  1   
 36  17  40  1   
 37  17  41  1   
 38  18  19  ar  
 39  18  20  ar  
 40  19  21  ar  
 41  20  22  ar  
 42  20  42  1   
 43  21  23  ar  
 44  21  43  1   
 45  22  23  ar  
 46  22  44  1   
 47  23  45  1   
@<TRIPOS>SUBSTRUCTURE
  1 ****  12 GROUP 4 **** **** 0

# MOE 2024.06 (io_trps.svl 2023.06)
