@<TRIPOS>MOLECULE
NONAME
46 49 1 0 0 
SMALL
USER_CHARGES


@<TRIPOS>ATOM
  1 O       -0.4190    -0.4750    -2.5540 O.2   1 <1>  -0.5700 
  2 C       -0.9940     0.2740    -1.8010 C.2   1 <1>   0.5690 
  3 N       -1.9350    -0.1910    -0.9170 N.am  1 <1>  -0.6600 
  4 C       -0.6220     1.7510    -1.8790 C.3   1 <1>   0.0440 
  5 C       -2.1970    -1.6570    -0.7550 C.3   1 <1>   0.1400 
  6 C       -2.7220     0.6460     0.0450 C.3   1 <1>   0.1400 
  7 C       -0.1450     2.3400    -0.5530 C.ar  1 <1>  -0.1440 
  8 C       -3.7050    -1.9570    -0.6690 C.3   1 <1>   0.3440 
  9 C       -4.2060     0.2160     0.0940 C.3   1 <1>   0.2950 
 10 C        0.6700     1.6090     0.3030 C.ar  1 <1>   0.1600 
 11 C       -0.5250     3.6140    -0.1780 C.ar  1 <1>  -0.1500 
 12 O       -4.3020    -1.1600     0.3200 O.3   1 <1>  -0.5600 
 13 C       -3.9410    -3.4310    -0.3480 C.ar  1 <1>  -0.1440 
 14 C       -5.0340     0.9080     1.1910 C.3   1 <1>  -0.1950 
 15 N        1.1090     2.0340     1.4770 N.ar  1 <1>  -0.6200 
 16 C       -0.0710     4.0730     1.0390 C.ar  1 <1>  -0.1500 
 17 C       -3.9970    -3.8870     0.9620 C.ar  1 <1>  -0.1500 
 18 C       -4.0880    -4.3430    -1.3850 C.ar  1 <1>  -0.1500 
 19 C       -4.7580     2.2940     1.6920 C.3   1 <1>  -0.2000 
 20 C       -4.5530     1.1100     2.5950 C.3   1 <1>  -0.2000 
 21 C        0.7300     3.2550     1.8160 C.ar  1 <1>   0.1600 
 22 C       -4.1960    -5.2300     1.2320 C.ar  1 <1>  -0.1500 
 23 C       -4.2870    -5.6860    -1.1160 C.ar  1 <1>  -0.1500 
 24 C       -4.3410    -6.1310     0.1920 C.ar  1 <1>  -0.1500 
 25 H        0.1620     1.8690    -2.6040 H     1 <1>   0.0800 
 26 H       -1.4770     2.2900    -2.2410 H     1 <1>   0.0800 
 27 H       -1.7810    -2.2100    -1.5780 H     1 <1>   0.0800 
 28 H       -1.7210    -2.0040     0.1450 H     1 <1>   0.0800 
 29 H       -2.2840     0.5500     1.0220 H     1 <1>   0.0800 
 30 H       -2.6820     1.6810    -0.2360 H     1 <1>   0.0800 
 31 H       -4.1730    -1.7230    -1.6090 H     1 <1>   0.0800 
 32 H       -4.6610     0.4290    -0.8580 H     1 <1>   0.0800 
 33 H        0.9780     0.6180     0.0110 H     1 <1>   0.1500 
 34 H       -1.1470     4.2310    -0.8030 H     1 <1>   0.1500 
 35 H       -6.0730     0.6460     1.0840 H     1 <1>   0.1000 
 36 H       -0.3310     5.0560     1.3860 H     1 <1>   0.1500 
 37 H       -3.8890    -3.1930     1.7780 H     1 <1>   0.1500 
 38 H       -4.0470    -4.0130    -2.4080 H     1 <1>   0.1500 
 39 H       -3.8840     2.8390     1.3820 H     1 <1>   0.1000 
 40 H       -5.5930     2.9460     1.8860 H     1 <1>   0.1000 
 41 H       -5.2500     0.9380     3.3980 H     1 <1>   0.1000 
 42 H       -3.5520     0.8200     2.8610 H     1 <1>   0.1000 
 43 H        1.0790     3.6240     2.7660 H     1 <1>   0.1500 
 44 H       -4.2410    -5.5710     2.2510 H     1 <1>   0.1500 
 45 H       -4.4000    -6.3860    -1.9260 H     1 <1>   0.1500 
 46 H       -4.4960    -7.1740     0.4020 H     1 <1>   0.1500 
@<TRIPOS>BOND
  1   1   2  2   
  2   2   3  am  
  3   2   4  1   
  4   3   5  1   
  5   3   6  1   
  6   4   7  1   
  7   4  25  1   
  8   4  26  1   
  9   5   8  1   
 10   5  27  1   
 11   5  28  1   
 12   6   9  1   
 13   6  29  1   
 14   6  30  1   
 15   7  10  ar  
 16   7  11  ar  
 17   8  12  1   
 18   8  13  1   
 19   8  31  1   
 20   9  12  1   
 21   9  14  1   
 22   9  32  1   
 23  10  15  ar  
 24  10  33  1   
 25  11  16  ar  
 26  11  34  1   
 27  13  17  ar  
 28  13  18  ar  
 29  14  19  1   
 30  14  20  1   
 31  14  35  1   
 32  15  21  ar  
 33  16  21  ar  
 34  16  36  1   
 35  17  22  ar  
 36  17  37  1   
 37  18  23  ar  
 38  18  38  1   
 39  19  20  1   
 40  19  39  1   
 41  19  40  1   
 42  20  41  1   
 43  20  42  1   
 44  21  43  1   
 45  22  24  ar  
 46  22  44  1   
 47  23  24  ar  
 48  23  45  1   
 49  24  46  1   
@<TRIPOS>SUBSTRUCTURE
  1 ****   3 GROUP 4 **** **** 0

# MOE 2024.06 (io_trps.svl 2023.06)
