@<TRIPOS>MOLECULE
NONAME
46 48 1 0 0 
SMALL
USER_CHARGES


@<TRIPOS>ATOM
  1 O       -1.0720     1.2480    -1.1480 O.2   1 <1>  -0.5700 
  2 C       -0.7650     2.4120    -1.1850 C.2   1 <1>   0.5690 
  3 N       -0.8390     3.1810    -0.0760 N.am  1 <1>  -0.7300 
  4 C       -0.3110     3.0460    -2.5050 C.3   1 <1>   0.1810 
  5 C       -0.4800     4.6180    -0.0530 C.3   1 <1>   0.3640 
  6 O        0.3440     4.2860    -2.3250 O.3   1 <1>  -0.5600 
  7 C       -1.5080     5.3690     0.7870 C.ar  1 <1>  -0.1440 
  8 C       -0.3570     5.1940    -1.4850 C.3   1 <1>   0.2610 
  9 C       -1.0840     6.2370     1.7840 C.ar  1 <1>  -0.1500 
 10 C       -2.8700     5.2050     0.5710 C.ar  1 <1>  -0.1500 
 11 C        0.3570     6.5450    -1.4290 C.2   1 <1>   0.5690 
 12 C       -2.0040     6.9300     2.5510 C.ar  1 <1>  -0.1500 
 13 C       -3.7910     5.8980     1.3370 C.ar  1 <1>  -0.1500 
 14 O       -0.2800     7.5450    -1.1950 O.2   1 <1>  -0.5700 
 15 N        1.7040     6.6030    -1.6190 N.am  1 <1>  -0.7300 
 16 C       -3.3590     6.7610     2.3280 C.ar  1 <1>  -0.1500 
 17 C        2.5020     7.8520    -1.5750 C.3   1 <1>   0.1400 
 18 C        2.7910     8.2360    -0.1230 C.3   1 <1>   0.0200 
 19 C        3.1290     9.7100    -0.0190 C.2   1 <1>   0.0060 
 20 N        4.3320    10.1690     0.0180 N.2   1 <1>  -0.3380 
 21 N        2.2230    10.6950     0.0450 N.pl3 1 <1>   0.0480 
 22 N        4.2420    11.4970     0.1090 N.2   1 <1>  -0.3380 
 23 C        2.9870    11.7850     0.1240 C.2   1 <1>   0.0360 
 24 C        0.7430    10.6370     0.0170 C.3   1 <1>   0.0960 
 25 C        0.1750    10.3850     1.4180 C.3   1 <1>  -0.2400 
 26 H       -1.1740     2.7660     0.7950 H     1 <1>   0.3700 
 27 H       -1.1660     3.2020    -3.1390 H     1 <1>   0.0800 
 28 H        0.3720     2.3820    -3.0030 H     1 <1>   0.0800 
 29 H        0.4810     4.7050     0.4240 H     1 <1>   0.0800 
 30 H       -1.3350     5.3500    -1.9020 H     1 <1>   0.0800 
 31 H       -0.0350     6.3850     1.9710 H     1 <1>   0.1500 
 32 H       -3.2260     4.5360    -0.1940 H     1 <1>   0.1500 
 33 H       -1.6680     7.6010     3.3220 H     1 <1>   0.1500 
 34 H       -4.8450     5.7650     1.1630 H     1 <1>   0.1500 
 35 H        2.1780     5.7540    -1.9470 H     1 <1>   0.3700 
 36 H       -4.0760     7.2990     2.9230 H     1 <1>   0.1500 
 37 H        3.4240     7.7270    -2.1160 H     1 <1>   0.0800 
 38 H        1.9390     8.6360    -2.0530 H     1 <1>   0.0800 
 39 H        3.6190     7.6550     0.2420 H     1 <1>   0.0800 
 40 H        1.9370     8.0310     0.4950 H     1 <1>   0.0800 
 41 H        2.5890    12.7800     0.1920 H     1 <1>   0.1500 
 42 H        0.3680    11.5700    -0.3650 H     1 <1>   0.0800 
 43 H        0.4340     9.8560    -0.6520 H     1 <1>   0.0800 
 44 H        0.4640    11.1740     2.0890 H     1 <1>   0.0800 
 45 H        0.5200     9.4430     1.8040 H     1 <1>   0.0800 
 46 H       -0.8990    10.3530     1.3690 H     1 <1>   0.0800 
@<TRIPOS>BOND
  1   1   2  2   
  2   2   3  am  
  3   2   4  1   
  4   3   5  1   
  5   3  26  1   
  6   4   6  1   
  7   4  27  1   
  8   4  28  1   
  9   5   7  1   
 10   5   8  1   
 11   5  29  1   
 12   6   8  1   
 13   7   9  ar  
 14   7  10  ar  
 15   8  11  1   
 16   8  30  1   
 17   9  12  ar  
 18   9  31  1   
 19  10  13  ar  
 20  10  32  1   
 21  11  14  2   
 22  11  15  am  
 23  12  16  ar  
 24  12  33  1   
 25  13  16  ar  
 26  13  34  1   
 27  15  17  1   
 28  15  35  1   
 29  16  36  1   
 30  17  18  1   
 31  17  37  1   
 32  17  38  1   
 33  18  19  1   
 34  18  39  1   
 35  18  40  1   
 36  19  20  2   
 37  19  21  1   
 38  20  22  1   
 39  21  23  1   
 40  21  24  1   
 41  22  23  2   
 42  23  41  1   
 43  24  25  1   
 44  24  42  1   
 45  24  43  1   
 46  25  44  1   
 47  25  45  1   
 48  25  46  1   
@<TRIPOS>SUBSTRUCTURE
  1 ****  11 GROUP 4 **** **** 0

# MOE 2024.06 (io_trps.svl 2023.06)
