@<TRIPOS>MOLECULE
NONAME
53 55 1 0 0 
SMALL
USER_CHARGES


@<TRIPOS>ATOM
  1 O       -2.3060    -0.1160     1.7880 O.2   1 <1>  -0.5700 
  2 C       -2.0410     0.6020     0.8540 C.2   1 <1>   0.5690 
  3 N       -1.8990     0.1160    -0.4130 N.am  1 <1>  -0.7300 
  4 C       -1.8720     2.1000     1.0980 C.3   1 <1>  -0.0190 
  5 C       -2.0400    -1.2840    -0.8590 C.3   1 <1>   0.2200 
  6 C       -2.8850     2.9300     0.2850 C.3   1 <1>  -0.1600 
  7 C       -0.4190     2.5700     0.8440 C.3   1 <1>  -0.1600 
  8 C       -3.4720    -1.7710    -0.6010 C.3   1 <1>  -0.1600 
  9 C       -0.9780    -2.1600    -0.1780 C.3   1 <1>  -0.1600 
 10 C       -2.8250     4.4320     0.6360 C.3   1 <1>   0.2000 
 11 C       -0.2980     4.0750     0.5310 C.3   1 <1>  -0.1600 
 12 C       -3.6130    -3.2690    -0.8360 C.3   1 <1>   0.3430 
 13 C       -1.2170    -3.6440    -0.4280 C.3   1 <1>   0.3430 
 14 O       -3.1260     5.1530    -0.5330 O.3   1 <1>  -0.5600 
 15 C       -1.4360     4.8760     1.1680 C.3   1 <1>   0.2000 
 16 N       -2.6010    -3.9850    -0.0100 N.4   1 <1>  -0.9590 
 17 C       -4.4860     5.3170    -0.7920 C.3   1 <1>   0.0400 
 18 O       -1.2410     6.2080     0.8660 O.3   1 <1>  -0.6800 
 19 C       -2.8380    -5.4570    -0.0160 C.3   1 <1>   0.5230 
 20 C       -4.1370    -5.7970     0.6950 C.2   1 <1>  -0.0400 
 21 O       -4.6800    -6.9670     0.4240 O.3   1 <1>  -0.2800 
 22 C       -4.8950    -5.1250     1.5930 C.2   1 <1>  -0.1500 
 23 C       -5.7870    -7.0720     1.1310 C.2   1 <1>  -0.0100 
 24 C       -5.9790    -5.9650     1.8770 C.2   1 <1>  -0.1500 
 25 H       -1.6750     0.7900    -1.1500 H     1 <1>   0.3700 
 26 H       -2.0900     2.2680     2.1390 H     1 <1>   0.0800 
 27 H       -1.8640    -1.3140    -1.9230 H     1 <1>   0.0800 
 28 H       -3.8800     2.5670     0.4750 H     1 <1>   0.0800 
 29 H       -2.6730     2.8060    -0.7620 H     1 <1>   0.0800 
 30 H        0.1640     2.3440     1.7210 H     1 <1>   0.0800 
 31 H        0.0190     2.0240     0.0260 H     1 <1>   0.0800 
 32 H       -3.7740    -1.5660     0.4100 H     1 <1>   0.0800 
 33 H       -4.1480    -1.2480    -1.2540 H     1 <1>   0.0800 
 34 H       -0.0060    -1.8930    -0.5530 H     1 <1>   0.0800 
 35 H       -0.9700    -2.0000     0.8850 H     1 <1>   0.0800 
 36 H       -3.5540     4.6680     1.3920 H     1 <1>   0.0800 
 37 H       -0.3390     4.2160    -0.5360 H     1 <1>   0.0800 
 38 H        0.6500     4.4430     0.8840 H     1 <1>   0.0800 
 39 H       -3.4630    -3.4930    -1.8800 H     1 <1>   0.0800 
 40 H       -4.6100    -3.5800    -0.5620 H     1 <1>   0.0800 
 41 H       -0.5030    -4.2200     0.1410 H     1 <1>   0.0800 
 42 H       -1.0810    -3.8670    -1.4740 H     1 <1>   0.0800 
 43 H       -1.3930     4.7700     2.2380 H     1 <1>   0.0800 
 44 H       -2.7200    -3.6690     0.9640 H     1 <1>   0.4500 
 45 H       -4.5880     5.8760    -1.7050 H     1 <1>   0.0800 
 46 H       -4.9380     5.8640     0.0180 H     1 <1>   0.0800 
 47 H       -4.9510     4.3540    -0.9050 H     1 <1>   0.0800 
 48 H       -1.7370     6.3690     0.0310 H     1 <1>   0.4000 
 49 H       -2.8920    -5.8130    -1.0310 H     1 <1>   0.0800 
 50 H       -2.0310    -5.9710     0.4790 H     1 <1>   0.0800 
 51 H       -4.7550    -4.1560     2.0400 H     1 <1>   0.1500 
 52 H       -6.3780    -7.9690     1.0470 H     1 <1>   0.1500 
 53 H       -6.7850    -5.7450     2.5580 H     1 <1>   0.1500 
@<TRIPOS>BOND
  1   1   2  2   
  2   2   3  am  
  3   2   4  1   
  4   3   5  1   
  5   3  25  1   
  6   4   6  1   
  7   4   7  1   
  8   4  26  1   
  9   5   8  1   
 10   5   9  1   
 11   5  27  1   
 12   6  10  1   
 13   6  28  1   
 14   6  29  1   
 15   7  11  1   
 16   7  30  1   
 17   7  31  1   
 18   8  12  1   
 19   8  32  1   
 20   8  33  1   
 21   9  13  1   
 22   9  34  1   
 23   9  35  1   
 24  10  14  1   
 25  10  15  1   
 26  10  36  1   
 27  11  15  1   
 28  11  37  1   
 29  11  38  1   
 30  12  16  1   
 31  12  39  1   
 32  12  40  1   
 33  13  16  1   
 34  13  41  1   
 35  13  42  1   
 36  14  17  1   
 37  15  18  1   
 38  15  43  1   
 39  16  19  1   
 40  16  44  1   
 41  17  45  1   
 42  17  46  1   
 43  17  47  1   
 44  18  48  1   
 45  19  20  1   
 46  19  49  1   
 47  19  50  1   
 48  20  21  1   
 49  20  22  2   
 50  21  23  1   
 51  22  24  1   
 52  22  51  1   
 53  23  24  2   
 54  23  52  1   
 55  24  53  1   
@<TRIPOS>SUBSTRUCTURE
  1 ****   3 GROUP 4 **** **** 0

# MOE 2024.06 (io_trps.svl 2023.06)
