@<TRIPOS>MOLECULE
NONAME
47 49 1 0 0 
SMALL
USER_CHARGES


@<TRIPOS>ATOM
  1 O       -0.3240    -0.7290     0.6810 O.3   1 <1>  -0.5600 
  2 C       -0.9060    -1.7120    -0.1040 C.3   1 <1>   0.1200 
  3 C        0.9380    -0.3170     0.2530 C.3   1 <1>   0.0400 
  4 C       -2.2810    -2.0170     0.5050 C.3   1 <1>   0.3430 
  5 N       -3.0440    -3.0650    -0.2550 N.4   1 <1>  -0.9590 
  6 C       -4.4410    -3.2150     0.2530 C.3   1 <1>   0.3430 
  7 C       -2.4110    -4.4080    -0.2020 C.3   1 <1>   0.3430 
  8 C       -4.7730    -4.7140     0.1930 C.3   1 <1>  -0.0800 
  9 C       -3.5590    -5.3590    -0.4890 C.3   1 <1>  -0.1600 
 10 C       -6.1180    -5.0130    -0.4990 C.3   1 <1>   0.2090 
 11 N       -6.3280    -6.4840    -0.5560 N.pl3 1 <1>  -0.8690 
 12 C       -7.4160    -7.2780    -0.3980 C.ar  1 <1>   0.7710 
 13 N       -8.6760    -6.7530    -0.4950 N.ar  1 <1>  -0.1790 
 14 N       -7.1840    -8.5370    -0.1710 N.ar  1 <1>  -0.5670 
 15 C       -9.7840    -7.4930    -0.3480 C.ar  1 <1>   0.4610 
 16 C       -8.2820    -9.3190    -0.0120 C.ar  1 <1>   0.1050 
 17 N      -11.0020    -6.9340    -0.4560 N.pl3 1 <1>  -0.9000 
 18 C       -9.5730    -8.8520    -0.0870 C.ar  1 <1>   0.0000 
 19 N       -8.3650   -10.6500     0.2400 N.pl3 1 <1>   0.3140 
 20 C      -10.3620    -9.9910     0.1370 C.2   1 <1>   0.1390 
 21 N       -9.6560   -11.0530     0.3300 N.2   1 <1>  -0.7070 
 22 C       -7.2600   -11.6070     0.4070 C.3   1 <1>   0.0160 
 23 H       -0.2680    -2.5790    -0.0850 H     1 <1>   0.0800 
 24 H       -1.0050    -1.3310    -1.1060 H     1 <1>   0.0800 
 25 H        1.2900     0.4410     0.9310 H     1 <1>   0.0800 
 26 H        0.8640     0.0960    -0.7390 H     1 <1>   0.0800 
 27 H        1.6150    -1.1540     0.2680 H     1 <1>   0.0800 
 28 H       -2.8470    -1.0990     0.5180 H     1 <1>   0.0800 
 29 H       -2.1400    -2.3380     1.5240 H     1 <1>   0.0800 
 30 H       -3.0920    -2.7760    -1.2430 H     1 <1>   0.4500 
 31 H       -5.1200    -2.6370    -0.3520 H     1 <1>   0.0800 
 32 H       -4.5070    -2.8740     1.2750 H     1 <1>   0.0800 
 33 H       -2.0240    -4.5930     0.7880 H     1 <1>   0.0800 
 34 H       -1.6140    -4.5080    -0.9230 H     1 <1>   0.0800 
 35 H       -4.8330    -5.0630     1.2100 H     1 <1>   0.0800 
 36 H       -3.3490    -6.3430    -0.1050 H     1 <1>   0.0800 
 37 H       -3.6990    -5.4240    -1.5550 H     1 <1>   0.0800 
 38 H       -6.1070    -4.6200    -1.5040 H     1 <1>   0.0800 
 39 H       -6.9190    -4.5440     0.0480 H     1 <1>   0.0800 
 40 H       -5.4590    -7.0300    -0.5850 H     1 <1>   0.4000 
 41 H       -8.7490    -5.7760    -0.7290 H     1 <1>   0.4570 
 42 H      -11.8630    -7.4890    -0.3500 H     1 <1>   0.4000 
 43 H      -11.2230    -5.9500    -0.6460 H     1 <1>   0.4000 
 44 H      -11.4390    -9.9900     0.1490 H     1 <1>   0.1500 
 45 H       -6.3190   -11.0980     0.3220 H     1 <1>   0.0800 
 46 H       -7.3350   -12.3620    -0.3530 H     1 <1>   0.0800 
 47 H       -7.3400   -12.0660     1.3750 H     1 <1>   0.0800 
@<TRIPOS>BOND
  1   1   2  1   
  2   1   3  1   
  3   2   4  1   
  4   2  23  1   
  5   2  24  1   
  6   3  25  1   
  7   3  26  1   
  8   3  27  1   
  9   4   5  1   
 10   4  28  1   
 11   4  29  1   
 12   5   6  1   
 13   5   7  1   
 14   5  30  1   
 15   6   8  1   
 16   6  31  1   
 17   6  32  1   
 18   7   9  1   
 19   7  33  1   
 20   7  34  1   
 21   8   9  1   
 22   8  10  1   
 23   8  35  1   
 24   9  36  1   
 25   9  37  1   
 26  10  11  1   
 27  10  38  1   
 28  10  39  1   
 29  11  12  1   
 30  11  40  1   
 31  12  13  ar  
 32  12  14  ar  
 33  13  15  ar  
 34  13  41  1   
 35  14  16  ar  
 36  15  17  1   
 37  15  18  ar  
 38  16  18  ar  
 39  16  19  1   
 40  17  42  1   
 41  17  43  1   
 42  18  20  1   
 43  19  21  1   
 44  19  22  1   
 45  20  21  2   
 46  20  44  1   
 47  22  45  1   
 48  22  46  1   
 49  22  47  1   
@<TRIPOS>SUBSTRUCTURE
  1 ****  11 GROUP 4 **** **** 0

# MOE 2024.06 (io_trps.svl 2023.06)
