@<TRIPOS>MOLECULE
NONAME
56 58 1 0 0 
SMALL
USER_CHARGES


@<TRIPOS>ATOM
  1 O        1.0450    -0.5280    -2.2860 O.2   1 <1>  -0.5700 
  2 C        1.3310    -0.9040    -1.1660 C.2   1 <1>   0.5440 
  3 N        2.0290    -0.0630    -0.3450 N.am  1 <1>  -0.7300 
  4 C        0.9200    -2.2180    -0.7050 C.ar  1 <1>   0.0860 
  5 C        2.5080     1.2780    -0.7040 C.3   1 <1>   0.2200 
  6 C       -0.1550    -2.8870    -1.2600 C.ar  1 <1>  -0.1500 
  7 C        1.5640    -2.9050     0.3180 C.ar  1 <1>  -0.1500 
  8 C        4.0070     1.3350    -0.4310 C.3   1 <1>  -0.2400 
  9 C        1.7500     2.2960     0.1400 C.3   1 <1>  -0.2400 
 10 C       -0.5480    -4.1330    -0.7940 C.ar  1 <1>   0.4100 
 11 C        1.1090    -4.1460     0.7160 C.ar  1 <1>   0.1600 
 12 N        0.0700    -4.7740     0.1930 N.ar  1 <1>  -0.6200 
 13 N       -1.6480    -4.7620    -1.3530 N.pl3 1 <1>  -0.8380 
 14 C       -1.6840    -6.2480    -1.3630 C.3   1 <1>   0.2090 
 15 C       -2.9760    -4.1190    -1.1630 C.3   1 <1>   0.2090 
 16 C       -2.2980    -6.7730    -0.0410 C.3   1 <1>   0.4230 
 17 C       -3.5840    -4.6180     0.1530 C.3   1 <1>  -0.1600 
 18 N       -2.2290    -8.2880     0.1230 N.4   1 <1>  -0.9590 
 19 C       -3.7060    -6.1670     0.2370 C.3   1 <1>   0.0000 
 20 C       -3.1560    -8.8330     1.1670 C.3   1 <1>   0.3430 
 21 C       -2.3580    -9.0810    -1.1430 C.3   1 <1>   0.2630 
 22 C       -4.1570    -6.5510     1.6780 C.3   1 <1>  -0.1600 
 23 C       -4.7290    -6.6860    -0.8130 C.3   1 <1>   0.1200 
 24 C       -3.4400    -7.7900     2.2460 C.3   1 <1>  -0.1600 
 25 O       -5.9380    -6.0160    -0.7250 O.3   1 <1>  -0.6800 
 26 H        2.1710    -0.3130     0.6300 H     1 <1>   0.3700 
 27 H        2.3260     1.4690    -1.7500 H     1 <1>   0.0800 
 28 H       -0.6970    -2.4400    -2.0720 H     1 <1>   0.1500 
 29 H        2.4240    -2.4780     0.7980 H     1 <1>   0.1500 
 30 H        4.2150     1.1530     0.6080 H     1 <1>   0.0800 
 31 H        4.3870     2.3050    -0.6920 H     1 <1>   0.0800 
 32 H        4.5150     0.6020    -1.0320 H     1 <1>   0.0800 
 33 H        1.9180     2.1290     1.1880 H     1 <1>   0.0800 
 34 H        0.6970     2.2290    -0.0690 H     1 <1>   0.0800 
 35 H        2.0780     3.2900    -0.1070 H     1 <1>   0.0800 
 36 H        1.6330    -4.6510     1.5110 H     1 <1>   0.1500 
 37 H       -2.2540    -6.5670    -2.2160 H     1 <1>   0.0800 
 38 H       -0.6790    -6.6190    -1.4700 H     1 <1>   0.0800 
 39 H       -2.8680    -3.0470    -1.1260 H     1 <1>   0.0800 
 40 H       -3.6180    -4.3540    -1.9950 H     1 <1>   0.0800 
 41 H       -1.6670    -6.3630     0.7300 H     1 <1>   0.0800 
 42 H       -2.9540    -4.2580     0.9490 H     1 <1>   0.0800 
 43 H       -4.5450    -4.1520     0.2870 H     1 <1>   0.0800 
 44 H       -1.2750    -8.4500     0.4800 H     1 <1>   0.4500 
 45 H       -4.0910    -9.1160     0.7120 H     1 <1>   0.0800 
 46 H       -2.7250    -9.7150     1.6150 H     1 <1>   0.0800 
 47 H       -3.3220    -8.9170    -1.5960 H     1 <1>   0.0800 
 48 H       -2.2510   -10.1340    -0.9360 H     1 <1>   0.0800 
 49 H       -1.5920    -8.7970    -1.8470 H     1 <1>   0.0800 
 50 H       -3.9760    -5.7370     2.3600 H     1 <1>   0.0800 
 51 H       -5.2190    -6.7240     1.6990 H     1 <1>   0.0800 
 52 H       -4.9330    -7.7330    -0.6800 H     1 <1>   0.0800 
 53 H       -4.3730    -6.5350    -1.8160 H     1 <1>   0.0800 
 54 H       -4.0530    -8.2310     3.0130 H     1 <1>   0.0800 
 55 H       -2.5120    -7.5020     2.7110 H     1 <1>   0.0800 
 56 H       -6.3620    -6.1310     0.1480 H     1 <1>   0.4000 
@<TRIPOS>BOND
  1   1   2  2   
  2   2   3  am  
  3   2   4  1   
  4   3   5  1   
  5   3  26  1   
  6   4   6  ar  
  7   4   7  ar  
  8   5   8  1   
  9   5   9  1   
 10   5  27  1   
 11   6  10  ar  
 12   6  28  1   
 13   7  11  ar  
 14   7  29  1   
 15   8  30  1   
 16   8  31  1   
 17   8  32  1   
 18   9  33  1   
 19   9  34  1   
 20   9  35  1   
 21  10  12  ar  
 22  10  13  1   
 23  11  12  ar  
 24  11  36  1   
 25  13  14  1   
 26  13  15  1   
 27  14  16  1   
 28  14  37  1   
 29  14  38  1   
 30  15  17  1   
 31  15  39  1   
 32  15  40  1   
 33  16  18  1   
 34  16  19  1   
 35  16  41  1   
 36  17  19  1   
 37  17  42  1   
 38  17  43  1   
 39  18  20  1   
 40  18  21  1   
 41  18  44  1   
 42  19  22  1   
 43  19  23  1   
 44  20  24  1   
 45  20  45  1   
 46  20  46  1   
 47  21  47  1   
 48  21  48  1   
 49  21  49  1   
 50  22  24  1   
 51  22  50  1   
 52  22  51  1   
 53  23  25  1   
 54  23  52  1   
 55  23  53  1   
 56  24  54  1   
 57  24  55  1   
 58  25  56  1   
@<TRIPOS>SUBSTRUCTURE
  1 ****  10 GROUP 4 **** **** 0

# MOE 2024.06 (io_trps.svl 2023.06)
