@<TRIPOS>MOLECULE
NONAME
48 50 1 0 0 
SMALL
USER_CHARGES


@<TRIPOS>ATOM
  1 O        1.4410     0.2700    -1.7630 O.2   1 <1>  -0.5700 
  2 C        2.3420     0.1310    -0.9390 C.2   1 <1>   0.6900 
  3 N        3.0600     1.1250    -0.3850 N.am  1 <1>  -0.4200 
  4 N        2.8070    -1.0300    -0.4070 N.am  1 <1>  -0.2980 
  5 C        3.9260     0.5030     0.4840 C.2   1 <1>   0.4490 
  6 C        2.8110     2.5770    -0.4740 C.3   1 <1>   0.1400 
  7 N        3.8110    -0.7690     0.4970 N.2   1 <1>  -0.5120 
  8 C        2.3400    -2.3990    -0.6900 C.3   1 <1>   0.0600 
  9 C        4.9110     1.3210     1.3000 C.3   1 <1>  -0.0990 
 10 C        4.0310     3.3580     0.0490 C.3   1 <1>  -0.0190 
 11 C        4.4940     2.8000     1.4140 C.3   1 <1>  -0.1600 
 12 C        3.7120     4.8450     0.1440 C.2   1 <1>   0.5690 
 13 O        2.6400     5.1780     0.5890 O.2   1 <1>  -0.5700 
 14 N        4.6700     5.7320    -0.2700 N.am  1 <1>  -0.4940 
 15 C        4.6390     7.1500    -0.2580 C.2   1 <1>  -0.0880 
 16 N        5.6500     7.9600    -0.6780 N.pl3 1 <1>   0.3140 
 17 C        3.6520     7.9780     0.1570 C.2   1 <1>  -0.1500 
 18 N        5.3330     9.2650    -0.5420 N.2   1 <1>  -0.7070 
 19 C        6.9540     7.5550    -1.2400 C.3   1 <1>   0.0960 
 20 C        4.1390     9.2630    -0.0420 C.2   1 <1>   0.1080 
 21 C        7.9030     7.0640    -0.1360 C.3   1 <1>  -0.1600 
 22 C        3.3920    10.5360     0.2750 C.3   1 <1>  -0.0590 
 23 C        9.2420     6.5980    -0.7220 C.3   1 <1>  -0.1600 
 24 C       10.1780     6.0990     0.3820 C.3   1 <1>  -0.2400 
 25 H        1.9410     2.8050     0.1180 H     1 <1>   0.0800 
 26 H        2.6020     2.8440    -1.4960 H     1 <1>   0.0800 
 27 H        1.5510    -2.3720    -1.4210 H     1 <1>   0.0800 
 28 H        1.9730    -2.8440     0.2170 H     1 <1>   0.0800 
 29 H        3.1590    -2.9830    -1.0680 H     1 <1>   0.0800 
 30 H        5.8680     1.2540     0.8170 H     1 <1>   0.0800 
 31 H        5.0040     0.8860     2.2790 H     1 <1>   0.0800 
 32 H        4.8260     3.2330    -0.6640 H     1 <1>   0.0800 
 33 H        5.3190     3.3780     1.7940 H     1 <1>   0.0800 
 34 H        3.6830     2.8860     2.1180 H     1 <1>   0.0800 
 35 H        5.5360     5.3150    -0.6060 H     1 <1>   0.3700 
 36 H        2.6900     7.7180     0.5600 H     1 <1>   0.1500 
 37 H        7.3810     8.4070    -1.7370 H     1 <1>   0.0800 
 38 H        6.7860     6.7850    -1.9690 H     1 <1>   0.0800 
 39 H        7.4480     6.2530     0.4040 H     1 <1>   0.0800 
 40 H        8.0790     7.8730     0.5530 H     1 <1>   0.0800 
 41 H        2.4210    10.3120     0.6750 H     1 <1>   0.0800 
 42 H        3.2810    11.1180    -0.6200 H     1 <1>   0.0800 
 43 H        3.9480    11.1070     0.9960 H     1 <1>   0.0800 
 44 H        9.7140     7.4150    -1.2410 H     1 <1>   0.0800 
 45 H        9.0780     5.8040    -1.4310 H     1 <1>   0.0800 
 46 H       10.3770     6.8840     1.0900 H     1 <1>   0.0800 
 47 H       11.1140     5.7820    -0.0450 H     1 <1>   0.0800 
 48 H        9.7410     5.2650     0.9030 H     1 <1>   0.0800 
@<TRIPOS>BOND
  1   1   2  2   
  2   2   3  am  
  3   2   4  am  
  4   3   5  1   
  5   3   6  1   
  6   4   7  1   
  7   4   8  1   
  8   5   7  2   
  9   5   9  1   
 10   6  10  1   
 11   6  25  1   
 12   6  26  1   
 13   8  27  1   
 14   8  28  1   
 15   8  29  1   
 16   9  11  1   
 17   9  30  1   
 18   9  31  1   
 19  10  11  1   
 20  10  12  1   
 21  10  32  1   
 22  11  33  1   
 23  11  34  1   
 24  12  13  2   
 25  12  14  am  
 26  14  15  1   
 27  14  35  1   
 28  15  16  1   
 29  15  17  2   
 30  16  18  1   
 31  16  19  1   
 32  17  20  1   
 33  17  36  1   
 34  18  20  2   
 35  19  21  1   
 36  19  37  1   
 37  19  38  1   
 38  20  22  1   
 39  21  23  1   
 40  21  39  1   
 41  21  40  1   
 42  22  41  1   
 43  22  42  1   
 44  22  43  1   
 45  23  24  1   
 46  23  44  1   
 47  23  45  1   
 48  24  46  1   
 49  24  47  1   
 50  24  48  1   
@<TRIPOS>SUBSTRUCTURE
  1 ****  12 GROUP 4 **** **** 0

# MOE 2024.06 (io_trps.svl 2023.06)
