@<TRIPOS>MOLECULE
NONAME
48 49 1 0 0 
SMALL
USER_CHARGES


@<TRIPOS>ATOM
  1 O       -1.1300    -0.3680    -0.2320 O.2   1 <1>  -0.5700 
  2 C       -1.8680     0.4110    -0.7940 C.2   1 <1>   0.5690 
  3 N       -2.8510    -0.0330    -1.6430 N.am  1 <1>  -0.6600 
  4 C       -1.7030     1.8990    -0.5150 C.3   1 <1>  -0.0990 
  5 C       -3.0280    -1.4890    -1.8810 C.3   1 <1>   0.3200 
  6 C       -3.8740     0.8560    -2.2880 C.3   1 <1>   0.1400 
  7 C       -0.6680     2.2230     0.5720 C.3   1 <1>  -0.0170 
  8 C       -3.8070    -2.0710    -0.7220 C.2   1 <1>  -0.3320 
  9 C       -5.2460     0.8000    -1.5920 C.3   1 <1>   0.1200 
 10 C       -0.5840     3.7260     0.7750 C.ar  1 <1>  -0.1440 
 11 N       -3.3180    -2.0710     0.5310 N.pl3 1 <1>   0.0330 
 12 C       -5.0230    -2.6550    -0.6540 C.2   1 <1>   0.0770 
 13 O       -5.1020     0.8350    -0.2150 O.3   1 <1>  -0.6800 
 14 C        0.4100     4.4650     0.1540 C.ar  1 <1>  -0.1500 
 15 C       -1.5100     4.3720     1.5790 C.ar  1 <1>  -0.1500 
 16 C       -4.2780    -2.6430     1.2880 C.2   1 <1>   0.0070 
 17 N       -5.3170    -3.0060     0.6110 N.2   1 <1>  -0.5650 
 18 C        0.4830     5.8360     0.3310 C.ar  1 <1>  -0.1430 
 19 C       -1.4500     5.7430     1.7610 C.ar  1 <1>  -0.1430 
 20 C       -4.1360    -2.8280     2.7830 C.3   1 <1>  -0.0600 
 21 C       -0.4510     6.4700     1.1350 C.ar  1 <1>  -0.1500 
 22 C        1.5750     6.6390    -0.3530 C.3   1 <1>  -0.0970 
 23 C       -2.4680     6.4460     2.6400 C.3   1 <1>  -0.0970 
 24 H       -2.6520     2.2960    -0.2040 H     1 <1>   0.0800 
 25 H       -1.4120     2.3870    -1.4260 H     1 <1>   0.0800 
 26 H       -2.0650    -1.9670    -1.9510 H     1 <1>   0.0800 
 27 H       -3.5530    -1.6550    -2.8060 H     1 <1>   0.0800 
 28 H       -3.9920     0.5740    -3.3190 H     1 <1>   0.0800 
 29 H       -3.5390     1.8770    -2.2900 H     1 <1>   0.0800 
 30 H        0.2950     1.8370     0.2860 H     1 <1>   0.0800 
 31 H       -0.9490     1.7500     1.4960 H     1 <1>   0.0800 
 32 H       -5.7680    -0.1050    -1.8490 H     1 <1>   0.0800 
 33 H       -5.8490     1.6410    -1.8870 H     1 <1>   0.0800 
 34 H       -2.4070    -1.6850     0.8160 H     1 <1>   0.2700 
 35 H       -5.7190    -2.8430    -1.4550 H     1 <1>   0.1500 
 36 H       -4.7180    -0.0200     0.0830 H     1 <1>   0.4000 
 37 H        1.1310     3.9700    -0.4720 H     1 <1>   0.1500 
 38 H       -2.2830     3.8020     2.0640 H     1 <1>   0.1500 
 39 H       -4.0120    -1.8740     3.2620 H     1 <1>   0.0800 
 40 H       -3.2860    -3.4500     2.9970 H     1 <1>   0.0800 
 41 H       -5.0180    -3.3010     3.1750 H     1 <1>   0.0800 
 42 H       -0.4000     7.5340     1.2740 H     1 <1>   0.1500 
 43 H        2.4600     6.0410    -0.4730 H     1 <1>   0.0800 
 44 H        1.8270     7.5040     0.2330 H     1 <1>   0.0800 
 45 H        1.2360     6.9600    -1.3210 H     1 <1>   0.0800 
 46 H       -3.3760     5.8740     2.6980 H     1 <1>   0.0800 
 47 H       -2.7020     7.4150     2.2370 H     1 <1>   0.0800 
 48 H       -2.0690     6.5670     3.6310 H     1 <1>   0.0800 
@<TRIPOS>BOND
  1   1   2  2   
  2   2   3  am  
  3   2   4  1   
  4   3   5  1   
  5   3   6  1   
  6   4   7  1   
  7   4  24  1   
  8   4  25  1   
  9   5   8  1   
 10   5  26  1   
 11   5  27  1   
 12   6   9  1   
 13   6  28  1   
 14   6  29  1   
 15   7  10  1   
 16   7  30  1   
 17   7  31  1   
 18   8  11  1   
 19   8  12  2   
 20   9  13  1   
 21   9  32  1   
 22   9  33  1   
 23  10  14  ar  
 24  10  15  ar  
 25  11  16  1   
 26  11  34  1   
 27  12  17  1   
 28  12  35  1   
 29  13  36  1   
 30  14  18  ar  
 31  14  37  1   
 32  15  19  ar  
 33  15  38  1   
 34  16  17  2   
 35  16  20  1   
 36  18  21  ar  
 37  18  22  1   
 38  19  21  ar  
 39  19  23  1   
 40  20  39  1   
 41  20  40  1   
 42  20  41  1   
 43  21  42  1   
 44  22  43  1   
 45  22  44  1   
 46  22  45  1   
 47  23  46  1   
 48  23  47  1   
 49  23  48  1   
@<TRIPOS>SUBSTRUCTURE
  1 ****   4 GROUP 4 **** **** 0

# MOE 2024.06 (io_trps.svl 2023.06)
