@<TRIPOS>MOLECULE
NONAME
66 68 1 0 0 
SMALL
USER_CHARGES


@<TRIPOS>ATOM
  1 O       -1.7060    -4.5530     1.7540 O.2   1 <1>  -0.5700 
  2 C       -0.5670    -4.5520     1.3550 C.2   1 <1>   0.5690 
  3 N        0.1190    -5.6870     1.0190 N.am  1 <1>  -0.6600 
  4 C        0.1600    -3.2300     1.2160 C.3   1 <1>  -0.0990 
  5 C        1.5250    -5.6140     0.5570 C.3   1 <1>   0.1400 
  6 C       -0.4750    -7.0450     1.1510 C.3   1 <1>   0.0600 
  7 C        0.9100    -3.1710    -0.1270 C.3   1 <1>  -0.0800 
  8 C        1.6890    -4.4660    -0.4610 C.3   1 <1>  -0.0800 
  9 C        1.9170    -2.0160    -0.2110 C.3   1 <1>  -0.1600 
 10 C        3.1500    -4.0380    -0.6630 C.3   1 <1>  -0.1600 
 11 C        3.0540    -2.5670    -1.0640 C.3   1 <1>   0.4230 
 12 N        4.3220    -1.7970    -0.9140 N.4   1 <1>  -0.9590 
 13 C        4.9570    -1.8480     0.4370 C.3   1 <1>   0.4860 
 14 C        5.3060    -2.1720    -1.9800 C.3   1 <1>   0.2630 
 15 C        5.9730    -0.7270     0.5270 C.ar  1 <1>  -0.1440 
 16 C        7.3250    -0.9980     0.3730 C.ar  1 <1>  -0.1500 
 17 C        5.5620     0.5780     0.7660 C.ar  1 <1>  -0.1500 
 18 C        8.2630     0.0170     0.4410 C.ar  1 <1>   0.0820 
 19 C        6.4930     1.6010     0.8260 C.ar  1 <1>  -0.1500 
 20 O        9.5610    -0.3480     0.2990 O.3   1 <1>  -0.3630 
 21 C        7.8400     1.3350     0.6470 C.ar  1 <1>   0.0820 
 22 C       10.4700     0.0380     1.3090 C.3   1 <1>   0.1200 
 23 O        8.6930     2.3840     0.6860 O.3   1 <1>  -0.3630 
 24 C       11.6910    -0.8720     1.2160 C.3   1 <1>  -0.2400 
 25 C        9.3350     2.7250    -0.5240 C.3   1 <1>   0.2580 
 26 C       10.5470     3.5740    -0.1830 C.2   1 <1>  -0.2880 
 27 C       11.8370     3.3430    -0.4620 C.2   1 <1>  -0.2760 
 28 C       12.9280     4.3130    -0.0380 C.3   1 <1>  -0.1020 
 29 C       12.3950     2.1360    -1.2050 C.3   1 <1>  -0.1020 
 30 H       -0.5510    -2.4260     1.2810 H     1 <1>   0.0800 
 31 H        0.8390    -3.1470     2.0440 H     1 <1>   0.0800 
 32 H        2.1500    -5.4490     1.4190 H     1 <1>   0.0800 
 33 H        1.8150    -6.5470     0.1050 H     1 <1>   0.0800 
 34 H        0.1050    -7.6320     1.8410 H     1 <1>   0.0800 
 35 H       -0.4910    -7.5320     0.1920 H     1 <1>   0.0800 
 36 H       -1.4850    -6.9830     1.5190 H     1 <1>   0.0800 
 37 H        0.1690    -3.0380    -0.9000 H     1 <1>   0.0800 
 38 H        1.3150    -4.8290    -1.4050 H     1 <1>   0.0800 
 39 H        2.2550    -1.7670     0.7780 H     1 <1>   0.0800 
 40 H        1.4670    -1.1490    -0.6630 H     1 <1>   0.0800 
 41 H        3.6210    -4.6320    -1.4270 H     1 <1>   0.0800 
 42 H        3.6800    -4.1530     0.2650 H     1 <1>   0.0800 
 43 H        2.7340    -2.5250    -2.0940 H     1 <1>   0.0800 
 44 H        4.0930    -0.8050    -1.0620 H     1 <1>   0.4500 
 45 H        4.2210    -1.7120     1.2100 H     1 <1>   0.0800 
 46 H        5.4410    -2.7980     0.5900 H     1 <1>   0.0800 
 47 H        5.6290    -3.1920    -1.8520 H     1 <1>   0.0800 
 48 H        6.1700    -1.5290    -1.9360 H     1 <1>   0.0800 
 49 H        4.8580    -2.0720    -2.9560 H     1 <1>   0.0800 
 50 H        7.6810    -2.0000     0.2060 H     1 <1>   0.1500 
 51 H        4.5220     0.8180     0.9120 H     1 <1>   0.1500 
 52 H        6.1820     2.6150     1.0110 H     1 <1>   0.1500 
 53 H       10.7530     1.0630     1.1550 H     1 <1>   0.0800 
 54 H        9.9890    -0.0650     2.2670 H     1 <1>   0.0800 
 55 H       12.1520    -0.7750     0.2490 H     1 <1>   0.0800 
 56 H       11.4050    -1.8950     1.3790 H     1 <1>   0.0800 
 57 H       12.4080    -0.5920     1.9660 H     1 <1>   0.0800 
 58 H        9.6070     1.8280    -1.0460 H     1 <1>   0.0800 
 59 H        8.6390     3.2840    -1.1230 H     1 <1>   0.0800 
 60 H       10.2400     4.4550     0.3550 H     1 <1>   0.1500 
 61 H       13.6260     3.8230     0.6170 H     1 <1>   0.0800 
 62 H       12.5090     5.1550     0.4840 H     1 <1>   0.0800 
 63 H       13.4560     4.6770    -0.9010 H     1 <1>   0.0800 
 64 H       12.8940     2.4570    -2.1020 H     1 <1>   0.0800 
 65 H       11.6310     1.4350    -1.4800 H     1 <1>   0.0800 
 66 H       13.1070     1.6210    -0.5840 H     1 <1>   0.0800 
@<TRIPOS>BOND
  1   1   2  2   
  2   2   3  am  
  3   2   4  1   
  4   3   5  1   
  5   3   6  1   
  6   4   7  1   
  7   4  30  1   
  8   4  31  1   
  9   5   8  1   
 10   5  32  1   
 11   5  33  1   
 12   6  34  1   
 13   6  35  1   
 14   6  36  1   
 15   7   8  1   
 16   7   9  1   
 17   7  37  1   
 18   8  10  1   
 19   8  38  1   
 20   9  11  1   
 21   9  39  1   
 22   9  40  1   
 23  10  11  1   
 24  10  41  1   
 25  10  42  1   
 26  11  12  1   
 27  11  43  1   
 28  12  13  1   
 29  12  14  1   
 30  12  44  1   
 31  13  15  1   
 32  13  45  1   
 33  13  46  1   
 34  14  47  1   
 35  14  48  1   
 36  14  49  1   
 37  15  16  ar  
 38  15  17  ar  
 39  16  18  ar  
 40  16  50  1   
 41  17  19  ar  
 42  17  51  1   
 43  18  20  1   
 44  18  21  ar  
 45  19  21  ar  
 46  19  52  1   
 47  20  22  1   
 48  21  23  1   
 49  22  24  1   
 50  22  53  1   
 51  22  54  1   
 52  23  25  1   
 53  24  55  1   
 54  24  56  1   
 55  24  57  1   
 56  25  26  1   
 57  25  58  1   
 58  25  59  1   
 59  26  27  2   
 60  26  60  1   
 61  27  28  1   
 62  27  29  1   
 63  28  61  1   
 64  28  62  1   
 65  28  63  1   
 66  29  64  1   
 67  29  65  1   
 68  29  66  1   
@<TRIPOS>SUBSTRUCTURE
  1 ****  15 GROUP 4 **** **** 0

# MOE 2024.06 (io_trps.svl 2023.06)
