@<TRIPOS>MOLECULE
NONAME
41 42 1 0 0 
SMALL
USER_CHARGES


@<TRIPOS>ATOM
  1 CL      -0.0380    -0.1900     0.8580 Cl    1 <1>  -0.1230 
  2 C        1.5740    -0.4480     0.2070 C.2   1 <1>   0.1230 
  3 C        2.4770     0.5340    -0.2130 C.2   1 <1>   0.2030 
  4 C        2.1600    -1.6450     0.0190 C.2   1 <1>  -0.3320 
  5 N        3.5850    -0.0550    -0.6460 N.2   1 <1>  -0.7070 
  6 C        2.2710     1.9690    -0.1930 C.2   1 <1>   0.7160 
  7 N        3.3790    -1.3740    -0.4990 N.pl3 1 <1>   0.3140 
  8 C        1.6230    -3.0390     0.3060 C.3   1 <1>  -0.0600 
  9 O        1.2720     2.4880     0.2770 O.2   1 <1>  -0.5700 
 10 N        3.2670     2.7430    -0.7200 N.am  1 <1>  -0.4930 
 11 C        4.4050    -2.3550    -0.8810 C.3   1 <1>   0.0160 
 12 C        3.4380     4.1490    -0.7840 C.2   1 <1>   0.0630 
 13 C        2.5160     5.1560    -1.0890 C.2   1 <1>   0.1080 
 14 C        4.6030     4.8010    -0.5760 C.2   1 <1>  -0.3320 
 15 N        3.0560     6.3360    -1.0700 N.2   1 <1>  -0.7070 
 16 C        1.0550     4.9670    -1.4290 C.3   1 <1>  -0.0590 
 17 N        4.3430     6.1230    -0.7470 N.pl3 1 <1>   0.3140 
 18 C        5.9680     4.2350    -0.2090 C.3   1 <1>  -0.0600 
 19 C        5.2860     7.2520    -0.6160 C.3   1 <1>   0.0960 
 20 C        5.3280     7.7680     0.8300 C.3   1 <1>  -0.1600 
 21 C        6.3110     8.9350     0.9800 C.3   1 <1>  -0.2400 
 22 H        0.6300    -2.9810     0.7160 H     1 <1>   0.0800 
 23 H        2.2530    -3.5440     1.0170 H     1 <1>   0.0800 
 24 H        1.5810    -3.6180    -0.6000 H     1 <1>   0.0800 
 25 H        4.0740     2.1860    -1.0030 H     1 <1>   0.3700 
 26 H        4.0080    -3.0060    -1.6370 H     1 <1>   0.0800 
 27 H        4.6870    -2.9250    -0.0160 H     1 <1>   0.0800 
 28 H        5.2630    -1.8370    -1.2670 H     1 <1>   0.0800 
 29 H        0.9140     4.0480    -1.9660 H     1 <1>   0.0800 
 30 H        0.7130     5.7830    -2.0380 H     1 <1>   0.0800 
 31 H        0.4780     4.9410    -0.5240 H     1 <1>   0.0800 
 32 H        5.9160     3.1680    -0.0860 H     1 <1>   0.0800 
 33 H        6.3100     4.6620     0.7160 H     1 <1>   0.0800 
 34 H        6.6810     4.4550    -0.9830 H     1 <1>   0.0800 
 35 H        4.9570     8.0360    -1.2740 H     1 <1>   0.0800 
 36 H        6.2600     6.9290    -0.9310 H     1 <1>   0.0800 
 37 H        5.6210     6.9700     1.4890 H     1 <1>   0.0800 
 38 H        4.3420     8.0960     1.1120 H     1 <1>   0.0800 
 39 H        7.3080     8.6270     0.7190 H     1 <1>   0.0800 
 40 H        6.3160     9.2810     1.9980 H     1 <1>   0.0800 
 41 H        6.0220     9.7540     0.3440 H     1 <1>   0.0800 
@<TRIPOS>BOND
  1   1   2  1   
  2   2   3  1   
  3   2   4  2   
  4   3   5  2   
  5   3   6  1   
  6   4   7  1   
  7   4   8  1   
  8   5   7  1   
  9   6   9  2   
 10   6  10  am  
 11   7  11  1   
 12   8  22  1   
 13   8  23  1   
 14   8  24  1   
 15  10  12  1   
 16  10  25  1   
 17  11  26  1   
 18  11  27  1   
 19  11  28  1   
 20  12  13  1   
 21  12  14  2   
 22  13  15  2   
 23  13  16  1   
 24  14  17  1   
 25  14  18  1   
 26  15  17  1   
 27  16  29  1   
 28  16  30  1   
 29  16  31  1   
 30  17  19  1   
 31  18  32  1   
 32  18  33  1   
 33  18  34  1   
 34  19  20  1   
 35  19  35  1   
 36  19  36  1   
 37  20  21  1   
 38  20  37  1   
 39  20  38  1   
 40  21  39  1   
 41  21  40  1   
 42  21  41  1   
@<TRIPOS>SUBSTRUCTURE
  1 ****  10 GROUP 4 **** **** 0

# MOE 2024.06 (io_trps.svl 2023.06)
