@<TRIPOS>MOLECULE
NONAME
53 55 1 0 0 
SMALL
USER_CHARGES


@<TRIPOS>ATOM
  1 F        3.2370    -5.0880     1.8620 F     1 <1>  -0.3400 
  2 C        2.1400    -5.8300     1.8050 C.3   1 <1>   0.8800 
  3 F        2.5230    -7.0650     2.0970 F     1 <1>  -0.3400 
  4 O        1.6720    -5.8060     0.4780 O.3   1 <1>  -0.3630 
  5 C        0.4360    -6.2490     0.1560 C.ar  1 <1>   0.0830 
  6 C       -0.4830    -6.7580     1.0720 C.ar  1 <1>  -0.1500 
  7 C        0.0850    -6.1820    -1.1810 C.ar  1 <1>  -0.1500 
  8 C       -1.7210    -7.1990     0.6370 C.ar  1 <1>  -0.1500 
  9 C       -1.1490    -6.6360    -1.6060 C.ar  1 <1>  -0.1500 
 10 C       -2.0760    -7.1750    -0.7130 C.ar  1 <1>   0.0860 
 11 C       -3.3450    -7.6910    -1.1980 C.2   1 <1>   0.5440 
 12 O       -3.9280    -7.0700    -2.0680 O.2   1 <1>  -0.5700 
 13 N       -3.9430    -8.8480    -0.7270 N.am  1 <1>  -0.6600 
 14 C       -3.2360   -10.1060    -0.2630 C.3   1 <1>   0.3640 
 15 C       -5.4310    -8.9670    -0.7670 C.3   1 <1>   0.1400 
 16 C       -1.7570   -10.1020    -0.6630 C.ar  1 <1>  -0.1430 
 17 C       -3.9130   -11.4180    -0.7840 C.3   1 <1>   0.2000 
 18 C       -5.8390   -10.2470    -1.4900 C.3   1 <1>   0.1200 
 19 C       -0.7840   -10.1770     0.3250 C.ar  1 <1>  -0.1500 
 20 C       -1.3580   -10.0150    -1.9930 C.ar  1 <1>  -0.1500 
 21 O       -5.3160   -11.3400    -0.8030 O.3   1 <1>  -0.5600 
 22 C       -3.6000   -12.6650     0.0660 C.3   1 <1>   0.1200 
 23 C        0.5600   -10.1400     0.0070 C.ar  1 <1>   0.0830 
 24 C       -0.0140    -9.9670    -2.3210 C.ar  1 <1>  -0.1500 
 25 O       -2.2390   -12.8720     0.2540 O.3   1 <1>  -0.6800 
 26 O        1.4400   -10.2410     1.0320 O.3   1 <1>  -0.3630 
 27 C        0.9510   -10.0020    -1.3290 C.ar  1 <1>   0.0830 
 28 C        2.2460   -11.3970     1.0520 C.3   1 <1>   0.0400 
 29 O        2.2480    -9.8880    -1.7090 O.3   1 <1>  -0.3630 
 30 C        2.9280    -8.7350    -1.2610 C.3   1 <1>   0.0400 
 31 H        1.4200    -5.4760     2.5200 H     1 <1>   0.0800 
 32 H       -0.2580    -6.8330     2.1190 H     1 <1>   0.1500 
 33 H        0.7850    -5.7780    -1.8910 H     1 <1>   0.1500 
 34 H       -2.4270    -7.5880     1.3490 H     1 <1>   0.1500 
 35 H       -1.4060    -6.5840    -2.6500 H     1 <1>   0.1500 
 36 H       -3.2970   -10.1260     0.8110 H     1 <1>   0.0800 
 37 H       -5.8150    -8.9880     0.2380 H     1 <1>   0.0800 
 38 H       -5.8740    -8.1240    -1.2670 H     1 <1>   0.0800 
 39 H       -3.6000   -11.6020    -1.7960 H     1 <1>   0.0800 
 40 H       -5.4760   -10.2520    -2.5040 H     1 <1>   0.0800 
 41 H       -6.9100   -10.3450    -1.4990 H     1 <1>   0.0800 
 42 H       -1.0590   -10.2700     1.3600 H     1 <1>   0.1500 
 43 H       -2.0950    -9.9610    -2.7770 H     1 <1>   0.1500 
 44 H       -4.0040   -13.5410    -0.4110 H     1 <1>   0.0800 
 45 H       -4.0440   -12.5620     1.0410 H     1 <1>   0.0800 
 46 H        0.2940    -9.8840    -3.3470 H     1 <1>   0.1500 
 47 H       -1.7590   -12.9010    -0.5990 H     1 <1>   0.4000 
 48 H        2.8250   -11.3870     1.9580 H     1 <1>   0.0800 
 49 H        2.9010   -11.3910     0.1990 H     1 <1>   0.0800 
 50 H        1.6090   -12.2640     1.0290 H     1 <1>   0.0800 
 51 H        3.9100    -8.7310    -1.6990 H     1 <1>   0.0800 
 52 H        3.0070    -8.7540    -0.1890 H     1 <1>   0.0800 
 53 H        2.3810    -7.8650    -1.5760 H     1 <1>   0.0800 
@<TRIPOS>BOND
  1   1   2  1   
  2   2   3  1   
  3   2   4  1   
  4   2  31  1   
  5   4   5  1   
  6   5   6  ar  
  7   5   7  ar  
  8   6   8  ar  
  9   6  32  1   
 10   7   9  ar  
 11   7  33  1   
 12   8  10  ar  
 13   8  34  1   
 14   9  10  ar  
 15   9  35  1   
 16  10  11  1   
 17  11  12  2   
 18  11  13  am  
 19  13  14  1   
 20  13  15  1   
 21  14  16  1   
 22  14  17  1   
 23  14  36  1   
 24  15  18  1   
 25  15  37  1   
 26  15  38  1   
 27  16  19  ar  
 28  16  20  ar  
 29  17  21  1   
 30  17  22  1   
 31  17  39  1   
 32  18  21  1   
 33  18  40  1   
 34  18  41  1   
 35  19  23  ar  
 36  19  42  1   
 37  20  24  ar  
 38  20  43  1   
 39  22  25  1   
 40  22  44  1   
 41  22  45  1   
 42  23  26  1   
 43  23  27  ar  
 44  24  27  ar  
 45  24  46  1   
 46  25  47  1   
 47  26  28  1   
 48  27  29  1   
 49  28  48  1   
 50  28  49  1   
 51  28  50  1   
 52  29  30  1   
 53  30  51  1   
 54  30  52  1   
 55  30  53  1   
@<TRIPOS>SUBSTRUCTURE
  1 ****  19 GROUP 4 **** **** 0

# MOE 2024.06 (io_trps.svl 2023.06)
