@<TRIPOS>MOLECULE
NONAME
46 47 1 0 0 
SMALL
USER_CHARGES


@<TRIPOS>ATOM
  1 S        1.3390    -1.4980     0.2080 S.o2  1 <1>   1.4470 
  2 O        0.6650    -1.7660     1.4580 O.2   1 <1>  -0.6500 
  3 O        2.5350    -2.2390    -0.1210 O.2   1 <1>  -0.6500 
  4 N        0.2320    -1.8040    -1.0220 N.am  1 <1>  -0.9140 
  5 C        1.6410     0.2770     0.0420 C.ar  1 <1>  -0.0090 
  6 C       -0.5540    -3.0370    -0.9610 C.3   1 <1>   0.2760 
  7 C        0.5740     1.1730    -0.0090 C.ar  1 <1>   0.0830 
  8 C        2.9340     0.7830    -0.0180 C.ar  1 <1>  -0.1500 
  9 C       -1.7480    -2.9240    -0.0080 C.3   1 <1>  -0.0800 
 10 C        0.1550    -4.3280    -0.5290 C.3   1 <1>   0.1200 
 11 O       -0.6850     0.6660     0.0450 O.3   1 <1>  -0.3630 
 12 C        0.8110     2.5420    -0.1190 C.ar  1 <1>  -0.1500 
 13 C        3.1690     2.1420    -0.1260 C.ar  1 <1>  -0.1500 
 14 C       -1.5680    -4.1380     0.9070 C.3   1 <1>   0.1200 
 15 C       -3.0790    -2.9780    -0.7810 C.3   1 <1>  -0.0550 
 16 O       -0.8230    -5.0410     0.1590 O.3   1 <1>  -0.5600 
 17 C       -1.7900     1.4670     0.4140 C.3   1 <1>   0.0400 
 18 C        2.1050     3.0220    -0.1760 C.ar  1 <1>  -0.1500 
 19 S       -4.4910    -2.4500     0.1890 S.o2  1 <1>   1.3330 
 20 O       -4.6960    -3.3530     1.2990 O.2   1 <1>  -0.6500 
 21 O       -4.3360    -1.0330     0.4360 O.2   1 <1>  -0.6500 
 22 N       -5.7840    -2.6570    -0.8900 N.am  1 <1>  -0.8490 
 23 C       -6.2730    -4.0390    -0.9530 C.3   1 <1>   0.1160 
 24 C       -6.9020    -1.7530    -0.5960 C.3   1 <1>   0.1160 
 25 H       -0.4390    -1.0400    -0.9110 H     1 <1>   0.4200 
 26 H       -0.9230    -3.2170    -1.9560 H     1 <1>   0.0800 
 27 H        3.7710     0.1030     0.0200 H     1 <1>   0.1500 
 28 H       -1.7160    -2.0230     0.5810 H     1 <1>   0.0800 
 29 H        0.9690    -4.1670     0.1540 H     1 <1>   0.0800 
 30 H        0.4860    -4.9110    -1.3700 H     1 <1>   0.0800 
 31 H        0.0010     3.2450    -0.1660 H     1 <1>   0.1500 
 32 H        4.1800     2.5130    -0.1720 H     1 <1>   0.1500 
 33 H       -2.4910    -4.6040     1.2060 H     1 <1>   0.0800 
 34 H       -0.9940    -3.8780     1.7820 H     1 <1>   0.0800 
 35 H       -3.2350    -3.9760    -1.1420 H     1 <1>   0.0800 
 36 H       -3.0110    -2.3300    -1.6330 H     1 <1>   0.0800 
 37 H       -2.6380     0.8240     0.5670 H     1 <1>   0.0800 
 38 H       -2.0020     2.1620    -0.3790 H     1 <1>   0.0800 
 39 H       -1.5600     1.9830     1.3290 H     1 <1>   0.0800 
 40 H        2.2860     4.0800    -0.2610 H     1 <1>   0.1500 
 41 H       -7.0280    -4.1300    -1.7150 H     1 <1>   0.0800 
 42 H       -6.6950    -4.3340    -0.0060 H     1 <1>   0.0800 
 43 H       -5.4660    -4.7100    -1.1940 H     1 <1>   0.0800 
 44 H       -7.6950    -1.8970    -1.3090 H     1 <1>   0.0800 
 45 H       -6.5750    -0.7290    -0.6610 H     1 <1>   0.0800 
 46 H       -7.2790    -1.9340     0.3970 H     1 <1>   0.0800 
@<TRIPOS>BOND
  1   1   2  2   
  2   1   3  2   
  3   1   4  am  
  4   1   5  1   
  5   4   6  1   
  6   4  25  1   
  7   5   7  ar  
  8   5   8  ar  
  9   6   9  1   
 10   6  10  1   
 11   6  26  1   
 12   7  11  1   
 13   7  12  ar  
 14   8  13  ar  
 15   8  27  1   
 16   9  14  1   
 17   9  15  1   
 18   9  28  1   
 19  10  16  1   
 20  10  29  1   
 21  10  30  1   
 22  11  17  1   
 23  12  18  ar  
 24  12  31  1   
 25  13  18  ar  
 26  13  32  1   
 27  14  16  1   
 28  14  33  1   
 29  14  34  1   
 30  15  19  1   
 31  15  35  1   
 32  15  36  1   
 33  17  37  1   
 34  17  38  1   
 35  17  39  1   
 36  18  40  1   
 37  19  20  2   
 38  19  21  2   
 39  19  22  am  
 40  22  23  1   
 41  22  24  1   
 42  23  41  1   
 43  23  42  1   
 44  23  43  1   
 45  24  44  1   
 46  24  45  1   
 47  24  46  1   
@<TRIPOS>SUBSTRUCTURE
  1 ****   9 GROUP 4 **** **** 0

# MOE 2024.06 (io_trps.svl 2023.06)
