@<TRIPOS>MOLECULE
NONAME
36 37 1 0 0 
SMALL
USER_CHARGES


@<TRIPOS>ATOM
  1 O        3.2930     0.3430    -1.9170 O.co2 1 <1>  -0.9000 
  2 C        3.5890    -0.3150    -0.9150 C.2   1 <1>   0.9060 
  3 O        4.5790    -1.0470    -0.8880 O.co2 1 <1>  -0.9000 
  4 C        2.8400    -0.0790     0.3950 C.3   1 <1>  -0.1860 
  5 C        3.7510     0.4750     1.5190 C.3   1 <1>   0.2000 
  6 C        1.6490     0.8930     0.2150 C.3   1 <1>  -0.1600 
  7 O        5.0640     0.0820     1.3430 O.3   1 <1>  -0.6800 
  8 C        3.7200     2.0190     1.6390 C.3   1 <1>   0.3430 
  9 C        2.1060     2.2830    -0.2690 C.3   1 <1>   0.3430 
 10 N        3.4040     2.7280     0.3500 N.4   1 <1>  -0.9590 
 11 C        4.5250     2.5740    -0.6300 C.3   1 <1>   0.4860 
 12 C        5.4560     3.7550    -0.4340 C.ar  1 <1>  -0.1440 
 13 C        6.7280     3.6210     0.1170 C.ar  1 <1>   0.1670 
 14 C        5.0170     5.0130    -0.8100 C.ar  1 <1>  -0.1500 
 15 N        7.5390     4.6410     0.3450 N.ar  1 <1>  -0.6200 
 16 C        7.3030     2.2700     0.5090 C.3   1 <1>  -0.0970 
 17 C        5.8680     6.0720    -0.5880 C.ar  1 <1>  -0.1500 
 18 C        7.1000     5.8350    -0.0100 C.ar  1 <1>   0.1600 
 19 H        2.4630    -1.0360     0.7040 H     1 <1>   0.0800 
 20 H        3.4410     0.0610     2.4630 H     1 <1>   0.0800 
 21 H        1.1060     0.9910     1.1390 H     1 <1>   0.0800 
 22 H        0.9660     0.4900    -0.5130 H     1 <1>   0.0800 
 23 H        5.1020    -0.5180     0.5270 H     1 <1>   0.4000 
 24 H        4.6640     2.3580     2.0330 H     1 <1>   0.0800 
 25 H        2.9570     2.2730     2.3550 H     1 <1>   0.0800 
 26 H        1.3310     2.9980    -0.0490 H     1 <1>   0.0800 
 27 H        2.2190     2.2500    -1.3420 H     1 <1>   0.0800 
 28 H        3.3650     3.7350     0.5310 H     1 <1>   0.4500 
 29 H        5.0360     1.6380    -0.4860 H     1 <1>   0.0800 
 30 H        4.1450     2.5800    -1.6390 H     1 <1>   0.0800 
 31 H        4.0550     5.1730    -1.2660 H     1 <1>   0.1500 
 32 H        7.0160     1.4980    -0.1800 H     1 <1>   0.0800 
 33 H        6.9810     2.0050     1.4990 H     1 <1>   0.0800 
 34 H        8.3780     2.3150     0.5100 H     1 <1>   0.0800 
 35 H        5.5860     7.0740    -0.8600 H     1 <1>   0.1500 
 36 H        7.7610     6.6670     0.1660 H     1 <1>   0.1500 
@<TRIPOS>BOND
  1   1   2  ar  
  2   2   3  ar  
  3   2   4  1   
  4   4   5  1   
  5   4   6  1   
  6   4  19  1   
  7   5   7  1   
  8   5   8  1   
  9   5  20  1   
 10   6   9  1   
 11   6  21  1   
 12   6  22  1   
 13   7  23  1   
 14   8  10  1   
 15   8  24  1   
 16   8  25  1   
 17   9  10  1   
 18   9  26  1   
 19   9  27  1   
 20  10  11  1   
 21  10  28  1   
 22  11  12  1   
 23  11  29  1   
 24  11  30  1   
 25  12  13  ar  
 26  12  14  ar  
 27  13  15  ar  
 28  13  16  1   
 29  14  17  ar  
 30  14  31  1   
 31  15  18  ar  
 32  16  32  1   
 33  16  33  1   
 34  16  34  1   
 35  17  18  ar  
 36  17  35  1   
 37  18  36  1   
@<TRIPOS>SUBSTRUCTURE
  1 ****  11 GROUP 4 **** **** 0

# MOE 2024.06 (io_trps.svl 2023.06)
