@<TRIPOS>MOLECULE
NONAME
36 37 1 0 0 
SMALL
USER_CHARGES


@<TRIPOS>ATOM
  1 S        0.7880     1.3290     0.8630 S.3   1 <1>  -0.0800 
  2 C        0.9630     0.7310    -0.7700 C.2   1 <1>   0.1980 
  3 C        2.5110     1.2050     1.0690 C.2   1 <1>  -0.1400 
  4 N        2.1590     0.4670    -1.1070 N.2   1 <1>  -0.5650 
  5 C       -0.2920     0.5940    -1.5980 C.3   1 <1>  -0.0600 
  6 C        3.0530     0.7290    -0.0670 C.2   1 <1>   0.0460 
  7 C        3.0730     1.6480     2.4070 C.3   1 <1>  -0.0600 
  8 C        4.5470     0.4820    -0.3020 C.3   1 <1>   0.4700 
  9 N        5.0510     1.4770    -1.2500 N.pl3 1 <1>  -0.8690 
 10 C        4.8250    -0.9010    -0.8830 C.3   1 <1>  -0.2400 
 11 C        5.4410     2.7010    -0.8430 C.ar  1 <1>   0.7200 
 12 N        6.0200     2.8190     0.3480 N.ar  1 <1>  -0.6200 
 13 N        5.1820     3.6670    -1.7100 N.ar  1 <1>  -0.6200 
 14 C        6.3740     4.0330     0.6890 C.ar  1 <1>   0.1670 
 15 C        5.5420     4.8720    -1.3460 C.ar  1 <1>   0.1670 
 16 C        6.1520     5.1100    -0.1370 C.ar  1 <1>  -0.1500 
 17 C        7.0400     4.1990     2.0380 C.3   1 <1>  -0.0970 
 18 C        5.2570     5.9950    -2.3200 C.3   1 <1>  -0.0970 
 19 H       -0.7660     1.5530    -1.7000 H     1 <1>   0.0800 
 20 H       -0.9690    -0.0900    -1.1210 H     1 <1>   0.0800 
 21 H       -0.0420     0.2200    -2.5730 H     1 <1>   0.0800 
 22 H        2.6790     1.0300     3.1930 H     1 <1>   0.0800 
 23 H        2.7960     2.6700     2.5940 H     1 <1>   0.0800 
 24 H        4.1450     1.5810     2.4140 H     1 <1>   0.0800 
 25 H        5.0740     0.5620     0.6320 H     1 <1>   0.0800 
 26 H        4.4160     1.5560    -2.0420 H     1 <1>   0.4000 
 27 H        4.3430    -1.0110    -1.8370 H     1 <1>   0.0800 
 28 H        4.4430    -1.6530    -0.2170 H     1 <1>   0.0800 
 29 H        5.8830    -1.0410    -0.9980 H     1 <1>   0.0800 
 30 H        6.4450     6.1010     0.1510 H     1 <1>   0.1500 
 31 H        7.9340     3.6030     2.0710 H     1 <1>   0.0800 
 32 H        6.3730     3.8670     2.8120 H     1 <1>   0.0800 
 33 H        7.3000     5.2260     2.2170 H     1 <1>   0.0800 
 34 H        4.2000     6.0450    -2.5070 H     1 <1>   0.0800 
 35 H        5.7630     5.8010    -3.2480 H     1 <1>   0.0800 
 36 H        5.5890     6.9390    -1.9310 H     1 <1>   0.0800 
@<TRIPOS>BOND
  1   1   2  1   
  2   1   3  1   
  3   2   4  2   
  4   2   5  1   
  5   3   6  2   
  6   3   7  1   
  7   4   6  1   
  8   5  19  1   
  9   5  20  1   
 10   5  21  1   
 11   6   8  1   
 12   7  22  1   
 13   7  23  1   
 14   7  24  1   
 15   8   9  1   
 16   8  10  1   
 17   8  25  1   
 18   9  11  1   
 19   9  26  1   
 20  10  27  1   
 21  10  28  1   
 22  10  29  1   
 23  11  12  ar  
 24  11  13  ar  
 25  12  14  ar  
 26  13  15  ar  
 27  14  16  ar  
 28  14  17  1   
 29  15  16  ar  
 30  15  18  1   
 31  16  30  1   
 32  17  31  1   
 33  17  32  1   
 34  17  33  1   
 35  18  34  1   
 36  18  35  1   
 37  18  36  1   
@<TRIPOS>SUBSTRUCTURE
  1 ****  11 GROUP 4 **** **** 0

# MOE 2024.06 (io_trps.svl 2023.06)
