@<TRIPOS>MOLECULE
NONAME
42 43 1 0 0 
SMALL
USER_CHARGES


@<TRIPOS>ATOM
  1 O        2.7120     0.0890     0.2100 O.2   1 <1>  -0.5700 
  2 C        2.3720    -1.0430     0.5040 C.2   1 <1>   0.6900 
  3 N        2.1950    -2.0050    -0.4850 N.am  1 <1>  -0.4690 
  4 N        2.1420    -1.3700     1.8270 N.am  1 <1>  -0.4200 
  5 C        1.7610    -3.3040    -0.1670 C.2   1 <1>   0.1230 
  6 C        2.5640    -1.6890    -1.9000 C.3   1 <1>   0.0600 
  7 C        1.6930    -2.6300     2.1640 C.2   1 <1>   0.6160 
  8 C        2.3540    -0.3470     2.8930 C.3   1 <1>   0.0600 
  9 C        1.5360    -4.3100    -1.1910 C.2   1 <1>   0.6160 
 10 C        1.5340    -3.5900     1.1390 C.2   1 <1>  -0.1360 
 11 O        1.4110    -2.9020     3.3170 O.2   1 <1>  -0.5700 
 12 O        2.4560    -4.7230    -1.8730 O.2   1 <1>  -0.5700 
 13 N        0.2750    -4.8130    -1.3940 N.am  1 <1>  -0.6600 
 14 C        0.1280    -6.2360    -1.7780 C.3   1 <1>   0.3200 
 15 C       -0.9400    -3.9410    -1.3800 C.3   1 <1>   0.1400 
 16 C        0.4300    -7.0750    -0.5550 C.2   1 <1>  -0.3320 
 17 C       -1.8200    -4.1190    -0.1290 C.3   1 <1>   0.1200 
 18 N       -0.3880    -7.1450     0.5080 N.pl3 1 <1>   0.0330 
 19 C        1.4940    -7.8540    -0.2650 C.2   1 <1>   0.0770 
 20 O       -2.4900    -5.3390    -0.1470 O.3   1 <1>  -0.6800 
 21 C        0.2320    -7.9630     1.3840 C.2   1 <1>   0.0060 
 22 N        1.3650    -8.4130     0.9540 N.2   1 <1>  -0.5650 
 23 C       -0.3540    -8.3060     2.7360 C.3   1 <1>  -0.0600 
 24 H        2.7330    -0.6360    -2.0390 H     1 <1>   0.0800 
 25 H        1.7750    -1.9940    -2.5650 H     1 <1>   0.0800 
 26 H        3.4650    -2.2190    -2.1600 H     1 <1>   0.0800 
 27 H        3.1580     0.3150     2.6220 H     1 <1>   0.0800 
 28 H        2.6060    -0.8200     3.8260 H     1 <1>   0.0800 
 29 H        1.4540     0.2280     3.0220 H     1 <1>   0.0800 
 30 H        1.2190    -4.5690     1.4510 H     1 <1>   0.1500 
 31 H        0.8220    -6.4750    -2.5670 H     1 <1>   0.0800 
 32 H       -0.8690    -6.4340    -2.1310 H     1 <1>   0.0800 
 33 H       -1.5240    -4.1200    -2.2660 H     1 <1>   0.0800 
 34 H       -0.6220    -2.9130    -1.4190 H     1 <1>   0.0800 
 35 H       -2.5610    -3.3390    -0.0810 H     1 <1>   0.0800 
 36 H       -1.2190    -4.0750     0.7620 H     1 <1>   0.0800 
 37 H       -1.2860    -6.6530     0.6140 H     1 <1>   0.2700 
 38 H        2.3640    -8.0370    -0.8740 H     1 <1>   0.1500 
 39 H       -3.2210    -5.3250    -0.8000 H     1 <1>   0.4000 
 40 H       -1.3110    -8.7790     2.6130 H     1 <1>   0.0800 
 41 H       -0.4680    -7.4150     3.3240 H     1 <1>   0.0800 
 42 H        0.3020    -8.9820     3.2550 H     1 <1>   0.0800 
@<TRIPOS>BOND
  1   1   2  2   
  2   2   3  am  
  3   2   4  am  
  4   3   5  1   
  5   3   6  1   
  6   4   7  am  
  7   4   8  1   
  8   5   9  1   
  9   5  10  2   
 10   6  24  1   
 11   6  25  1   
 12   6  26  1   
 13   7  10  1   
 14   7  11  2   
 15   8  27  1   
 16   8  28  1   
 17   8  29  1   
 18   9  12  2   
 19   9  13  am  
 20  10  30  1   
 21  13  14  1   
 22  13  15  1   
 23  14  16  1   
 24  14  31  1   
 25  14  32  1   
 26  15  17  1   
 27  15  33  1   
 28  15  34  1   
 29  16  18  1   
 30  16  19  2   
 31  17  20  1   
 32  17  35  1   
 33  17  36  1   
 34  18  21  1   
 35  18  37  1   
 36  19  22  1   
 37  19  38  1   
 38  20  39  1   
 39  21  22  2   
 40  21  23  1   
 41  23  40  1   
 42  23  41  1   
 43  23  42  1   
@<TRIPOS>SUBSTRUCTURE
  1 ****  10 GROUP 4 **** **** 0

# MOE 2024.06 (io_trps.svl 2023.06)
