@<TRIPOS>MOLECULE
NONAME
40 43 1 0 0 
SMALL
USER_CHARGES


@<TRIPOS>ATOM
  1 S        0.1550    -0.1060     1.0360 S.3   1 <1>  -0.0800 
  2 C       -1.0530     1.0820     0.4980 C.ar  1 <1>   0.0400 
  3 C       -1.0270    -1.4050     1.0630 C.2   1 <1>  -0.1100 
  4 C       -0.9260     2.4600     0.2420 C.ar  1 <1>   0.4100 
  5 C       -2.2630     0.4480     0.3990 C.ar  1 <1>   0.3070 
  6 C       -2.2410    -0.9500     0.7030 C.2   1 <1>  -0.1500 
  7 N       -2.0420     3.1470    -0.0700 N.ar  1 <1>  -0.6200 
  8 N        0.2270     3.1800     0.2780 N.pl3 1 <1>  -0.8380 
  9 N       -3.3330     1.2010     0.0540 N.ar  1 <1>  -0.1250 
 10 C       -3.1830     2.5250    -0.1590 C.ar  1 <1>   0.5280 
 11 C        0.2590     4.6790     0.4900 C.3   1 <1>   0.2090 
 12 C        1.6140     2.6250     0.1190 C.3   1 <1>   0.2090 
 13 C       -4.4090     3.3390    -0.5220 C.3   1 <1>  -0.0970 
 14 C        1.1750     5.4000    -0.5180 C.3   1 <1>   0.3430 
 15 C        2.4620     3.4690    -0.8530 C.3   1 <1>   0.1200 
 16 O        2.4530     4.8220    -0.5010 O.3   1 <1>  -0.5600 
 17 C        1.2830     6.8840    -0.1790 C.ar  1 <1>  -0.1430 
 18 C        0.4830     7.8040    -0.8420 C.ar  1 <1>  -0.1500 
 19 C        2.1590     7.3350     0.7990 C.ar  1 <1>  -0.1500 
 20 C        0.5550     9.1510    -0.5310 C.ar  1 <1>  -0.1500 
 21 C        2.2320     8.6810     1.1120 C.ar  1 <1>  -0.1500 
 22 C        1.4290     9.5900     0.4480 C.ar  1 <1>  -0.1500 
 23 H       -0.6760    -2.3840     1.3500 H     1 <1>   0.1500 
 24 H       -3.1250    -1.5630     0.6460 H     1 <1>   0.1500 
 25 H       -4.2540     0.7720    -0.0300 H     1 <1>   0.4570 
 26 H        0.6250     4.8800     1.4810 H     1 <1>   0.0800 
 27 H       -0.7220     5.1110     0.4240 H     1 <1>   0.0800 
 28 H        1.5800     1.6300    -0.2800 H     1 <1>   0.0800 
 29 H        2.1000     2.5930     1.0790 H     1 <1>   0.0800 
 30 H       -4.1370     4.3710    -0.6640 H     1 <1>   0.0800 
 31 H       -5.1390     3.2910     0.2660 H     1 <1>   0.0800 
 32 H       -4.8430     2.9790    -1.4370 H     1 <1>   0.0800 
 33 H        0.7750     5.2900    -1.5100 H     1 <1>   0.0800 
 34 H        2.0890     3.3740    -1.8580 H     1 <1>   0.0800 
 35 H        3.4840     3.1360    -0.8340 H     1 <1>   0.0800 
 36 H       -0.2010     7.4800    -1.6070 H     1 <1>   0.1500 
 37 H        2.7920     6.6340     1.3170 H     1 <1>   0.1500 
 38 H       -0.0670     9.8580    -1.0500 H     1 <1>   0.1500 
 39 H        2.9160     9.0190     1.8710 H     1 <1>   0.1500 
 40 H        1.4860    10.6370     0.6900 H     1 <1>   0.1500 
@<TRIPOS>BOND
  1   1   2  1   
  2   1   3  1   
  3   2   4  ar  
  4   2   5  ar  
  5   3   6  2   
  6   3  23  1   
  7   4   7  ar  
  8   4   8  1   
  9   5   6  1   
 10   5   9  ar  
 11   6  24  1   
 12   7  10  ar  
 13   8  11  1   
 14   8  12  1   
 15   9  10  ar  
 16   9  25  1   
 17  10  13  1   
 18  11  14  1   
 19  11  26  1   
 20  11  27  1   
 21  12  15  1   
 22  12  28  1   
 23  12  29  1   
 24  13  30  1   
 25  13  31  1   
 26  13  32  1   
 27  14  16  1   
 28  14  17  1   
 29  14  33  1   
 30  15  16  1   
 31  15  34  1   
 32  15  35  1   
 33  17  18  ar  
 34  17  19  ar  
 35  18  20  ar  
 36  18  36  1   
 37  19  21  ar  
 38  19  37  1   
 39  20  22  ar  
 40  20  38  1   
 41  21  22  ar  
 42  21  39  1   
 43  22  40  1   
@<TRIPOS>SUBSTRUCTURE
  1 ****   8 GROUP 4 **** **** 0

# MOE 2024.06 (io_trps.svl 2023.06)
