@<TRIPOS>MOLECULE
NONAME
53 57 1 0 0 
SMALL
USER_CHARGES


@<TRIPOS>ATOM
  1 S       -1.3740    -0.6940     1.1700 S.o2  1 <1>   1.3330 
  2 O       -2.2630    -1.5840     0.4550 O.2   1 <1>  -0.6500 
  3 O       -1.4330    -0.6220     2.6100 O.2   1 <1>  -0.6500 
  4 N       -1.5770     0.8690     0.5480 N.am  1 <1>  -0.8490 
  5 C        0.3060    -1.0660     0.7140 C.3   1 <1>  -0.1350 
  6 C       -1.9250     0.8810    -0.8910 C.3   1 <1>   0.1960 
  7 C       -2.6800     1.5910     1.1980 C.3   1 <1>   0.1960 
  8 C       -3.4430     1.0830    -0.9800 C.3   1 <1>   0.2800 
  9 C       -3.9480     1.1650     0.4520 C.3   1 <1>  -0.0800 
 10 O       -3.7800     2.3370    -1.4590 O.3   1 <1>  -0.5600 
 11 C       -4.3280     0.1830    -1.8380 C.3   1 <1>  -0.1600 
 12 C       -5.1500     2.1210     0.3070 C.3   1 <1>  -0.0800 
 13 C       -5.1360     2.3380    -1.2150 C.3   1 <1>   0.2000 
 14 C       -5.5720     1.0730    -1.9710 C.3   1 <1>  -0.1600 
 15 C       -5.0170     3.4380     1.0820 C.3   1 <1>   0.1400 
 16 N       -6.2280     4.2620     0.8840 N.am  1 <1>  -0.7300 
 17 C       -6.8330     5.0380     1.8300 C.2   1 <1>   0.5440 
 18 O       -6.4370     4.9670     2.9760 O.2   1 <1>  -0.5700 
 19 C       -7.9340     5.9230     1.4880 C.ar  1 <1>   0.0860 
 20 C       -7.9790     6.6980     0.3160 C.ar  1 <1>  -0.0230 
 21 C       -9.0130     6.0240     2.3690 C.ar  1 <1>  -0.1500 
 22 N       -6.9110     6.6910    -0.6110 N.pl3 1 <1>   0.5930 
 23 C       -9.0820     7.5070     0.0550 C.ar  1 <1>  -0.1500 
 24 C      -10.1000     6.8350     2.1070 C.ar  1 <1>  -0.1500 
 25 N       -6.7690     5.7450    -1.5780 N.2   1 <1>  -0.7070 
 26 C       -5.8800     7.5660    -0.6690 C.2   1 <1>  -0.3020 
 27 C      -10.1380     7.5770     0.9420 C.ar  1 <1>  -0.1500 
 28 C       -5.6760     6.0530    -2.2050 C.2   1 <1>   0.1390 
 29 C       -5.0710     7.1870    -1.6780 C.2   1 <1>  -0.1500 
 30 H        0.4180    -1.0460    -0.3510 H     1 <1>   0.0800 
 31 H        0.5750    -2.0400     1.0720 H     1 <1>   0.0800 
 32 H        0.9700    -0.3440     1.1470 H     1 <1>   0.0800 
 33 H       -1.4310     1.7060    -1.3740 H     1 <1>   0.0800 
 34 H       -1.6300    -0.0320    -1.3770 H     1 <1>   0.0800 
 35 H       -2.7440     1.3880     2.2540 H     1 <1>   0.0800 
 36 H       -2.5010     2.6430     1.0650 H     1 <1>   0.0800 
 37 H       -4.2620     0.1990     0.8080 H     1 <1>   0.0800 
 38 H       -3.8690     0.0100    -2.7950 H     1 <1>   0.0800 
 39 H       -4.5300    -0.7580    -1.3560 H     1 <1>   0.0800 
 40 H       -6.0580     1.6310     0.6130 H     1 <1>   0.0800 
 41 H       -5.5980     3.2460    -1.5620 H     1 <1>   0.0800 
 42 H       -6.4490     0.6300    -1.5340 H     1 <1>   0.0800 
 43 H       -5.7670     1.3090    -3.0020 H     1 <1>   0.0800 
 44 H       -4.1650     3.9950     0.7320 H     1 <1>   0.0800 
 45 H       -4.8880     3.2320     2.1320 H     1 <1>   0.0800 
 46 H       -6.4800     4.4310    -0.1010 H     1 <1>   0.3700 
 47 H       -8.9910     5.4500     3.2800 H     1 <1>   0.1500 
 48 H       -9.1140     8.0870    -0.8520 H     1 <1>   0.1500 
 49 H      -10.9170     6.8870     2.8070 H     1 <1>   0.1500 
 50 H       -5.7920     8.3920     0.0120 H     1 <1>   0.1500 
 51 H      -10.9860     8.2070     0.7310 H     1 <1>   0.1500 
 52 H       -5.2840     5.4900    -3.0380 H     1 <1>   0.1500 
 53 H       -4.1550     7.6360    -2.0240 H     1 <1>   0.1500 
@<TRIPOS>BOND
  1   1   2  2   
  2   1   3  2   
  3   1   4  am  
  4   1   5  1   
  5   4   6  1   
  6   4   7  1   
  7   5  30  1   
  8   5  31  1   
  9   5  32  1   
 10   6   8  1   
 11   6  33  1   
 12   6  34  1   
 13   7   9  1   
 14   7  35  1   
 15   7  36  1   
 16   8   9  1   
 17   8  10  1   
 18   8  11  1   
 19   9  12  1   
 20   9  37  1   
 21  10  13  1   
 22  11  14  1   
 23  11  38  1   
 24  11  39  1   
 25  12  13  1   
 26  12  15  1   
 27  12  40  1   
 28  13  14  1   
 29  13  41  1   
 30  14  42  1   
 31  14  43  1   
 32  15  16  1   
 33  15  44  1   
 34  15  45  1   
 35  16  17  am  
 36  16  46  1   
 37  17  18  2   
 38  17  19  1   
 39  19  20  ar  
 40  19  21  ar  
 41  20  22  1   
 42  20  23  ar  
 43  21  24  ar  
 44  21  47  1   
 45  22  25  1   
 46  22  26  1   
 47  23  27  ar  
 48  23  48  1   
 49  24  27  ar  
 50  24  49  1   
 51  25  28  2   
 52  26  29  2   
 53  26  50  1   
 54  27  51  1   
 55  28  29  1   
 56  28  52  1   
 57  29  53  1   
@<TRIPOS>SUBSTRUCTURE
  1 ****  15 GROUP 4 **** **** 0

# MOE 2024.06 (io_trps.svl 2023.06)
