@<TRIPOS>MOLECULE
NONAME
51 54 1 0 0 
SMALL
USER_CHARGES


@<TRIPOS>ATOM
  1 N        0.8230     0.3800     0.7030 N.ar  1 <1>  -0.6200 
  2 C       -0.0240     1.2130     1.3170 C.ar  1 <1>   0.7200 
  3 C        1.3860     0.8690    -0.3710 C.ar  1 <1>   0.1660 
  4 N       -0.3250     2.4570     0.9330 N.ar  1 <1>  -0.6200 
  5 N       -0.6340     0.7410     2.4580 N.pl3 1 <1>  -0.8380 
  6 C        1.1540     2.1220    -0.8450 C.ar  1 <1>  -0.1440 
  7 C        2.3920     0.1230    -1.2100 C.3   1 <1>   0.1430 
  8 C        0.2670     2.9050    -0.1490 C.ar  1 <1>   0.1600 
  9 C       -0.9530    -0.7000     2.6510 C.3   1 <1>   0.1290 
 10 C       -1.2700     1.6670     3.4370 C.3   1 <1>   0.1290 
 11 C        1.9610     2.4060    -2.0870 C.3   1 <1>  -0.0160 
 12 C        3.4340    -0.4810    -0.2550 C.3   1 <1>   0.3430 
 13 C        1.6970    -0.9880    -2.0230 C.3   1 <1>  -0.1600 
 14 C        2.9740     1.2430    -2.1150 C.3   1 <1>  -0.1600 
 15 N        4.4140    -1.3770    -0.9700 N.4   1 <1>  -0.9590 
 16 C        2.7100    -1.9510    -2.6670 C.3   1 <1>  -0.1600 
 17 C        3.7080    -2.5050    -1.6450 C.3   1 <1>   0.3430 
 18 C        5.4790    -1.8650    -0.0480 C.3   1 <1>   0.4860 
 19 C        6.2970    -0.6840     0.4180 C.ar  1 <1>  -0.1440 
 20 C        7.2520    -0.1070    -0.3900 C.ar  1 <1>   0.1600 
 21 C        6.1140    -0.1230     1.6640 C.ar  1 <1>   0.1600 
 22 N        7.9320     0.9480    -0.0210 N.ar  1 <1>  -0.6200 
 23 N        6.7830     0.9310     2.0560 N.ar  1 <1>  -0.6200 
 24 C        7.6470     1.4170     1.1820 C.ar  1 <1>   0.7200 
 25 N        8.3200     2.5000     1.5630 N.pl3 1 <1>  -0.9000 
 26 H        0.0430     3.9050    -0.4790 H     1 <1>   0.1500 
 27 H       -0.8020    -1.2520     1.7400 H     1 <1>   0.0800 
 28 H       -1.9830    -0.8100     2.9440 H     1 <1>   0.0800 
 29 H       -0.3210    -1.1090     3.4190 H     1 <1>   0.0800 
 30 H       -0.7530     2.6110     3.4510 H     1 <1>   0.0800 
 31 H       -1.2290     1.2430     4.4250 H     1 <1>   0.0800 
 32 H       -2.2960     1.8350     3.1620 H     1 <1>   0.0800 
 33 H        2.4520     3.3630    -2.0320 H     1 <1>   0.0800 
 34 H        1.3170     2.3770    -2.9490 H     1 <1>   0.0800 
 35 H        2.9110    -1.0470     0.5000 H     1 <1>   0.0800 
 36 H        3.9500     0.3260     0.2400 H     1 <1>   0.0800 
 37 H        1.0630    -0.5530    -2.7780 H     1 <1>   0.0800 
 38 H        1.0570    -1.5510    -1.3630 H     1 <1>   0.0800 
 39 H        3.1560     0.9180    -3.1240 H     1 <1>   0.0800 
 40 H        3.9000     1.6040    -1.7000 H     1 <1>   0.0800 
 41 H        4.8630    -0.8060    -1.6970 H     1 <1>   0.4500 
 42 H        3.2440    -1.4590    -3.4610 H     1 <1>   0.0800 
 43 H        2.1750    -2.7740    -3.1110 H     1 <1>   0.0800 
 44 H        3.1780    -3.0950    -0.9140 H     1 <1>   0.0800 
 45 H        4.4170    -3.1430    -2.1480 H     1 <1>   0.0800 
 46 H        6.1210    -2.5640    -0.5590 H     1 <1>   0.0800 
 47 H        5.0370    -2.3660     0.7990 H     1 <1>   0.0800 
 48 H        7.4690    -0.5090    -1.3660 H     1 <1>   0.1500 
 49 H        5.4000    -0.5350     2.3590 H     1 <1>   0.1500 
 50 H        8.3320     2.6890     2.5620 H     1 <1>   0.4000 
 51 H        9.1740     2.6990     1.0500 H     1 <1>   0.4000 
@<TRIPOS>BOND
  1   1   2  ar  
  2   1   3  ar  
  3   2   4  ar  
  4   2   5  1   
  5   3   6  ar  
  6   3   7  1   
  7   4   8  ar  
  8   5   9  1   
  9   5  10  1   
 10   6   8  ar  
 11   6  11  1   
 12   7  12  1   
 13   7  13  1   
 14   7  14  1   
 15   8  26  1   
 16   9  27  1   
 17   9  28  1   
 18   9  29  1   
 19  10  30  1   
 20  10  31  1   
 21  10  32  1   
 22  11  14  1   
 23  11  33  1   
 24  11  34  1   
 25  12  15  1   
 26  12  35  1   
 27  12  36  1   
 28  13  16  1   
 29  13  37  1   
 30  13  38  1   
 31  14  39  1   
 32  14  40  1   
 33  15  17  1   
 34  15  18  1   
 35  15  41  1   
 36  16  17  1   
 37  16  42  1   
 38  16  43  1   
 39  17  44  1   
 40  17  45  1   
 41  18  19  1   
 42  18  46  1   
 43  18  47  1   
 44  19  20  ar  
 45  19  21  ar  
 46  20  22  ar  
 47  20  48  1   
 48  21  23  ar  
 49  21  49  1   
 50  22  24  ar  
 51  23  24  ar  
 52  24  25  1   
 53  25  50  1   
 54  25  51  1   
@<TRIPOS>SUBSTRUCTURE
  1 ****  12 GROUP 4 **** **** 0

# MOE 2024.06 (io_trps.svl 2023.06)
