@<TRIPOS>MOLECULE
NONAME
42 43 1 0 0 
SMALL
USER_CHARGES


@<TRIPOS>ATOM
  1 CL      -1.3310     1.3500    -1.2040 Cl    1 <1>  -0.1770 
  2 C       -0.4000     2.7790    -0.8300 C.ar  1 <1>   0.1770 
  3 C       -0.9780     4.0250    -0.9980 C.ar  1 <1>  -0.1500 
  4 C        0.8980     2.6410    -0.3760 C.ar  1 <1>  -0.1500 
  5 C       -0.2510     5.1700    -0.7040 C.ar  1 <1>  -0.1440 
  6 C        1.6290     3.7770    -0.0770 C.ar  1 <1>  -0.1500 
  7 C        1.0550     5.0310    -0.2300 C.ar  1 <1>   0.0830 
  8 C       -0.8930     6.5350    -0.9170 C.3   1 <1>  -0.0960 
  9 O        1.8030     6.1100     0.0810 O.3   1 <1>  -0.3630 
 10 C        1.5440     6.7280     1.3370 C.3   1 <1>   0.2610 
 11 C        1.3250     8.2330     1.1420 C.2   1 <1>   0.5690 
 12 C        2.7340     6.4220     2.2530 C.3   1 <1>  -0.2400 
 13 O        0.7760     8.8550     2.0220 O.2   1 <1>  -0.5700 
 14 N        1.7700     8.7970    -0.0240 N.am  1 <1>  -0.4940 
 15 C        1.7050    10.1350    -0.4840 C.2   1 <1>  -0.0880 
 16 N        2.7060    10.7570    -1.1660 N.pl3 1 <1>   0.3140 
 17 C        0.7060    11.0450    -0.3730 C.2   1 <1>  -0.1810 
 18 N        2.3760    12.0250    -1.4930 N.2   1 <1>  -0.7070 
 19 C        4.0300    10.2030    -1.5200 C.3   1 <1>   0.0960 
 20 C        1.1840    12.1850    -1.0090 C.2   1 <1>   0.1390 
 21 C       -0.6570    10.9140     0.2800 C.3   1 <1>  -0.0590 
 22 C        4.9790    10.2160    -0.3140 C.3   1 <1>  -0.2400 
 23 H       -1.9880     4.0860    -1.3590 H     1 <1>   0.1500 
 24 H        1.3230     1.6600    -0.2610 H     1 <1>   0.1500 
 25 H        2.6420     3.6950     0.2740 H     1 <1>   0.1500 
 26 H       -1.7810     6.4500    -1.5170 H     1 <1>   0.0800 
 27 H       -0.2110     7.1930    -1.4240 H     1 <1>   0.0800 
 28 H       -1.1630     6.9700     0.0290 H     1 <1>   0.0800 
 29 H        0.6460     6.3070     1.7540 H     1 <1>   0.0800 
 30 H        3.6410     6.8210     1.8360 H     1 <1>   0.0800 
 31 H        2.8330     5.3610     2.3910 H     1 <1>   0.0800 
 32 H        2.5720     6.8760     3.2150 H     1 <1>   0.0800 
 33 H        2.2120     8.1200    -0.6500 H     1 <1>   0.3700 
 34 H        4.4410    10.8030    -2.3130 H     1 <1>   0.0800 
 35 H        3.8990     9.2020    -1.8850 H     1 <1>   0.0800 
 36 H        0.6330    13.1060    -1.0970 H     1 <1>   0.1500 
 37 H       -0.9870     9.8930     0.2490 H     1 <1>   0.0800 
 38 H       -1.3770    11.5250    -0.2320 H     1 <1>   0.0800 
 39 H       -0.5960    11.2260     1.3070 H     1 <1>   0.0800 
 40 H        5.1140    11.2260     0.0330 H     1 <1>   0.0800 
 41 H        5.9380     9.8210    -0.5980 H     1 <1>   0.0800 
 42 H        4.5820     9.6170     0.4860 H     1 <1>   0.0800 
@<TRIPOS>BOND
  1   1   2  1   
  2   2   3  ar  
  3   2   4  ar  
  4   3   5  ar  
  5   3  23  1   
  6   4   6  ar  
  7   4  24  1   
  8   5   7  ar  
  9   5   8  1   
 10   6   7  ar  
 11   6  25  1   
 12   7   9  1   
 13   8  26  1   
 14   8  27  1   
 15   8  28  1   
 16   9  10  1   
 17  10  11  1   
 18  10  12  1   
 19  10  29  1   
 20  11  13  2   
 21  11  14  am  
 22  12  30  1   
 23  12  31  1   
 24  12  32  1   
 25  14  15  1   
 26  14  33  1   
 27  15  16  1   
 28  15  17  2   
 29  16  18  1   
 30  16  19  1   
 31  17  20  1   
 32  17  21  1   
 33  18  20  2   
 34  19  22  1   
 35  19  34  1   
 36  19  35  1   
 37  20  36  1   
 38  21  37  1   
 39  21  38  1   
 40  21  39  1   
 41  22  40  1   
 42  22  41  1   
 43  22  42  1   
@<TRIPOS>SUBSTRUCTURE
  1 ****  14 GROUP 4 **** **** 0

# MOE 2024.06 (io_trps.svl 2023.06)
