@<TRIPOS>MOLECULE
NONAME
47 49 1 0 0 
SMALL
USER_CHARGES


@<TRIPOS>ATOM
  1 S        0.9800    -0.1340     0.5200 S.o2  1 <1>   1.3330 
  2 O        0.7650     0.3220     1.8740 O.2   1 <1>  -0.6500 
  3 O        1.4190    -1.4920     0.2830 O.2   1 <1>  -0.6500 
  4 N       -0.4560     0.1020    -0.3550 N.am  1 <1>  -0.8490 
  5 C        2.1260     0.9950    -0.2690 C.3   1 <1>  -0.0550 
  6 C       -1.6480    -0.1850     0.4470 C.3   1 <1>   0.1160 
  7 C       -0.5070    -0.6530    -1.6120 C.3   1 <1>   0.1160 
  8 C        3.5000     1.0520     0.4210 C.3   1 <1>  -0.0800 
  9 C        4.4540     2.0120    -0.2710 C.3   1 <1>   0.2200 
 10 C        4.2790    -0.2580     0.4020 C.3   1 <1>   0.1200 
 11 N        4.4050     3.3390     0.3770 N.am  1 <1>  -0.7300 
 12 C        5.8220     1.3380    -0.1430 C.3   1 <1>   0.1200 
 13 O        5.6130     0.1200     0.5040 O.3   1 <1>  -0.5600 
 14 C        3.6620     4.3890    -0.0560 C.2   1 <1>   0.5690 
 15 O        2.9270     4.2920    -1.0090 O.2   1 <1>  -0.5700 
 16 C        3.7330     5.7060     0.6790 C.3   1 <1>   0.1570 
 17 N        5.1380     6.0780     0.8770 N.pl3 1 <1>   0.3140 
 18 N        5.8540     5.6130     1.9310 N.2   1 <1>  -0.7070 
 19 C        5.8960     6.8670     0.0590 C.ar  1 <1>  -0.1520 
 20 C        7.0330     6.1190     1.7830 C.2   1 <1>   0.1390 
 21 C        7.1480     6.9190     0.6350 C.ar  1 <1>   0.0000 
 22 C        5.6240     7.5450    -1.1360 C.ar  1 <1>  -0.1500 
 23 C        8.1660     7.6670     0.0280 C.ar  1 <1>  -0.1500 
 24 C        6.6280     8.2770    -1.7250 C.ar  1 <1>  -0.1500 
 25 C        7.9010     8.3390    -1.1410 C.ar  1 <1>  -0.1500 
 26 H        2.2540     0.7130    -1.2950 H     1 <1>   0.0800 
 27 H        1.6990     1.9800    -0.2540 H     1 <1>   0.0800 
 28 H       -2.5390    -0.0090    -0.1300 H     1 <1>   0.0800 
 29 H       -1.6760     0.4590     1.3100 H     1 <1>   0.0800 
 30 H       -1.6370    -1.2100     0.7810 H     1 <1>   0.0800 
 31 H       -1.3960    -0.3950    -2.1610 H     1 <1>   0.0800 
 32 H       -0.5110    -1.7130    -1.4150 H     1 <1>   0.0800 
 33 H        0.3480    -0.4180    -2.2220 H     1 <1>   0.0800 
 34 H        3.3750     1.3380     1.4520 H     1 <1>   0.0800 
 35 H        4.2140     2.1100    -1.3170 H     1 <1>   0.0800 
 36 H        4.1520    -0.7870    -0.5270 H     1 <1>   0.0800 
 37 H        4.0290    -0.9020     1.2290 H     1 <1>   0.0800 
 38 H        5.0410     3.4810     1.1760 H     1 <1>   0.3700 
 39 H        6.5140     1.9190     0.4420 H     1 <1>   0.0800 
 40 H        6.2390     1.1320    -1.1130 H     1 <1>   0.0800 
 41 H        3.2600     5.6090     1.6370 H     1 <1>   0.0800 
 42 H        3.2370     6.4710     0.1140 H     1 <1>   0.0800 
 43 H        7.8490     5.9490     2.4650 H     1 <1>   0.1500 
 44 H        4.6470     7.4920    -1.5840 H     1 <1>   0.1500 
 45 H        9.1370     7.7030     0.4880 H     1 <1>   0.1500 
 46 H        6.4480     8.8090    -2.6430 H     1 <1>   0.1500 
 47 H        8.6690     8.9200    -1.6230 H     1 <1>   0.1500 
@<TRIPOS>BOND
  1   1   2  2   
  2   1   3  2   
  3   1   4  am  
  4   1   5  1   
  5   4   6  1   
  6   4   7  1   
  7   5   8  1   
  8   5  26  1   
  9   5  27  1   
 10   6  28  1   
 11   6  29  1   
 12   6  30  1   
 13   7  31  1   
 14   7  32  1   
 15   7  33  1   
 16   8   9  1   
 17   8  10  1   
 18   8  34  1   
 19   9  11  1   
 20   9  12  1   
 21   9  35  1   
 22  10  13  1   
 23  10  36  1   
 24  10  37  1   
 25  11  14  am  
 26  11  38  1   
 27  12  13  1   
 28  12  39  1   
 29  12  40  1   
 30  14  15  2   
 31  14  16  1   
 32  16  17  1   
 33  16  41  1   
 34  16  42  1   
 35  17  18  1   
 36  17  19  1   
 37  18  20  2   
 38  19  21  ar  
 39  19  22  ar  
 40  20  21  1   
 41  20  43  1   
 42  21  23  ar  
 43  22  24  ar  
 44  22  44  1   
 45  23  25  ar  
 46  23  45  1   
 47  24  25  ar  
 48  24  46  1   
 49  25  47  1   
@<TRIPOS>SUBSTRUCTURE
  1 ****  11 GROUP 4 **** **** 0

# MOE 2024.06 (io_trps.svl 2023.06)
