@<TRIPOS>MOLECULE
NONAME
38 40 1 0 0 
SMALL
USER_CHARGES


@<TRIPOS>ATOM
  1 O       -0.5590     0.3780     1.0770 O.2   1 <1>  -0.5700 
  2 C       -1.5460     0.9540     0.6640 C.2   1 <1>   0.5440 
  3 N       -2.6780     0.2160     0.4040 N.am  1 <1>  -0.6600 
  4 C       -1.4980     2.3860     0.4420 C.ar  1 <1>   0.0860 
  5 C       -3.7730     0.6360    -0.5110 C.3   1 <1>   0.1400 
  6 C       -2.7340    -1.2540     0.6210 C.3   1 <1>   0.1400 
  7 C       -0.4680     2.9810    -0.2710 C.ar  1 <1>  -0.1500 
  8 C       -2.4570     3.2640     0.9280 C.ar  1 <1>  -0.1500 
  9 C       -4.7450    -0.5420    -0.5130 C.3   1 <1>   0.2000 
 10 C       -3.8380    -1.7610    -0.3140 C.3   1 <1>  -0.0800 
 11 C       -0.4590     4.3470    -0.4750 C.ar  1 <1>   0.1600 
 12 C       -2.3580     4.6170     0.6690 C.ar  1 <1>   0.1600 
 13 O       -5.5850    -0.4050     0.5820 O.3   1 <1>  -0.6800 
 14 C       -4.5540    -3.0280     0.1910 C.3   1 <1>   0.0200 
 15 N       -1.3850     5.1790    -0.0290 N.ar  1 <1>  -0.6200 
 16 C       -3.6470    -4.2460     0.2430 C.2   1 <1>  -0.0400 
 17 O       -4.1070    -5.3460     0.7790 O.3   1 <1>  -0.0190 
 18 C       -2.3890    -4.4870    -0.1630 C.2   1 <1>  -0.1500 
 19 N       -3.2270    -6.3050     0.7580 N.2   1 <1>  -0.4100 
 20 C       -2.1810    -5.8160     0.1960 C.2   1 <1>   0.1080 
 21 C       -0.9020    -6.5880    -0.0380 C.3   1 <1>  -0.0590 
 22 H       -4.2560     1.5400    -0.1850 H     1 <1>   0.0800 
 23 H       -3.3680     0.7790    -1.4980 H     1 <1>   0.0800 
 24 H       -1.7850    -1.7120     0.3970 H     1 <1>   0.0800 
 25 H       -2.9810    -1.4450     1.6520 H     1 <1>   0.0800 
 26 H        0.3270     2.3710    -0.6610 H     1 <1>   0.1500 
 27 H       -3.2750     2.8890     1.5130 H     1 <1>   0.1500 
 28 H       -5.3480    -0.5940    -1.4040 H     1 <1>   0.0800 
 29 H       -3.3850    -1.9830    -1.2640 H     1 <1>   0.0800 
 30 H        0.3530     4.7820    -1.0350 H     1 <1>   0.1500 
 31 H       -3.1170     5.2770     1.0550 H     1 <1>   0.1500 
 32 H       -5.0420    -0.2410     1.3790 H     1 <1>   0.4000 
 33 H       -5.3840    -3.2520    -0.4570 H     1 <1>   0.0800 
 34 H       -4.9500    -2.8600     1.1770 H     1 <1>   0.0800 
 35 H       -1.6760    -3.8500    -0.6510 H     1 <1>   0.1500 
 36 H       -0.6790    -6.6150    -1.0890 H     1 <1>   0.0800 
 37 H       -1.0100    -7.5950     0.3220 H     1 <1>   0.0800 
 38 H       -0.0910    -6.1170     0.4860 H     1 <1>   0.0800 
@<TRIPOS>BOND
  1   1   2  2   
  2   2   3  am  
  3   2   4  1   
  4   3   5  1   
  5   3   6  1   
  6   4   7  ar  
  7   4   8  ar  
  8   5   9  1   
  9   5  22  1   
 10   5  23  1   
 11   6  10  1   
 12   6  24  1   
 13   6  25  1   
 14   7  11  ar  
 15   7  26  1   
 16   8  12  ar  
 17   8  27  1   
 18   9  10  1   
 19   9  13  1   
 20   9  28  1   
 21  10  14  1   
 22  10  29  1   
 23  11  15  ar  
 24  11  30  1   
 25  12  15  ar  
 26  12  31  1   
 27  13  32  1   
 28  14  16  1   
 29  14  33  1   
 30  14  34  1   
 31  16  17  1   
 32  16  18  2   
 33  17  19  1   
 34  18  20  1   
 35  18  35  1   
 36  19  20  2   
 37  20  21  1   
 38  21  36  1   
 39  21  37  1   
 40  21  38  1   
@<TRIPOS>SUBSTRUCTURE
  1 ****   6 GROUP 4 **** **** 0

# MOE 2024.06 (io_trps.svl 2023.06)
