@<TRIPOS>MOLECULE
NONAME
25 25 1 0 0 
SMALL
USER_CHARGES


@<TRIPOS>ATOM
  1 BR      -0.0180     0.3410    -2.0560 Br    1 <1>  -0.1110 
  2 C        1.3830     1.0300    -0.9120 C.ar  1 <1>   0.1110 
  3 C        2.5760     0.3400    -0.7950 C.ar  1 <1>   0.1900 
  4 C        1.1930     2.2180    -0.2150 C.ar  1 <1>   0.0820 
  5 F        2.7510    -0.7810    -1.4440 F     1 <1>  -0.1900 
  6 C        3.6020     0.8140     0.0040 C.ar  1 <1>  -0.1500 
  7 O        0.0440     2.9230    -0.3090 O.3   1 <1>  -0.3630 
  8 C        2.2220     2.7040     0.5810 C.ar  1 <1>  -0.1500 
  9 C        3.4180     2.0050     0.6920 C.ar  1 <1>  -0.1500 
 10 C       -1.0480     2.4610     0.4450 C.3   1 <1>   0.1200 
 11 C       -2.3070     3.0600    -0.1840 C.3   1 <1>  -0.1600 
 12 C       -3.5640     2.5580     0.5180 C.3   1 <1>   0.3430 
 13 N       -4.7520     3.1340    -0.1540 N.4   1 <1>  -0.8530 
 14 H        4.5230     0.2620     0.0820 H     1 <1>   0.1500 
 15 H        2.0880     3.6310     1.1100 H     1 <1>   0.1500 
 16 H        4.2080     2.3920     1.3140 H     1 <1>   0.1500 
 17 H       -0.9110     2.7860     1.4620 H     1 <1>   0.0800 
 18 H       -1.0680     1.3850     0.4070 H     1 <1>   0.0800 
 19 H       -2.3310     2.7720    -1.2210 H     1 <1>   0.0800 
 20 H       -2.2460     4.1320    -0.1100 H     1 <1>   0.0800 
 21 H       -3.5450     2.8530     1.5560 H     1 <1>   0.0800 
 22 H       -3.6000     1.4800     0.4700 H     1 <1>   0.0800 
 23 H       -4.7320     4.1600    -0.1170 H     1 <1>   0.4500 
 24 H       -5.6240     2.8170     0.2880 H     1 <1>   0.4500 
 25 H       -4.7780     2.8570    -1.1430 H     1 <1>   0.4500 
@<TRIPOS>BOND
  1   1   2  1   
  2   2   3  ar  
  3   2   4  ar  
  4   3   5  1   
  5   3   6  ar  
  6   4   7  1   
  7   4   8  ar  
  8   6   9  ar  
  9   6  14  1   
 10   7  10  1   
 11   8   9  ar  
 12   8  15  1   
 13   9  16  1   
 14  10  11  1   
 15  10  17  1   
 16  10  18  1   
 17  11  12  1   
 18  11  19  1   
 19  11  20  1   
 20  12  13  1   
 21  12  21  1   
 22  12  22  1   
 23  13  23  1   
 24  13  24  1   
 25  13  25  1   
@<TRIPOS>SUBSTRUCTURE
  1 ****   4 GROUP 4 **** **** 0

# MOE 2024.06 (io_trps.svl 2023.06)
