@<TRIPOS>MOLECULE
NONAME
45 48 1 0 0 
SMALL
USER_CHARGES


@<TRIPOS>ATOM
  1 O        0.8180    -2.1360    -1.0740 O.3   1 <1>  -0.3630 
  2 C        0.1900    -3.0290    -0.2960 C.ar  1 <1>   0.0830 
  3 C        1.7540    -2.8010    -1.9110 C.3   1 <1>   0.1200 
  4 C        0.5930    -4.3170    -0.5230 C.ar  1 <1>  -0.1440 
  5 C       -0.7690    -2.7290     0.6510 C.ar  1 <1>  -0.1500 
  6 C        1.6410    -4.3050    -1.5970 C.3   1 <1>  -0.0160 
  7 C        0.0430    -5.3620     0.1930 C.ar  1 <1>  -0.1500 
  8 C       -1.3290    -3.7680     1.3770 C.ar  1 <1>  -0.1500 
  9 C       -0.9300    -5.0840     1.1490 C.ar  1 <1>  -0.1440 
 10 C       -1.5690    -6.2130     1.9320 C.3   1 <1>   0.4870 
 11 N       -2.4190    -6.9910     1.0000 N.4   1 <1>  -0.9590 
 12 C       -3.5060    -6.2070     0.3280 C.3   1 <1>   0.3430 
 13 C       -3.0420    -8.2130     1.5530 C.3   1 <1>   0.3430 
 14 C       -4.7170    -7.1550     0.2460 C.3   1 <1>   0.2000 
 15 C       -4.1390    -8.5420     0.5370 C.3   1 <1>  -0.0800 
 16 O       -5.6370    -6.8360     1.2390 O.3   1 <1>  -0.6800 
 17 C       -3.6110    -9.1850    -0.7770 C.3   1 <1>  -0.0170 
 18 C       -2.2690    -9.8960    -0.6500 C.ar  1 <1>   0.1670 
 19 N       -1.1920    -9.1170    -0.6250 N.ar  1 <1>  -0.6200 
 20 C       -2.2200   -11.2860    -0.5750 C.ar  1 <1>   0.1600 
 21 C       -0.0740    -9.8280    -0.5500 C.ar  1 <1>   0.1600 
 22 N       -1.1050   -11.9850    -0.4700 N.ar  1 <1>  -0.6200 
 23 C       -0.0330   -11.2150    -0.4720 C.ar  1 <1>   0.1600 
 24 H        1.5010    -2.5870    -2.9350 H     1 <1>   0.0800 
 25 H        2.7350    -2.4220    -1.6830 H     1 <1>   0.0800 
 26 H       -1.0590    -1.7050     0.8080 H     1 <1>   0.1500 
 27 H        1.3230    -4.8540    -2.4650 H     1 <1>   0.0800 
 28 H        2.5780    -4.6920    -1.2390 H     1 <1>   0.0800 
 29 H        0.3760    -6.3680     0.0010 H     1 <1>   0.1500 
 30 H       -2.0740    -3.5340     2.1180 H     1 <1>   0.1500 
 31 H       -2.1630    -5.8130     2.7380 H     1 <1>   0.0800 
 32 H       -0.7980    -6.8420     2.3480 H     1 <1>   0.0800 
 33 H       -1.7890    -7.3390     0.2480 H     1 <1>   0.4500 
 34 H       -3.7640    -5.3210     0.8840 H     1 <1>   0.0800 
 35 H       -3.1850    -5.9210    -0.6610 H     1 <1>   0.0800 
 36 H       -2.3270    -9.0140     1.6590 H     1 <1>   0.0800 
 37 H       -3.4850    -8.0020     2.5130 H     1 <1>   0.0800 
 38 H       -5.2270    -7.0880    -0.7010 H     1 <1>   0.0800 
 39 H       -4.8730    -9.1970     0.9750 H     1 <1>   0.0800 
 40 H       -5.2720    -6.8740     2.1430 H     1 <1>   0.4000 
 41 H       -3.4950    -8.4400    -1.5440 H     1 <1>   0.0800 
 42 H       -4.3510    -9.8760    -1.1440 H     1 <1>   0.0800 
 43 H       -3.1370   -11.8490    -0.6030 H     1 <1>   0.1500 
 44 H        0.8600    -9.2930    -0.5500 H     1 <1>   0.1500 
 45 H        0.9240   -11.7050    -0.4100 H     1 <1>   0.1500 
@<TRIPOS>BOND
  1   1   2  1   
  2   1   3  1   
  3   2   4  ar  
  4   2   5  ar  
  5   3   6  1   
  6   3  24  1   
  7   3  25  1   
  8   4   6  1   
  9   4   7  ar  
 10   5   8  ar  
 11   5  26  1   
 12   6  27  1   
 13   6  28  1   
 14   7   9  ar  
 15   7  29  1   
 16   8   9  ar  
 17   8  30  1   
 18   9  10  1   
 19  10  11  1   
 20  10  31  1   
 21  10  32  1   
 22  11  12  1   
 23  11  13  1   
 24  11  33  1   
 25  12  14  1   
 26  12  34  1   
 27  12  35  1   
 28  13  15  1   
 29  13  36  1   
 30  13  37  1   
 31  14  15  1   
 32  14  16  1   
 33  14  38  1   
 34  15  17  1   
 35  15  39  1   
 36  16  40  1   
 37  17  18  1   
 38  17  41  1   
 39  17  42  1   
 40  18  19  ar  
 41  18  20  ar  
 42  19  21  ar  
 43  20  22  ar  
 44  20  43  1   
 45  21  23  ar  
 46  21  44  1   
 47  22  23  ar  
 48  23  45  1   
@<TRIPOS>SUBSTRUCTURE
  1 ****  11 GROUP 4 **** **** 0

# MOE 2024.06 (io_trps.svl 2023.06)
