@<TRIPOS>MOLECULE
NONAME
57 61 1 0 0 
SMALL
USER_CHARGES


@<TRIPOS>ATOM
  1 O       -0.7290     0.1630     2.1250 O.2   1 <1>  -0.5700 
  2 C       -1.4110     0.8060     1.3630 C.2   1 <1>   0.5690 
  3 N       -2.3050     0.1850     0.5320 N.am  1 <1>  -0.6600 
  4 C       -1.2640     2.3220     1.3830 C.3   1 <1>  -0.0990 
  5 C       -3.3010     0.8190    -0.3680 C.3   1 <1>   0.1400 
  6 C       -2.4050    -1.2920     0.4660 C.3   1 <1>   0.1400 
  7 C       -0.0890     2.8900     0.5500 C.3   1 <1>   0.0000 
  8 C       -3.8990    -0.3380    -1.1670 C.3   1 <1>   0.2000 
  9 C       -3.6930    -1.5820    -0.3060 C.3   1 <1>  -0.0800 
 10 C        1.2730     2.3370     1.0390 C.3   1 <1>  -0.1600 
 11 C       -0.2390     2.5590    -0.9550 C.3   1 <1>  -0.1600 
 12 C       -0.0670     4.4310     0.7020 C.3   1 <1>  -0.1600 
 13 O       -5.2480    -0.1420    -1.4140 O.3   1 <1>  -0.6800 
 14 C       -3.6380    -2.8770    -1.1310 C.3   1 <1>  -0.0170 
 15 C        2.4150     2.9580     0.2240 C.3   1 <1>   0.2800 
 16 C        0.9180     3.1650    -1.7740 C.3   1 <1>  -0.0800 
 17 C        1.0870     5.0550    -0.1070 C.3   1 <1>  -0.0800 
 18 C       -3.4260    -4.0880    -0.2370 C.ar  1 <1>  -0.1440 
 19 O        3.6100     2.4530     0.6760 O.3   1 <1>  -0.6800 
 20 C        2.2550     2.5980    -1.2590 C.3   1 <1>  -0.1600 
 21 C        2.4240     4.4820     0.4010 C.3   1 <1>  -0.1600 
 22 C        0.9130     4.6950    -1.5950 C.3   1 <1>  -0.1600 
 23 C       -2.1740    -4.6280    -0.0130 C.ar  1 <1>  -0.1500 
 24 C       -4.4800    -4.7100     0.4010 C.ar  1 <1>  -0.1500 
 25 C       -2.0420    -5.7290     0.8170 C.ar  1 <1>   0.1600 
 26 C       -4.2390    -5.8080     1.2100 C.ar  1 <1>   0.1600 
 27 N       -3.0450    -6.3320     1.4340 N.ar  1 <1>  -0.6200 
 28 H       -2.1820     2.7750     1.0650 H     1 <1>   0.0800 
 29 H       -1.1220     2.6070     2.4100 H     1 <1>   0.0800 
 30 H       -4.0550     1.3040     0.2270 H     1 <1>   0.0800 
 31 H       -2.8330     1.5250    -1.0270 H     1 <1>   0.0800 
 32 H       -1.5440    -1.6700    -0.0580 H     1 <1>   0.0800 
 33 H       -2.4330    -1.7200     1.4550 H     1 <1>   0.0800 
 34 H       -3.3900    -0.4260    -2.1120 H     1 <1>   0.0800 
 35 H       -4.4860    -1.6530     0.4180 H     1 <1>   0.0800 
 36 H        1.3050     1.2680     0.9210 H     1 <1>   0.0800 
 37 H        1.4090     2.5630     2.0810 H     1 <1>   0.0800 
 38 H       -0.2510     1.4920    -1.0990 H     1 <1>   0.0800 
 39 H       -1.1670     2.9560    -1.3240 H     1 <1>   0.0800 
 40 H       -1.0000     4.8470     0.3640 H     1 <1>   0.0800 
 41 H        0.0470     4.6930     1.7400 H     1 <1>   0.0800 
 42 H       -5.7490    -0.1160    -0.5760 H     1 <1>   0.4000 
 43 H       -2.8440    -2.8180    -1.8550 H     1 <1>   0.0800 
 44 H       -4.5600    -2.9930    -1.6730 H     1 <1>   0.0800 
 45 H        0.7960     2.9190    -2.8150 H     1 <1>   0.0800 
 46 H        1.0810     6.1250     0.0140 H     1 <1>   0.0800 
 47 H        4.3390     2.8400     0.1610 H     1 <1>   0.4000 
 48 H        3.0650     3.0130    -1.8320 H     1 <1>   0.0800 
 49 H        2.2640     1.5290    -1.3770 H     1 <1>   0.0800 
 50 H        2.5500     4.7260     1.4420 H     1 <1>   0.0800 
 51 H        3.2350     4.9170    -0.1540 H     1 <1>   0.0800 
 52 H       -0.0130     5.1020    -1.9610 H     1 <1>   0.0800 
 53 H        1.7100     5.1320    -2.1710 H     1 <1>   0.0800 
 54 H       -1.3000    -4.2050    -0.4720 H     1 <1>   0.1500 
 55 H       -5.4850    -4.3530     0.2760 H     1 <1>   0.1500 
 56 H       -1.0590    -6.1340     0.9820 H     1 <1>   0.1500 
 57 H       -5.0740    -6.2810     1.6990 H     1 <1>   0.1500 
@<TRIPOS>BOND
  1   1   2  2   
  2   2   3  am  
  3   2   4  1   
  4   3   5  1   
  5   3   6  1   
  6   4   7  1   
  7   4  28  1   
  8   4  29  1   
  9   5   8  1   
 10   5  30  1   
 11   5  31  1   
 12   6   9  1   
 13   6  32  1   
 14   6  33  1   
 15   7  10  1   
 16   7  11  1   
 17   7  12  1   
 18   8   9  1   
 19   8  13  1   
 20   8  34  1   
 21   9  14  1   
 22   9  35  1   
 23  10  15  1   
 24  10  36  1   
 25  10  37  1   
 26  11  16  1   
 27  11  38  1   
 28  11  39  1   
 29  12  17  1   
 30  12  40  1   
 31  12  41  1   
 32  13  42  1   
 33  14  18  1   
 34  14  43  1   
 35  14  44  1   
 36  15  19  1   
 37  15  20  1   
 38  15  21  1   
 39  16  20  1   
 40  16  22  1   
 41  16  45  1   
 42  17  21  1   
 43  17  22  1   
 44  17  46  1   
 45  18  23  ar  
 46  18  24  ar  
 47  19  47  1   
 48  20  48  1   
 49  20  49  1   
 50  21  50  1   
 51  21  51  1   
 52  22  52  1   
 53  22  53  1   
 54  23  25  ar  
 55  23  54  1   
 56  24  26  ar  
 57  24  55  1   
 58  25  27  ar  
 59  25  56  1   
 60  26  27  ar  
 61  26  57  1   
@<TRIPOS>SUBSTRUCTURE
  1 ****   3 GROUP 4 **** **** 0

# MOE 2024.06 (io_trps.svl 2023.06)
