@<TRIPOS>MOLECULE
NONAME
35 35 1 0 0 
SMALL
USER_CHARGES


@<TRIPOS>ATOM
  1 O       -0.3500     0.5890     0.9260 O.2   1 <1>  -0.5700 
  2 C       -1.3280     0.9170     0.3270 C.2   1 <1>   0.4480 
  3 C       -2.5450     0.0200     0.2160 C.3   1 <1>  -0.0990 
  4 C       -1.4350     2.2590    -0.3690 C.3   1 <1>  -0.0990 
  5 C       -3.8340     0.7720     0.5850 C.3   1 <1>  -0.1600 
  6 C       -2.7350     2.9820     0.0170 C.3   1 <1>  -0.1600 
  7 C       -3.9760     2.0940    -0.2000 C.3   1 <1>  -0.0800 
  8 C       -5.2400     2.8760     0.2050 C.3   1 <1>  -0.1600 
  9 C       -6.5500     2.1510    -0.1460 C.3   1 <1>  -0.1600 
 10 C       -7.7650     3.0370     0.1550 C.3   1 <1>  -0.1600 
 11 C       -9.0740     2.3150    -0.1880 C.3   1 <1>  -0.1600 
 12 C      -10.2890     3.2000     0.1130 C.3   1 <1>  -0.1600 
 13 C      -11.5950     2.4790    -0.2300 C.3   1 <1>  -0.2400 
 14 H       -2.4190    -0.8280     0.8650 H     1 <1>   0.0800 
 15 H       -2.6110    -0.3400    -0.7940 H     1 <1>   0.0800 
 16 H       -1.4090     2.0960    -1.4310 H     1 <1>   0.0800 
 17 H       -0.5870     2.8640    -0.1030 H     1 <1>   0.0800 
 18 H       -3.8240     0.9850     1.6400 H     1 <1>   0.0800 
 19 H       -4.6710     0.1260     0.3870 H     1 <1>   0.0800 
 20 H       -2.8220     3.8820    -0.5670 H     1 <1>   0.0800 
 21 H       -2.6780     3.2670     1.0540 H     1 <1>   0.0800 
 22 H       -4.0450     1.8640    -1.2510 H     1 <1>   0.0800 
 23 H       -5.2340     3.8240    -0.3050 H     1 <1>   0.0800 
 24 H       -5.2170     3.0770     1.2630 H     1 <1>   0.0800 
 25 H       -6.6340     1.2440     0.4250 H     1 <1>   0.0800 
 26 H       -6.5480     1.8930    -1.1920 H     1 <1>   0.0800 
 27 H       -7.6990     3.9450    -0.4200 H     1 <1>   0.0800 
 28 H       -7.7660     3.3000     1.1990 H     1 <1>   0.0800 
 29 H       -9.1430     1.4070     0.3860 H     1 <1>   0.0800 
 30 H       -9.0750     2.0510    -1.2330 H     1 <1>   0.0800 
 31 H      -10.2250     4.1090    -0.4610 H     1 <1>   0.0800 
 32 H      -10.2940     3.4650     1.1570 H     1 <1>   0.0800 
 33 H      -11.6210     2.2240    -1.2750 H     1 <1>   0.0800 
 34 H      -12.4350     3.1150    -0.0120 H     1 <1>   0.0800 
 35 H      -11.6900     1.5770     0.3490 H     1 <1>   0.0800 
@<TRIPOS>BOND
  1   1   2  2   
  2   2   3  1   
  3   2   4  1   
  4   3   5  1   
  5   3  14  1   
  6   3  15  1   
  7   4   6  1   
  8   4  16  1   
  9   4  17  1   
 10   5   7  1   
 11   5  18  1   
 12   5  19  1   
 13   6   7  1   
 14   6  20  1   
 15   6  21  1   
 16   7   8  1   
 17   7  22  1   
 18   8   9  1   
 19   8  23  1   
 20   8  24  1   
 21   9  10  1   
 22   9  25  1   
 23   9  26  1   
 24  10  11  1   
 25  10  27  1   
 26  10  28  1   
 27  11  12  1   
 28  11  29  1   
 29  11  30  1   
 30  12  13  1   
 31  12  31  1   
 32  12  32  1   
 33  13  33  1   
 34  13  34  1   
 35  13  35  1   
@<TRIPOS>SUBSTRUCTURE
  1 ****   8 GROUP 4 **** **** 0

# MOE 2024.06 (io_trps.svl 2023.06)
