@<TRIPOS>MOLECULE
NONAME
45 48 1 0 0 
SMALL
USER_CHARGES


@<TRIPOS>ATOM
  1 O       -2.3840    -3.3180    -0.8970 O.co2 1 <1>  -0.9000 
  2 C       -3.1420    -2.4300    -1.3260 C.2   1 <1>   1.0330 
  3 O       -4.1430    -2.8370    -1.9580 O.co2 1 <1>  -0.9000 
  4 C       -3.2310    -1.1330    -0.6500 C.2   1 <1>   0.0560 
  5 N       -2.9190     0.0850    -1.0610 N.2   1 <1>  -0.7070 
  6 C       -3.7840    -1.0770     0.6390 C.2   1 <1>  -0.1810 
  7 N       -3.2620     0.9020    -0.0560 N.pl3 1 <1>   0.3000 
  8 C       -3.7920     0.2270     0.9830 C.2   1 <1>  -0.3020 
  9 C       -4.2190    -2.3250     1.3910 C.3   1 <1>   0.5240 
 10 N       -5.1850    -3.0760     0.5540 N.4   1 <1>  -0.9590 
 11 C       -4.9580    -4.5570     0.5640 C.3   1 <1>   0.3430 
 12 C       -6.6210    -2.6870     0.6200 C.3   1 <1>   0.3430 
 13 C       -5.8870    -5.2730    -0.4400 C.3   1 <1>   0.3430 
 14 C       -7.4560    -3.5100    -0.3900 C.3   1 <1>   0.2950 
 15 O       -7.2220    -4.8800    -0.2120 O.3   1 <1>  -0.5600 
 16 C       -5.7440    -6.7820    -0.2830 C.ar  1 <1>  -0.1430 
 17 C       -8.9550    -3.2700    -0.1940 C.3   1 <1>  -0.1950 
 18 C       -6.6450    -7.5430     0.4520 C.ar  1 <1>  -0.1500 
 19 C       -4.6640    -7.4140    -0.8860 C.ar  1 <1>  -0.1500 
 20 C       -9.9260    -3.5230    -1.3030 C.3   1 <1>  -0.2000 
 21 C       -9.6440    -2.1160    -0.8550 C.3   1 <1>  -0.2000 
 22 C       -6.4660    -8.9090     0.5850 C.ar  1 <1>  -0.1500 
 23 C       -4.4850    -8.7800    -0.7530 C.ar  1 <1>  -0.1500 
 24 C       -5.3850    -9.5280    -0.0160 C.ar  1 <1>  -0.1500 
 25 H       -3.1160     1.9180    -0.1120 H     1 <1>   0.2700 
 26 H       -4.1240     0.7140     1.8820 H     1 <1>   0.1500 
 27 H       -4.6550    -2.0690     2.3410 H     1 <1>   0.0800 
 28 H       -3.3430    -2.9310     1.5590 H     1 <1>   0.0800 
 29 H       -4.9020    -2.8480    -0.4290 H     1 <1>   0.4500 
 30 H       -3.9360    -4.7670     0.2880 H     1 <1>   0.0800 
 31 H       -5.1340    -4.9590     1.5460 H     1 <1>   0.0800 
 32 H       -7.0050    -2.8600     1.6100 H     1 <1>   0.0800 
 33 H       -6.7260    -1.6400     0.3900 H     1 <1>   0.0800 
 34 H       -5.6200    -4.9940    -1.4470 H     1 <1>   0.0800 
 35 H       -7.1750    -3.2480    -1.3970 H     1 <1>   0.0800 
 36 H       -9.2810    -3.5300     0.7990 H     1 <1>   0.1000 
 37 H       -7.4940    -7.0770     0.9230 H     1 <1>   0.1500 
 38 H       -3.9540    -6.8440    -1.4640 H     1 <1>   0.1500 
 39 H       -9.5490    -3.8550    -2.2560 H     1 <1>   0.1000 
 40 H      -10.8750    -3.9680    -1.0620 H     1 <1>   0.1000 
 41 H      -10.4170    -1.5890    -0.3220 H     1 <1>   0.1000 
 42 H       -9.1020    -1.4760    -1.5320 H     1 <1>   0.1000 
 43 H       -7.1700    -9.4900     1.1550 H     1 <1>   0.1500 
 44 H       -3.6440    -9.2590    -1.2240 H     1 <1>   0.1500 
 45 H       -5.2470   -10.5910     0.0860 H     1 <1>   0.1500 
@<TRIPOS>BOND
  1   1   2  ar  
  2   2   3  ar  
  3   2   4  1   
  4   4   5  2   
  5   4   6  1   
  6   5   7  1   
  7   6   8  2   
  8   6   9  1   
  9   7   8  1   
 10   7  25  1   
 11   8  26  1   
 12   9  10  1   
 13   9  27  1   
 14   9  28  1   
 15  10  11  1   
 16  10  12  1   
 17  10  29  1   
 18  11  13  1   
 19  11  30  1   
 20  11  31  1   
 21  12  14  1   
 22  12  32  1   
 23  12  33  1   
 24  13  15  1   
 25  13  16  1   
 26  13  34  1   
 27  14  15  1   
 28  14  17  1   
 29  14  35  1   
 30  16  18  ar  
 31  16  19  ar  
 32  17  20  1   
 33  17  21  1   
 34  17  36  1   
 35  18  22  ar  
 36  18  37  1   
 37  19  23  ar  
 38  19  38  1   
 39  20  21  1   
 40  20  39  1   
 41  20  40  1   
 42  21  41  1   
 43  21  42  1   
 44  22  24  ar  
 45  22  43  1   
 46  23  24  ar  
 47  23  44  1   
 48  24  45  1   
@<TRIPOS>SUBSTRUCTURE
  1 ****  11 GROUP 4 **** **** 0

# MOE 2024.06 (io_trps.svl 2023.06)
