@<TRIPOS>MOLECULE
NONAME
37 39 1 0 0 
SMALL
USER_CHARGES


@<TRIPOS>ATOM
  1 O        1.6600    -0.6610    -2.2030 O.2   1 <1>  -0.5700 
  2 C        2.1420    -0.8640    -1.1080 C.2   1 <1>   0.7160 
  3 N        3.0980     0.0190    -0.6370 N.am  1 <1>  -0.6600 
  4 C        1.7110    -2.0120    -0.3500 C.2   1 <1>  -0.0860 
  5 C        3.5170     0.0440     0.8160 C.3   1 <1>   0.2200 
  6 C        3.5260     1.1410    -1.5400 C.3   1 <1>   0.1400 
  7 C        0.4420    -2.3570    -0.0060 C.2   1 <1>  -0.0100 
  8 C        2.5070    -3.0440     0.1950 C.2   1 <1>  -0.1500 
  9 C        3.2140     1.3890     1.4970 C.3   1 <1>   0.1200 
 10 C        5.0100    -0.3340     0.9770 C.3   1 <1>   0.3430 
 11 C        4.7010     2.0010    -1.0360 C.3   1 <1>  -0.0800 
 12 O        0.4220    -3.4610     0.7000 O.3   1 <1>  -0.2800 
 13 C        1.6600    -3.8860     0.8210 C.2   1 <1>  -0.0100 
 14 O        4.2680     2.2850     1.3150 O.3   1 <1>  -0.5600 
 15 N        5.7900    -0.1930    -0.3030 N.4   1 <1>  -0.9590 
 16 C        4.2840     2.9500     0.0970 C.3   1 <1>   0.1200 
 17 C        5.9980     1.2360    -0.7040 C.3   1 <1>   0.3430 
 18 C        7.0890    -0.9250    -0.2350 C.3   1 <1>   0.2630 
 19 H        2.9400    -0.6790     1.3630 H     1 <1>   0.0800 
 20 H        3.7930     0.7210    -2.4960 H     1 <1>   0.0800 
 21 H        2.6730     1.7780    -1.7140 H     1 <1>   0.0800 
 22 H       -0.4880    -1.8630    -0.2320 H     1 <1>   0.1500 
 23 H        3.5730    -3.1290     0.1010 H     1 <1>   0.1500 
 24 H        3.1290     1.2350     2.5590 H     1 <1>   0.0800 
 25 H        2.2900     1.8190     1.1470 H     1 <1>   0.0800 
 26 H        5.0540    -1.3580     1.3060 H     1 <1>   0.0800 
 27 H        5.4530     0.2710     1.7520 H     1 <1>   0.0800 
 28 H        4.9460     2.6550    -1.8530 H     1 <1>   0.0800 
 29 H        1.8410    -4.8010     1.3600 H     1 <1>   0.1500 
 30 H        5.1840    -0.6090    -1.0300 H     1 <1>   0.4500 
 31 H        3.3180     3.3930    -0.0810 H     1 <1>   0.0800 
 32 H        5.0040     3.7460     0.1890 H     1 <1>   0.0800 
 33 H        6.5240     1.7600     0.0780 H     1 <1>   0.0800 
 34 H        6.6230     1.2530    -1.5830 H     1 <1>   0.0800 
 35 H        7.7200    -0.4980     0.5270 H     1 <1>   0.0800 
 36 H        7.6020    -0.8650    -1.1820 H     1 <1>   0.0800 
 37 H        6.9220    -1.9650    -0.0030 H     1 <1>   0.0800 
@<TRIPOS>BOND
  1   1   2  2   
  2   2   3  am  
  3   2   4  1   
  4   3   5  1   
  5   3   6  1   
  6   4   7  2   
  7   4   8  1   
  8   5   9  1   
  9   5  10  1   
 10   5  19  1   
 11   6  11  1   
 12   6  20  1   
 13   6  21  1   
 14   7  12  1   
 15   7  22  1   
 16   8  13  2   
 17   8  23  1   
 18   9  14  1   
 19   9  24  1   
 20   9  25  1   
 21  10  15  1   
 22  10  26  1   
 23  10  27  1   
 24  11  16  1   
 25  11  17  1   
 26  11  28  1   
 27  12  13  1   
 28  13  29  1   
 29  14  16  1   
 30  15  17  1   
 31  15  18  1   
 32  15  30  1   
 33  16  31  1   
 34  16  32  1   
 35  17  33  1   
 36  17  34  1   
 37  18  35  1   
 38  18  36  1   
 39  18  37  1   
@<TRIPOS>SUBSTRUCTURE
  1 ****   3 GROUP 4 **** **** 0

# MOE 2024.06 (io_trps.svl 2023.06)
