@<TRIPOS>MOLECULE
NONAME
51 54 1 0 0 
SMALL
USER_CHARGES


@<TRIPOS>ATOM
  1 F        2.1990     0.2400    -2.2010 F     1 <1>  -0.1900 
  2 C        3.0940     0.6020    -1.3180 C.ar  1 <1>   0.1900 
  3 C        4.2650     1.1740    -1.7520 C.ar  1 <1>  -0.1500 
  4 C        2.8050     0.3840     0.0330 C.ar  1 <1>  -0.1500 
  5 C        5.1940     1.5480    -0.7840 C.ar  1 <1>   0.2270 
  6 C        3.7260     0.7560     0.9880 C.ar  1 <1>  -0.1500 
  7 N        6.4150     2.1290    -0.9370 N.2   1 <1>  -0.5650 
  8 C        4.9230     1.3410     0.5580 C.ar  1 <1>  -0.1520 
  9 C        6.8610     2.2720     0.2630 C.2   1 <1>   0.0060 
 10 N        6.0100     1.8110     1.2180 N.pl3 1 <1>   0.0330 
 11 C        8.2110     2.8930     0.6160 C.3   1 <1>   0.3000 
 12 O        8.2020     4.2910     0.5200 O.3   1 <1>  -0.5600 
 13 C        7.1650     4.9560     1.2060 C.3   1 <1>   0.1810 
 14 C        7.3900     6.4630     1.2580 C.2   1 <1>   0.5690 
 15 O        6.7460     7.1010     2.0610 O.2   1 <1>  -0.5700 
 16 N        8.3120     6.9970     0.4130 N.am  1 <1>  -0.4930 
 17 C        8.8430     8.3080     0.2970 C.2   1 <1>   0.0630 
 18 C       10.1760     8.5660    -0.0450 C.2   1 <1>   0.3720 
 19 C        8.2830     9.5290     0.4530 C.2   1 <1>  -0.3320 
 20 N       10.4460     9.8330    -0.0770 N.2   1 <1>  -0.7070 
 21 N       11.1280     7.5680    -0.3330 N.pl3 1 <1>  -0.8210 
 22 N        9.2760    10.4290     0.2410 N.pl3 1 <1>   0.3140 
 23 C        6.8470     9.9090     0.7810 C.3   1 <1>  -0.0600 
 24 C       12.3000     7.6400     0.5820 C.3   1 <1>   0.2090 
 25 C       11.6260     7.6520    -1.7320 C.3   1 <1>   0.2090 
 26 C        9.1790    11.8910     0.3220 C.3   1 <1>   0.0160 
 27 C       13.5060     7.9670    -0.2880 C.3   1 <1>  -0.1600 
 28 C       13.1290     7.4280    -1.6580 C.3   1 <1>  -0.1600 
 29 H        4.4760     1.3350    -2.7920 H     1 <1>   0.1500 
 30 H        1.8680    -0.0700     0.3010 H     1 <1>   0.1500 
 31 H        3.5360     0.6030     2.0360 H     1 <1>   0.1500 
 32 H        6.1470     1.8050     2.2320 H     1 <1>   0.2700 
 33 H        8.9560     2.5350    -0.0740 H     1 <1>   0.0800 
 34 H        8.5120     2.6250     1.6130 H     1 <1>   0.0800 
 35 H        7.1140     4.5810     2.2110 H     1 <1>   0.0800 
 36 H        6.2370     4.7660     0.6960 H     1 <1>   0.0800 
 37 H        8.8940     6.2990    -0.0640 H     1 <1>   0.3700 
 38 H        6.1880     9.0830     0.5860 H     1 <1>   0.0800 
 39 H        6.5240    10.7360     0.1750 H     1 <1>   0.0800 
 40 H        6.7650    10.1740     1.8200 H     1 <1>   0.0800 
 41 H       12.4280     6.6780     1.0460 H     1 <1>   0.0800 
 42 H       12.1630     8.3830     1.3510 H     1 <1>   0.0800 
 43 H       11.4220     8.6270    -2.1450 H     1 <1>   0.0800 
 44 H       11.1500     6.9050    -2.3430 H     1 <1>   0.0800 
 45 H        8.7200    12.1630     1.2540 H     1 <1>   0.0800 
 46 H        8.5900    12.2490    -0.5000 H     1 <1>   0.0800 
 47 H       10.1660    12.3120     0.2700 H     1 <1>   0.0800 
 48 H       14.4100     7.5320     0.0970 H     1 <1>   0.0800 
 49 H       13.6150     9.0370    -0.3320 H     1 <1>   0.0800 
 50 H       13.6470     7.9300    -2.4550 H     1 <1>   0.0800 
 51 H       13.3290     6.3730    -1.7090 H     1 <1>   0.0800 
@<TRIPOS>BOND
  1   1   2  1   
  2   2   3  ar  
  3   2   4  ar  
  4   3   5  ar  
  5   3  29  1   
  6   4   6  ar  
  7   4  30  1   
  8   5   7  1   
  9   5   8  ar  
 10   6   8  ar  
 11   6  31  1   
 12   7   9  2   
 13   8  10  1   
 14   9  10  1   
 15   9  11  1   
 16  10  32  1   
 17  11  12  1   
 18  11  33  1   
 19  11  34  1   
 20  12  13  1   
 21  13  14  1   
 22  13  35  1   
 23  13  36  1   
 24  14  15  2   
 25  14  16  am  
 26  16  17  1   
 27  16  37  1   
 28  17  18  1   
 29  17  19  2   
 30  18  20  2   
 31  18  21  1   
 32  19  22  1   
 33  19  23  1   
 34  20  22  1   
 35  21  24  1   
 36  21  25  1   
 37  22  26  1   
 38  23  38  1   
 39  23  39  1   
 40  23  40  1   
 41  24  27  1   
 42  24  41  1   
 43  24  42  1   
 44  25  28  1   
 45  25  43  1   
 46  25  44  1   
 47  26  45  1   
 48  26  46  1   
 49  26  47  1   
 50  27  28  1   
 51  27  48  1   
 52  27  49  1   
 53  28  50  1   
 54  28  51  1   
@<TRIPOS>SUBSTRUCTURE
  1 ****  12 GROUP 4 **** **** 0

# MOE 2024.06 (io_trps.svl 2023.06)
