@<TRIPOS>MOLECULE
NONAME
35 36 1 0 0 
SMALL
USER_CHARGES


@<TRIPOS>ATOM
  1 CL      -0.7010     4.6470    -2.3110 Cl    1 <1>  -0.1770 
  2 C       -1.6310     4.1680    -0.9100 C.ar  1 <1>   0.1770 
  3 C       -1.0470     4.1280     0.3600 C.ar  1 <1>   0.0860 
  4 C       -2.9620     3.8470    -1.1230 C.ar  1 <1>  -0.1500 
  5 C        0.3410     4.4550     0.6100 C.2   1 <1>   0.5440 
  6 C       -1.8730     3.7610     1.4240 C.ar  1 <1>  -0.1500 
  7 C       -3.7580     3.4780    -0.0530 C.ar  1 <1>  -0.1500 
  8 O        0.6360     5.1680     1.5500 O.2   1 <1>  -0.5700 
  9 N        1.3470     3.9830    -0.1830 N.am  1 <1>  -0.7300 
 10 C       -3.2000     3.4420     1.2110 C.ar  1 <1>   0.1770 
 11 C        2.7890     4.3880    -0.0670 C.3   1 <1>   0.2010 
 12 CL      -4.1950     2.9840     2.5670 Cl    1 <1>  -0.1770 
 13 C        3.0430     5.8130    -0.5650 C.2   1 <1>   0.5690 
 14 O        3.8010     6.0030    -1.4850 O.2   1 <1>  -0.5700 
 15 N        2.3650     6.8210     0.0320 N.am  1 <1>  -0.7300 
 16 C        2.2800     8.2180    -0.4610 C.3   1 <1>   0.2200 
 17 C        1.9330     9.1570     0.6860 C.3   1 <1>   0.2000 
 18 C        1.0500     8.3640    -1.3640 C.3   1 <1>   0.1200 
 19 O        2.2130    10.4710     0.3220 O.3   1 <1>  -0.6800 
 20 C        0.4180     8.9920     0.7620 C.3   1 <1>   0.1200 
 21 O       -0.0100     8.8160    -0.5590 O.3   1 <1>  -0.5600 
 22 H       -3.3700     3.8900    -2.1180 H     1 <1>   0.1500 
 23 H       -1.4740     3.7280     2.4230 H     1 <1>   0.1500 
 24 H       -4.7950     3.2240    -0.1900 H     1 <1>   0.1500 
 25 H        1.0990     3.5660    -1.0850 H     1 <1>   0.3700 
 26 H        3.0910     4.3300     0.9630 H     1 <1>   0.0800 
 27 H        3.3970     3.7070    -0.6340 H     1 <1>   0.0800 
 28 H        1.6560     6.5420     0.7280 H     1 <1>   0.3700 
 29 H        3.1960     8.4890    -0.9580 H     1 <1>   0.0800 
 30 H        2.4520     8.9320     1.6010 H     1 <1>   0.0800 
 31 H        0.7740     7.4340    -1.8310 H     1 <1>   0.0800 
 32 H        1.2240     9.1100    -2.1180 H     1 <1>   0.0800 
 33 H        1.5680    10.7530    -0.3580 H     1 <1>   0.4000 
 34 H       -0.0740     9.8440     1.1970 H     1 <1>   0.0800 
 35 H        0.1600     8.1020     1.3110 H     1 <1>   0.0800 
@<TRIPOS>BOND
  1   1   2  1   
  2   2   3  ar  
  3   2   4  ar  
  4   3   5  1   
  5   3   6  ar  
  6   4   7  ar  
  7   4  22  1   
  8   5   8  2   
  9   5   9  am  
 10   6  10  ar  
 11   6  23  1   
 12   7  10  ar  
 13   7  24  1   
 14   9  11  1   
 15   9  25  1   
 16  10  12  1   
 17  11  13  1   
 18  11  26  1   
 19  11  27  1   
 20  13  14  2   
 21  13  15  am  
 22  15  16  1   
 23  15  28  1   
 24  16  17  1   
 25  16  18  1   
 26  16  29  1   
 27  17  19  1   
 28  17  20  1   
 29  17  30  1   
 30  18  21  1   
 31  18  31  1   
 32  18  32  1   
 33  19  33  1   
 34  20  21  1   
 35  20  34  1   
 36  20  35  1   
@<TRIPOS>SUBSTRUCTURE
  1 ****   5 GROUP 4 **** **** 0

# MOE 2024.06 (io_trps.svl 2023.06)
