@<TRIPOS>MOLECULE
NONAME
47 50 1 0 0 
SMALL
USER_CHARGES


@<TRIPOS>ATOM
  1 O       -0.6380     0.4010     1.3560 O.2   1 <1>  -0.5700 
  2 C       -1.5710     1.0380     0.9100 C.2   1 <1>   0.7150 
  3 N       -2.7240     0.3770     0.5530 N.am  1 <1>  -0.6600 
  4 C       -1.4570     2.4630     0.7530 C.2   1 <1>  -0.2370 
  5 C       -3.6270     0.8540    -0.5300 C.3   1 <1>   0.1400 
  6 C       -2.8610    -1.0980     0.7070 C.3   1 <1>   0.1400 
  7 N       -2.4550     3.3380     1.1100 N.pl3 1 <1>   0.0330 
  8 C       -0.4110     3.2020     0.2800 C.2   1 <1>  -0.1500 
  9 C       -4.5990    -0.3000    -0.7670 C.3   1 <1>   0.2000 
 10 C       -3.7670    -1.5450    -0.4460 C.3   1 <1>  -0.0800 
 11 C       -2.0490     4.6180     0.8420 C.ar  1 <1>  -0.1520 
 12 C       -0.7640     4.5630     0.3180 C.ar  1 <1>   0.0000 
 13 O       -5.6350    -0.1840     0.1470 O.3   1 <1>  -0.6800 
 14 C       -4.5850    -2.8160    -0.1440 C.3   1 <1>   0.0200 
 15 C       -2.7020     5.8410     1.0170 C.ar  1 <1>  -0.1500 
 16 C       -0.1070     5.7450    -0.0430 C.ar  1 <1>  -0.1500 
 17 C       -3.7200    -4.0520     0.0390 C.2   1 <1>  -0.0400 
 18 C       -2.0480     6.9960     0.6580 C.ar  1 <1>  -0.1500 
 19 C       -0.7510     6.9570     0.1270 C.ar  1 <1>   0.0820 
 20 O       -4.2860    -5.1560     0.4480 O.3   1 <1>  -0.0190 
 21 C       -2.4120    -4.3050    -0.1350 C.2   1 <1>  -0.1500 
 22 O       -0.2040     8.1630    -0.1910 O.3   1 <1>  -0.3620 
 23 N       -3.4300    -6.1300     0.5610 N.2   1 <1>  -0.4100 
 24 C       -2.2920    -5.6460     0.2160 C.2   1 <1>   0.1080 
 25 C        1.1040     8.2390    -0.7130 C.3   1 <1>   0.0400 
 26 C       -1.0020    -6.4360     0.1990 C.3   1 <1>  -0.0590 
 27 H       -4.1500     1.7540    -0.2580 H     1 <1>   0.0800 
 28 H       -3.0450     1.0320    -1.4180 H     1 <1>   0.0800 
 29 H       -1.9030    -1.5880     0.6630 H     1 <1>   0.0800 
 30 H       -3.3170    -1.3080     1.6590 H     1 <1>   0.0800 
 31 H       -3.3410     3.0800     1.5560 H     1 <1>   0.2700 
 32 H        0.5370     2.8300    -0.0670 H     1 <1>   0.1500 
 33 H       -5.0160    -0.3050    -1.7600 H     1 <1>   0.0800 
 34 H       -3.1390    -1.7410    -1.2980 H     1 <1>   0.0800 
 35 H       -5.2620    -0.0950     1.0470 H     1 <1>   0.4000 
 36 H       -5.2720    -2.9990    -0.9510 H     1 <1>   0.0800 
 37 H       -5.1670    -2.6760     0.7500 H     1 <1>   0.0800 
 38 H       -3.6960     5.8720     1.4250 H     1 <1>   0.1500 
 39 H        0.8840     5.6650    -0.4420 H     1 <1>   0.1500 
 40 H       -2.5180     7.9550     0.7770 H     1 <1>   0.1500 
 41 H       -1.6130    -3.6680    -0.4640 H     1 <1>   0.1500 
 42 H        1.3350     9.2740    -0.8850 H     1 <1>   0.0800 
 43 H        1.1410     7.6960    -1.6410 H     1 <1>   0.0800 
 44 H        1.7900     7.8250     0.0040 H     1 <1>   0.0800 
 45 H       -0.2880    -5.9810     0.8600 H     1 <1>   0.0800 
 46 H       -0.6020    -6.4590    -0.7970 H     1 <1>   0.0800 
 47 H       -1.1850    -7.4440     0.5250 H     1 <1>   0.0800 
@<TRIPOS>BOND
  1   1   2  2   
  2   2   3  am  
  3   2   4  1   
  4   3   5  1   
  5   3   6  1   
  6   4   7  1   
  7   4   8  2   
  8   5   9  1   
  9   5  27  1   
 10   5  28  1   
 11   6  10  1   
 12   6  29  1   
 13   6  30  1   
 14   7  11  1   
 15   7  31  1   
 16   8  12  1   
 17   8  32  1   
 18   9  10  1   
 19   9  13  1   
 20   9  33  1   
 21  10  14  1   
 22  10  34  1   
 23  11  12  ar  
 24  11  15  ar  
 25  12  16  ar  
 26  13  35  1   
 27  14  17  1   
 28  14  36  1   
 29  14  37  1   
 30  15  18  ar  
 31  15  38  1   
 32  16  19  ar  
 33  16  39  1   
 34  17  20  1   
 35  17  21  2   
 36  18  19  ar  
 37  18  40  1   
 38  19  22  1   
 39  20  23  1   
 40  21  24  1   
 41  21  41  1   
 42  22  25  1   
 43  23  24  2   
 44  24  26  1   
 45  25  42  1   
 46  25  43  1   
 47  25  44  1   
 48  26  45  1   
 49  26  46  1   
 50  26  47  1   
@<TRIPOS>SUBSTRUCTURE
  1 ****   3 GROUP 4 **** **** 0

# MOE 2024.06 (io_trps.svl 2023.06)
