@<TRIPOS>MOLECULE
NONAME
55 56 1 0 0 
SMALL
USER_CHARGES


@<TRIPOS>ATOM
  1 O       -1.5740     1.2210    -1.8000 O.2   1 <1>  -0.5700 
  2 C       -0.9670     2.1810    -1.3880 C.2   1 <1>   0.5690 
  3 N       -1.5120     3.0560    -0.4820 N.am  1 <1>  -0.6600 
  4 C        0.4440     2.4230    -1.9440 C.3   1 <1>   0.1810 
  5 C       -0.7090     4.2070     0.0340 C.3   1 <1>   0.3640 
  6 C       -2.8360     2.8100     0.1630 C.3   1 <1>   0.0600 
  7 O        1.1980     3.3860    -1.2360 O.3   1 <1>  -0.5600 
  8 C       -1.5860     5.4420     0.3220 C.ar  1 <1>  -0.1430 
  9 C        0.4740     4.5470    -0.8980 C.3   1 <1>   0.2610 
 10 C       -2.2910     6.1750    -0.6400 C.ar  1 <1>  -0.1430 
 11 C       -1.6730     5.8350     1.6540 C.ar  1 <1>  -0.1500 
 12 C        1.3930     5.6040    -0.2770 C.2   1 <1>   0.5690 
 13 C       -3.0390     7.2750    -0.2460 C.ar  1 <1>  -0.1500 
 14 C       -2.3280     5.8310    -2.1260 C.3   1 <1>  -0.0960 
 15 C       -2.4340     6.9240     2.0360 C.ar  1 <1>  -0.1500 
 16 O        1.4680     5.7380     0.9230 O.2   1 <1>  -0.5700 
 17 N        2.0930     6.4360    -1.1040 N.am  1 <1>  -0.7300 
 18 C       -3.1150     7.6500     1.0820 C.ar  1 <1>  -0.1500 
 19 C        3.0960     7.4490    -0.6440 C.3   1 <1>   0.1400 
 20 C        2.5410     8.4170     0.4280 C.3   1 <1>   0.3430 
 21 N        1.1010     8.7610     0.1760 N.4   1 <1>  -0.9590 
 22 C        0.8360    10.0550    -0.5100 C.3   1 <1>   0.4230 
 23 C        0.3460     8.6210     1.4610 C.3   1 <1>   0.2630 
 24 C       -0.6480    10.1370    -0.8710 C.3   1 <1>  -0.2400 
 25 C        1.6650    10.1740    -1.7880 C.3   1 <1>  -0.2400 
 26 H        0.3660     2.7430    -2.9670 H     1 <1>   0.0800 
 27 H        0.9930     1.4990    -1.9180 H     1 <1>   0.0800 
 28 H       -0.2790     3.8800     0.9650 H     1 <1>   0.0800 
 29 H       -2.7290     2.8120     1.2330 H     1 <1>   0.0800 
 30 H       -3.2370     1.8570    -0.1390 H     1 <1>   0.0800 
 31 H       -3.5330     3.5790    -0.1230 H     1 <1>   0.0800 
 32 H        0.0970     4.9520    -1.8150 H     1 <1>   0.0800 
 33 H       -1.1490     5.2840     2.4170 H     1 <1>   0.1500 
 34 H       -3.5880     7.8460    -0.9760 H     1 <1>   0.1500 
 35 H       -3.2600     6.1510    -2.5580 H     1 <1>   0.0800 
 36 H       -2.2570     4.7730    -2.2930 H     1 <1>   0.0800 
 37 H       -1.5310     6.3290    -2.6460 H     1 <1>   0.0800 
 38 H       -2.5030     7.1980     3.0760 H     1 <1>   0.1500 
 39 H        2.2100     6.1290    -2.0770 H     1 <1>   0.3700 
 40 H       -3.7170     8.4960     1.3710 H     1 <1>   0.1500 
 41 H        3.9540     6.9370    -0.2410 H     1 <1>   0.0800 
 42 H        3.4350     8.0150    -1.4940 H     1 <1>   0.0800 
 43 H        3.1450     9.3070     0.4830 H     1 <1>   0.0800 
 44 H        2.6200     7.9120     1.3780 H     1 <1>   0.0800 
 45 H        0.7660     8.0040    -0.4390 H     1 <1>   0.4500 
 46 H        1.0860    10.8730     0.1480 H     1 <1>   0.0800 
 47 H        0.6270     9.4000     2.1500 H     1 <1>   0.0800 
 48 H        0.5550     7.6650     1.9130 H     1 <1>   0.0800 
 49 H       -0.7140     8.6770     1.2830 H     1 <1>   0.0800 
 50 H       -0.9510     9.2870    -1.4560 H     1 <1>   0.0800 
 51 H       -0.8330    11.0240    -1.4510 H     1 <1>   0.0800 
 52 H       -1.2640    10.2070     0.0060 H     1 <1>   0.0800 
 53 H        1.4940     9.3350    -2.4390 H     1 <1>   0.0800 
 54 H        2.7120    10.2630    -1.5650 H     1 <1>   0.0800 
 55 H        1.3850    11.0670    -2.3180 H     1 <1>   0.0800 
@<TRIPOS>BOND
  1   1   2  2   
  2   2   3  am  
  3   2   4  1   
  4   3   5  1   
  5   3   6  1   
  6   4   7  1   
  7   4  26  1   
  8   4  27  1   
  9   5   8  1   
 10   5   9  1   
 11   5  28  1   
 12   6  29  1   
 13   6  30  1   
 14   6  31  1   
 15   7   9  1   
 16   8  10  ar  
 17   8  11  ar  
 18   9  12  1   
 19   9  32  1   
 20  10  13  ar  
 21  10  14  1   
 22  11  15  ar  
 23  11  33  1   
 24  12  16  2   
 25  12  17  am  
 26  13  18  ar  
 27  13  34  1   
 28  14  35  1   
 29  14  36  1   
 30  14  37  1   
 31  15  18  ar  
 32  15  38  1   
 33  17  19  1   
 34  17  39  1   
 35  18  40  1   
 36  19  20  1   
 37  19  41  1   
 38  19  42  1   
 39  20  21  1   
 40  20  43  1   
 41  20  44  1   
 42  21  22  1   
 43  21  23  1   
 44  21  45  1   
 45  22  24  1   
 46  22  25  1   
 47  22  46  1   
 48  23  47  1   
 49  23  48  1   
 50  23  49  1   
 51  24  50  1   
 52  24  51  1   
 53  24  52  1   
 54  25  53  1   
 55  25  54  1   
 56  25  55  1   
@<TRIPOS>SUBSTRUCTURE
  1 ****   8 GROUP 4 **** **** 0

# MOE 2024.06 (io_trps.svl 2023.06)
