@<TRIPOS>MOLECULE
NONAME
41 43 1 0 0 
SMALL
USER_CHARGES


@<TRIPOS>ATOM
  1 CL      -1.0780    -0.4890    -1.9900 Cl    1 <1>  -0.1770 
  2 C       -2.2820    -1.0730    -0.8670 C.ar  1 <1>   0.1770 
  3 C       -3.1360    -0.2030    -0.2120 C.ar  1 <1>   0.1900 
  4 C       -2.3770    -2.4350    -0.6370 C.ar  1 <1>  -0.1500 
  5 F       -3.0530     1.0830    -0.4270 F     1 <1>  -0.1900 
  6 C       -4.0900    -0.6660     0.6750 C.ar  1 <1>  -0.1500 
  7 C       -3.3360    -2.9200     0.2470 C.ar  1 <1>  -0.1440 
  8 C       -4.1850    -2.0310     0.9020 C.ar  1 <1>  -0.1500 
  9 C       -3.4600    -4.4130     0.5040 C.3   1 <1>   0.4870 
 10 N       -4.0850    -5.0660    -0.6810 N.4   1 <1>  -0.9590 
 11 C       -5.5060    -4.6160    -0.8560 C.3   1 <1>   0.3430 
 12 C       -4.1300    -6.5510    -0.4940 C.3   1 <1>   0.3430 
 13 C       -6.3650    -5.6830    -0.1720 C.3   1 <1>   0.2000 
 14 C       -5.6070    -6.9630    -0.5160 C.3   1 <1>  -0.0800 
 15 O       -6.3250    -5.4630     1.2030 O.3   1 <1>  -0.6800 
 16 C       -5.9050    -8.2020     0.3530 C.3   1 <1>   0.0200 
 17 C       -4.9290    -9.3160     0.0280 C.2   1 <1>  -0.0400 
 18 O       -4.6880    -9.6250    -1.2180 O.3   1 <1>  -0.0190 
 19 C       -4.1760   -10.1120     0.8020 C.2   1 <1>  -0.1500 
 20 N       -3.8020   -10.5690    -1.3200 N.2   1 <1>  -0.4100 
 21 C       -3.4820   -10.8920    -0.1180 C.2   1 <1>   0.1080 
 22 C       -2.4870   -11.9760     0.2340 C.3   1 <1>  -0.0590 
 23 H       -1.6960    -3.0900    -1.1510 H     1 <1>   0.1500 
 24 H       -4.7390     0.0320     1.1760 H     1 <1>   0.1500 
 25 H       -4.9260    -2.3910     1.5990 H     1 <1>   0.1500 
 26 H       -4.0630    -4.5850     1.3820 H     1 <1>   0.0800 
 27 H       -2.4800    -4.8260     0.6800 H     1 <1>   0.0800 
 28 H       -3.5370    -4.8140    -1.5120 H     1 <1>   0.4500 
 29 H       -5.6890    -3.6410    -0.4370 H     1 <1>   0.0800 
 30 H       -5.7470    -4.5970    -1.9060 H     1 <1>   0.0800 
 31 H       -3.5860    -7.0640    -1.2730 H     1 <1>   0.0800 
 32 H       -3.7000    -6.8180     0.4590 H     1 <1>   0.0800 
 33 H       -7.3900    -5.6710    -0.5060 H     1 <1>   0.0800 
 34 H       -5.8430    -7.2180    -1.5360 H     1 <1>   0.0800 
 35 H       -7.0820    -5.8990     1.6530 H     1 <1>   0.4000 
 36 H       -6.9060    -8.5470     0.1630 H     1 <1>   0.0800 
 37 H       -5.8210    -7.9750     1.4010 H     1 <1>   0.0800 
 38 H       -4.0940   -10.1690     1.8730 H     1 <1>   0.1500 
 39 H       -1.7060   -11.5730     0.8520 H     1 <1>   0.0800 
 40 H       -2.0490   -12.3790    -0.6620 H     1 <1>   0.0800 
 41 H       -2.9830   -12.7690     0.7630 H     1 <1>   0.0800 
@<TRIPOS>BOND
  1   1   2  1   
  2   2   3  ar  
  3   2   4  ar  
  4   3   5  1   
  5   3   6  ar  
  6   4   7  ar  
  7   4  23  1   
  8   6   8  ar  
  9   6  24  1   
 10   7   8  ar  
 11   7   9  1   
 12   8  25  1   
 13   9  10  1   
 14   9  26  1   
 15   9  27  1   
 16  10  11  1   
 17  10  12  1   
 18  10  28  1   
 19  11  13  1   
 20  11  29  1   
 21  11  30  1   
 22  12  14  1   
 23  12  31  1   
 24  12  32  1   
 25  13  14  1   
 26  13  15  1   
 27  13  33  1   
 28  14  16  1   
 29  14  34  1   
 30  15  35  1   
 31  16  17  1   
 32  16  36  1   
 33  16  37  1   
 34  17  18  1   
 35  17  19  2   
 36  18  20  1   
 37  19  21  1   
 38  19  38  1   
 39  20  21  2   
 40  21  22  1   
 41  22  39  1   
 42  22  40  1   
 43  22  41  1   
@<TRIPOS>SUBSTRUCTURE
  1 ****  10 GROUP 4 **** **** 0

# MOE 2024.06 (io_trps.svl 2023.06)
