@<TRIPOS>MOLECULE
NONAME
55 58 1 0 0 
SMALL
USER_CHARGES


@<TRIPOS>ATOM
  1 F       -0.8750    -2.7600     3.0270 F     1 <1>  -0.1900 
  2 C       -1.4570    -3.5320     2.1490 C.ar  1 <1>   0.1900 
  3 C       -1.9790    -4.7420     2.5660 C.ar  1 <1>  -0.1500 
  4 C       -1.5280    -3.1120     0.8340 C.ar  1 <1>  -0.1500 
  5 C       -2.5980    -5.5550     1.6320 C.ar  1 <1>  -0.1500 
  6 C       -2.1490    -3.9340    -0.0910 C.ar  1 <1>  -0.1500 
  7 C       -2.6960    -5.1570     0.2980 C.ar  1 <1>  -0.0230 
  8 N       -3.3450    -5.9840    -0.6600 N.pl3 1 <1>   0.5930 
  9 N       -2.6850    -6.5710    -1.6850 N.2   1 <1>  -0.7070 
 10 C       -4.6710    -6.2950    -0.7260 C.2   1 <1>  -0.3320 
 11 C       -3.5720    -7.2290    -2.3510 C.2   1 <1>   0.1080 
 12 C       -4.8450    -7.0930    -1.8040 C.2   1 <1>  -0.1810 
 13 C       -5.6970    -5.7830     0.2770 C.3   1 <1>  -0.0600 
 14 C       -3.2020    -8.0360    -3.5770 C.3   1 <1>  -0.0590 
 15 C       -6.1120    -7.7240    -2.3340 C.3   1 <1>   0.3900 
 16 N       -6.3240    -8.9610    -1.5640 N.pl3 1 <1>  -0.8690 
 17 C       -7.3750    -9.7520    -1.3420 C.ar  1 <1>   0.7710 
 18 N       -7.1910   -10.7220    -0.4720 N.ar  1 <1>  -0.6200 
 19 N       -8.5420    -9.5550    -1.9810 N.ar  1 <1>  -0.1790 
 20 C       -8.2060   -11.5240    -0.2030 C.ar  1 <1>   0.4100 
 21 C       -9.6020   -10.3700    -1.7550 C.ar  1 <1>   0.2110 
 22 N       -8.0160   -12.4990     0.7260 N.pl3 1 <1>  -0.8380 
 23 C       -9.4440   -11.3730    -0.8590 C.ar  1 <1>  -0.1500 
 24 C       -9.0800   -13.0160     1.6370 C.3   1 <1>   0.2090 
 25 C       -6.6620   -13.0580     1.0340 C.3   1 <1>   0.2090 
 26 C       -9.1680   -14.5350     1.4970 C.3   1 <1>  -0.1600 
 27 C       -6.7050   -14.5830     0.9120 C.3   1 <1>  -0.1600 
 28 C       -7.8080   -15.1630     1.7980 C.3   1 <1>   0.2000 
 29 O       -7.8910   -16.5170     1.5650 O.3   1 <1>  -0.6800 
 30 H       -1.8980    -5.0350     3.5970 H     1 <1>   0.1500 
 31 H       -1.1030    -2.1680     0.5460 H     1 <1>   0.1500 
 32 H       -3.0020    -6.5050     1.9360 H     1 <1>   0.1500 
 33 H       -2.2090    -3.6340    -1.1230 H     1 <1>   0.1500 
 34 H       -5.6870    -4.7060     0.2980 H     1 <1>   0.0800 
 35 H       -5.4680    -6.1470     1.2630 H     1 <1>   0.0800 
 36 H       -6.6870    -6.1100     0.0190 H     1 <1>   0.0800 
 37 H       -2.1330    -8.1450    -3.6280 H     1 <1>   0.0800 
 38 H       -3.5370    -7.5300    -4.4630 H     1 <1>   0.0800 
 39 H       -3.6430    -9.0140    -3.5280 H     1 <1>   0.0800 
 40 H       -6.0040    -7.9470    -3.3820 H     1 <1>   0.0800 
 41 H       -6.9360    -7.0450    -2.1970 H     1 <1>   0.0800 
 42 H       -5.4930    -9.1950    -1.0070 H     1 <1>   0.4000 
 43 H       -8.5800    -8.7870    -2.6420 H     1 <1>   0.4570 
 44 H      -10.5230   -10.2030    -2.2910 H     1 <1>   0.1500 
 45 H      -10.2370   -12.0650    -0.6500 H     1 <1>   0.1500 
 46 H      -10.0340   -12.5680     1.4250 H     1 <1>   0.0800 
 47 H       -8.8230   -12.7630     2.6520 H     1 <1>   0.0800 
 48 H       -6.3800   -12.7740     2.0340 H     1 <1>   0.0800 
 49 H       -5.9190   -12.6740     0.3560 H     1 <1>   0.0800 
 50 H       -9.4820   -14.7760     0.4980 H     1 <1>   0.0800 
 51 H       -9.8970   -14.9120     2.1920 H     1 <1>   0.0800 
 52 H       -5.7550   -14.9860     1.2110 H     1 <1>   0.0800 
 53 H       -6.8790   -14.8360    -0.1180 H     1 <1>   0.0800 
 54 H       -7.5580   -15.0260     2.8370 H     1 <1>   0.0800 
 55 H       -8.0710   -16.6860     0.6220 H     1 <1>   0.4000 
@<TRIPOS>BOND
  1   1   2  1   
  2   2   3  ar  
  3   2   4  ar  
  4   3   5  ar  
  5   3  30  1   
  6   4   6  ar  
  7   4  31  1   
  8   5   7  ar  
  9   5  32  1   
 10   6   7  ar  
 11   6  33  1   
 12   7   8  1   
 13   8   9  1   
 14   8  10  1   
 15   9  11  2   
 16  10  12  2   
 17  10  13  1   
 18  11  12  1   
 19  11  14  1   
 20  12  15  1   
 21  13  34  1   
 22  13  35  1   
 23  13  36  1   
 24  14  37  1   
 25  14  38  1   
 26  14  39  1   
 27  15  16  1   
 28  15  40  1   
 29  15  41  1   
 30  16  17  1   
 31  16  42  1   
 32  17  18  ar  
 33  17  19  ar  
 34  18  20  ar  
 35  19  21  ar  
 36  19  43  1   
 37  20  22  1   
 38  20  23  ar  
 39  21  23  ar  
 40  21  44  1   
 41  22  24  1   
 42  22  25  1   
 43  23  45  1   
 44  24  26  1   
 45  24  46  1   
 46  24  47  1   
 47  25  27  1   
 48  25  48  1   
 49  25  49  1   
 50  26  28  1   
 51  26  50  1   
 52  26  51  1   
 53  27  28  1   
 54  27  52  1   
 55  27  53  1   
 56  28  29  1   
 57  28  54  1   
 58  29  55  1   
@<TRIPOS>SUBSTRUCTURE
  1 ****  16 GROUP 4 **** **** 0

# MOE 2024.06 (io_trps.svl 2023.06)
