@<TRIPOS>MOLECULE
NONAME
46 47 1 0 0 
SMALL
USER_CHARGES


@<TRIPOS>ATOM
  1 S       -0.0650     0.2040     0.7700 S.o2  1 <1>   1.3330 
  2 O       -1.0770    -0.8160     0.8840 O.2   1 <1>  -0.6500 
  3 O        0.7730     0.5480     1.8990 O.2   1 <1>  -0.6500 
  4 N        0.9650    -0.1930    -0.5180 N.am  1 <1>  -0.8490 
  5 C       -0.8100     1.7440     0.2250 C.3   1 <1>  -0.0550 
  6 C        0.2510    -0.7970    -1.6530 C.3   1 <1>   0.1160 
  7 C        2.0280    -1.1150    -0.0930 C.3   1 <1>   0.1160 
  8 C        0.2270     2.8400    -0.1230 C.3   1 <1>  -0.0800 
  9 C       -0.3620     4.1710    -0.5870 C.3   1 <1>   0.2000 
 10 C        1.1730     3.2090     1.0310 C.3   1 <1>   0.3430 
 11 O       -1.4710     4.4990     0.1850 O.3   1 <1>  -0.6800 
 12 C        0.7680     5.1680    -0.3200 C.3   1 <1>   0.3430 
 13 N        1.4380     4.6760     0.9260 N.4   1 <1>  -0.9590 
 14 C        2.8820     5.0220     0.9950 C.3   1 <1>   0.5230 
 15 C        3.0050     6.5290     0.9970 C.2   1 <1>  -0.1400 
 16 S        2.2370     7.3900     2.3220 S.3   1 <1>  -0.0800 
 17 C        3.6030     7.3970     0.1590 C.2   1 <1>  -0.1500 
 18 C        2.7620     8.9320     1.6760 C.2   1 <1>  -0.1100 
 19 C        3.4670     8.7740     0.5380 C.2   1 <1>   0.0190 
 20 C        4.0410     9.8220    -0.2490 C.1   1 <1>  -0.0190 
 21 C        4.5150    10.6970    -0.9010 C.1   1 <1>  -0.2000 
 22 C        5.1060    11.8000    -1.7040 C.3   1 <1>   0.3200 
 23 O        4.0850    12.6680    -2.0260 O.3   1 <1>  -0.6800 
 24 H       -1.4180     1.5530    -0.6390 H     1 <1>   0.0800 
 25 H       -1.4660     2.0920     1.0000 H     1 <1>   0.0800 
 26 H        0.9330    -0.9800    -2.4660 H     1 <1>   0.0800 
 27 H       -0.5240    -0.1380    -2.0050 H     1 <1>   0.0800 
 28 H       -0.2010    -1.7330    -1.3620 H     1 <1>   0.0800 
 29 H        2.6750    -1.3490    -0.9210 H     1 <1>   0.0800 
 30 H        1.6010    -2.0290     0.2890 H     1 <1>   0.0800 
 31 H        2.6240    -0.6660     0.6830 H     1 <1>   0.0800 
 32 H        0.8450     2.4680    -0.9220 H     1 <1>   0.0800 
 33 H       -0.6660     4.1630    -1.6210 H     1 <1>   0.0800 
 34 H        2.0820     2.6320     0.9610 H     1 <1>   0.0800 
 35 H        0.7060     2.9890     1.9790 H     1 <1>   0.0800 
 36 H       -1.2870     4.5240     1.1440 H     1 <1>   0.4000 
 37 H        0.3930     6.1740    -0.2140 H     1 <1>   0.0800 
 38 H        1.4630     5.1350    -1.1430 H     1 <1>   0.0800 
 39 H        1.0000     5.1580     1.7240 H     1 <1>   0.4500 
 40 H        3.3170     4.6260     1.8990 H     1 <1>   0.0800 
 41 H        3.4090     4.6110     0.1490 H     1 <1>   0.0800 
 42 H        4.1530     7.1480    -0.7330 H     1 <1>   0.1500 
 43 H        2.4900     9.8220     2.2180 H     1 <1>   0.1500 
 44 H        5.5360    11.4240    -2.6170 H     1 <1>   0.0800 
 45 H        5.8490    12.3420    -1.1450 H     1 <1>   0.0800 
 46 H        3.2910    12.1510    -2.2560 H     1 <1>   0.4000 
@<TRIPOS>BOND
  1   1   2  2   
  2   1   3  2   
  3   1   4  am  
  4   1   5  1   
  5   4   6  1   
  6   4   7  1   
  7   5   8  1   
  8   5  24  1   
  9   5  25  1   
 10   6  26  1   
 11   6  27  1   
 12   6  28  1   
 13   7  29  1   
 14   7  30  1   
 15   7  31  1   
 16   8   9  1   
 17   8  10  1   
 18   8  32  1   
 19   9  11  1   
 20   9  12  1   
 21   9  33  1   
 22  10  13  1   
 23  10  34  1   
 24  10  35  1   
 25  11  36  1   
 26  12  13  1   
 27  12  37  1   
 28  12  38  1   
 29  13  14  1   
 30  13  39  1   
 31  14  15  1   
 32  14  40  1   
 33  14  41  1   
 34  15  16  1   
 35  15  17  2   
 36  16  18  1   
 37  17  19  1   
 38  17  42  1   
 39  18  19  2   
 40  18  43  1   
 41  19  20  1   
 42  20  21  3   
 43  21  22  1   
 44  22  23  1   
 45  22  44  1   
 46  22  45  1   
 47  23  46  1   
@<TRIPOS>SUBSTRUCTURE
  1 ****  13 GROUP 4 **** **** 0

# MOE 2024.06 (io_trps.svl 2023.06)
