@<TRIPOS>MOLECULE
NONAME
43 45 1 0 0 
SMALL
USER_CHARGES


@<TRIPOS>ATOM
  1 O        1.9910     0.9770    -1.2970 O.3   1 <1>  -0.0190 
  2 N        1.0280     1.8410    -1.3530 N.2   1 <1>  -0.4100 
  3 C        1.8630     0.4350    -0.1140 C.2   1 <1>   0.2980 
  4 C        0.3910     1.7820    -0.2520 C.2   1 <1>   0.3350 
  5 N        0.8780     0.8650     0.5820 N.2   1 <1>  -0.5650 
  6 C        2.8340    -0.6710     0.3270 C.3   1 <1>   0.4690 
  7 C       -0.8210     2.6390     0.1220 C.3   1 <1>   0.1010 
  8 N        2.3710    -2.0660    -0.0150 N.pl3 1 <1>  -0.8380 
  9 C        4.2380    -0.5670    -0.2710 C.3   1 <1>  -0.1600 
 10 C       -2.1190     1.9850    -0.3720 C.3   1 <1>  -0.2400 
 11 C       -0.7110     4.0690    -0.4310 C.3   1 <1>  -0.2400 
 12 C        1.1300    -2.6130     0.1920 C.ar  1 <1>   0.4610 
 13 C        3.5220    -2.8470    -0.5540 C.3   1 <1>   0.2090 
 14 C        4.7560    -2.0000    -0.2740 C.3   1 <1>  -0.1600 
 15 N        0.1390    -1.8840     0.7360 N.ar  1 <1>  -0.1790 
 16 C        0.7910    -3.9130    -0.1220 C.ar  1 <1>  -0.1500 
 17 C       -1.0840    -2.3850     0.9780 C.ar  1 <1>   0.7710 
 18 C       -0.4830    -4.3690     0.1430 C.ar  1 <1>   0.3930 
 19 N       -1.4300    -3.6160     0.6980 N.ar  1 <1>  -0.6200 
 20 N       -2.0170    -1.6110     1.5340 N.pl3 1 <1>  -0.9000 
 21 O       -0.7650    -5.6300    -0.1750 O.3   1 <1>  -0.3630 
 22 C       -2.0320    -6.2220     0.0420 C.3   1 <1>   0.0400 
 23 H        2.9300    -0.6170     1.3990 H     1 <1>   0.0800 
 24 H       -0.8580     2.7070     1.1950 H     1 <1>   0.0800 
 25 H        4.1940    -0.2100    -1.2850 H     1 <1>   0.0800 
 26 H        4.8660     0.0940     0.3010 H     1 <1>   0.0800 
 27 H       -2.1130     1.9140    -1.4460 H     1 <1>   0.0800 
 28 H       -2.9710     2.5710    -0.0720 H     1 <1>   0.0800 
 29 H       -2.2230     0.9970     0.0350 H     1 <1>   0.0800 
 30 H       -0.6970     4.0590    -1.5070 H     1 <1>   0.0800 
 31 H        0.1970     4.5290    -0.0830 H     1 <1>   0.0800 
 32 H       -1.5430     4.6650    -0.1020 H     1 <1>   0.0800 
 33 H        3.6090    -3.8110    -0.0780 H     1 <1>   0.0800 
 34 H        3.3990    -2.9780    -1.6170 H     1 <1>   0.0800 
 35 H        5.1500    -2.2560     0.6950 H     1 <1>   0.0800 
 36 H        5.5230    -2.1570    -1.0120 H     1 <1>   0.0800 
 37 H        0.2830    -0.8920     0.9070 H     1 <1>   0.4570 
 38 H        1.4930    -4.5860    -0.5730 H     1 <1>   0.1500 
 39 H       -1.9140    -0.6540     1.8740 H     1 <1>   0.4000 
 40 H       -2.9400    -2.0230     1.7050 H     1 <1>   0.4000 
 41 H       -1.9950    -7.2400    -0.3020 H     1 <1>   0.0800 
 42 H       -2.7740    -5.6730    -0.5110 H     1 <1>   0.0800 
 43 H       -2.2540    -6.1980     1.0950 H     1 <1>   0.0800 
@<TRIPOS>BOND
  1   1   2  1   
  2   1   3  1   
  3   2   4  2   
  4   3   5  2   
  5   3   6  1   
  6   4   5  1   
  7   4   7  1   
  8   6   8  1   
  9   6   9  1   
 10   6  23  1   
 11   7  10  1   
 12   7  11  1   
 13   7  24  1   
 14   8  12  1   
 15   8  13  1   
 16   9  14  1   
 17   9  25  1   
 18   9  26  1   
 19  10  27  1   
 20  10  28  1   
 21  10  29  1   
 22  11  30  1   
 23  11  31  1   
 24  11  32  1   
 25  12  15  ar  
 26  12  16  ar  
 27  13  14  1   
 28  13  33  1   
 29  13  34  1   
 30  14  35  1   
 31  14  36  1   
 32  15  17  ar  
 33  15  37  1   
 34  16  18  ar  
 35  16  38  1   
 36  17  19  ar  
 37  17  20  1   
 38  18  19  ar  
 39  18  21  1   
 40  20  39  1   
 41  20  40  1   
 42  21  22  1   
 43  22  41  1   
 44  22  42  1   
 45  22  43  1   
@<TRIPOS>SUBSTRUCTURE
  1 ****  15 GROUP 4 **** **** 0

# MOE 2024.06 (io_trps.svl 2023.06)
