@<TRIPOS>MOLECULE
NONAME
39 41 1 0 0 
SMALL
USER_CHARGES


@<TRIPOS>ATOM
  1 O        0.0300     0.2610     0.7810 O.3   1 <1>  -0.2170 
  2 N        0.6180     1.4260     0.6310 N.2   1 <1>  -0.5130 
  3 C        0.9270    -0.8290     0.7420 C.3   1 <1>   0.2000 
  4 C        1.8640     1.2920     0.4440 C.2   1 <1>   0.3030 
  5 C        2.2640    -0.1590     0.4430 C.3   1 <1>  -0.0990 
  6 C        0.4870    -1.8490    -0.3280 C.3   1 <1>   0.1100 
  7 C        2.8350     2.3500     0.2450 C.ar  1 <1>   0.0860 
  8 N       -0.5630    -2.7900     0.1290 N.3   1 <1>  -0.8100 
  9 C        4.1950     2.1010     0.0330 C.ar  1 <1>  -0.1500 
 10 C        2.4340     3.6880     0.2590 C.ar  1 <1>  -0.1500 
 11 C       -0.7760    -3.8520    -0.8860 C.3   1 <1>   0.2530 
 12 C       -1.8330    -2.0920     0.4110 C.3   1 <1>   0.0300 
 13 C        5.1000     3.1300    -0.1550 C.ar  1 <1>  -0.1500 
 14 C        3.3330     4.7220     0.0720 C.ar  1 <1>  -0.1500 
 15 C       -1.5870    -5.0430    -0.3770 C.ar  1 <1>   0.1670 
 16 C        4.6710     4.4440    -0.1360 C.ar  1 <1>  -0.1500 
 17 N       -2.3230    -5.6850    -1.2750 N.ar  1 <1>  -0.6200 
 18 C       -1.5180    -5.4160     0.9650 C.ar  1 <1>   0.1600 
 19 C       -2.9790    -6.7040    -0.7440 C.ar  1 <1>   0.1600 
 20 N       -2.1730    -6.4380     1.4960 N.ar  1 <1>  -0.6200 
 21 C       -2.9050    -7.0670     0.5950 C.ar  1 <1>   0.1600 
 22 H        0.9390    -1.2830     1.7180 H     1 <1>   0.0800 
 23 H        2.6550    -0.4470    -0.5150 H     1 <1>   0.0800 
 24 H        2.9750    -0.3730     1.2200 H     1 <1>   0.0800 
 25 H        1.3540    -2.4320    -0.5880 H     1 <1>   0.0800 
 26 H        0.1660    -1.3240    -1.2120 H     1 <1>   0.0800 
 27 H        4.5640     1.0930     0.0120 H     1 <1>   0.1500 
 28 H        1.3940     3.9190     0.4200 H     1 <1>   0.1500 
 29 H        0.1750    -4.2340    -1.2130 H     1 <1>   0.0800 
 30 H       -1.2720    -3.4320    -1.7450 H     1 <1>   0.0800 
 31 H       -1.7210    -1.4430     1.2620 H     1 <1>   0.0800 
 32 H       -2.6120    -2.7980     0.6420 H     1 <1>   0.0800 
 33 H       -2.1400    -1.5040    -0.4380 H     1 <1>   0.0800 
 34 H        6.1420     2.9110    -0.3160 H     1 <1>   0.1500 
 35 H        2.9910     5.7430     0.0880 H     1 <1>   0.1500 
 36 H        5.3740     5.2470    -0.2810 H     1 <1>   0.1500 
 37 H       -0.8930    -4.8410     1.6260 H     1 <1>   0.1500 
 38 H       -3.6040    -7.2810    -1.4010 H     1 <1>   0.1500 
 39 H       -3.4770    -7.9140     0.9320 H     1 <1>   0.1500 
@<TRIPOS>BOND
  1   1   2  1   
  2   1   3  1   
  3   2   4  2   
  4   3   5  1   
  5   3   6  1   
  6   3  22  1   
  7   4   5  1   
  8   4   7  1   
  9   5  23  1   
 10   5  24  1   
 11   6   8  1   
 12   6  25  1   
 13   6  26  1   
 14   7   9  ar  
 15   7  10  ar  
 16   8  11  1   
 17   8  12  1   
 18   9  13  ar  
 19   9  27  1   
 20  10  14  ar  
 21  10  28  1   
 22  11  15  1   
 23  11  29  1   
 24  11  30  1   
 25  12  31  1   
 26  12  32  1   
 27  12  33  1   
 28  13  16  ar  
 29  13  34  1   
 30  14  16  ar  
 31  14  35  1   
 32  15  17  ar  
 33  15  18  ar  
 34  16  36  1   
 35  17  19  ar  
 36  18  20  ar  
 37  18  37  1   
 38  19  21  ar  
 39  19  38  1   
 40  20  21  ar  
 41  21  39  1   
@<TRIPOS>SUBSTRUCTURE
  1 ****   3 GROUP 4 **** **** 0

# MOE 2024.06 (io_trps.svl 2023.06)
