@<TRIPOS>MOLECULE
NONAME
39 41 1 0 0 
SMALL
USER_CHARGES


@<TRIPOS>ATOM
  1 CL      -0.3440    -0.3310    -1.5760 Cl    1 <1>  -0.1770 
  2 C       -1.6620    -0.9470    -0.6060 C.ar  1 <1>   0.1770 
  3 C       -2.6160    -0.0890    -0.0850 C.ar  1 <1>   0.1770 
  4 C       -1.7360    -2.3060    -0.3700 C.ar  1 <1>  -0.1500 
  5 CL      -2.5370     1.6300    -0.3790 Cl    1 <1>  -0.1770 
  6 C       -3.6510    -0.5910     0.6830 C.ar  1 <1>  -0.1500 
  7 C       -2.7770    -2.8400     0.3920 C.ar  1 <1>   0.0860 
  8 C       -3.7230    -1.9540     0.9180 C.ar  1 <1>  -0.1500 
  9 C       -2.8520    -4.2680     0.6330 C.2   1 <1>   0.5440 
 10 O       -1.8790    -4.8530     1.0660 O.2   1 <1>  -0.5700 
 11 N       -3.9930    -4.9920     0.3710 N.am  1 <1>  -0.6600 
 12 C       -5.0910    -4.5600    -0.5350 C.3   1 <1>   0.1400 
 13 C       -4.0740    -6.4580     0.6060 C.3   1 <1>   0.1400 
 14 C       -6.0870    -5.7180    -0.5090 C.3   1 <1>   0.2000 
 15 C       -5.2030    -6.9530    -0.3070 C.3   1 <1>  -0.0800 
 16 O       -6.9100    -5.5500     0.5950 O.3   1 <1>  -0.6800 
 17 C       -5.9380    -8.1980     0.2250 C.3   1 <1>   0.0200 
 18 C       -5.0560    -9.4350     0.2790 C.2   1 <1>  -0.0400 
 19 O       -5.5320   -10.5180     0.8340 O.3   1 <1>  -0.0190 
 20 C       -3.8100    -9.7080    -0.1420 C.2   1 <1>  -0.1500 
 21 N       -4.6740   -11.4960     0.8120 N.2   1 <1>  -0.4100 
 22 C       -3.6260   -11.0360     0.2300 C.2   1 <1>   0.1080 
 23 C       -2.3670   -11.8390    -0.0130 C.3   1 <1>  -0.0590 
 24 H       -0.9830    -2.9600    -0.7730 H     1 <1>   0.1500 
 25 H       -4.3850     0.0820     1.0920 H     1 <1>   0.1500 
 26 H       -4.5200    -2.3460     1.5270 H     1 <1>   0.1500 
 27 H       -5.5500    -3.6420    -0.2130 H     1 <1>   0.0800 
 28 H       -4.6970    -4.4380    -1.5290 H     1 <1>   0.0800 
 29 H       -3.1380    -6.9360     0.3730 H     1 <1>   0.0800 
 30 H       -4.3100    -6.6320     1.6420 H     1 <1>   0.0800 
 31 H       -6.7020    -5.7680    -1.3910 H     1 <1>   0.0800 
 32 H       -4.7680    -7.1970    -1.2610 H     1 <1>   0.0800 
 33 H       -6.3530    -5.3930     1.3840 H     1 <1>   0.4000 
 34 H       -6.7820    -8.4110    -0.4080 H     1 <1>   0.0800 
 35 H       -6.3150    -8.0090     1.2140 H     1 <1>   0.0800 
 36 H       -3.0910    -9.0910    -0.6470 H     1 <1>   0.1500 
 37 H       -2.1600   -11.8840    -1.0660 H     1 <1>   0.0800 
 38 H       -2.4920   -12.8390     0.3610 H     1 <1>   0.0800 
 39 H       -1.5390   -11.3790     0.4940 H     1 <1>   0.0800 
@<TRIPOS>BOND
  1   1   2  1   
  2   2   3  ar  
  3   2   4  ar  
  4   3   5  1   
  5   3   6  ar  
  6   4   7  ar  
  7   4  24  1   
  8   6   8  ar  
  9   6  25  1   
 10   7   8  ar  
 11   7   9  1   
 12   8  26  1   
 13   9  10  2   
 14   9  11  am  
 15  11  12  1   
 16  11  13  1   
 17  12  14  1   
 18  12  27  1   
 19  12  28  1   
 20  13  15  1   
 21  13  29  1   
 22  13  30  1   
 23  14  15  1   
 24  14  16  1   
 25  14  31  1   
 26  15  17  1   
 27  15  32  1   
 28  16  33  1   
 29  17  18  1   
 30  17  34  1   
 31  17  35  1   
 32  18  19  1   
 33  18  20  2   
 34  19  21  1   
 35  20  22  1   
 36  20  36  1   
 37  21  22  2   
 38  22  23  1   
 39  23  37  1   
 40  23  38  1   
 41  23  39  1   
@<TRIPOS>SUBSTRUCTURE
  1 ****  11 GROUP 4 **** **** 0

# MOE 2024.06 (io_trps.svl 2023.06)
