@<TRIPOS>MOLECULE
NONAME
52 54 1 0 0 
SMALL
USER_CHARGES


@<TRIPOS>ATOM
  1 O       -1.5320     0.7240     2.0490 O.2   1 <1>  -0.5700 
  2 C       -1.4530     1.3350     1.0010 C.2   1 <1>   0.5440 
  3 N       -2.1620     0.8710    -0.0900 N.am  1 <1>  -0.6600 
  4 C       -0.6380     2.5300     0.9500 C.ar  1 <1>   0.0860 
  5 C       -2.7560    -0.5000    -0.0580 C.3   1 <1>   0.1400 
  6 C       -2.4760     1.7190    -1.2800 C.3   1 <1>   0.1400 
  7 C       -0.7560     3.4950     1.9490 C.ar  1 <1>   0.1600 
  8 C        0.2830     2.7700    -0.0610 C.ar  1 <1>  -0.1500 
  9 C       -4.1290    -0.4990     0.6330 C.3   1 <1>   0.1400 
 10 C       -3.9500     1.6660    -1.7100 C.3   1 <1>  -0.1600 
 11 N       -0.0880     4.6400     2.0090 N.ar  1 <1>  -0.6200 
 12 C        0.9930     3.9480    -0.0200 C.ar  1 <1>   0.0820 
 13 N       -5.1870     0.1330    -0.2190 N.am  1 <1>  -0.6600 
 14 C       -4.9500     1.5660    -0.5530 C.3   1 <1>   0.1400 
 15 C        0.7730     4.8410     1.0230 C.ar  1 <1>   0.1600 
 16 O        1.8840     4.2010    -0.9960 O.3   1 <1>  -0.5320 
 17 C       -6.2970    -0.5150    -0.7060 C.2   1 <1>   0.5690 
 18 O       -7.0740     0.0380    -1.4490 O.2   1 <1>  -0.5700 
 19 C       -6.5710    -1.9640    -0.3260 C.3   1 <1>  -0.0990 
 20 C       -7.8690    -2.5350    -0.9190 C.3   1 <1>  -0.0160 
 21 C       -8.0630    -3.9800    -0.4700 C.ar  1 <1>  -0.1430 
 22 C       -8.7920    -4.3240     0.6670 C.ar  1 <1>  -0.1430 
 23 C       -7.4760    -4.9810    -1.2310 C.ar  1 <1>  -0.1500 
 24 C       -8.9170    -5.6600     1.0180 C.ar  1 <1>  -0.1500 
 25 C       -9.4670    -3.2770     1.5430 C.3   1 <1>  -0.0970 
 26 C       -7.6060    -6.3100    -0.8740 C.ar  1 <1>  -0.1500 
 27 C       -8.3270    -6.6500     0.2540 C.ar  1 <1>  -0.1500 
 28 H       -2.0970    -1.1480     0.4940 H     1 <1>   0.0800 
 29 H       -2.8420    -0.8970    -1.0540 H     1 <1>   0.0800 
 30 H       -1.8530     1.4150    -2.1040 H     1 <1>   0.0800 
 31 H       -2.2420     2.7450    -1.0550 H     1 <1>   0.0800 
 32 H       -1.4530     3.3000     2.7470 H     1 <1>   0.1500 
 33 H        0.4430     2.0590    -0.8510 H     1 <1>   0.1500 
 34 H       -4.0570     0.0300     1.5680 H     1 <1>   0.0800 
 35 H       -4.3840    -1.5150     0.8640 H     1 <1>   0.0800 
 36 H       -4.1080     0.8520    -2.3950 H     1 <1>   0.0800 
 37 H       -4.1570     2.5680    -2.2570 H     1 <1>   0.0800 
 38 H       -5.8790     2.0250    -0.8500 H     1 <1>   0.0800 
 39 H       -4.5910     2.0950     0.3130 H     1 <1>   0.0800 
 40 H        1.3300     5.7610     1.0490 H     1 <1>   0.1500 
 41 H        2.3790     5.0350    -0.8870 H     1 <1>   0.4500 
 42 H       -6.6240    -2.0310     0.7440 H     1 <1>   0.0800 
 43 H       -5.7490    -2.5670    -0.6640 H     1 <1>   0.0800 
 44 H       -7.8180    -2.4960    -1.9930 H     1 <1>   0.0800 
 45 H       -8.7060    -1.9270    -0.6260 H     1 <1>   0.0800 
 46 H       -6.9120    -4.7280    -2.1110 H     1 <1>   0.1500 
 47 H       -9.4790    -5.9410     1.8910 H     1 <1>   0.1500 
 48 H       -8.7570    -2.5330     1.8530 H     1 <1>   0.0800 
 49 H       -9.8890    -3.7240     2.4250 H     1 <1>   0.0800 
 50 H      -10.2600    -2.7990     0.9960 H     1 <1>   0.0800 
 51 H       -7.1470    -7.0780    -1.4720 H     1 <1>   0.1500 
 52 H       -8.4320    -7.6830     0.5370 H     1 <1>   0.1500 
@<TRIPOS>BOND
  1   1   2  2   
  2   2   3  am  
  3   2   4  1   
  4   3   5  1   
  5   3   6  1   
  6   4   7  ar  
  7   4   8  ar  
  8   5   9  1   
  9   5  28  1   
 10   5  29  1   
 11   6  10  1   
 12   6  30  1   
 13   6  31  1   
 14   7  11  ar  
 15   7  32  1   
 16   8  12  ar  
 17   8  33  1   
 18   9  13  1   
 19   9  34  1   
 20   9  35  1   
 21  10  14  1   
 22  10  36  1   
 23  10  37  1   
 24  11  15  ar  
 25  12  15  ar  
 26  12  16  1   
 27  13  14  1   
 28  13  17  am  
 29  14  38  1   
 30  14  39  1   
 31  15  40  1   
 32  16  41  1   
 33  17  18  2   
 34  17  19  1   
 35  19  20  1   
 36  19  42  1   
 37  19  43  1   
 38  20  21  1   
 39  20  44  1   
 40  20  45  1   
 41  21  22  ar  
 42  21  23  ar  
 43  22  24  ar  
 44  22  25  1   
 45  23  26  ar  
 46  23  46  1   
 47  24  27  ar  
 48  24  47  1   
 49  25  48  1   
 50  25  49  1   
 51  25  50  1   
 52  26  27  ar  
 53  26  51  1   
 54  27  52  1   
@<TRIPOS>SUBSTRUCTURE
  1 ****   9 GROUP 4 **** **** 0

# MOE 2024.06 (io_trps.svl 2023.06)
