@<TRIPOS>MOLECULE
NONAME
52 55 1 0 0 
SMALL
USER_CHARGES


@<TRIPOS>ATOM
  1 O        0.1100     0.2090     0.8930 O.2   1 <1>  -0.5700 
  2 C        1.0680    -0.3740     0.4410 C.2   1 <1>   0.5690 
  3 N        2.1860     0.3010     0.0160 N.am  1 <1>  -0.6600 
  4 C        1.0120    -1.8920     0.3680 C.3   1 <1>  -0.0990 
  5 C        2.2620     1.7900     0.1170 C.3   1 <1>   0.1400 
  6 C        3.4180    -0.3490    -0.5090 C.3   1 <1>   0.1400 
  7 C       -0.2570    -2.4920     0.9940 C.3   1 <1>   0.0200 
  8 C        3.3730     2.2630     1.0700 C.3   1 <1>   0.2090 
  9 C        4.4470    -0.4600     0.6200 C.3   1 <1>  -0.1600 
 10 C       -0.2300    -4.0050     0.9240 C.2   1 <1>   0.2980 
 11 N        4.7480     2.0780     0.4850 N.pl3 1 <1>  -0.8380 
 12 C        5.3860     0.7470     0.7460 C.3   1 <1>   0.2090 
 13 O        0.6170    -4.6520     1.6820 O.3   1 <1>  -0.0190 
 14 N       -0.9570    -4.7260     0.1780 N.2   1 <1>  -0.5650 
 15 C        5.4290     3.1080    -0.0990 C.ar  1 <1>   0.1000 
 16 N        0.4140    -5.8980     1.3900 N.2   1 <1>  -0.4100 
 17 C       -0.5180    -5.9480     0.5040 C.2   1 <1>   0.5150 
 18 C        6.8290     3.2020    -0.0420 C.ar  1 <1>  -0.1500 
 19 C        4.7700     4.1370    -0.7870 C.ar  1 <1>  -0.1500 
 20 C       -1.0650    -7.1400    -0.1070 C.2   1 <1>   0.1410 
 21 C        7.5070     4.2370    -0.6360 C.ar  1 <1>   0.2180 
 22 C        5.4670     5.1610    -1.3710 C.ar  1 <1>   0.2110 
 23 O       -0.6130    -8.3500     0.2110 O.3   1 <1>  -0.2800 
 24 C       -2.0490    -7.2780    -1.0380 C.2   1 <1>  -0.1500 
 25 N        6.8200     5.2020    -1.2930 N.ar  1 <1>  -0.1790 
 26 C        9.0210     4.3440    -0.5770 C.3   1 <1>  -0.0970 
 27 C       -1.2780    -9.2460    -0.4870 C.2   1 <1>  -0.0100 
 28 C       -2.1870    -8.6460    -1.2840 C.2   1 <1>  -0.1500 
 29 H        1.8710    -2.2890     0.8770 H     1 <1>   0.0800 
 30 H        1.0580    -2.1860    -0.6640 H     1 <1>   0.0800 
 31 H        1.3260     2.1810     0.4760 H     1 <1>   0.0800 
 32 H        2.4240     2.2010    -0.8620 H     1 <1>   0.0800 
 33 H        3.8170     0.2270    -1.3280 H     1 <1>   0.0800 
 34 H        3.1900    -1.3290    -0.8870 H     1 <1>   0.0800 
 35 H       -1.1250    -2.1310     0.4690 H     1 <1>   0.0800 
 36 H       -0.3410    -2.1900     2.0230 H     1 <1>   0.0800 
 37 H        3.2910     1.7380     2.0070 H     1 <1>   0.0800 
 38 H        3.2210     3.3060     1.2830 H     1 <1>   0.0800 
 39 H        5.0610    -1.3230     0.4350 H     1 <1>   0.0800 
 40 H        3.9490    -0.6340     1.5570 H     1 <1>   0.0800 
 41 H        6.1830     0.6070     0.0350 H     1 <1>   0.0800 
 42 H        5.8230     0.7520     1.7310 H     1 <1>   0.0800 
 43 H        7.3750     2.4480     0.4930 H     1 <1>   0.1500 
 44 H        3.6990     4.1160    -0.8650 H     1 <1>   0.1500 
 45 H        4.9540     5.9480    -1.9020 H     1 <1>   0.1500 
 46 H       -2.6190    -6.4940    -1.5030 H     1 <1>   0.1500 
 47 H        7.3330     5.9720    -1.7340 H     1 <1>   0.4570 
 48 H        9.4380     3.5190    -0.0260 H     1 <1>   0.0800 
 49 H        9.3150     5.2550    -0.0860 H     1 <1>   0.0800 
 50 H        9.4380     4.3270    -1.5690 H     1 <1>   0.0800 
 51 H       -1.0420   -10.2880    -0.3560 H     1 <1>   0.1500 
 52 H       -2.8810    -9.0960    -1.9720 H     1 <1>   0.1500 
@<TRIPOS>BOND
  1   1   2  2   
  2   2   3  am  
  3   2   4  1   
  4   3   5  1   
  5   3   6  1   
  6   4   7  1   
  7   4  29  1   
  8   4  30  1   
  9   5   8  1   
 10   5  31  1   
 11   5  32  1   
 12   6   9  1   
 13   6  33  1   
 14   6  34  1   
 15   7  10  1   
 16   7  35  1   
 17   7  36  1   
 18   8  11  1   
 19   8  37  1   
 20   8  38  1   
 21   9  12  1   
 22   9  39  1   
 23   9  40  1   
 24  10  13  1   
 25  10  14  2   
 26  11  12  1   
 27  11  15  1   
 28  12  41  1   
 29  12  42  1   
 30  13  16  1   
 31  14  17  1   
 32  15  18  ar  
 33  15  19  ar  
 34  16  17  2   
 35  17  20  1   
 36  18  21  ar  
 37  18  43  1   
 38  19  22  ar  
 39  19  44  1   
 40  20  23  1   
 41  20  24  2   
 42  21  25  ar  
 43  21  26  1   
 44  22  25  ar  
 45  22  45  1   
 46  23  27  1   
 47  24  28  1   
 48  24  46  1   
 49  25  47  1   
 50  26  48  1   
 51  26  49  1   
 52  26  50  1   
 53  27  28  2   
 54  27  51  1   
 55  28  52  1   
@<TRIPOS>SUBSTRUCTURE
  1 ****   4 GROUP 4 **** **** 0

# MOE 2024.06 (io_trps.svl 2023.06)
