@<TRIPOS>MOLECULE
NONAME
63 66 1 0 0 
SMALL
USER_CHARGES


@<TRIPOS>ATOM
  1 O       -0.6350    -0.0280    -1.6540 O.2   1 <1>  -0.5700 
  2 C       -1.5900     0.5760    -1.2250 C.2   1 <1>   0.5690 
  3 N       -2.7520    -0.0680    -0.9100 N.am  1 <1>  -0.6600 
  4 C       -1.4830     2.0880    -1.0490 C.3   1 <1>  -0.0990 
  5 C       -4.0530     0.5600    -0.5660 C.3   1 <1>   0.1400 
  6 C       -2.9040    -1.5330    -1.0780 C.3   1 <1>   0.1400 
  7 C       -0.0330     2.6110    -0.9390 C.3   1 <1>  -0.0800 
  8 C       -5.0830    -0.5580    -0.7310 C.3   1 <1>   0.2000 
  9 C       -4.3050    -1.8610    -0.5590 C.3   1 <1>  -0.0800 
 10 C        0.6800     2.0780     0.3160 C.3   1 <1>  -0.1600 
 11 C        0.0060     4.1470    -0.9330 C.3   1 <1>  -0.1600 
 12 O       -6.0850    -0.4710     0.2210 O.3   1 <1>  -0.6800 
 13 C       -4.9620    -3.0490    -1.2810 C.3   1 <1>  -0.0170 
 14 C        2.1010     2.6260     0.4200 C.3   1 <1>   0.3430 
 15 C        1.4390     4.6670    -0.7980 C.3   1 <1>   0.3430 
 16 C       -4.1710    -4.3330    -1.0530 C.ar  1 <1>  -0.1440 
 17 N        2.0670     4.1180     0.4420 N.4   1 <1>  -0.9590 
 18 C       -4.2590    -5.0730     0.1500 C.ar  1 <1>   0.0000 
 19 C       -3.3350    -4.8040    -2.0230 C.ar  1 <1>  -0.1500 
 20 C        3.4360     4.6570     0.6650 C.3   1 <1>   0.3430 
 21 C       -3.4610    -6.2370     0.2660 C.ar  1 <1>   0.3100 
 22 C       -5.0910    -4.7300     1.2420 C.ar  1 <1>  -0.1500 
 23 C       -2.5930    -5.9720    -1.8090 C.ar  1 <1>   0.1600 
 24 C        3.3730     6.1260     1.0890 C.3   1 <1>  -0.1600 
 25 N       -2.6360    -6.6720    -0.7210 N.ar  1 <1>  -0.6200 
 26 C       -3.5170    -6.9850     1.4530 C.ar  1 <1>  -0.1500 
 27 C       -5.1240    -5.4830     2.3850 C.ar  1 <1>  -0.1500 
 28 C        4.7690     6.6560     1.4350 C.3   1 <1>  -0.2400 
 29 C       -4.3260    -6.6240     2.4950 C.ar  1 <1>  -0.1500 
 30 H       -1.9580     2.5390    -1.9000 H     1 <1>   0.0800 
 31 H       -2.0290     2.3780    -0.1710 H     1 <1>   0.0800 
 32 H       -4.0220     0.9020     0.4530 H     1 <1>   0.0800 
 33 H       -4.2710     1.3760    -1.2320 H     1 <1>   0.0800 
 34 H       -2.8120    -1.7720    -2.1240 H     1 <1>   0.0800 
 35 H       -2.1460    -2.0630    -0.5270 H     1 <1>   0.0800 
 36 H        0.5080     2.2700    -1.8090 H     1 <1>   0.0800 
 37 H       -5.5350    -0.4950    -1.7070 H     1 <1>   0.0800 
 38 H       -4.2070    -2.0800     0.4890 H     1 <1>   0.0800 
 39 H        0.7400     1.0040     0.2760 H     1 <1>   0.0800 
 40 H        0.1280     2.3360     1.2030 H     1 <1>   0.0800 
 41 H       -0.5930     4.5360    -0.1280 H     1 <1>   0.0800 
 42 H       -0.4080     4.5190    -1.8540 H     1 <1>   0.0800 
 43 H       -5.7180    -0.5860     1.1190 H     1 <1>   0.4000 
 44 H       -5.0160    -2.8400    -2.3350 H     1 <1>   0.0800 
 45 H       -5.9750    -3.1770    -0.9400 H     1 <1>   0.0800 
 46 H        2.6780     2.2850    -0.4260 H     1 <1>   0.0800 
 47 H        2.5640     2.2520     1.3190 H     1 <1>   0.0800 
 48 H        1.4230     5.7440    -0.7630 H     1 <1>   0.0800 
 49 H        2.0120     4.3650    -1.6600 H     1 <1>   0.0800 
 50 H        1.4830     4.3970     1.2390 H     1 <1>   0.4500 
 51 H       -3.2180    -4.2980    -2.9640 H     1 <1>   0.1500 
 52 H        3.9210     4.0950     1.4480 H     1 <1>   0.0800 
 53 H        4.0260     4.5570    -0.2330 H     1 <1>   0.0800 
 54 H       -5.7160    -3.8600     1.1780 H     1 <1>   0.1500 
 55 H       -1.9440    -6.3070    -2.6000 H     1 <1>   0.1500 
 56 H        2.9710     6.7300     0.2950 H     1 <1>   0.0800 
 57 H        2.7440     6.2280     1.9570 H     1 <1>   0.0800 
 58 H       -2.8960    -7.8600     1.5140 H     1 <1>   0.1500 
 59 H       -5.7610    -5.2100     3.2080 H     1 <1>   0.1500 
 60 H        5.4260     6.5920     0.5840 H     1 <1>   0.0800 
 61 H        5.2010     6.0980     2.2490 H     1 <1>   0.0800 
 62 H        4.7070     7.6890     1.7330 H     1 <1>   0.0800 
 63 H       -4.3590    -7.2070     3.3990 H     1 <1>   0.1500 
@<TRIPOS>BOND
  1   1   2  2   
  2   2   3  am  
  3   2   4  1   
  4   3   5  1   
  5   3   6  1   
  6   4   7  1   
  7   4  30  1   
  8   4  31  1   
  9   5   8  1   
 10   5  32  1   
 11   5  33  1   
 12   6   9  1   
 13   6  34  1   
 14   6  35  1   
 15   7  10  1   
 16   7  11  1   
 17   7  36  1   
 18   8   9  1   
 19   8  12  1   
 20   8  37  1   
 21   9  13  1   
 22   9  38  1   
 23  10  14  1   
 24  10  39  1   
 25  10  40  1   
 26  11  15  1   
 27  11  41  1   
 28  11  42  1   
 29  12  43  1   
 30  13  16  1   
 31  13  44  1   
 32  13  45  1   
 33  14  17  1   
 34  14  46  1   
 35  14  47  1   
 36  15  17  1   
 37  15  48  1   
 38  15  49  1   
 39  16  18  ar  
 40  16  19  ar  
 41  17  20  1   
 42  17  50  1   
 43  18  21  ar  
 44  18  22  ar  
 45  19  23  ar  
 46  19  51  1   
 47  20  24  1   
 48  20  52  1   
 49  20  53  1   
 50  21  25  ar  
 51  21  26  ar  
 52  22  27  ar  
 53  22  54  1   
 54  23  25  ar  
 55  23  55  1   
 56  24  28  1   
 57  24  56  1   
 58  24  57  1   
 59  26  29  ar  
 60  26  58  1   
 61  27  29  ar  
 62  27  59  1   
 63  28  60  1   
 64  28  61  1   
 65  28  62  1   
 66  29  63  1   
@<TRIPOS>SUBSTRUCTURE
  1 ****   3 GROUP 4 **** **** 0

# MOE 2024.06 (io_trps.svl 2023.06)
