@<TRIPOS>MOLECULE
NONAME
54 56 1 0 0 
SMALL
USER_CHARGES


@<TRIPOS>ATOM
  1 O       -3.7550     1.6190    -1.2790 O.2   1 <1>  -0.5700 
  2 C       -3.1100     1.0200    -0.4370 C.2   1 <1>   0.5440 
  3 N       -3.7000    -0.0870     0.1380 N.am  1 <1>  -0.6600 
  4 C       -1.7820     1.5010    -0.0840 C.ar  1 <1>   0.0860 
  5 C       -3.1420    -1.4910     0.0800 C.3   1 <1>   0.3640 
  6 C       -5.1730    -0.0640     0.3580 C.3   1 <1>   0.1400 
  7 C       -1.0350     2.2860    -0.9500 C.ar  1 <1>  -0.1500 
  8 C       -1.1520     1.2110     1.1170 C.ar  1 <1>  -0.1500 
  9 C       -1.6770    -1.4980    -0.3720 C.ar  1 <1>  -0.1430 
 10 C       -4.0200    -2.4350    -0.8030 C.3   1 <1>   0.2000 
 11 C       -5.8610    -0.9490    -0.6830 C.3   1 <1>   0.1200 
 12 C        0.2400     2.6980    -0.6110 C.ar  1 <1>   0.1660 
 13 C        0.1370     1.6490     1.3620 C.ar  1 <1>   0.1660 
 14 C       -0.6920    -1.8380     0.5460 C.ar  1 <1>  -0.1500 
 15 C       -1.3040    -1.1620    -1.6690 C.ar  1 <1>  -0.1500 
 16 O       -5.3950    -2.2580    -0.5570 O.3   1 <1>  -0.5600 
 17 C       -3.7710    -3.9400    -0.5730 C.3   1 <1>   0.1200 
 18 N        0.8410     2.3880     0.5230 N.ar  1 <1>  -0.6200 
 19 C        1.0410     3.5550    -1.5680 C.3   1 <1>  -0.0970 
 20 C        0.8330     1.2740     2.6510 C.3   1 <1>  -0.0970 
 21 C        0.6460    -1.8040     0.1980 C.ar  1 <1>   0.0830 
 22 C        0.0340    -1.1170    -2.0240 C.ar  1 <1>  -0.1500 
 23 O       -2.4250    -4.2920    -0.5950 O.3   1 <1>  -0.6800 
 24 O        1.5430    -2.1590     1.1510 O.3   1 <1>  -0.3630 
 25 C        1.0140    -1.4060    -1.0910 C.ar  1 <1>   0.0830 
 26 C        2.3210    -3.3050     0.8820 C.3   1 <1>   0.0400 
 27 O        2.3060    -1.2610    -1.4700 O.3   1 <1>  -0.3630 
 28 C        2.9960    -0.1920    -0.8590 C.3   1 <1>   0.0400 
 29 H       -3.1780    -1.8860     1.0800 H     1 <1>   0.0800 
 30 H       -5.4000    -0.4230     1.3460 H     1 <1>   0.0800 
 31 H       -5.5470     0.9430     0.2760 H     1 <1>   0.0800 
 32 H       -1.4610     2.5680    -1.8950 H     1 <1>   0.1500 
 33 H       -1.6680     0.6230     1.8510 H     1 <1>   0.1500 
 34 H       -3.8570    -2.2110    -1.8410 H     1 <1>   0.0800 
 35 H       -5.6630    -0.5930    -1.6800 H     1 <1>   0.0800 
 36 H       -6.9240    -0.9600    -0.5180 H     1 <1>   0.0800 
 37 H       -0.9490    -2.1300     1.5480 H     1 <1>   0.1500 
 38 H       -2.0480    -0.9030    -2.4030 H     1 <1>   0.1500 
 39 H       -4.2720    -4.5110    -1.3350 H     1 <1>   0.0800 
 40 H       -4.1550    -4.2300     0.3890 H     1 <1>   0.0800 
 41 H        0.4790     3.7740    -2.4570 H     1 <1>   0.0800 
 42 H        1.9430     3.0410    -1.8430 H     1 <1>   0.0800 
 43 H        1.3030     4.4790    -1.0850 H     1 <1>   0.0800 
 44 H        0.1800     0.7230     3.3010 H     1 <1>   0.0800 
 45 H        1.1620     2.1640     3.1560 H     1 <1>   0.0800 
 46 H        1.6900     0.6650     2.4270 H     1 <1>   0.0800 
 47 H        0.3260    -0.8370    -3.0190 H     1 <1>   0.1500 
 48 H       -1.9660    -3.9250    -1.3780 H     1 <1>   0.4000 
 49 H        2.8810    -3.5460     1.7670 H     1 <1>   0.0800 
 50 H        2.9930    -3.0980     0.0690 H     1 <1>   0.0800 
 51 H        1.6640    -4.1180     0.6270 H     1 <1>   0.0800 
 52 H        3.9720    -0.1210    -1.3020 H     1 <1>   0.0800 
 53 H        3.0810    -0.3780     0.1960 H     1 <1>   0.0800 
 54 H        2.4460     0.7170    -1.0280 H     1 <1>   0.0800 
@<TRIPOS>BOND
  1   1   2  2   
  2   2   3  am  
  3   2   4  1   
  4   3   5  1   
  5   3   6  1   
  6   4   7  ar  
  7   4   8  ar  
  8   5   9  1   
  9   5  10  1   
 10   5  29  1   
 11   6  11  1   
 12   6  30  1   
 13   6  31  1   
 14   7  12  ar  
 15   7  32  1   
 16   8  13  ar  
 17   8  33  1   
 18   9  14  ar  
 19   9  15  ar  
 20  10  16  1   
 21  10  17  1   
 22  10  34  1   
 23  11  16  1   
 24  11  35  1   
 25  11  36  1   
 26  12  18  ar  
 27  12  19  1   
 28  13  18  ar  
 29  13  20  1   
 30  14  21  ar  
 31  14  37  1   
 32  15  22  ar  
 33  15  38  1   
 34  17  23  1   
 35  17  39  1   
 36  17  40  1   
 37  19  41  1   
 38  19  42  1   
 39  19  43  1   
 40  20  44  1   
 41  20  45  1   
 42  20  46  1   
 43  21  24  1   
 44  21  25  ar  
 45  22  25  ar  
 46  22  47  1   
 47  23  48  1   
 48  24  26  1   
 49  25  27  1   
 50  26  49  1   
 51  26  50  1   
 52  26  51  1   
 53  27  28  1   
 54  28  52  1   
 55  28  53  1   
 56  28  54  1   
@<TRIPOS>SUBSTRUCTURE
  1 ****   9 GROUP 4 **** **** 0

# MOE 2024.06 (io_trps.svl 2023.06)
