@<TRIPOS>MOLECULE
NONAME
38 40 1 0 0 
SMALL
USER_CHARGES


@<TRIPOS>ATOM
  1 O       -0.5010     0.5280    -1.1710 O.3   1 <1>  -0.3400 
  2 C       -0.2710     1.8050    -0.7750 C.ar  1 <1>   0.0830 
  3 C       -1.7780     0.1510    -1.6500 C.3   1 <1>   0.2580 
  4 C        0.6470     2.0240     0.2500 C.ar  1 <1>  -0.1440 
  5 C       -0.9280     2.8840    -1.3590 C.ar  1 <1>  -0.1500 
  6 C       -2.8790     0.2340    -0.5690 C.3   1 <1>   0.2450 
  7 C       -1.9650    -1.3800    -1.5880 C.3   1 <1>   0.2450 
  8 C        0.8840     3.3190     0.6840 C.ar  1 <1>  -0.1500 
  9 C        1.3890     0.8680     0.9120 C.3   1 <1>  -0.0160 
 10 C       -0.6820     4.1710    -0.9180 C.ar  1 <1>  -0.1500 
 11 N       -3.3260    -1.1510    -0.9860 N.3   1 <1>  -0.5900 
 12 C        0.2240     4.3890     0.1050 C.ar  1 <1>  -0.1500 
 13 C        0.5360     0.2350     2.0150 C.3   1 <1>  -0.2400 
 14 C       -3.7930    -2.0620    -0.0570 C.ar  1 <1>   0.4100 
 15 N       -4.0100    -1.6430     1.1850 N.ar  1 <1>  -0.6200 
 16 C       -4.0290    -3.3730    -0.4570 C.ar  1 <1>  -0.1500 
 17 C       -4.4600    -2.5420     2.0400 C.ar  1 <1>   0.1600 
 18 C       -4.4980    -4.3130     0.4360 C.ar  1 <1>   0.0730 
 19 C       -4.7150    -3.8620     1.7270 C.ar  1 <1>  -0.1500 
 20 C       -4.7500    -5.6730     0.0550 C.1   1 <1>   0.4840 
 21 N       -4.9470    -6.7560    -0.2440 N.1   1 <1>  -0.5570 
 22 H       -2.0120     0.5920    -2.6030 H     1 <1>   0.0000 
 23 H       -1.6270     2.7390    -2.1610 H     1 <1>   0.1500 
 24 H       -3.6330     0.9710    -0.7770 H     1 <1>   0.0000 
 25 H       -2.4900     0.2600     0.4340 H     1 <1>   0.0000 
 26 H       -1.3080    -1.8770    -0.8950 H     1 <1>   0.0000 
 27 H       -2.0370    -1.8470    -2.5530 H     1 <1>   0.0000 
 28 H        1.5860     3.5010     1.4790 H     1 <1>   0.1500 
 29 H        2.3120     1.2240     1.3360 H     1 <1>   0.0800 
 30 H        1.6420     0.1250     0.1760 H     1 <1>   0.0800 
 31 H       -1.1920     5.0040    -1.3690 H     1 <1>   0.1500 
 32 H        0.4150     5.3890     0.4510 H     1 <1>   0.1500 
 33 H        0.2820     0.9720     2.7560 H     1 <1>   0.0800 
 34 H        1.0770    -0.5640     2.4890 H     1 <1>   0.0800 
 35 H       -0.3720    -0.1630     1.5990 H     1 <1>   0.0800 
 36 H       -3.8430    -3.6410    -1.4800 H     1 <1>   0.1500 
 37 H       -4.6360    -2.2040     3.0480 H     1 <1>   0.1500 
 38 H       -5.0820    -4.5330     2.4830 H     1 <1>   0.1500 
@<TRIPOS>BOND
  1   1   2  1   
  2   1   3  1   
  3   2   4  ar  
  4   2   5  ar  
  5   3   6  1   
  6   3   7  1   
  7   3  22  1   
  8   4   8  ar  
  9   4   9  1   
 10   5  10  ar  
 11   5  23  1   
 12   6  11  1   
 13   6  24  1   
 14   6  25  1   
 15   7  11  1   
 16   7  26  1   
 17   7  27  1   
 18   8  12  ar  
 19   8  28  1   
 20   9  13  1   
 21   9  29  1   
 22   9  30  1   
 23  10  12  ar  
 24  10  31  1   
 25  11  14  1   
 26  12  32  1   
 27  13  33  1   
 28  13  34  1   
 29  13  35  1   
 30  14  15  ar  
 31  14  16  ar  
 32  15  17  ar  
 33  16  18  ar  
 34  16  36  1   
 35  17  19  ar  
 36  17  37  1   
 37  18  19  ar  
 38  18  20  1   
 39  19  38  1   
 40  20  21  3   
@<TRIPOS>SUBSTRUCTURE
  1 ****   6 GROUP 4 **** **** 0

# MOE 2024.06 (io_trps.svl 2023.06)
