@<TRIPOS>MOLECULE
NONAME
41 42 1 0 0 
SMALL
USER_CHARGES


@<TRIPOS>ATOM
  1 S       -0.2880     0.2130    -0.8370 S.o2  1 <1>   1.3330 
  2 O        0.0460     1.0240    -1.9860 O.2   1 <1>  -0.6500 
  3 O       -1.0620    -0.9940    -1.0160 O.2   1 <1>  -0.6500 
  4 N        1.1610    -0.2350    -0.0700 N.am  1 <1>  -0.8490 
  5 C       -1.0980     1.2400     0.3980 C.3   1 <1>  -0.0550 
  6 C        1.0290    -1.4110     0.7970 C.3   1 <1>   0.1160 
  7 C        2.2610    -0.4370    -1.0190 C.3   1 <1>   0.1160 
  8 C       -0.5760     2.6830     0.5840 C.3   1 <1>  -0.0800 
  9 C       -0.9810     3.6460    -0.5340 C.3   1 <1>   0.2000 
 10 C        0.9360     2.8710     0.7090 C.3   1 <1>   0.1400 
 11 O       -2.2680     4.1050    -0.2920 O.3   1 <1>  -0.6800 
 12 C        0.0400     4.7880    -0.4860 C.3   1 <1>   0.1400 
 13 N        1.1480     4.2940     0.3720 N.am  1 <1>  -0.6600 
 14 C        2.2720     5.0050     0.7550 C.2   1 <1>   0.7160 
 15 O        3.0910     4.4120     1.4410 O.2   1 <1>  -0.5700 
 16 C        2.5310     6.4000     0.3930 C.2   1 <1>   0.1410 
 17 N        1.7060     7.2190    -0.3340 N.2   1 <1>  -0.5650 
 18 C        3.6440     7.1190     0.7260 C.2   1 <1>  -0.3020 
 19 C        2.3300     8.3450    -0.4080 C.2   1 <1>   0.0360 
 20 N        3.5220     8.3500     0.2210 N.pl3 1 <1>   0.0480 
 21 C        4.4790     9.4630     0.3290 C.3   1 <1>   0.0160 
 22 H       -2.1400     1.3060     0.1480 H     1 <1>   0.0800 
 23 H       -1.0410     0.7370     1.3430 H     1 <1>   0.0800 
 24 H        1.9490    -1.5830     1.3310 H     1 <1>   0.0800 
 25 H        0.7950    -2.2860     0.2120 H     1 <1>   0.0800 
 26 H        0.2430    -1.2580     1.5160 H     1 <1>   0.0800 
 27 H        3.1630    -0.7030    -0.4950 H     1 <1>   0.0800 
 28 H        2.4490     0.4720    -1.5660 H     1 <1>   0.0800 
 29 H        2.0120    -1.2170    -1.7200 H     1 <1>   0.0800 
 30 H       -0.9920     3.0560     1.5040 H     1 <1>   0.0800 
 31 H       -0.9660     3.1840    -1.5050 H     1 <1>   0.0800 
 32 H        1.4780     2.2810    -0.0070 H     1 <1>   0.0800 
 33 H        1.2870     2.6450     1.7020 H     1 <1>   0.0800 
 34 H       -2.2800     4.6650     0.5080 H     1 <1>   0.4000 
 35 H       -0.3890     5.6740    -0.0510 H     1 <1>   0.0800 
 36 H        0.4110     5.0060    -1.4720 H     1 <1>   0.0800 
 37 H        4.4930     6.7850     1.2950 H     1 <1>   0.1500 
 38 H        1.9530     9.2140    -0.9190 H     1 <1>   0.1500 
 39 H        5.3310     9.1510     0.9050 H     1 <1>   0.0800 
 40 H        4.0040    10.2950     0.8160 H     1 <1>   0.0800 
 41 H        4.8000     9.7540    -0.6550 H     1 <1>   0.0800 
@<TRIPOS>BOND
  1   1   2  2   
  2   1   3  2   
  3   1   4  am  
  4   1   5  1   
  5   4   6  1   
  6   4   7  1   
  7   5   8  1   
  8   5  22  1   
  9   5  23  1   
 10   6  24  1   
 11   6  25  1   
 12   6  26  1   
 13   7  27  1   
 14   7  28  1   
 15   7  29  1   
 16   8   9  1   
 17   8  10  1   
 18   8  30  1   
 19   9  11  1   
 20   9  12  1   
 21   9  31  1   
 22  10  13  1   
 23  10  32  1   
 24  10  33  1   
 25  11  34  1   
 26  12  13  1   
 27  12  35  1   
 28  12  36  1   
 29  13  14  am  
 30  14  15  2   
 31  14  16  1   
 32  16  17  1   
 33  16  18  2   
 34  17  19  2   
 35  18  20  1   
 36  18  37  1   
 37  19  20  1   
 38  19  38  1   
 39  20  21  1   
 40  21  39  1   
 41  21  40  1   
 42  21  41  1   
@<TRIPOS>SUBSTRUCTURE
  1 ****  13 GROUP 4 **** **** 0

# MOE 2024.06 (io_trps.svl 2023.06)
