@<TRIPOS>MOLECULE
NONAME
63 65 1 0 0 
SMALL
USER_CHARGES


@<TRIPOS>ATOM
  1 O        0.6390    -0.4550     1.7720 O.2   1 <1>  -0.5700 
  2 C        1.5480    -0.7640     1.0230 C.2   1 <1>   0.7150 
  3 N        2.3520     0.2270     0.4980 N.am  1 <1>  -0.6600 
  4 C        1.7370    -2.1410     0.6780 C.2   1 <1>  -0.2370 
  5 C        3.1980     0.0000    -0.7120 C.3   1 <1>   0.1400 
  6 C        2.1700     1.6350     0.9510 C.3   1 <1>   0.1400 
  7 N        0.7700    -2.9150     0.1260 N.pl3 1 <1>   0.3140 
  8 C        2.8260    -2.9500     0.7900 C.2   1 <1>  -0.1500 
  9 C        4.6900    -0.0960    -0.3530 C.3   1 <1>   0.1100 
 10 C        3.3930     2.5320     0.7230 C.3   1 <1>  -0.1600 
 11 N        1.2090    -4.1550    -0.1430 N.2   1 <1>  -0.7070 
 12 C       -0.6220    -2.5210    -0.1950 C.3   1 <1>   0.0960 
 13 C        2.4420    -4.1720     0.2660 C.2   1 <1>   0.1080 
 14 N        5.3260     1.2120    -0.0620 N.3   1 <1>  -0.8100 
 15 C        4.7240     1.8810     1.1090 C.3   1 <1>   0.1100 
 16 C       -0.6820    -1.6560    -1.4610 C.3   1 <1>  -0.2400 
 17 C        3.3210    -5.4130     0.1640 C.3   1 <1>   0.1010 
 18 C        6.8000     1.0500     0.1130 C.3   1 <1>   0.2540 
 19 C        3.7160    -5.9160     1.5570 C.3   1 <1>  -0.2400 
 20 C        4.5670    -5.1350    -0.6860 C.3   1 <1>  -0.2400 
 21 C        7.5830     2.3490    -0.1530 C.cat 1 <1>   0.6560 
 22 N        7.0440     3.3790    -0.7780 N.pl3 1 <1>  -0.7000 
 23 N        8.8470     2.6320     0.1720 N.pl3 1 <1>  -0.7640 
 24 C        7.9730     4.3710    -0.8700 C.2   1 <1>   0.1820 
 25 C        9.1000     3.9110    -0.2780 C.2   1 <1>   0.1820 
 26 C        9.8340     1.7660     0.8760 C.3   1 <1>   0.2740 
 27 C        7.6420     5.6890    -1.5430 C.3   1 <1>  -0.0720 
 28 C       10.4480     4.5870    -0.0900 C.3   1 <1>  -0.0720 
 29 H        3.0430     0.7890    -1.4270 H     1 <1>   0.0800 
 30 H        2.9030    -0.9170    -1.1920 H     1 <1>   0.0800 
 31 H        1.9510     1.6260     2.0070 H     1 <1>   0.0800 
 32 H        1.3150     2.0550     0.4490 H     1 <1>   0.0800 
 33 H        3.7880    -2.7160     1.2020 H     1 <1>   0.1500 
 34 H        5.1880    -0.5360    -1.2000 H     1 <1>   0.0800 
 35 H        4.8120    -0.7630     0.4820 H     1 <1>   0.0800 
 36 H        3.2550     3.4060     1.3340 H     1 <1>   0.0800 
 37 H        3.4220     2.8700    -0.2970 H     1 <1>   0.0800 
 38 H       -1.0370    -1.9930     0.6440 H     1 <1>   0.0800 
 39 H       -1.1940    -3.4190    -0.3430 H     1 <1>   0.0800 
 40 H        4.5870     1.1860     1.9220 H     1 <1>   0.0800 
 41 H        5.3800     2.6630     1.4520 H     1 <1>   0.0800 
 42 H       -0.1490    -0.7330    -1.3160 H     1 <1>   0.0800 
 43 H       -1.7060    -1.4230    -1.6910 H     1 <1>   0.0800 
 44 H       -0.2580    -2.1900    -2.2930 H     1 <1>   0.0800 
 45 H        2.7450    -6.1820    -0.3220 H     1 <1>   0.0800 
 46 H        7.1640     0.3180    -0.5860 H     1 <1>   0.0800 
 47 H        7.0110     0.6960     1.1070 H     1 <1>   0.0800 
 48 H        4.3050    -5.1810     2.0750 H     1 <1>   0.0800 
 49 H        4.2830    -6.8260     1.4790 H     1 <1>   0.0800 
 50 H        2.8290    -6.1130     2.1330 H     1 <1>   0.0800 
 51 H        5.1860    -4.3900    -0.2210 H     1 <1>   0.0800 
 52 H        4.2700    -4.7830    -1.6580 H     1 <1>   0.0800 
 53 H        5.1400    -6.0360    -0.8090 H     1 <1>   0.0800 
 54 H        6.0720     3.3570    -1.1050 H     1 <1>   0.4500 
 55 H        9.4060     0.8080     1.1130 H     1 <1>   0.0800 
 56 H       10.1480     2.2390     1.7910 H     1 <1>   0.0800 
 57 H       10.6960     1.6110     0.2500 H     1 <1>   0.0800 
 58 H        6.8250     6.1660    -1.0330 H     1 <1>   0.0800 
 59 H        7.3590     5.5150    -2.5660 H     1 <1>   0.0800 
 60 H        8.4870     6.3510    -1.5300 H     1 <1>   0.0800 
 61 H       11.2170     4.0180    -0.5810 H     1 <1>   0.0800 
 62 H       10.6790     4.6620     0.9570 H     1 <1>   0.0800 
 63 H       10.4410     5.5760    -0.5070 H     1 <1>   0.0800 
@<TRIPOS>BOND
  1   1   2  2   
  2   2   3  am  
  3   2   4  1   
  4   3   5  1   
  5   3   6  1   
  6   4   7  1   
  7   4   8  2   
  8   5   9  1   
  9   5  29  1   
 10   5  30  1   
 11   6  10  1   
 12   6  31  1   
 13   6  32  1   
 14   7  11  1   
 15   7  12  1   
 16   8  13  1   
 17   8  33  1   
 18   9  14  1   
 19   9  34  1   
 20   9  35  1   
 21  10  15  1   
 22  10  36  1   
 23  10  37  1   
 24  11  13  2   
 25  12  16  1   
 26  12  38  1   
 27  12  39  1   
 28  13  17  1   
 29  14  15  1   
 30  14  18  1   
 31  15  40  1   
 32  15  41  1   
 33  16  42  1   
 34  16  43  1   
 35  16  44  1   
 36  17  19  1   
 37  17  20  1   
 38  17  45  1   
 39  18  21  1   
 40  18  46  1   
 41  18  47  1   
 42  19  48  1   
 43  19  49  1   
 44  19  50  1   
 45  20  51  1   
 46  20  52  1   
 47  20  53  1   
 48  21  22  ar  
 49  21  23  ar  
 50  22  24  1   
 51  22  54  1   
 52  23  25  1   
 53  23  26  1   
 54  24  25  2   
 55  24  27  1   
 56  25  28  1   
 57  26  55  1   
 58  26  56  1   
 59  26  57  1   
 60  27  58  1   
 61  27  59  1   
 62  27  60  1   
 63  28  61  1   
 64  28  62  1   
 65  28  63  1   
@<TRIPOS>SUBSTRUCTURE
  1 ****   9 GROUP 4 **** **** 0

# MOE 2024.06 (io_trps.svl 2023.06)
