@<TRIPOS>MOLECULE
NONAME
51 53 1 0 0 
SMALL
USER_CHARGES


@<TRIPOS>ATOM
  1 O       -1.7800     0.3350    -2.1040 O.2   1 <1>  -0.5700 
  2 C       -1.8570     0.7730    -0.9720 C.2   1 <1>   0.5440 
  3 N       -1.9450    -0.1230     0.0540 N.am  1 <1>  -0.7300 
  4 C       -1.8550     2.2050    -0.7180 C.ar  1 <1>   0.0860 
  5 C       -1.8990    -1.5980    -0.0850 C.3   1 <1>   0.2200 
  6 C       -1.3220     3.0960    -1.6490 C.ar  1 <1>  -0.1500 
  7 C       -2.3780     2.7540     0.4560 C.ar  1 <1>  -0.1500 
  8 C       -3.2820    -2.2120     0.0840 C.3   1 <1>  -0.0800 
  9 C       -1.1880    -2.1790     1.1280 C.3   1 <1>   0.1200 
 10 C       -1.3000     4.4590    -1.4210 C.ar  1 <1>  -0.1500 
 11 C       -2.3580     4.1170     0.6890 C.ar  1 <1>  -0.1500 
 12 C       -3.4230    -2.3340     1.6050 C.3   1 <1>   0.1200 
 13 C       -4.4390    -1.4650    -0.6050 C.3   1 <1>  -0.0160 
 14 O       -2.1430    -2.1660     2.1460 O.3   1 <1>  -0.5600 
 15 C       -1.8160     4.9810    -0.2470 C.ar  1 <1>  -0.1430 
 16 C       -5.7460    -2.2280    -0.4490 C.ar  1 <1>  -0.1430 
 17 C       -1.7930     6.4830     0.0130 C.3   1 <1>  -0.0170 
 18 C       -6.6770    -1.9020     0.5170 C.ar  1 <1>  -0.1500 
 19 C       -6.0650    -3.2900    -1.2690 C.ar  1 <1>  -0.1500 
 20 C       -0.7050     6.8910     1.0230 C.3   1 <1>  -0.0800 
 21 C       -7.8460    -2.6390     0.6160 C.ar  1 <1>   0.1600 
 22 C       -7.2630    -3.9610    -1.0860 C.ar  1 <1>   0.1600 
 23 C       -0.7920     8.3930     1.3230 C.3   1 <1>  -0.2400 
 24 C        0.7030     6.5470     0.5170 C.3   1 <1>  -0.2400 
 25 N       -8.1600    -3.6620    -0.1610 N.ar  1 <1>  -0.6200 
 26 H       -1.9720     0.1970     1.0230 H     1 <1>   0.3700 
 27 H       -1.4270    -1.8810    -1.0110 H     1 <1>   0.0800 
 28 H       -0.9180     2.7070    -2.5680 H     1 <1>   0.1500 
 29 H       -2.8140     2.1120     1.1990 H     1 <1>   0.1500 
 30 H       -3.2460    -3.2110    -0.3160 H     1 <1>   0.0800 
 31 H       -0.3290    -1.6050     1.4250 H     1 <1>   0.0800 
 32 H       -0.9050    -3.2020     0.9520 H     1 <1>   0.0800 
 33 H       -0.8760     5.1140    -2.1630 H     1 <1>   0.1500 
 34 H       -2.7660     4.5080     1.6040 H     1 <1>   0.1500 
 35 H       -3.8020    -3.3000     1.8940 H     1 <1>   0.0800 
 36 H       -4.0510    -1.5610     2.0110 H     1 <1>   0.0800 
 37 H       -4.2160    -1.3490    -1.6510 H     1 <1>   0.0800 
 38 H       -4.5510    -0.4780    -0.1900 H     1 <1>   0.0800 
 39 H       -1.6390     7.0090    -0.9130 H     1 <1>   0.0800 
 40 H       -2.7570     6.7780     0.3890 H     1 <1>   0.0800 
 41 H       -6.5070    -1.0840     1.1920 H     1 <1>   0.1500 
 42 H       -5.3950    -3.6020    -2.0490 H     1 <1>   0.1500 
 43 H       -0.8740     6.3540     1.9420 H     1 <1>   0.0800 
 44 H       -8.5610    -2.3710     1.3760 H     1 <1>   0.1500 
 45 H       -7.4950    -4.7880    -1.7360 H     1 <1>   0.1500 
 46 H       -0.6220     8.9690     0.4300 H     1 <1>   0.0800 
 47 H       -0.0550     8.6710     2.0550 H     1 <1>   0.0800 
 48 H       -1.7630     8.6420     1.7130 H     1 <1>   0.0800 
 49 H        0.9010     7.0390    -0.4190 H     1 <1>   0.0800 
 50 H        0.8050     5.4860     0.3750 H     1 <1>   0.0800 
 51 H        1.4440     6.8580     1.2320 H     1 <1>   0.0800 
@<TRIPOS>BOND
  1   1   2  2   
  2   2   3  am  
  3   2   4  1   
  4   3   5  1   
  5   3  26  1   
  6   4   6  ar  
  7   4   7  ar  
  8   5   8  1   
  9   5   9  1   
 10   5  27  1   
 11   6  10  ar  
 12   6  28  1   
 13   7  11  ar  
 14   7  29  1   
 15   8  12  1   
 16   8  13  1   
 17   8  30  1   
 18   9  14  1   
 19   9  31  1   
 20   9  32  1   
 21  10  15  ar  
 22  10  33  1   
 23  11  15  ar  
 24  11  34  1   
 25  12  14  1   
 26  12  35  1   
 27  12  36  1   
 28  13  16  1   
 29  13  37  1   
 30  13  38  1   
 31  15  17  1   
 32  16  18  ar  
 33  16  19  ar  
 34  17  20  1   
 35  17  39  1   
 36  17  40  1   
 37  18  21  ar  
 38  18  41  1   
 39  19  22  ar  
 40  19  42  1   
 41  20  23  1   
 42  20  24  1   
 43  20  43  1   
 44  21  25  ar  
 45  21  44  1   
 46  22  25  ar  
 47  22  45  1   
 48  23  46  1   
 49  23  47  1   
 50  23  48  1   
 51  24  49  1   
 52  24  50  1   
 53  24  51  1   
@<TRIPOS>SUBSTRUCTURE
  1 ****   3 GROUP 4 **** **** 0

# MOE 2024.06 (io_trps.svl 2023.06)
