@<TRIPOS>MOLECULE
NONAME
44 45 1 0 0 
SMALL
USER_CHARGES


@<TRIPOS>ATOM
  1 O        1.1290    -2.8500    -1.0580 O.2   1 <1>  -0.5700 
  2 C        0.1410    -2.4130    -0.5020 C.2   1 <1>   0.5440 
  3 N        0.2680    -1.2980     0.2810 N.am  1 <1>  -0.7300 
  4 C       -1.1400    -3.0580    -0.6780 C.ar  1 <1>   0.0860 
  5 C        1.5350    -0.5840     0.5380 C.3   1 <1>   0.1400 
  6 C       -1.4010    -3.8090    -1.8240 C.ar  1 <1>   0.1600 
  7 C       -2.1650    -2.9810     0.2630 C.ar  1 <1>  -0.1500 
  8 C        1.5210    -0.0710     1.9730 C.3   1 <1>  -0.2400 
  9 N       -2.5270    -4.4450    -2.1000 N.ar  1 <1>  -0.6200 
 10 C       -3.3430    -3.6320    -0.0100 C.ar  1 <1>  -0.1500 
 11 C       -3.4820    -4.3480    -1.1950 C.ar  1 <1>   0.4100 
 12 N       -4.6190    -5.0180    -1.5040 N.pl3 1 <1>  -0.8690 
 13 C       -5.0520    -6.1780    -0.7000 C.3   1 <1>   0.4690 
 14 C       -4.7360    -7.4440    -1.5040 C.2   1 <1>   0.0060 
 15 C       -6.5500    -6.0420    -0.3110 C.3   1 <1>  -0.0800 
 16 N       -5.5770    -8.1320    -2.2010 N.2   1 <1>  -0.5650 
 17 N       -3.5060    -7.9760    -1.5840 N.pl3 1 <1>   0.3140 
 18 C       -6.8910    -4.6920     0.3520 C.3   1 <1>  -0.2400 
 19 C       -6.9930    -7.1660     0.6440 C.3   1 <1>  -0.2400 
 20 C       -4.8010    -9.1050    -2.6870 C.2   1 <1>   0.3660 
 21 N       -3.5580    -9.0600    -2.3440 N.2   1 <1>  -0.7070 
 22 C       -2.2230    -7.5290    -1.0160 C.3   1 <1>   0.0160 
 23 H       -0.5680    -0.8300     0.6300 H     1 <1>   0.3700 
 24 H        1.6290     0.2370    -0.1520 H     1 <1>   0.0800 
 25 H        2.3700    -1.2500     0.3930 H     1 <1>   0.0800 
 26 H       -0.6160    -3.8800    -2.5590 H     1 <1>   0.1500 
 27 H       -2.0370    -2.4300     1.1780 H     1 <1>   0.1500 
 28 H        0.7080     0.6170     2.1210 H     1 <1>   0.0800 
 29 H        2.4430     0.4420     2.1790 H     1 <1>   0.0800 
 30 H        1.4300    -0.8940     2.6600 H     1 <1>   0.0800 
 31 H       -4.1680    -3.5940     0.6760 H     1 <1>   0.1500 
 32 H       -4.6490    -5.2710    -2.4960 H     1 <1>   0.4000 
 33 H       -4.4840    -6.2020     0.2130 H     1 <1>   0.0800 
 34 H       -7.1310    -6.1240    -1.2140 H     1 <1>   0.0800 
 35 H       -6.3340    -4.5630     1.2620 H     1 <1>   0.0800 
 36 H       -7.9400    -4.6470     0.5830 H     1 <1>   0.0800 
 37 H       -6.6670    -3.8760    -0.3130 H     1 <1>   0.0800 
 38 H       -6.4380    -7.1290     1.5650 H     1 <1>   0.0800 
 39 H       -6.8460    -8.1320     0.1940 H     1 <1>   0.0800 
 40 H       -8.0400    -7.0700     0.8720 H     1 <1>   0.0800 
 41 H       -5.2110    -9.8710    -3.3260 H     1 <1>   0.1500 
 42 H       -2.3880    -6.8580    -0.1960 H     1 <1>   0.0800 
 43 H       -1.6630    -7.0290    -1.7850 H     1 <1>   0.0800 
 44 H       -1.6730    -8.3860    -0.6780 H     1 <1>   0.0800 
@<TRIPOS>BOND
  1   1   2  2   
  2   2   3  am  
  3   2   4  1   
  4   3   5  1   
  5   3  23  1   
  6   4   6  ar  
  7   4   7  ar  
  8   5   8  1   
  9   5  24  1   
 10   5  25  1   
 11   6   9  ar  
 12   6  26  1   
 13   7  10  ar  
 14   7  27  1   
 15   8  28  1   
 16   8  29  1   
 17   8  30  1   
 18   9  11  ar  
 19  10  11  ar  
 20  10  31  1   
 21  11  12  1   
 22  12  13  1   
 23  12  32  1   
 24  13  14  1   
 25  13  15  1   
 26  13  33  1   
 27  14  16  2   
 28  14  17  1   
 29  15  18  1   
 30  15  19  1   
 31  15  34  1   
 32  16  20  1   
 33  17  21  1   
 34  17  22  1   
 35  18  35  1   
 36  18  36  1   
 37  18  37  1   
 38  19  38  1   
 39  19  39  1   
 40  19  40  1   
 41  20  21  2   
 42  20  41  1   
 43  22  42  1   
 44  22  43  1   
 45  22  44  1   
@<TRIPOS>SUBSTRUCTURE
  1 ****  11 GROUP 4 **** **** 0

# MOE 2024.06 (io_trps.svl 2023.06)
