@<TRIPOS>MOLECULE
NONAME
46 49 1 0 0 
SMALL
USER_CHARGES


@<TRIPOS>ATOM
  1 S        0.5120    -0.6030    -1.4030 S.3   1 <1>  -0.0800 
  2 C        0.5320     0.8180    -0.4060 C.2   1 <1>  -0.1400 
  3 C        0.2660    -1.5630     0.0480 C.2   1 <1>   0.1980 
  4 C        0.3690     0.4600     0.8710 C.2   1 <1>   0.0460 
  5 C        0.7130     2.2080    -0.9710 C.3   1 <1>   0.0200 
  6 N        0.2110    -0.8900     1.1290 N.2   1 <1>  -0.5650 
  7 C        0.1380    -3.0600    -0.1180 C.3   1 <1>   0.0200 
  8 C        0.3530     1.4730     1.9970 C.3   1 <1>   0.0210 
  9 C        0.3500     3.2350     0.1210 C.3   1 <1>  -0.1600 
 10 C       -1.2570    -3.4150    -0.6270 C.3   1 <1>   0.1400 
 11 C        0.8950     2.8360     1.5110 C.3   1 <1>  -0.1600 
 12 N       -1.4090    -4.8870    -0.7100 N.am  1 <1>  -0.7300 
 13 C       -1.1770    -5.6360    -1.8180 C.2   1 <1>   0.6300 
 14 O       -0.8100    -5.1450    -2.8570 O.2   1 <1>  -0.5700 
 15 C       -1.3890    -7.1370    -1.7370 C.3   1 <1>  -0.0200 
 16 C       -1.8320    -7.7780    -0.4720 C.2   1 <1>  -0.0680 
 17 C       -0.5650    -7.9980    -0.8520 C.2   1 <1>  -0.1780 
 18 C       -2.9290    -7.9510     0.4430 C.ar  1 <1>   0.0280 
 19 C        0.7960    -8.6240    -0.6410 C.3   1 <1>  -0.1020 
 20 C       -4.1520    -7.3280     0.2160 C.ar  1 <1>  -0.1500 
 21 C       -2.7910    -8.7370     1.5810 C.ar  1 <1>  -0.1500 
 22 C       -5.2050    -7.4830     1.0990 C.ar  1 <1>  -0.1500 
 23 C       -3.8400    -8.8960     2.4680 C.ar  1 <1>  -0.1500 
 24 C       -5.0500    -8.2680     2.2280 C.ar  1 <1>  -0.1500 
 25 H        0.0820     2.3450    -1.8310 H     1 <1>   0.0800 
 26 H        1.7390     2.3310    -1.2720 H     1 <1>   0.0800 
 27 H        0.3050    -3.5260     0.8350 H     1 <1>   0.0800 
 28 H        0.8820    -3.4060    -0.8130 H     1 <1>   0.0800 
 29 H        0.9540     1.1120     2.8130 H     1 <1>   0.0800 
 30 H       -0.6590     1.5780     2.3440 H     1 <1>   0.0800 
 31 H       -0.7220     3.3080     0.1820 H     1 <1>   0.0800 
 32 H        0.7290     4.2030    -0.1590 H     1 <1>   0.0800 
 33 H       -1.4080    -2.9810    -1.6020 H     1 <1>   0.0800 
 34 H       -2.0030    -3.0150     0.0400 H     1 <1>   0.0800 
 35 H        1.9690     2.7770     1.4550 H     1 <1>   0.0800 
 36 H        0.6470     3.5950     2.2330 H     1 <1>   0.0800 
 37 H       -1.6850    -5.3700     0.1490 H     1 <1>   0.3700 
 38 H       -1.7320    -7.5380    -2.6720 H     1 <1>   0.1000 
 39 H        1.0330    -9.2730    -1.4650 H     1 <1>   0.0800 
 40 H        0.8000    -9.1970     0.2690 H     1 <1>   0.0800 
 41 H        1.5460    -7.8570    -0.5750 H     1 <1>   0.0800 
 42 H       -4.2780    -6.7180    -0.6610 H     1 <1>   0.1500 
 43 H       -1.8520    -9.2260     1.7690 H     1 <1>   0.1500 
 44 H       -6.1450    -6.9950     0.9090 H     1 <1>   0.1500 
 45 H       -3.7180    -9.5090     3.3450 H     1 <1>   0.1500 
 46 H       -5.8680    -8.3910     2.9160 H     1 <1>   0.1500 
@<TRIPOS>BOND
  1   1   2  1   
  2   1   3  1   
  3   2   4  2   
  4   2   5  1   
  5   3   6  2   
  6   3   7  1   
  7   4   6  1   
  8   4   8  1   
  9   5   9  1   
 10   5  25  1   
 11   5  26  1   
 12   7  10  1   
 13   7  27  1   
 14   7  28  1   
 15   8  11  1   
 16   8  29  1   
 17   8  30  1   
 18   9  11  1   
 19   9  31  1   
 20   9  32  1   
 21  10  12  1   
 22  10  33  1   
 23  10  34  1   
 24  11  35  1   
 25  11  36  1   
 26  12  13  am  
 27  12  37  1   
 28  13  14  2   
 29  13  15  1   
 30  15  16  1   
 31  15  17  1   
 32  15  38  1   
 33  16  17  2   
 34  16  18  1   
 35  17  19  1   
 36  18  20  ar  
 37  18  21  ar  
 38  19  39  1   
 39  19  40  1   
 40  19  41  1   
 41  20  22  ar  
 42  20  42  1   
 43  21  23  ar  
 44  21  43  1   
 45  22  24  ar  
 46  22  44  1   
 47  23  24  ar  
 48  23  45  1   
 49  24  46  1   
@<TRIPOS>SUBSTRUCTURE
  1 ****  10 GROUP 4 **** **** 0

# MOE 2024.06 (io_trps.svl 2023.06)
