@<TRIPOS>MOLECULE
NONAME
40 41 1 0 0 
SMALL
USER_CHARGES


@<TRIPOS>ATOM
  1 S       -0.2640    -0.2030    -1.0850 S.3   1 <1>  -0.0800 
  2 C       -1.3570    -0.9320     0.0490 C.2   1 <1>   0.4420 
  3 C       -0.5060     1.2900    -0.2460 C.2   1 <1>   0.1980 
  4 N       -1.7880    -0.0830     0.9120 N.2   1 <1>  -0.3380 
  5 N       -1.6030    -2.2770    -0.1050 N.am  1 <1>  -0.4940 
  6 N       -1.3000     1.1800     0.7370 N.2   1 <1>  -0.3380 
  7 C        0.2120     2.5280    -0.7340 C.3   1 <1>   0.0200 
  8 C       -2.5150    -3.0790     0.5320 C.2   1 <1>   0.7150 
  9 C       -0.2100     3.7190     0.1350 C.3   1 <1>   0.3430 
 10 O       -3.3810    -2.5820     1.2240 O.2   1 <1>  -0.5700 
 11 C       -2.4180    -4.5070     0.3360 C.2   1 <1>   0.0550 
 12 N        0.3980     5.0180    -0.3080 N.4   1 <1>  -0.9590 
 13 O       -3.4800    -5.2940     0.4730 O.3   1 <1>  -0.2800 
 14 C       -1.3530    -5.2890    -0.0070 C.2   1 <1>  -0.1500 
 15 C        1.8770     5.0710    -0.0740 C.3   1 <1>   0.2630 
 16 C       -0.2710     6.1510     0.4060 C.3   1 <1>   0.2630 
 17 C       -3.1340    -6.5370     0.2240 C.2   1 <1>  -0.0400 
 18 C       -1.8200    -6.6010    -0.0780 C.2   1 <1>  -0.1500 
 19 C       -4.1830    -7.6290     0.3130 C.3   1 <1>   0.2500 
 20 S       -5.0950    -7.6880    -1.2580 S.3   1 <1>  -0.4600 
 21 C       -6.4660    -8.8210    -0.9080 C.3   1 <1>  -0.0100 
 22 H       -1.0650    -2.7470    -0.8250 H     1 <1>   0.3700 
 23 H       -0.0590     2.7020    -1.7590 H     1 <1>   0.0800 
 24 H        1.2710     2.3590    -0.6620 H     1 <1>   0.0800 
 25 H        0.0590     3.5200     1.1610 H     1 <1>   0.0800 
 26 H       -1.2860     3.7960     0.0960 H     1 <1>   0.0800 
 27 H        0.2170     5.1380    -1.3180 H     1 <1>   0.4500 
 28 H       -0.3360    -4.9950    -0.1900 H     1 <1>   0.1500 
 29 H        2.0970     4.9350     0.9730 H     1 <1>   0.0800 
 30 H        2.2710     6.0260    -0.3850 H     1 <1>   0.0800 
 31 H        2.3780     4.2990    -0.6350 H     1 <1>   0.0800 
 32 H       -0.1150     6.0680     1.4700 H     1 <1>   0.0800 
 33 H       -1.3320     6.1420     0.2140 H     1 <1>   0.0800 
 34 H        0.1290     7.0950     0.0720 H     1 <1>   0.0800 
 35 H       -1.2330    -7.4680    -0.3280 H     1 <1>   0.1500 
 36 H       -4.8870    -7.4250     1.0990 H     1 <1>   0.0800 
 37 H       -3.7310    -8.5940     0.4520 H     1 <1>   0.0800 
 38 H       -7.0530    -8.9080    -1.8050 H     1 <1>   0.0800 
 39 H       -7.0510    -8.3990    -0.1100 H     1 <1>   0.0800 
 40 H       -6.0520    -9.7720    -0.6280 H     1 <1>   0.0800 
@<TRIPOS>BOND
  1   1   2  1   
  2   1   3  1   
  3   2   4  2   
  4   2   5  1   
  5   3   6  2   
  6   3   7  1   
  7   4   6  1   
  8   5   8  am  
  9   5  22  1   
 10   7   9  1   
 11   7  23  1   
 12   7  24  1   
 13   8  10  2   
 14   8  11  1   
 15   9  12  1   
 16   9  25  1   
 17   9  26  1   
 18  11  13  1   
 19  11  14  2   
 20  12  15  1   
 21  12  16  1   
 22  12  27  1   
 23  13  17  1   
 24  14  18  1   
 25  14  28  1   
 26  15  29  1   
 27  15  30  1   
 28  15  31  1   
 29  16  32  1   
 30  16  33  1   
 31  16  34  1   
 32  17  18  2   
 33  17  19  1   
 34  18  35  1   
 35  19  20  1   
 36  19  36  1   
 37  19  37  1   
 38  20  21  1   
 39  21  38  1   
 40  21  39  1   
 41  21  40  1   
@<TRIPOS>SUBSTRUCTURE
  1 ****   5 GROUP 4 **** **** 0

# MOE 2024.06 (io_trps.svl 2023.06)
