@<TRIPOS>MOLECULE
NONAME
42 44 1 0 0 
SMALL
USER_CHARGES


@<TRIPOS>ATOM
  1 S        0.1230    -0.0030     1.5180 S.o2  1 <1>   1.4470 
  2 O       -0.4610     1.0820     2.2790 O.2   1 <1>  -0.6500 
  3 O        0.7360    -1.0980     2.2380 O.2   1 <1>  -0.6500 
  4 N        1.3590     0.6830     0.5780 N.am  1 <1>  -0.8490 
  5 C       -1.0820    -0.6000     0.3000 C.ar  1 <1>  -0.0090 
  6 C        2.3030     1.4300     1.4380 C.3   1 <1>   0.1960 
  7 C        2.0250    -0.3210    -0.2750 C.3   1 <1>   0.1960 
  8 C       -1.0700    -1.9200    -0.1360 C.ar  1 <1>  -0.1500 
  9 C       -2.0190     0.2630    -0.2580 C.ar  1 <1>  -0.1500 
 10 C        3.3570     2.3050     0.7080 C.3   1 <1>   0.2200 
 11 C        3.0100     0.2510    -1.3120 C.3   1 <1>  -0.0190 
 12 C       -1.9420    -2.4050    -1.1130 C.ar  1 <1>  -0.1790 
 13 C       -2.9130    -0.1830    -1.2130 C.ar  1 <1>  -0.1500 
 14 N        2.9560     2.6720    -0.6860 N.am  1 <1>  -0.6600 
 15 C        4.7600     1.6670     0.7240 C.3   1 <1>   0.1200 
 16 C        2.7720     1.7130    -1.6450 C.2   1 <1>   0.5690 
 17 C        4.4810     0.0090    -0.9470 C.3   1 <1>   0.1200 
 18 C       -2.8710    -1.5000    -1.6300 C.ar  1 <1>   0.0820 
 19 C       -1.8680    -3.7820    -1.5750 C.2   1 <1>   0.9790 
 20 C        2.6290     4.1040    -0.9250 C.3   1 <1>   0.0600 
 21 O        4.7430     0.3100     0.3890 O.3   1 <1>  -0.5600 
 22 O        2.4640     1.9910    -2.7810 O.2   1 <1>  -0.5700 
 23 O       -3.7400    -1.9200    -2.5530 O.3   1 <1>  -0.5320 
 24 O       -0.9680    -4.5390    -1.1770 O.co2 1 <1>  -0.9000 
 25 O       -2.7010    -4.2180    -2.3990 O.co2 1 <1>  -0.9000 
 26 H        1.7350     2.1030     2.0560 H     1 <1>   0.0800 
 27 H        2.7990     0.7460     2.1070 H     1 <1>   0.0800 
 28 H        2.5210    -1.0540     0.3410 H     1 <1>   0.0800 
 29 H        1.2680    -0.8430    -0.8340 H     1 <1>   0.0800 
 30 H       -0.3540    -2.6080     0.2860 H     1 <1>   0.1500 
 31 H       -2.0450     1.2920     0.0580 H     1 <1>   0.1500 
 32 H        3.4480     3.2170     1.2710 H     1 <1>   0.0800 
 33 H        2.8480    -0.2960    -2.2230 H     1 <1>   0.0800 
 34 H       -3.6410     0.4800    -1.6430 H     1 <1>   0.1500 
 35 H        5.1580     1.7260     1.7220 H     1 <1>   0.0800 
 36 H        5.4300     2.1900     0.0640 H     1 <1>   0.0800 
 37 H        5.1410     0.5820    -1.5770 H     1 <1>   0.0800 
 38 H        4.7110    -1.0350    -1.0770 H     1 <1>   0.0800 
 39 H        3.4900     4.7160    -0.7200 H     1 <1>   0.0800 
 40 H        1.8160     4.4010    -0.2860 H     1 <1>   0.0800 
 41 H        2.3330     4.2620    -1.9480 H     1 <1>   0.0800 
 42 H       -3.5530    -2.9010    -2.7160 H     1 <1>   0.4500 
@<TRIPOS>BOND
  1   1   2  2   
  2   1   3  2   
  3   1   4  am  
  4   1   5  1   
  5   4   6  1   
  6   4   7  1   
  7   5   8  ar  
  8   5   9  ar  
  9   6  10  1   
 10   6  26  1   
 11   6  27  1   
 12   7  11  1   
 13   7  28  1   
 14   7  29  1   
 15   8  12  ar  
 16   8  30  1   
 17   9  13  ar  
 18   9  31  1   
 19  10  14  1   
 20  10  15  1   
 21  10  32  1   
 22  11  16  1   
 23  11  17  1   
 24  11  33  1   
 25  12  18  ar  
 26  12  19  1   
 27  13  18  ar  
 28  13  34  1   
 29  14  16  am  
 30  14  20  1   
 31  15  21  1   
 32  15  35  1   
 33  15  36  1   
 34  16  22  2   
 35  17  21  1   
 36  17  37  1   
 37  17  38  1   
 38  18  23  1   
 39  19  24  ar  
 40  19  25  ar  
 41  20  39  1   
 42  20  40  1   
 43  20  41  1   
 44  23  42  1   
@<TRIPOS>SUBSTRUCTURE
  1 ****   7 GROUP 4 **** **** 0

# MOE 2024.06 (io_trps.svl 2023.06)
