@<TRIPOS>MOLECULE
NONAME
48 50 1 0 0 
SMALL
USER_CHARGES


@<TRIPOS>ATOM
  1 O       -0.9340     0.1870     2.4370 O.2   1 <1>  -0.5700 
  2 C       -1.6240     0.7350     1.6080 C.2   1 <1>   0.5690 
  3 N       -2.6710     0.0750     1.0180 N.am  1 <1>  -0.6600 
  4 C       -1.3140     2.2030     1.2910 C.3   1 <1>   0.1810 
  5 C       -3.6000     0.6330     0.0090 C.3   1 <1>   0.1400 
  6 C       -2.9600    -1.3630     1.2500 C.3   1 <1>   0.1400 
  7 O       -1.3430     2.4930    -0.0880 O.3   1 <1>  -0.5600 
  8 C       -4.7650    -0.3530    -0.0140 C.3   1 <1>   0.2000 
  9 C       -4.1280    -1.7080     0.3090 C.3   1 <1>  -0.0800 
 10 C       -1.0210     3.7990    -0.4290 C.3   1 <1>   0.2000 
 11 O       -5.6290    -0.0320     1.0200 O.3   1 <1>  -0.6800 
 12 C       -3.6410    -2.4070    -0.9750 C.3   1 <1>  -0.0170 
 13 C       -2.2780     4.6620    -0.3140 C.3   1 <1>  -0.2400 
 14 C       -0.5110     3.7580    -1.8650 C.3   1 <1>  -0.2400 
 15 C       -3.1720    -3.8260    -0.7000 C.ar  1 <1>   0.1670 
 16 N       -1.8960    -4.0270    -0.5810 N.ar  1 <1>  -0.6200 
 17 C       -4.1320    -4.8450    -0.5870 C.ar  1 <1>  -0.1500 
 18 C       -1.4740    -5.2930    -0.3290 C.ar  1 <1>   0.3100 
 19 C       -3.7380    -6.1240    -0.3380 C.ar  1 <1>  -0.1500 
 20 C       -2.3640    -6.3820    -0.2000 C.ar  1 <1>   0.0000 
 21 C       -0.0980    -5.5340    -0.1880 C.ar  1 <1>  -0.1500 
 22 C       -1.8430    -7.6650     0.0600 C.ar  1 <1>  -0.1500 
 23 C        0.3890    -6.7890     0.0650 C.ar  1 <1>  -0.1500 
 24 C       -0.4950    -7.8660     0.1890 C.ar  1 <1>  -0.1500 
 25 H       -0.3310     2.4310     1.6630 H     1 <1>   0.0800 
 26 H       -2.0350     2.8200     1.7920 H     1 <1>   0.0800 
 27 H       -3.9220     1.6290     0.2610 H     1 <1>   0.0800 
 28 H       -3.1060     0.6480    -0.9470 H     1 <1>   0.0800 
 29 H       -2.0820    -1.9560     1.0550 H     1 <1>   0.0800 
 30 H       -3.2490    -1.5000     2.2770 H     1 <1>   0.0800 
 31 H       -5.3200    -0.3350    -0.9370 H     1 <1>   0.0800 
 32 H       -4.8350    -2.3530     0.8010 H     1 <1>   0.0800 
 33 H       -0.2400     4.1580     0.2210 H     1 <1>   0.0800 
 34 H       -5.1040     0.0640     1.8400 H     1 <1>   0.4000 
 35 H       -2.8360    -1.8470    -1.4200 H     1 <1>   0.0800 
 36 H       -4.4410    -2.4480    -1.6920 H     1 <1>   0.0800 
 37 H       -3.0660     4.2540    -0.9200 H     1 <1>   0.0800 
 38 H       -2.0660     5.6590    -0.6570 H     1 <1>   0.0800 
 39 H       -2.6070     4.7270     0.7060 H     1 <1>   0.0800 
 40 H       -1.2710     3.3770    -2.5230 H     1 <1>   0.0800 
 41 H        0.3590     3.1280    -1.9250 H     1 <1>   0.0800 
 42 H       -0.2380     4.7460    -2.1880 H     1 <1>   0.0800 
 43 H       -5.1730    -4.6010    -0.6990 H     1 <1>   0.1500 
 44 H       -4.4430    -6.9300    -0.2460 H     1 <1>   0.1500 
 45 H        0.5630    -4.6920    -0.2870 H     1 <1>   0.1500 
 46 H       -2.5270    -8.4880     0.1550 H     1 <1>   0.1500 
 47 H        1.4460    -6.9600     0.1700 H     1 <1>   0.1500 
 48 H       -0.0990    -8.8480     0.3880 H     1 <1>   0.1500 
@<TRIPOS>BOND
  1   1   2  2   
  2   2   3  am  
  3   2   4  1   
  4   3   5  1   
  5   3   6  1   
  6   4   7  1   
  7   4  25  1   
  8   4  26  1   
  9   5   8  1   
 10   5  27  1   
 11   5  28  1   
 12   6   9  1   
 13   6  29  1   
 14   6  30  1   
 15   7  10  1   
 16   8   9  1   
 17   8  11  1   
 18   8  31  1   
 19   9  12  1   
 20   9  32  1   
 21  10  13  1   
 22  10  14  1   
 23  10  33  1   
 24  11  34  1   
 25  12  15  1   
 26  12  35  1   
 27  12  36  1   
 28  13  37  1   
 29  13  38  1   
 30  13  39  1   
 31  14  40  1   
 32  14  41  1   
 33  14  42  1   
 34  15  16  ar  
 35  15  17  ar  
 36  16  18  ar  
 37  17  19  ar  
 38  17  43  1   
 39  18  20  ar  
 40  18  21  ar  
 41  19  20  ar  
 42  19  44  1   
 43  20  22  ar  
 44  21  23  ar  
 45  21  45  1   
 46  22  24  ar  
 47  22  46  1   
 48  23  24  ar  
 49  23  47  1   
 50  24  48  1   
@<TRIPOS>SUBSTRUCTURE
  1 ****   6 GROUP 4 **** **** 0

# MOE 2024.06 (io_trps.svl 2023.06)
