@<TRIPOS>MOLECULE
NONAME
47 49 1 0 0 
SMALL
USER_CHARGES


@<TRIPOS>ATOM
  1 S        0.1960    -0.0160     0.5920 S.o2  1 <1>   1.3330 
  2 O        1.4580     0.0280     1.2970 O.2   1 <1>  -0.6500 
  3 O       -1.0420     0.0290     1.3360 O.2   1 <1>  -0.6500 
  4 N        0.1900    -1.4100    -0.3770 N.am  1 <1>  -0.8490 
  5 C        0.1510     1.3070    -0.6140 C.3   1 <1>  -0.0550 
  6 C       -0.4480    -2.5480     0.2910 C.3   1 <1>   0.1160 
  7 C        1.5220    -1.7950    -0.8540 C.3   1 <1>   0.1160 
  8 C        0.0540     2.7020     0.0250 C.3   1 <1>  -0.0800 
  9 C       -0.1140     3.8060    -1.0140 C.3   1 <1>   0.2000 
 10 C        1.2990     3.1220     0.8120 C.3   1 <1>   0.1400 
 11 O       -1.4420     3.9070    -1.3940 O.3   1 <1>  -0.6800 
 12 C        0.3820     5.0770    -0.3320 C.3   1 <1>   0.1400 
 13 N        1.3730     4.5970     0.6640 N.am  1 <1>  -0.6600 
 14 C        2.4440     5.3300     1.1180 C.2   1 <1>   0.5440 
 15 O        3.3700     4.7440     1.6450 O.2   1 <1>  -0.5700 
 16 C        2.4930     6.7720     0.9600 C.ar  1 <1>   0.0860 
 17 C        3.5630     7.4120     0.3390 C.ar  1 <1>  -0.1440 
 18 C        1.4570     7.5860     1.4260 C.ar  1 <1>  -0.1500 
 19 C        3.6050     8.7810     0.1680 C.ar  1 <1>   0.0860 
 20 C        4.8150     6.7640    -0.2330 C.3   1 <1>  -0.0170 
 21 C        1.4840     8.9630     1.2640 C.ar  1 <1>  -0.1500 
 22 C        4.8040     9.1720    -0.5040 C.2   1 <1>   0.4230 
 23 C        2.5570     9.5650     0.6320 C.ar  1 <1>  -0.1500 
 24 C        5.6340     7.9420    -0.8000 C.3   1 <1>  -0.0990 
 25 O        5.1510    10.2790    -0.8190 O.2   1 <1>  -0.5700 
 26 H        1.0230     1.2570    -1.2360 H     1 <1>   0.0800 
 27 H       -0.7070     1.1620    -1.2430 H     1 <1>   0.0800 
 28 H       -0.4500    -3.4090    -0.3560 H     1 <1>   0.0800 
 29 H       -1.4710    -2.3090     0.5320 H     1 <1>   0.0800 
 30 H        0.0750    -2.7890     1.2020 H     1 <1>   0.0800 
 31 H        1.4460    -2.6260    -1.5340 H     1 <1>   0.0800 
 32 H        2.1520    -2.0770    -0.0250 H     1 <1>   0.0800 
 33 H        1.9840    -0.9730    -1.3730 H     1 <1>   0.0800 
 34 H       -0.7780     2.7260     0.7080 H     1 <1>   0.0800 
 35 H        0.4770     3.6130    -1.8930 H     1 <1>   0.0800 
 36 H        2.1920     2.6830     0.3970 H     1 <1>   0.0800 
 37 H        1.2260     2.8490     1.8520 H     1 <1>   0.0800 
 38 H       -2.0230     3.9730    -0.6110 H     1 <1>   0.4000 
 39 H       -0.4220     5.5740     0.1820 H     1 <1>   0.0800 
 40 H        0.8410     5.7410    -1.0440 H     1 <1>   0.0800 
 41 H        0.6230     7.1270     1.9280 H     1 <1>   0.1500 
 42 H        5.3620     6.2580     0.5450 H     1 <1>   0.0800 
 43 H        4.5590     6.0610    -1.0060 H     1 <1>   0.0800 
 44 H        0.6710     9.5660     1.6320 H     1 <1>   0.1500 
 45 H        2.5970    10.6330     0.4960 H     1 <1>   0.1500 
 46 H        5.7740     7.8450    -1.8610 H     1 <1>   0.0800 
 47 H        6.5890     8.0220    -0.3130 H     1 <1>   0.0800 
@<TRIPOS>BOND
  1   1   2  2   
  2   1   3  2   
  3   1   4  am  
  4   1   5  1   
  5   4   6  1   
  6   4   7  1   
  7   5   8  1   
  8   5  26  1   
  9   5  27  1   
 10   6  28  1   
 11   6  29  1   
 12   6  30  1   
 13   7  31  1   
 14   7  32  1   
 15   7  33  1   
 16   8   9  1   
 17   8  10  1   
 18   8  34  1   
 19   9  11  1   
 20   9  12  1   
 21   9  35  1   
 22  10  13  1   
 23  10  36  1   
 24  10  37  1   
 25  11  38  1   
 26  12  13  1   
 27  12  39  1   
 28  12  40  1   
 29  13  14  am  
 30  14  15  2   
 31  14  16  1   
 32  16  17  ar  
 33  16  18  ar  
 34  17  19  ar  
 35  17  20  1   
 36  18  21  ar  
 37  18  41  1   
 38  19  22  1   
 39  19  23  ar  
 40  20  24  1   
 41  20  42  1   
 42  20  43  1   
 43  21  23  ar  
 44  21  44  1   
 45  22  24  1   
 46  22  25  2   
 47  23  45  1   
 48  24  46  1   
 49  24  47  1   
@<TRIPOS>SUBSTRUCTURE
  1 ****  13 GROUP 4 **** **** 0

# MOE 2024.06 (io_trps.svl 2023.06)
