@<TRIPOS>MOLECULE
NONAME
44 46 1 0 0 
SMALL
USER_CHARGES


@<TRIPOS>ATOM
  1 O        0.9970     1.2720     0.7420 O.3   1 <1>  -0.0190 
  2 N        1.9440     0.4140     0.9710 N.2   1 <1>  -0.4100 
  3 C        1.2060     1.9430    -0.3590 C.2   1 <1>  -0.0400 
  4 C        2.7670     0.5150    -0.0110 C.2   1 <1>   0.1080 
  5 C        2.3460     1.4940    -0.9070 C.2   1 <1>  -0.1500 
  6 C        0.2340     3.0280    -0.7780 C.3   1 <1>   0.0200 
  7 C        4.0190    -0.3220    -0.1600 C.3   1 <1>  -0.0590 
  8 C       -0.1480     3.9330     0.4140 C.3   1 <1>  -0.0800 
  9 C       -0.8130     5.2260    -0.0510 C.3   1 <1>   0.2000 
 10 C        1.0860     4.4070     1.1980 C.3   1 <1>   0.3430 
 11 O       -1.5420     5.7430     1.0130 O.3   1 <1>  -0.6800 
 12 C        0.3800     6.1500    -0.2980 C.3   1 <1>   0.3430 
 13 N        1.3290     5.8320     0.8120 N.4   1 <1>  -0.9590 
 14 C        2.7610     6.1830     0.6160 C.3   1 <1>   0.4230 
 15 C        2.9100     7.7050     0.4960 C.3   1 <1>  -0.1600 
 16 C        3.3750     5.4710    -0.6030 C.3   1 <1>  -0.1600 
 17 C        4.3860     8.0980     0.3290 C.3   1 <1>  -0.1600 
 18 C        4.8510     5.8570    -0.7690 C.3   1 <1>  -0.1600 
 19 C        5.0190     7.3790    -0.8700 C.3   1 <1>  -0.1600 
 20 H        2.8500     1.7840    -1.8100 H     1 <1>   0.1500 
 21 H        0.6850     3.5980    -1.5710 H     1 <1>   0.0800 
 22 H       -0.6540     2.5620    -1.1700 H     1 <1>   0.0800 
 23 H        4.8800     0.3150    -0.2470 H     1 <1>   0.0800 
 24 H        3.9420    -0.9380    -1.0360 H     1 <1>   0.0800 
 25 H        4.1410    -0.9560     0.7000 H     1 <1>   0.0800 
 26 H       -0.7970     3.3690     1.0640 H     1 <1>   0.0800 
 27 H       -1.4590     5.1220    -0.9070 H     1 <1>   0.0800 
 28 H        1.9430     3.7900     0.9850 H     1 <1>   0.0800 
 29 H        0.8840     4.3510     2.2560 H     1 <1>   0.0800 
 30 H       -2.3880     5.2620     1.1350 H     1 <1>   0.4000 
 31 H        0.0800     7.1850    -0.2900 H     1 <1>   0.0800 
 32 H        0.8240     5.9110    -1.2480 H     1 <1>   0.0800 
 33 H        0.9800     6.3860     1.6080 H     1 <1>   0.4500 
 34 H        3.3120     5.8710     1.4890 H     1 <1>   0.0800 
 35 H        2.3650     8.0690    -0.3560 H     1 <1>   0.0800 
 36 H        2.5250     8.1800     1.3810 H     1 <1>   0.0800 
 37 H        3.3180     4.4050    -0.4830 H     1 <1>   0.0800 
 38 H        2.8560     5.7480    -1.5020 H     1 <1>   0.0800 
 39 H        4.4640     9.1630     0.1900 H     1 <1>   0.0800 
 40 H        4.9320     7.8470     1.2230 H     1 <1>   0.0800 
 41 H        5.4200     5.4920     0.0710 H     1 <1>   0.0800 
 42 H        5.2510     5.3950    -1.6570 H     1 <1>   0.0800 
 43 H        6.0680     7.6220    -0.9190 H     1 <1>   0.0800 
 44 H        4.5640     7.7320    -1.7800 H     1 <1>   0.0800 
@<TRIPOS>BOND
  1   1   2  1   
  2   1   3  1   
  3   2   4  2   
  4   3   5  2   
  5   3   6  1   
  6   4   5  1   
  7   4   7  1   
  8   5  20  1   
  9   6   8  1   
 10   6  21  1   
 11   6  22  1   
 12   7  23  1   
 13   7  24  1   
 14   7  25  1   
 15   8   9  1   
 16   8  10  1   
 17   8  26  1   
 18   9  11  1   
 19   9  12  1   
 20   9  27  1   
 21  10  13  1   
 22  10  28  1   
 23  10  29  1   
 24  11  30  1   
 25  12  13  1   
 26  12  31  1   
 27  12  32  1   
 28  13  14  1   
 29  13  33  1   
 30  14  15  1   
 31  14  16  1   
 32  14  34  1   
 33  15  17  1   
 34  15  35  1   
 35  15  36  1   
 36  16  18  1   
 37  16  37  1   
 38  16  38  1   
 39  17  19  1   
 40  17  39  1   
 41  17  40  1   
 42  18  19  1   
 43  18  41  1   
 44  18  42  1   
 45  19  43  1   
 46  19  44  1   
@<TRIPOS>SUBSTRUCTURE
  1 ****  10 GROUP 4 **** **** 0

# MOE 2024.06 (io_trps.svl 2023.06)
