@<TRIPOS>MOLECULE
NONAME
54 57 1 0 0 
SMALL
USER_CHARGES


@<TRIPOS>ATOM
  1 O       -1.0250     1.1440    -1.9560 O.2   1 <1>  -0.5700 
  2 C       -1.3770     1.0020    -0.7970 C.2   1 <1>   0.7160 
  3 N       -1.8230    -0.2340    -0.3750 N.am  1 <1>  -0.6600 
  4 C       -1.3170     2.1210     0.0860 C.2   1 <1>  -0.0860 
  5 C       -1.9500    -1.3930    -1.3030 C.3   1 <1>   0.1400 
  6 C       -2.3760    -0.4840     0.9850 C.3   1 <1>   0.1400 
  7 C       -2.4060     2.9010     0.4920 C.2   1 <1>   0.3720 
  8 C       -0.2670     2.6530     0.7650 C.2   1 <1>   0.0870 
  9 C       -3.4300    -1.7820    -1.4500 C.3   1 <1>  -0.0800 
 10 C       -3.8570    -0.8590     0.8700 C.3   1 <1>  -0.1600 
 11 N       -2.0350     3.7910     1.3460 N.2   1 <1>  -0.4100 
 12 N       -3.7330     2.7230     0.0690 N.pl3 1 <1>  -0.8210 
 13 O       -0.7460     3.6310     1.4910 O.3   1 <1>  -0.0190 
 14 C        1.1330     2.3190     0.8230 C.ar  1 <1>   0.0530 
 15 C       -4.0690    -2.0500    -0.0760 C.3   1 <1>  -0.1600 
 16 C       -3.5820    -3.0090    -2.3580 C.3   1 <1>  -0.2400 
 17 C       -3.9670     2.6210    -1.3970 C.3   1 <1>   0.2090 
 18 C       -4.7770     3.5920     0.6690 C.3   1 <1>   0.2090 
 19 C        1.8600     2.5040     2.0000 C.ar  1 <1>  -0.1500 
 20 C        1.8200     1.8020    -0.2760 C.ar  1 <1>  -0.1500 
 21 C       -5.1870     3.4870    -1.6890 C.3   1 <1>  -0.1600 
 22 C       -5.9040     3.6090    -0.3510 C.3   1 <1>  -0.1600 
 23 C        3.2000     2.1780     2.0790 C.ar  1 <1>  -0.1500 
 24 C        3.1600     1.4720    -0.2060 C.ar  1 <1>  -0.1500 
 25 C        3.8640     1.6570     0.9810 C.ar  1 <1>   0.0830 
 26 O        5.1750     1.3600     1.1370 O.3   1 <1>  -0.3630 
 27 C        5.9450     0.8380     0.0780 C.3   1 <1>   0.0400 
 28 H       -1.3910    -2.2220    -0.9020 H     1 <1>   0.0800 
 29 H       -1.5410    -1.1560    -2.2700 H     1 <1>   0.0800 
 30 H       -2.2740     0.3800     1.6170 H     1 <1>   0.0800 
 31 H       -1.8300    -1.2920     1.4400 H     1 <1>   0.0800 
 32 H       -3.9420    -0.9560    -1.9150 H     1 <1>   0.0800 
 33 H       -4.4030    -0.0040     0.5090 H     1 <1>   0.0800 
 34 H       -4.2380    -1.0990     1.8460 H     1 <1>   0.0800 
 35 H       -3.6280    -2.9290     0.3610 H     1 <1>   0.0800 
 36 H       -5.1240    -2.2300    -0.1930 H     1 <1>   0.0800 
 37 H       -3.0770    -3.8600    -1.9350 H     1 <1>   0.0800 
 38 H       -3.1640    -2.8080    -3.3280 H     1 <1>   0.0800 
 39 H       -4.6220    -3.2530    -2.4830 H     1 <1>   0.0800 
 40 H       -4.1690     1.5930    -1.6460 H     1 <1>   0.0800 
 41 H       -3.1130     2.9620    -1.9590 H     1 <1>   0.0800 
 42 H       -4.3950     4.5900     0.8060 H     1 <1>   0.0800 
 43 H       -5.1010     3.1970     1.6160 H     1 <1>   0.0800 
 44 H        1.3650     2.9060     2.8670 H     1 <1>   0.1500 
 45 H        1.3020     1.6610    -1.2080 H     1 <1>   0.1500 
 46 H       -5.8090     3.0540    -2.4520 H     1 <1>   0.0800 
 47 H       -4.8540     4.4570    -2.0150 H     1 <1>   0.0800 
 48 H       -6.4960     4.5030    -0.2790 H     1 <1>   0.0800 
 49 H       -6.5330     2.7510    -0.1900 H     1 <1>   0.0800 
 50 H        3.7450     2.3250     2.9940 H     1 <1>   0.1500 
 51 H        3.6400     1.0760    -1.0800 H     1 <1>   0.1500 
 52 H        6.9470     0.6860     0.4370 H     1 <1>   0.0800 
 53 H        5.9500     1.5470    -0.7320 H     1 <1>   0.0800 
 54 H        5.5220    -0.1000    -0.2330 H     1 <1>   0.0800 
@<TRIPOS>BOND
  1   1   2  2   
  2   2   3  am  
  3   2   4  1   
  4   3   5  1   
  5   3   6  1   
  6   4   7  1   
  7   4   8  2   
  8   5   9  1   
  9   5  28  1   
 10   5  29  1   
 11   6  10  1   
 12   6  30  1   
 13   6  31  1   
 14   7  11  2   
 15   7  12  1   
 16   8  13  1   
 17   8  14  1   
 18   9  15  1   
 19   9  16  1   
 20   9  32  1   
 21  10  15  1   
 22  10  33  1   
 23  10  34  1   
 24  11  13  1   
 25  12  17  1   
 26  12  18  1   
 27  14  19  ar  
 28  14  20  ar  
 29  15  35  1   
 30  15  36  1   
 31  16  37  1   
 32  16  38  1   
 33  16  39  1   
 34  17  21  1   
 35  17  40  1   
 36  17  41  1   
 37  18  22  1   
 38  18  42  1   
 39  18  43  1   
 40  19  23  ar  
 41  19  44  1   
 42  20  24  ar  
 43  20  45  1   
 44  21  22  1   
 45  21  46  1   
 46  21  47  1   
 47  22  48  1   
 48  22  49  1   
 49  23  25  ar  
 50  23  50  1   
 51  24  25  ar  
 52  24  51  1   
 53  25  26  1   
 54  26  27  1   
 55  27  52  1   
 56  27  53  1   
 57  27  54  1   
@<TRIPOS>SUBSTRUCTURE
  1 ****   4 GROUP 4 **** **** 0

# MOE 2024.06 (io_trps.svl 2023.06)
