@<TRIPOS>MOLECULE
NONAME
51 54 1 0 0 
SMALL
USER_CHARGES


@<TRIPOS>ATOM
  1 O       -0.4570     1.1850    -1.2010 O.2   1 <1>  -0.5700 
  2 C       -0.5510     2.3870    -1.0990 C.2   1 <1>   0.5690 
  3 N       -1.2250     3.0100    -0.0820 N.am  1 <1>  -0.5090 
  4 C        0.0950     3.2490    -2.1780 C.3   1 <1>   0.1810 
  5 C       -1.4920     4.4830    -0.1170 C.3   1 <1>   0.3640 
  6 C       -1.8700     2.2700     1.0280 C.3   1 <1>   0.0490 
  7 O        0.4320     4.5240    -1.6930 O.3   1 <1>  -0.5600 
  8 C       -2.9880     4.7250    -0.3430 C.ar  1 <1>  -0.1440 
  9 C       -0.6690     5.2630    -1.1810 C.3   1 <1>   0.2610 
 10 C       -1.4620     2.5920     2.4330 C.3   1 <1>  -0.2000 
 11 C       -1.0740     1.2830     1.8220 C.3   1 <1>  -0.2000 
 12 C       -3.7020     4.0150    -1.3020 C.ar  1 <1>  -0.1500 
 13 C       -3.6540     5.6790     0.4140 C.ar  1 <1>  -0.1500 
 14 C       -0.1740     6.5930    -0.5930 C.2   1 <1>   0.5690 
 15 C       -5.0500     4.2560    -1.4950 C.ar  1 <1>  -0.1500 
 16 C       -5.0030     5.9220     0.2230 C.ar  1 <1>  -0.1500 
 17 O       -0.9250     7.2930     0.0460 O.2   1 <1>  -0.5700 
 18 N        1.1190     6.9660    -0.7920 N.am  1 <1>  -0.7300 
 19 C       -5.7100     5.2080    -0.7390 C.ar  1 <1>   0.0820 
 20 C        1.7180     8.2610    -0.3870 C.3   1 <1>   0.1400 
 21 O       -7.0310     5.3840    -0.9930 O.3   1 <1>  -0.3630 
 22 C        1.9190     8.3040     1.1280 C.3   1 <1>   0.0960 
 23 C       -7.7880     6.3480    -0.2950 C.3   1 <1>   0.0400 
 24 N        2.4700     9.6100     1.5160 N.pl3 1 <1>   0.3140 
 25 N        3.7070     9.9830     1.2200 N.2   1 <1>  -0.7070 
 26 C        1.8710    10.6030     2.1790 C.2   1 <1>   0.0360 
 27 C        3.7670    11.1700     1.7290 C.2   1 <1>   0.3660 
 28 N        2.6560    11.6070     2.3360 N.2   1 <1>  -0.5650 
 29 H       -0.5750     3.3580    -3.0110 H     1 <1>   0.0800 
 30 H        1.0000     2.7770    -2.5150 H     1 <1>   0.0800 
 31 H       -1.2330     4.8710     0.8520 H     1 <1>   0.0800 
 32 H       -2.9060     2.0460     0.8300 H     1 <1>   0.1000 
 33 H       -1.3050     5.4990    -2.0140 H     1 <1>   0.0800 
 34 H       -0.6800     3.3070     2.6170 H     1 <1>   0.1000 
 35 H       -2.2120     2.5850     3.2040 H     1 <1>   0.1000 
 36 H       -1.5640     0.3890     2.1620 H     1 <1>   0.1000 
 37 H       -0.0490     1.1110     1.5420 H     1 <1>   0.1000 
 38 H       -3.2210     3.2630    -1.9030 H     1 <1>   0.1500 
 39 H       -3.1240     6.2470     1.1600 H     1 <1>   0.1500 
 40 H       -5.6020     3.7040    -2.2350 H     1 <1>   0.1500 
 41 H       -5.4820     6.6680     0.8270 H     1 <1>   0.1500 
 42 H        1.7150     6.3140    -1.3180 H     1 <1>   0.3700 
 43 H        2.6650     8.3880    -0.8860 H     1 <1>   0.0800 
 44 H        1.0580     9.0580    -0.6860 H     1 <1>   0.0800 
 45 H        2.6110     7.5420     1.4310 H     1 <1>   0.0800 
 46 H        0.9810     8.1620     1.6320 H     1 <1>   0.0800 
 47 H       -8.7960     6.3140    -0.6670 H     1 <1>   0.0800 
 48 H       -7.3650     7.3200    -0.4730 H     1 <1>   0.0800 
 49 H       -7.7770     6.1080     0.7530 H     1 <1>   0.0800 
 50 H        0.8560    10.5480     2.5290 H     1 <1>   0.1500 
 51 H        4.6480    11.7920     1.6810 H     1 <1>   0.1500 
@<TRIPOS>BOND
  1   1   2  2   
  2   2   3  am  
  3   2   4  1   
  4   3   5  1   
  5   3   6  1   
  6   4   7  1   
  7   4  29  1   
  8   4  30  1   
  9   5   8  1   
 10   5   9  1   
 11   5  31  1   
 12   6  10  1   
 13   6  11  1   
 14   6  32  1   
 15   7   9  1   
 16   8  12  ar  
 17   8  13  ar  
 18   9  14  1   
 19   9  33  1   
 20  10  11  1   
 21  10  34  1   
 22  10  35  1   
 23  11  36  1   
 24  11  37  1   
 25  12  15  ar  
 26  12  38  1   
 27  13  16  ar  
 28  13  39  1   
 29  14  17  2   
 30  14  18  am  
 31  15  19  ar  
 32  15  40  1   
 33  16  19  ar  
 34  16  41  1   
 35  18  20  1   
 36  18  42  1   
 37  19  21  1   
 38  20  22  1   
 39  20  43  1   
 40  20  44  1   
 41  21  23  1   
 42  22  24  1   
 43  22  45  1   
 44  22  46  1   
 45  23  47  1   
 46  23  48  1   
 47  23  49  1   
 48  24  25  1   
 49  24  26  1   
 50  25  27  2   
 51  26  28  2   
 52  26  50  1   
 53  27  28  1   
 54  27  51  1   
@<TRIPOS>SUBSTRUCTURE
  1 ****   5 GROUP 4 **** **** 0

# MOE 2024.06 (io_trps.svl 2023.06)
