@<TRIPOS>MOLECULE
NONAME
43 45 1 0 0 
SMALL
USER_CHARGES


@<TRIPOS>ATOM
  1 CL       0.7450    -2.1160     0.1470 Cl    1 <1>  -0.1770 
  2 C       -0.9260    -1.8950     0.5980 C.ar  1 <1>   0.1770 
  3 C       -1.7710    -2.9890     0.6200 C.ar  1 <1>  -0.1500 
  4 C       -1.3770    -0.6300     0.9260 C.ar  1 <1>  -0.1500 
  5 C       -3.1000    -2.8200     0.9810 C.ar  1 <1>  -0.1440 
  6 C       -2.7030    -0.4600     1.2820 C.ar  1 <1>  -0.1500 
  7 C       -3.5580    -1.5510     1.3090 C.ar  1 <1>  -0.1500 
  8 C       -4.0500    -4.0110     1.0160 C.3   1 <1>   0.0890 
  9 S       -5.3160    -3.9820    -0.2700 S.o2  1 <1>   1.3330 
 10 O       -4.6910    -4.0530    -1.5720 O.2   1 <1>  -0.6500 
 11 O       -6.2590    -2.9360     0.0430 O.2   1 <1>  -0.6500 
 12 N       -6.1540    -5.4270    -0.0590 N.am  1 <1>  -0.9140 
 13 C       -5.8350    -6.5100    -0.9860 C.3   1 <1>   0.2760 
 14 C       -6.6720    -7.7340    -0.6320 C.3   1 <1>  -0.0800 
 15 C       -4.4470    -7.0800    -0.7140 C.3   1 <1>   0.1200 
 16 C       -5.8540    -8.3950     0.4900 C.3   1 <1>   0.1200 
 17 C       -8.1490    -7.4720    -0.2760 C.3   1 <1>  -0.0170 
 18 O       -4.6040    -7.7610     0.4910 O.3   1 <1>  -0.5600 
 19 C       -8.8810    -8.7800    -0.0230 C.ar  1 <1>  -0.1430 
 20 C       -9.3100    -9.5830    -1.0600 C.ar  1 <1>  -0.1500 
 21 C       -9.1550    -9.2330     1.2530 C.ar  1 <1>  -0.1500 
 22 C       -9.9650   -10.7710    -0.7800 C.ar  1 <1>   0.1600 
 23 C       -9.8170   -10.4370     1.4240 C.ar  1 <1>   0.1600 
 24 N      -10.2260   -11.2180     0.4370 N.ar  1 <1>  -0.6200 
 25 H       -1.3780    -3.9540     0.3540 H     1 <1>   0.1500 
 26 H       -0.6990     0.2040     0.8990 H     1 <1>   0.1500 
 27 H       -3.0730     0.5190     1.5370 H     1 <1>   0.1500 
 28 H       -4.5900    -1.3980     1.5830 H     1 <1>   0.1500 
 29 H       -4.5300    -4.0240     1.9750 H     1 <1>   0.0800 
 30 H       -3.4740    -4.9110     0.9390 H     1 <1>   0.0800 
 31 H       -5.9700    -5.7740     0.8790 H     1 <1>   0.4200 
 32 H       -5.9710    -6.1980    -2.0100 H     1 <1>   0.0800 
 33 H       -6.6510    -8.4000    -1.4770 H     1 <1>   0.0800 
 34 H       -3.6710    -6.3430    -0.6340 H     1 <1>   0.0800 
 35 H       -4.1730    -7.7960    -1.4700 H     1 <1>   0.0800 
 36 H       -5.7140    -9.4470     0.3100 H     1 <1>   0.0800 
 37 H       -6.3010    -8.2480     1.4580 H     1 <1>   0.0800 
 38 H       -8.6250    -6.9490    -1.0880 H     1 <1>   0.0800 
 39 H       -8.2270    -6.8470     0.5960 H     1 <1>   0.0800 
 40 H       -9.1430    -9.2980    -2.0820 H     1 <1>   0.1500 
 41 H       -8.8620    -8.6630     2.1150 H     1 <1>   0.1500 
 42 H      -10.2930   -11.3860    -1.6010 H     1 <1>   0.1500 
 43 H      -10.0230   -10.7760     2.4250 H     1 <1>   0.1500 
@<TRIPOS>BOND
  1   1   2  1   
  2   2   3  ar  
  3   2   4  ar  
  4   3   5  ar  
  5   3  25  1   
  6   4   6  ar  
  7   4  26  1   
  8   5   7  ar  
  9   5   8  1   
 10   6   7  ar  
 11   6  27  1   
 12   7  28  1   
 13   8   9  1   
 14   8  29  1   
 15   8  30  1   
 16   9  10  2   
 17   9  11  2   
 18   9  12  am  
 19  12  13  1   
 20  12  31  1   
 21  13  14  1   
 22  13  15  1   
 23  13  32  1   
 24  14  16  1   
 25  14  17  1   
 26  14  33  1   
 27  15  18  1   
 28  15  34  1   
 29  15  35  1   
 30  16  18  1   
 31  16  36  1   
 32  16  37  1   
 33  17  19  1   
 34  17  38  1   
 35  17  39  1   
 36  19  20  ar  
 37  19  21  ar  
 38  20  22  ar  
 39  20  40  1   
 40  21  23  ar  
 41  21  41  1   
 42  22  24  ar  
 43  22  42  1   
 44  23  24  ar  
 45  23  43  1   
@<TRIPOS>SUBSTRUCTURE
  1 ****  12 GROUP 4 **** **** 0

# MOE 2024.06 (io_trps.svl 2023.06)
