@<TRIPOS>MOLECULE
NONAME
43 46 1 0 0 
SMALL
USER_CHARGES


@<TRIPOS>ATOM
  1 O       -2.0770     0.3100     0.1080 O.co2 1 <1>  -0.9000 
  2 C       -1.3380    -0.6340     0.4750 C.2   1 <1>   0.9790 
  3 O       -0.1780    -0.3320     0.8240 O.co2 1 <1>  -0.9000 
  4 C       -1.8630    -2.0190     0.5020 C.ar  1 <1>   0.1310 
  5 N       -1.0620    -3.1080     0.5770 N.ar  1 <1>  -0.6200 
  6 C       -3.2460    -2.1780     0.4360 C.ar  1 <1>  -0.1500 
  7 C       -1.6530    -4.2880     0.5870 C.ar  1 <1>   0.1600 
  8 C       -3.8720    -3.4130     0.4180 C.ar  1 <1>   0.1000 
  9 C       -3.0150    -4.4940     0.5120 C.ar  1 <1>  -0.1500 
 10 N       -5.2590    -3.5620     0.3130 N.pl3 1 <1>  -0.8380 
 11 C       -6.2090    -2.4870     0.7510 C.3   1 <1>   0.2090 
 12 C       -5.8890    -4.6650    -0.4660 C.3   1 <1>   0.2090 
 13 C       -6.9730    -1.8810    -0.4440 C.3   1 <1>   0.1430 
 14 C       -6.6980    -4.1010    -1.6440 C.3   1 <1>  -0.1600 
 15 C       -7.9080    -0.8140     0.0970 C.ar  1 <1>   0.1670 
 16 C       -7.6950    -3.0100    -1.2090 C.3   1 <1>  -0.1600 
 17 C       -6.0600    -1.0470    -1.3820 C.3   1 <1>  -0.1600 
 18 N       -9.0510    -1.0270     0.7130 N.ar  1 <1>  -0.6200 
 19 C       -7.4020     0.4360    -0.1140 C.ar  1 <1>  -0.1430 
 20 C       -6.0800     0.3920    -0.8420 C.3   1 <1>  -0.0170 
 21 C       -9.6730     0.0750     1.1060 C.ar  1 <1>   0.4770 
 22 C       -8.1270     1.5060     0.3440 C.ar  1 <1>   0.1600 
 23 N       -9.2780     1.3340     0.9620 N.ar  1 <1>  -0.6200 
 24 C      -10.9900    -0.1270     1.8150 C.3   1 <1>  -0.0970 
 25 H       -3.8340    -1.2870     0.3890 H     1 <1>   0.1500 
 26 H       -1.0060    -5.1430     0.6590 H     1 <1>   0.1500 
 27 H       -3.4050    -5.4900     0.5370 H     1 <1>   0.1500 
 28 H       -5.6920    -1.7160     1.2940 H     1 <1>   0.0800 
 29 H       -6.9210    -2.9210     1.4310 H     1 <1>   0.0800 
 30 H       -6.5370    -5.2230     0.1880 H     1 <1>   0.0800 
 31 H       -5.1360    -5.3320    -0.8460 H     1 <1>   0.0800 
 32 H       -7.2300    -4.9050    -2.1180 H     1 <1>   0.0800 
 33 H       -6.0080    -3.7000    -2.3660 H     1 <1>   0.0800 
 34 H       -8.2070    -2.6090    -2.0660 H     1 <1>   0.0800 
 35 H       -8.4360    -3.4490    -0.5640 H     1 <1>   0.0800 
 36 H       -6.4890    -1.0310    -2.3680 H     1 <1>   0.0800 
 37 H       -5.0640    -1.4400    -1.4680 H     1 <1>   0.0800 
 38 H       -6.0280     1.1140    -1.6380 H     1 <1>   0.0800 
 39 H       -5.2690     0.5550    -0.1520 H     1 <1>   0.0800 
 40 H       -7.7620     2.5090     0.2050 H     1 <1>   0.1500 
 41 H      -11.4740    -1.0130     1.4470 H     1 <1>   0.0800 
 42 H      -11.6330     0.7170     1.6480 H     1 <1>   0.0800 
 43 H      -10.8120    -0.2330     2.8680 H     1 <1>   0.0800 
@<TRIPOS>BOND
  1   1   2  ar  
  2   2   3  ar  
  3   2   4  1   
  4   4   5  ar  
  5   4   6  ar  
  6   5   7  ar  
  7   6   8  ar  
  8   6  25  1   
  9   7   9  ar  
 10   7  26  1   
 11   8   9  ar  
 12   8  10  1   
 13   9  27  1   
 14  10  11  1   
 15  10  12  1   
 16  11  13  1   
 17  11  28  1   
 18  11  29  1   
 19  12  14  1   
 20  12  30  1   
 21  12  31  1   
 22  13  15  1   
 23  13  16  1   
 24  13  17  1   
 25  14  16  1   
 26  14  32  1   
 27  14  33  1   
 28  15  18  ar  
 29  15  19  ar  
 30  16  34  1   
 31  16  35  1   
 32  17  20  1   
 33  17  36  1   
 34  17  37  1   
 35  18  21  ar  
 36  19  20  1   
 37  19  22  ar  
 38  20  38  1   
 39  20  39  1   
 40  21  23  ar  
 41  21  24  1   
 42  22  23  ar  
 43  22  40  1   
 44  24  41  1   
 45  24  42  1   
 46  24  43  1   
@<TRIPOS>SUBSTRUCTURE
  1 ****  11 GROUP 4 **** **** 0

# MOE 2024.06 (io_trps.svl 2023.06)
