@<TRIPOS>MOLECULE
NONAME
47 49 1 0 0 
SMALL
USER_CHARGES


@<TRIPOS>ATOM
  1 CL       2.9480    -0.4430    -1.2010 Cl    1 <1>  -0.1770 
  2 C        3.2470    -0.2300     0.5090 C.ar  1 <1>   0.1770 
  3 C        4.2900     0.5640     0.9730 C.ar  1 <1>   0.0860 
  4 C        2.4170    -0.8930     1.3950 C.ar  1 <1>   0.1600 
  5 C        5.1940     1.3110     0.1220 C.2   1 <1>   0.5440 
  6 C        4.4170     0.5900     2.3570 C.ar  1 <1>  -0.1500 
  7 N        2.5340    -0.8440     2.7130 N.ar  1 <1>  -0.6200 
  8 O        6.3660     1.4510     0.4230 O.2   1 <1>  -0.5700 
  9 N        4.7760     1.9860    -0.9960 N.am  1 <1>  -0.6600 
 10 C        3.5380    -0.1100     3.1630 C.ar  1 <1>   0.1600 
 11 C        5.5930     1.9390    -2.2500 C.3   1 <1>   0.1400 
 12 C        3.8140     3.1070    -0.8810 C.3   1 <1>   0.1400 
 13 C        6.5220     3.1590    -2.4110 C.3   1 <1>   0.3430 
 14 C        4.4790     4.2860    -0.1530 C.3   1 <1>  -0.1600 
 15 N        6.7590     3.8370    -1.1000 N.4   1 <1>  -0.9590 
 16 C        5.7240     4.8760    -0.8310 C.3   1 <1>   0.3430 
 17 C        8.1520     4.3630    -1.0040 C.3   1 <1>   0.3430 
 18 C        8.6210     4.4710     0.4500 C.3   1 <1>   0.0200 
 19 C        9.9980     5.1060     0.4800 C.2   1 <1>   0.0060 
 20 N       10.5020     5.7220    -0.5400 N.2   1 <1>  -0.5650 
 21 N       10.8130     5.0900     1.5650 N.pl3 1 <1>   0.0480 
 22 C       11.7080     6.1310    -0.1060 C.2   1 <1>   0.0770 
 23 C       11.9130     5.7540     1.1730 C.2   1 <1>  -0.3020 
 24 C       10.5900     4.4900     2.8940 C.3   1 <1>   0.0160 
 25 H        1.6180    -1.4950     0.9960 H     1 <1>   0.1500 
 26 H        5.2100     1.1590     2.8100 H     1 <1>   0.1500 
 27 H        3.6630    -0.0660     4.2330 H     1 <1>   0.1500 
 28 H        4.9440     1.8560    -3.1050 H     1 <1>   0.0800 
 29 H        6.2010     1.0500    -2.2310 H     1 <1>   0.0800 
 30 H        2.9500     2.7790    -0.3250 H     1 <1>   0.0800 
 31 H        3.4780     3.4060    -1.8600 H     1 <1>   0.0800 
 32 H        6.0890     3.8540    -3.1110 H     1 <1>   0.0800 
 33 H        7.4560     2.8190    -2.8280 H     1 <1>   0.0800 
 34 H        4.7300     3.9930     0.8510 H     1 <1>   0.0800 
 35 H        3.7510     5.0730    -0.0650 H     1 <1>   0.0800 
 36 H        6.6430     3.0720    -0.3990 H     1 <1>   0.4500 
 37 H        6.1330     5.6340    -0.1830 H     1 <1>   0.0800 
 38 H        5.4440     5.3560    -1.7550 H     1 <1>   0.0800 
 39 H        8.2160     5.3310    -1.4750 H     1 <1>   0.0800 
 40 H        8.8310     3.7040    -1.5200 H     1 <1>   0.0800 
 41 H        8.6680     3.4880     0.8830 H     1 <1>   0.0800 
 42 H        7.9490     5.0860     1.0190 H     1 <1>   0.0800 
 43 H       12.3780     6.6840    -0.7450 H     1 <1>   0.1500 
 44 H       12.7660     5.9210     1.8060 H     1 <1>   0.1500 
 45 H        9.6570     4.8410     3.2950 H     1 <1>   0.0800 
 46 H       11.3890     4.7740     3.5540 H     1 <1>   0.0800 
 47 H       10.5680     3.4190     2.8030 H     1 <1>   0.0800 
@<TRIPOS>BOND
  1   1   2  1   
  2   2   3  ar  
  3   2   4  ar  
  4   3   5  1   
  5   3   6  ar  
  6   4   7  ar  
  7   4  25  1   
  8   5   8  2   
  9   5   9  am  
 10   6  10  ar  
 11   6  26  1   
 12   7  10  ar  
 13   9  11  1   
 14   9  12  1   
 15  10  27  1   
 16  11  13  1   
 17  11  28  1   
 18  11  29  1   
 19  12  14  1   
 20  12  30  1   
 21  12  31  1   
 22  13  15  1   
 23  13  32  1   
 24  13  33  1   
 25  14  16  1   
 26  14  34  1   
 27  14  35  1   
 28  15  16  1   
 29  15  17  1   
 30  15  36  1   
 31  16  37  1   
 32  16  38  1   
 33  17  18  1   
 34  17  39  1   
 35  17  40  1   
 36  18  19  1   
 37  18  41  1   
 38  18  42  1   
 39  19  20  2   
 40  19  21  1   
 41  20  22  1   
 42  21  23  1   
 43  21  24  1   
 44  22  23  2   
 45  22  43  1   
 46  23  44  1   
 47  24  45  1   
 48  24  46  1   
 49  24  47  1   
@<TRIPOS>SUBSTRUCTURE
  1 ****   8 GROUP 4 **** **** 0

# MOE 2024.06 (io_trps.svl 2023.06)
