@<TRIPOS>MOLECULE
NONAME
42 44 1 0 0 
SMALL
USER_CHARGES


@<TRIPOS>ATOM
  1 S       -0.4930     0.0030    -1.6480 S.3   1 <1>  -0.0800 
  2 C        0.5460     0.4450    -0.3110 C.2   1 <1>   0.1980 
  3 C       -1.8800     0.4100    -0.6760 C.2   1 <1>  -0.1400 
  4 N       -0.0820     0.8410     0.7230 N.2   1 <1>  -0.5650 
  5 C        2.0430     0.3090    -0.5400 C.3   1 <1>   0.0200 
  6 C       -1.4520     0.8240     0.5280 C.2   1 <1>   0.0460 
  7 C       -3.2470     0.2430    -1.3030 C.3   1 <1>   0.3200 
  8 C        2.8780     0.7100     0.6840 C.3   1 <1>  -0.2400 
  9 C       -2.2970     1.2710     1.7010 C.3   1 <1>  -0.0590 
 10 N       -3.5210    -1.1980    -1.4320 N.am  1 <1>  -0.7300 
 11 C       -4.6940    -1.7850    -1.1020 C.2   1 <1>   0.5690 
 12 O       -5.6460    -1.1480    -0.7280 O.2   1 <1>  -0.5700 
 13 C       -4.8060    -3.2890    -1.1820 C.3   1 <1>  -0.0990 
 14 C       -4.8650    -3.9010     0.2230 C.3   1 <1>   0.0200 
 15 C       -4.9190    -5.4140     0.1590 C.2   1 <1>   0.2980 
 16 O       -3.8570    -6.0620    -0.2430 O.3   1 <1>  -0.0190 
 17 N       -5.9170    -6.1340     0.4600 N.2   1 <1>  -0.5650 
 18 N       -4.2100    -7.3080    -0.1970 N.2   1 <1>  -0.4100 
 19 C       -5.4280    -7.3560     0.2200 C.2   1 <1>   0.5150 
 20 C       -6.2240    -8.5470     0.4210 C.2   1 <1>   0.1410 
 21 O       -5.7300    -9.7590     0.1780 O.3   1 <1>  -0.2800 
 22 C       -7.5080    -8.6840     0.8540 C.2   1 <1>  -0.1500 
 23 C       -6.6590   -10.6540     0.4430 C.2   1 <1>  -0.0100 
 24 C       -7.7890   -10.0520     0.8670 C.2   1 <1>  -0.1500 
 25 H        2.3190     0.9290    -1.3740 H     1 <1>   0.0800 
 26 H        2.2590    -0.7120    -0.7960 H     1 <1>   0.0800 
 27 H       -3.2640     0.7040    -2.2760 H     1 <1>   0.0800 
 28 H       -3.9980     0.7110    -0.6910 H     1 <1>   0.0800 
 29 H        2.6830     1.7360     0.9440 H     1 <1>   0.0800 
 30 H        3.9260     0.5960     0.4760 H     1 <1>   0.0800 
 31 H        2.6190     0.0900     1.5250 H     1 <1>   0.0800 
 32 H       -3.3440     1.2000     1.4750 H     1 <1>   0.0800 
 33 H       -2.0590     2.2900     1.9470 H     1 <1>   0.0800 
 34 H       -2.0830     0.6510     2.5530 H     1 <1>   0.0800 
 35 H       -2.7100    -1.7540    -1.7050 H     1 <1>   0.3700 
 36 H       -3.9690    -3.6880    -1.7250 H     1 <1>   0.0800 
 37 H       -5.7040    -3.5370    -1.7200 H     1 <1>   0.0800 
 38 H       -5.7400    -3.5400     0.7350 H     1 <1>   0.0800 
 39 H       -4.0010    -3.6070     0.7910 H     1 <1>   0.0800 
 40 H       -8.1860    -7.8980     1.1340 H     1 <1>   0.1500 
 41 H       -6.4320   -11.6970     0.3020 H     1 <1>   0.1500 
 42 H       -8.7220   -10.5000     1.1610 H     1 <1>   0.1500 
@<TRIPOS>BOND
  1   1   2  1   
  2   1   3  1   
  3   2   4  2   
  4   2   5  1   
  5   3   6  2   
  6   3   7  1   
  7   4   6  1   
  8   5   8  1   
  9   5  25  1   
 10   5  26  1   
 11   6   9  1   
 12   7  10  1   
 13   7  27  1   
 14   7  28  1   
 15   8  29  1   
 16   8  30  1   
 17   8  31  1   
 18   9  32  1   
 19   9  33  1   
 20   9  34  1   
 21  10  11  am  
 22  10  35  1   
 23  11  12  2   
 24  11  13  1   
 25  13  14  1   
 26  13  36  1   
 27  13  37  1   
 28  14  15  1   
 29  14  38  1   
 30  14  39  1   
 31  15  16  1   
 32  15  17  2   
 33  16  18  1   
 34  17  19  1   
 35  18  19  2   
 36  19  20  1   
 37  20  21  1   
 38  20  22  2   
 39  21  23  1   
 40  22  24  1   
 41  22  40  1   
 42  23  24  2   
 43  23  41  1   
 44  24  42  1   
@<TRIPOS>SUBSTRUCTURE
  1 ****  14 GROUP 4 **** **** 0

# MOE 2024.06 (io_trps.svl 2023.06)
