@<TRIPOS>MOLECULE
NONAME
51 53 1 0 0 
SMALL
USER_CHARGES


@<TRIPOS>ATOM
  1 O       -0.3390    -1.2180     0.6700 O.2   1 <1>  -0.5700 
  2 C        0.8430    -1.4540     0.5820 C.2   1 <1>   0.5690 
  3 N        1.4200    -2.4420     1.3100 N.am  1 <1>  -0.7300 
  4 C        1.7130    -0.6550    -0.3920 C.3   1 <1>  -0.0190 
  5 C        0.6880    -3.3330     2.2640 C.3   1 <1>   0.2010 
  6 C        1.5400     0.8620    -0.2040 C.3   1 <1>  -0.2400 
  7 C        1.4130    -1.0430    -1.8480 C.3   1 <1>  -0.2400 
  8 C        0.6030    -4.7870     1.7910 C.2   1 <1>   0.5690 
  9 O        1.3240    -5.5950     2.3290 O.2   1 <1>  -0.5700 
 10 N       -0.2610    -5.1520     0.7920 N.am  1 <1>  -0.6600 
 11 C       -1.1700    -4.2480     0.0410 C.3   1 <1>   0.1400 
 12 C       -0.4330    -6.5530     0.3450 C.3   1 <1>   0.1400 
 13 C       -2.0000    -5.1690    -0.8580 C.3   1 <1>   0.2000 
 14 C       -1.8180    -6.5810    -0.3010 C.3   1 <1>  -0.0800 
 15 O       -3.3440    -4.8290    -0.8390 O.3   1 <1>  -0.6800 
 16 C       -1.9820    -7.6690    -1.3750 C.3   1 <1>  -0.0160 
 17 C       -1.7690    -9.0550    -0.7920 C.ar  1 <1>   0.1670 
 18 N       -0.5620    -9.5310    -0.8070 N.ar  1 <1>  -0.6200 
 19 C       -2.8700    -9.7430    -0.2590 C.ar  1 <1>  -0.1500 
 20 C       -0.3610   -10.7630    -0.2720 C.ar  1 <1>   0.3100 
 21 C       -2.6990   -10.9800     0.2820 C.ar  1 <1>  -0.1500 
 22 C       -1.4060   -11.5300     0.2880 C.ar  1 <1>   0.0000 
 23 C        0.9370   -11.2980    -0.2690 C.ar  1 <1>  -0.1500 
 24 C       -1.1120   -12.7990     0.8250 C.ar  1 <1>  -0.1500 
 25 C        1.2020   -12.5340     0.2590 C.ar  1 <1>  -0.1500 
 26 C        0.1650   -13.2920     0.8120 C.ar  1 <1>  -0.1500 
 27 H        2.4030    -2.6810     1.1640 H     1 <1>   0.3700 
 28 H        2.7430    -0.8910    -0.1900 H     1 <1>   0.0800 
 29 H        1.1960    -3.3140     3.2110 H     1 <1>   0.0800 
 30 H       -0.3080    -2.9620     2.4250 H     1 <1>   0.0800 
 31 H        0.5240     1.1510    -0.4140 H     1 <1>   0.0800 
 32 H        2.1970     1.4030    -0.8620 H     1 <1>   0.0800 
 33 H        1.7670     1.1370     0.8110 H     1 <1>   0.0800 
 34 H        0.3890    -0.8150    -2.0890 H     1 <1>   0.0800 
 35 H        1.5700    -2.0980    -1.9910 H     1 <1>   0.0800 
 36 H        2.0550    -0.5050    -2.5220 H     1 <1>   0.0800 
 37 H       -1.7930    -3.6990     0.7250 H     1 <1>   0.0800 
 38 H       -0.5960    -3.5650    -0.5610 H     1 <1>   0.0800 
 39 H        0.3330    -6.7900    -0.3740 H     1 <1>   0.0800 
 40 H       -0.3660    -7.2400     1.1720 H     1 <1>   0.0800 
 41 H       -1.6480    -5.0990    -1.8730 H     1 <1>   0.0800 
 42 H       -2.5290    -6.7500     0.4880 H     1 <1>   0.0800 
 43 H       -3.6750    -4.8130     0.0800 H     1 <1>   0.4000 
 44 H       -1.2720    -7.5100    -2.1680 H     1 <1>   0.0800 
 45 H       -2.9660    -7.6050    -1.8040 H     1 <1>   0.0800 
 46 H       -3.8400    -9.2800    -0.2830 H     1 <1>   0.1500 
 47 H       -3.5170   -11.5380     0.7000 H     1 <1>   0.1500 
 48 H        1.7190   -10.7000    -0.6970 H     1 <1>   0.1500 
 49 H       -1.9130   -13.3760     1.2500 H     1 <1>   0.1500 
 50 H        2.2020   -12.9330     0.2550 H     1 <1>   0.1500 
 51 H        0.3880   -14.2620     1.2230 H     1 <1>   0.1500 
@<TRIPOS>BOND
  1   1   2  2   
  2   2   3  am  
  3   2   4  1   
  4   3   5  1   
  5   3  27  1   
  6   4   6  1   
  7   4   7  1   
  8   4  28  1   
  9   5   8  1   
 10   5  29  1   
 11   5  30  1   
 12   6  31  1   
 13   6  32  1   
 14   6  33  1   
 15   7  34  1   
 16   7  35  1   
 17   7  36  1   
 18   8   9  2   
 19   8  10  am  
 20  10  11  1   
 21  10  12  1   
 22  11  13  1   
 23  11  37  1   
 24  11  38  1   
 25  12  14  1   
 26  12  39  1   
 27  12  40  1   
 28  13  14  1   
 29  13  15  1   
 30  13  41  1   
 31  14  16  1   
 32  14  42  1   
 33  15  43  1   
 34  16  17  1   
 35  16  44  1   
 36  16  45  1   
 37  17  18  ar  
 38  17  19  ar  
 39  18  20  ar  
 40  19  21  ar  
 41  19  46  1   
 42  20  22  ar  
 43  20  23  ar  
 44  21  22  ar  
 45  21  47  1   
 46  22  24  ar  
 47  23  25  ar  
 48  23  48  1   
 49  24  26  ar  
 50  24  49  1   
 51  25  26  ar  
 52  25  50  1   
 53  26  51  1   
@<TRIPOS>SUBSTRUCTURE
  1 ****  12 GROUP 4 **** **** 0

# MOE 2024.06 (io_trps.svl 2023.06)
