@<TRIPOS>MOLECULE
NONAME
44 46 1 0 0 
SMALL
USER_CHARGES


@<TRIPOS>ATOM
  1 O       -2.9760     1.2300    -1.8650 O.2   1 <1>  -0.5700 
  2 C       -2.4870     1.0280    -0.7830 C.2   1 <1>   0.5690 
  3 N       -2.1360    -0.2150    -0.3760 N.am  1 <1>  -0.7300 
  4 C       -2.2600     2.1960     0.1550 C.3   1 <1>  -0.0990 
  5 C       -2.2370    -1.4360    -1.2100 C.3   1 <1>   0.2200 
  6 C       -0.8480     2.7840    -0.0030 C.3   1 <1>  -0.1600 
  7 C       -3.4060    -2.3110    -0.7760 C.3   1 <1>  -0.0800 
  8 C       -1.0680    -2.3500    -0.8750 C.3   1 <1>   0.1200 
  9 C       -0.6360     3.9940     0.9190 C.3   1 <1>   0.0960 
 10 C       -2.8150    -3.1400     0.3720 C.3   1 <1>   0.1200 
 11 C       -4.7080    -1.5700    -0.4200 C.3   1 <1>  -0.0160 
 12 O       -1.4280    -2.9610     0.3260 O.3   1 <1>  -0.5600 
 13 N        0.7170     4.5580     0.7480 N.pl3 1 <1>   0.3140 
 14 C       -5.8250    -2.5540    -0.1080 C.ar  1 <1>  -0.1440 
 15 N        0.9670     5.6080    -0.0190 N.2   1 <1>  -0.7070 
 16 C        1.8650     4.1480     1.2970 C.2   1 <1>   0.0360 
 17 C       -6.1640    -2.8950     1.1850 C.ar  1 <1>  -0.1500 
 18 C       -6.5570    -3.1580    -1.1100 C.ar  1 <1>  -0.1500 
 19 C        2.2430     5.7570     0.1190 C.2   1 <1>   0.3660 
 20 N        2.8540     4.8780     0.9250 N.2   1 <1>  -0.5650 
 21 C       -7.1860    -3.8040     1.4080 C.ar  1 <1>   0.1600 
 22 C       -7.5600    -4.0540    -0.7800 C.ar  1 <1>   0.1600 
 23 N       -7.8900    -4.3940     0.4560 N.ar  1 <1>  -0.6200 
 24 H       -1.7490    -0.3860     0.5540 H     1 <1>   0.3700 
 25 H       -2.9930     2.9510    -0.0700 H     1 <1>   0.0800 
 26 H       -2.4190     1.8700     1.1660 H     1 <1>   0.0800 
 27 H       -2.2730    -1.1820    -2.2560 H     1 <1>   0.0800 
 28 H       -0.7130     3.0950    -1.0260 H     1 <1>   0.0800 
 29 H       -0.1180     2.0240     0.2190 H     1 <1>   0.0800 
 30 H       -3.6200    -2.9910    -1.5820 H     1 <1>   0.0800 
 31 H       -0.1410    -1.8190    -0.7520 H     1 <1>   0.0800 
 32 H       -0.9560    -3.1200    -1.6190 H     1 <1>   0.0800 
 33 H       -0.7600     3.7110     1.9480 H     1 <1>   0.0800 
 34 H       -1.3490     4.7640     0.6860 H     1 <1>   0.0800 
 35 H       -3.0370    -4.1880     0.2600 H     1 <1>   0.0800 
 36 H       -3.1570    -2.7980     1.3330 H     1 <1>   0.0800 
 37 H       -5.0020    -0.9490    -1.2490 H     1 <1>   0.0800 
 38 H       -4.5560    -0.9240     0.4260 H     1 <1>   0.0800 
 39 H        1.9310     3.3090     1.9640 H     1 <1>   0.1500 
 40 H       -5.6470    -2.4650     2.0230 H     1 <1>   0.1500 
 41 H       -6.3570    -2.9410    -2.1430 H     1 <1>   0.1500 
 42 H        2.8050     6.5330    -0.3740 H     1 <1>   0.1500 
 43 H       -7.4370    -4.0590     2.4230 H     1 <1>   0.1500 
 44 H       -8.1210    -4.5160    -1.5740 H     1 <1>   0.1500 
@<TRIPOS>BOND
  1   1   2  2   
  2   2   3  am  
  3   2   4  1   
  4   3   5  1   
  5   3  24  1   
  6   4   6  1   
  7   4  25  1   
  8   4  26  1   
  9   5   7  1   
 10   5   8  1   
 11   5  27  1   
 12   6   9  1   
 13   6  28  1   
 14   6  29  1   
 15   7  10  1   
 16   7  11  1   
 17   7  30  1   
 18   8  12  1   
 19   8  31  1   
 20   8  32  1   
 21   9  13  1   
 22   9  33  1   
 23   9  34  1   
 24  10  12  1   
 25  10  35  1   
 26  10  36  1   
 27  11  14  1   
 28  11  37  1   
 29  11  38  1   
 30  13  15  1   
 31  13  16  1   
 32  14  17  ar  
 33  14  18  ar  
 34  15  19  2   
 35  16  20  2   
 36  16  39  1   
 37  17  21  ar  
 38  17  40  1   
 39  18  22  ar  
 40  18  41  1   
 41  19  20  1   
 42  19  42  1   
 43  21  23  ar  
 44  21  43  1   
 45  22  23  ar  
 46  22  44  1   
@<TRIPOS>SUBSTRUCTURE
  1 ****   3 GROUP 4 **** **** 0

# MOE 2024.06 (io_trps.svl 2023.06)
