@<TRIPOS>MOLECULE
NONAME
44 46 1 0 0 
SMALL
USER_CHARGES


@<TRIPOS>ATOM
  1 O       -0.4990     0.2230     0.0360 O.2   1 <1>  -0.5700 
  2 C       -1.5490     0.8150     0.1330 C.2   1 <1>   0.5690 
  3 N       -2.7330     0.1430     0.2930 N.am  1 <1>  -0.6600 
  4 C       -1.5380     2.3330     0.0670 C.3   1 <1>  -0.0990 
  5 C       -2.7780    -1.3490     0.4160 C.3   1 <1>   0.1400 
  6 C       -4.0990     0.7560     0.2850 C.3   1 <1>   0.1400 
  7 C       -0.1260     2.9160     0.0810 C.3   1 <1>   0.1200 
  8 C       -3.7700    -1.9610    -0.5900 C.3   1 <1>   0.3440 
  9 C       -5.0230     0.0340    -0.7230 C.3   1 <1>   0.2950 
 10 O       -0.2390     4.3010     0.0300 O.3   1 <1>  -0.5600 
 11 O       -5.0250    -1.3410    -0.4710 O.3   1 <1>  -0.5600 
 12 C       -3.9130    -3.4620    -0.3560 C.ar  1 <1>  -0.1440 
 13 C       -6.4920     0.4920    -0.6920 C.3   1 <1>  -0.1950 
 14 C        0.9840     4.9620     0.0340 C.3   1 <1>   0.0400 
 15 C       -3.0610    -4.3400    -1.0120 C.ar  1 <1>  -0.1500 
 16 C       -4.8700    -3.9750     0.5100 C.ar  1 <1>  -0.1500 
 17 C       -6.9240     1.8860    -0.3470 C.3   1 <1>  -0.2000 
 18 C       -7.2610     0.7420     0.5690 C.3   1 <1>  -0.2000 
 19 C       -3.1620    -5.7050    -0.8060 C.ar  1 <1>  -0.1500 
 20 C       -4.9720    -5.3390     0.7180 C.ar  1 <1>  -0.1500 
 21 C       -4.1180    -6.2060     0.0600 C.ar  1 <1>  -0.1500 
 22 H       -2.0280     2.6400    -0.8380 H     1 <1>   0.0800 
 23 H       -2.0730     2.7190     0.9130 H     1 <1>   0.0800 
 24 H       -1.8050    -1.7760     0.2490 H     1 <1>   0.0800 
 25 H       -3.0830    -1.6140     1.4130 H     1 <1>   0.0800 
 26 H       -4.5170     0.6800     1.2720 H     1 <1>   0.0800 
 27 H       -4.0500     1.7960     0.0240 H     1 <1>   0.0800 
 28 H        0.4320     2.5780    -0.7760 H     1 <1>   0.0800 
 29 H        0.3890     2.6380     0.9850 H     1 <1>   0.0800 
 30 H       -3.4130    -1.7940    -1.5920 H     1 <1>   0.0800 
 31 H       -4.6420     0.1900    -1.7180 H     1 <1>   0.0800 
 32 H       -7.0390     0.0190    -1.4900 H     1 <1>   0.1000 
 33 H        0.7930     6.0200    -0.0070 H     1 <1>   0.0800 
 34 H        1.5540     4.6620    -0.8280 H     1 <1>   0.0800 
 35 H        1.5140     4.7240     0.9410 H     1 <1>   0.0800 
 36 H       -2.3120    -3.9660    -1.6880 H     1 <1>   0.1500 
 37 H       -5.5420    -3.3090     1.0250 H     1 <1>   0.1500 
 38 H       -6.2190     2.6180     0.0050 H     1 <1>   0.1000 
 39 H       -7.7180     2.3340    -0.9200 H     1 <1>   0.1000 
 40 H       -8.2790     0.3940     0.6170 H     1 <1>   0.1000 
 41 H       -6.7640     0.6660     1.5200 H     1 <1>   0.1000 
 42 H       -2.4970    -6.3770    -1.3190 H     1 <1>   0.1500 
 43 H       -5.7180    -5.7250     1.3900 H     1 <1>   0.1500 
 44 H       -4.1980    -7.2670     0.2210 H     1 <1>   0.1500 
@<TRIPOS>BOND
  1   1   2  2   
  2   2   3  am  
  3   2   4  1   
  4   3   5  1   
  5   3   6  1   
  6   4   7  1   
  7   4  22  1   
  8   4  23  1   
  9   5   8  1   
 10   5  24  1   
 11   5  25  1   
 12   6   9  1   
 13   6  26  1   
 14   6  27  1   
 15   7  10  1   
 16   7  28  1   
 17   7  29  1   
 18   8  11  1   
 19   8  12  1   
 20   8  30  1   
 21   9  11  1   
 22   9  13  1   
 23   9  31  1   
 24  10  14  1   
 25  12  15  ar  
 26  12  16  ar  
 27  13  17  1   
 28  13  18  1   
 29  13  32  1   
 30  14  33  1   
 31  14  34  1   
 32  14  35  1   
 33  15  19  ar  
 34  15  36  1   
 35  16  20  ar  
 36  16  37  1   
 37  17  18  1   
 38  17  38  1   
 39  17  39  1   
 40  18  40  1   
 41  18  41  1   
 42  19  21  ar  
 43  19  42  1   
 44  20  21  ar  
 45  20  43  1   
 46  21  44  1   
@<TRIPOS>SUBSTRUCTURE
  1 ****   5 GROUP 4 **** **** 0

# MOE 2024.06 (io_trps.svl 2023.06)
