@<TRIPOS>MOLECULE
NONAME
47 48 1 0 0 
SMALL
USER_CHARGES


@<TRIPOS>ATOM
  1 O       -1.1780     0.5170     0.9030 O.3   1 <1>  -0.3630 
  2 C       -1.3890     1.1540    -0.2830 C.ar  1 <1>   0.3920 
  3 C       -1.5560    -0.8360     1.0740 C.3   1 <1>   0.0400 
  4 N       -1.9810     0.4810    -1.2590 N.ar  1 <1>  -0.6200 
  5 C       -0.9630     2.5080    -0.3900 C.ar  1 <1>   0.4100 
  6 C       -2.1290     1.2210    -2.3490 C.ar  1 <1>   0.1600 
  7 N       -1.1270     3.2280    -1.4920 N.ar  1 <1>  -0.6200 
  8 N       -0.3360     3.1460     0.6750 N.pl3 1 <1>  -0.8690 
  9 C       -1.7190     2.5400    -2.4590 C.ar  1 <1>   0.1600 
 10 C       -0.4060     4.6060     0.8770 C.3   1 <1>   0.2090 
 11 C        0.8800     5.2190     0.3200 C.3   1 <1>  -0.1600 
 12 C        0.8780     6.7510     0.4010 C.3   1 <1>  -0.1600 
 13 C        2.1400     7.3090    -0.2600 C.3   1 <1>   0.3430 
 14 N        2.1190     8.7970    -0.2470 N.4   1 <1>  -0.9590 
 15 C        3.0970     9.3430    -1.2260 C.3   1 <1>   0.3430 
 16 C        2.3870     9.3550     1.1050 C.3   1 <1>   0.3430 
 17 C        2.6890    10.7420    -1.6980 C.3   1 <1>  -0.1600 
 18 C        1.4410    10.5190     1.3980 C.3   1 <1>  -0.1600 
 19 C        2.4710    11.7980    -0.5980 C.3   1 <1>  -0.1600 
 20 C        1.2220    11.5270     0.2540 C.3   1 <1>  -0.1600 
 21 H       -1.2940    -1.1380     2.0710 H     1 <1>   0.0800 
 22 H       -1.0280    -1.4380     0.3550 H     1 <1>   0.0800 
 23 H       -2.6180    -0.9220     0.9270 H     1 <1>   0.0800 
 24 H       -2.6000     0.7520    -3.1940 H     1 <1>   0.1500 
 25 H       -0.3580     2.5880     1.5350 H     1 <1>   0.4000 
 26 H       -1.8860     3.0540    -3.3880 H     1 <1>   0.1500 
 27 H       -0.5020     4.8180     1.9280 H     1 <1>   0.0800 
 28 H       -1.2670     5.0060     0.3660 H     1 <1>   0.0800 
 29 H        0.9750     4.9160    -0.7100 H     1 <1>   0.0800 
 30 H        1.7170     4.8200     0.8670 H     1 <1>   0.0800 
 31 H        0.8260     7.0450     1.4340 H     1 <1>   0.0800 
 32 H        0.0090     7.1240    -0.1150 H     1 <1>   0.0800 
 33 H        2.1740     6.9570    -1.2790 H     1 <1>   0.0800 
 34 H        3.0170     6.9440     0.2500 H     1 <1>   0.0800 
 35 H        1.1850     9.1170    -0.5340 H     1 <1>   0.4500 
 36 H        3.1480     8.6980    -2.0880 H     1 <1>   0.0800 
 37 H        4.0790     9.3800    -0.7820 H     1 <1>   0.0800 
 38 H        3.4070     9.7000     1.1590 H     1 <1>   0.0800 
 39 H        2.2550     8.5980     1.8610 H     1 <1>   0.0800 
 40 H        1.8030    10.6640    -2.3050 H     1 <1>   0.0800 
 41 H        3.4690    11.0990    -2.3490 H     1 <1>   0.0800 
 42 H        1.8440    11.0480     2.2450 H     1 <1>   0.0800 
 43 H        0.4870    10.1300     1.7090 H     1 <1>   0.0800 
 44 H        2.3320    12.7490    -1.0870 H     1 <1>   0.0800 
 45 H        3.3450    11.8940     0.0240 H     1 <1>   0.0800 
 46 H        0.8980    12.4570     0.6930 H     1 <1>   0.0800 
 47 H        0.4180    11.1960    -0.3810 H     1 <1>   0.0800 
@<TRIPOS>BOND
  1   1   2  1   
  2   1   3  1   
  3   2   4  ar  
  4   2   5  ar  
  5   3  21  1   
  6   3  22  1   
  7   3  23  1   
  8   4   6  ar  
  9   5   7  ar  
 10   5   8  1   
 11   6   9  ar  
 12   6  24  1   
 13   7   9  ar  
 14   8  10  1   
 15   8  25  1   
 16   9  26  1   
 17  10  11  1   
 18  10  27  1   
 19  10  28  1   
 20  11  12  1   
 21  11  29  1   
 22  11  30  1   
 23  12  13  1   
 24  12  31  1   
 25  12  32  1   
 26  13  14  1   
 27  13  33  1   
 28  13  34  1   
 29  14  15  1   
 30  14  16  1   
 31  14  35  1   
 32  15  17  1   
 33  15  36  1   
 34  15  37  1   
 35  16  18  1   
 36  16  38  1   
 37  16  39  1   
 38  17  19  1   
 39  17  40  1   
 40  17  41  1   
 41  18  20  1   
 42  18  42  1   
 43  18  43  1   
 44  19  20  1   
 45  19  44  1   
 46  19  45  1   
 47  20  46  1   
 48  20  47  1   
@<TRIPOS>SUBSTRUCTURE
  1 ****  11 GROUP 4 **** **** 0

# MOE 2024.06 (io_trps.svl 2023.06)
