@<TRIPOS>MOLECULE
NONAME
41 43 1 0 0 
SMALL
USER_CHARGES


@<TRIPOS>ATOM
  1 F       -0.0360    -1.7860    -0.5840 F     1 <1>  -0.1900 
  2 C       -0.9990    -2.5420    -0.1220 C.ar  1 <1>   0.1900 
  3 C       -2.2120    -2.5420    -0.7670 C.ar  1 <1>  -0.1500 
  4 C       -0.7350    -3.3150     1.0130 C.ar  1 <1>  -0.1500 
  5 C       -3.2150    -3.3580    -0.2480 C.ar  1 <1>   0.2270 
  6 C       -1.7290    -4.1210     1.5240 C.ar  1 <1>  -0.1500 
  7 N       -4.4900    -3.5470    -0.6890 N.2   1 <1>  -0.5650 
  8 C       -2.9690    -4.1300     0.8770 C.ar  1 <1>  -0.1520 
  9 C       -4.9890    -4.3990     0.1410 C.2   1 <1>   0.0060 
 10 N       -4.1290    -4.7920     1.1120 N.pl3 1 <1>   0.0330 
 11 C       -6.4020    -4.9540     0.0960 C.3   1 <1>   0.3200 
 12 N       -6.3700    -6.4290    -0.1290 N.am  1 <1>  -0.6600 
 13 C       -6.1860    -7.2780     0.9310 C.2   1 <1>   0.5690 
 14 C       -6.4410    -6.8190    -1.5670 C.3   1 <1>   0.0600 
 15 O       -5.9230    -6.8550     2.0340 O.2   1 <1>  -0.5700 
 16 C       -6.2910    -8.7870     0.7730 C.3   1 <1>  -0.0990 
 17 C       -7.7380    -9.2420     0.5200 C.3   1 <1>  -0.1600 
 18 C       -7.8310   -10.7650     0.3580 C.3   1 <1>   0.0960 
 19 N       -9.1950   -11.1560    -0.0420 N.pl3 1 <1>   0.3140 
 20 N       -9.5970   -11.1010    -1.3250 N.2   1 <1>  -0.7070 
 21 C      -10.1870   -11.5830     0.7640 C.2   1 <1>  -0.3020 
 22 C      -10.8330   -11.4960    -1.3030 C.2   1 <1>   0.1390 
 23 C      -11.2610   -11.8130    -0.0200 C.2   1 <1>  -0.1500 
 24 H       -2.4020    -1.9450    -1.6370 H     1 <1>   0.1500 
 25 H        0.2380    -3.2660     1.4670 H     1 <1>   0.1500 
 26 H       -1.5660    -4.7310     2.3960 H     1 <1>   0.1500 
 27 H       -4.3430    -5.4910     1.8360 H     1 <1>   0.2700 
 28 H       -6.9510    -4.4730    -0.6940 H     1 <1>   0.0800 
 29 H       -6.9000    -4.7380     1.0250 H     1 <1>   0.0800 
 30 H       -5.7100    -6.2610    -2.1280 H     1 <1>   0.0800 
 31 H       -7.4210    -6.5960    -1.9550 H     1 <1>   0.0800 
 32 H       -6.2460    -7.8660    -1.7080 H     1 <1>   0.0800 
 33 H       -5.9320    -9.2450     1.6780 H     1 <1>   0.0800 
 34 H       -5.6450    -9.1070    -0.0230 H     1 <1>   0.0800 
 35 H       -8.1100    -8.7750    -0.3760 H     1 <1>   0.0800 
 36 H       -8.3580    -8.9310     1.3430 H     1 <1>   0.0800 
 37 H       -7.5820   -11.2610     1.2780 H     1 <1>   0.0800 
 38 H       -7.1570   -11.0990    -0.4100 H     1 <1>   0.0800 
 39 H      -10.0780   -11.6960     1.8270 H     1 <1>   0.1500 
 40 H      -11.4480   -11.5670    -2.1850 H     1 <1>   0.1500 
 41 H      -12.2400   -12.1610     0.2550 H     1 <1>   0.1500 
@<TRIPOS>BOND
  1   1   2  1   
  2   2   3  ar  
  3   2   4  ar  
  4   3   5  ar  
  5   3  24  1   
  6   4   6  ar  
  7   4  25  1   
  8   5   7  1   
  9   5   8  ar  
 10   6   8  ar  
 11   6  26  1   
 12   7   9  2   
 13   8  10  1   
 14   9  10  1   
 15   9  11  1   
 16  10  27  1   
 17  11  12  1   
 18  11  28  1   
 19  11  29  1   
 20  12  13  am  
 21  12  14  1   
 22  13  15  2   
 23  13  16  1   
 24  14  30  1   
 25  14  31  1   
 26  14  32  1   
 27  16  17  1   
 28  16  33  1   
 29  16  34  1   
 30  17  18  1   
 31  17  35  1   
 32  17  36  1   
 33  18  19  1   
 34  18  37  1   
 35  18  38  1   
 36  19  20  1   
 37  19  21  1   
 38  20  22  2   
 39  21  23  2   
 40  21  39  1   
 41  22  23  1   
 42  22  40  1   
 43  23  41  1   
@<TRIPOS>SUBSTRUCTURE
  1 ****  12 GROUP 4 **** **** 0

# MOE 2024.06 (io_trps.svl 2023.06)
