@<TRIPOS>MOLECULE
NONAME
39 40 1 0 0 
SMALL
USER_CHARGES


@<TRIPOS>ATOM
  1 O       -0.7430    -1.1980     1.3900 O.3   1 <1>  -0.6800 
  2 C       -1.3060    -0.8850     0.1600 C.3   1 <1>   0.2800 
  3 C       -2.8310    -1.1740     0.2430 C.3   1 <1>   0.2090 
  4 C       -0.6230    -1.7930    -0.8900 C.3   1 <1>  -0.0220 
  5 C       -1.0680     0.6130    -0.1460 C.3   1 <1>  -0.0220 
  6 N       -3.1210    -2.5640     0.7040 N.pl3 1 <1>  -0.8690 
  7 C        0.9100    -1.8140    -0.9470 C.2   1 <1>  -0.2880 
  8 C       -1.7120     1.5570     0.8610 C.2   1 <1>  -0.2880 
  9 C       -4.2240    -3.3270     0.5560 C.2   1 <1>   0.2710 
 10 C        1.8200    -1.1580    -0.2160 C.2   1 <1>  -0.3000 
 11 C       -2.6070     2.5040     0.5630 C.2   1 <1>  -0.3000 
 12 N       -4.1480    -4.5120     1.1610 N.2   1 <1>  -0.6210 
 13 C       -5.3390    -2.9360    -0.1450 C.2   1 <1>  -0.1410 
 14 C       -5.1600    -5.3130     1.0810 C.2   1 <1>   0.9190 
 15 C       -6.3830    -3.8270    -0.1960 C.cat 1 <1>   0.7910 
 16 N       -6.2950    -5.0090     0.4110 N.pl3 1 <1>  -0.6690 
 17 N       -5.0720    -6.4920     1.6900 N.pl3 1 <1>  -0.8500 
 18 N       -7.5970    -3.7890    -0.7710 N.pl3 1 <1>  -0.3930 
 19 C       -7.4860    -5.6450     0.1680 C.2   1 <1>   0.5030 
 20 N       -8.2870    -4.9380    -0.5380 N.2   1 <1>  -0.2600 
 21 H        0.1990    -1.4220     1.2390 H     1 <1>   0.4000 
 22 H       -3.2720    -1.0110    -0.7240 H     1 <1>   0.0800 
 23 H       -3.2840    -0.4860     0.9350 H     1 <1>   0.0800 
 24 H       -0.9860    -1.5140    -1.8630 H     1 <1>   0.0800 
 25 H       -0.9470    -2.8070    -0.7290 H     1 <1>   0.0800 
 26 H       -1.4620     0.8300    -1.1230 H     1 <1>   0.0800 
 27 H       -0.0170     0.8250    -0.1890 H     1 <1>   0.0800 
 28 H       -2.4110    -2.8900     1.3780 H     1 <1>   0.4000 
 29 H        1.2390    -2.4900    -1.7210 H     1 <1>   0.1500 
 30 H       -1.3660     1.3850     1.8690 H     1 <1>   0.1500 
 31 H        2.8810    -1.2750    -0.3670 H     1 <1>   0.1500 
 32 H        1.6300    -0.4580     0.5790 H     1 <1>   0.1500 
 33 H       -3.0470     3.1590     1.2960 H     1 <1>   0.1500 
 34 H       -2.9740     2.7110    -0.4270 H     1 <1>   0.1500 
 35 H       -5.3970    -1.9820    -0.6250 H     1 <1>   0.1500 
 36 H       -4.2040    -6.6920     2.1910 H     1 <1>   0.4000 
 37 H       -5.7830    -7.2140     1.7290 H     1 <1>   0.4000 
 38 H       -7.9800    -3.0080    -1.3180 H     1 <1>   0.4500 
 39 H       -7.7040    -6.6330     0.5410 H     1 <1>   0.1500 
@<TRIPOS>BOND
  1   1   2  1   
  2   1  21  1   
  3   2   3  1   
  4   2   4  1   
  5   2   5  1   
  6   3   6  1   
  7   3  22  1   
  8   3  23  1   
  9   4   7  1   
 10   4  24  1   
 11   4  25  1   
 12   5   8  1   
 13   5  26  1   
 14   5  27  1   
 15   6   9  1   
 16   6  28  1   
 17   7  10  2   
 18   7  29  1   
 19   8  11  2   
 20   8  30  1   
 21   9  12  1   
 22   9  13  2   
 23  10  31  1   
 24  10  32  1   
 25  11  33  1   
 26  11  34  1   
 27  12  14  2   
 28  13  15  1   
 29  13  35  1   
 30  14  16  1   
 31  14  17  1   
 32  15  16  ar  
 33  15  18  ar  
 34  16  19  1   
 35  17  36  1   
 36  17  37  1   
 37  18  20  1   
 38  18  38  1   
 39  19  20  2   
 40  19  39  1   
@<TRIPOS>SUBSTRUCTURE
  1 ****   6 GROUP 4 **** **** 0

# MOE 2024.06 (io_trps.svl 2023.06)
