@<TRIPOS>MOLECULE
NONAME
41 41 1 0 0 
SMALL
USER_CHARGES


@<TRIPOS>ATOM
  1 O        0.3530     0.2670    -2.0020 O.2   1 <1>  -0.5700 
  2 C        1.0370    -0.3770    -1.2470 C.2   1 <1>   0.5690 
  3 N        1.8530     0.1650    -0.2940 N.am  1 <1>  -0.4940 
  4 C        0.9950    -1.8890    -1.3630 C.3   1 <1>  -0.0990 
  5 C        2.1620     1.5070     0.0410 C.2   1 <1>  -0.0880 
  6 C        0.1430    -2.5290    -0.2550 C.3   1 <1>  -0.1600 
  7 N        1.3790     2.6180    -0.0910 N.pl3 1 <1>   0.3140 
  8 C        3.3280     1.9320     0.5880 C.2   1 <1>  -0.1810 
  9 C        0.0280    -4.0420    -0.4420 C.3   1 <1>   0.1400 
 10 N        2.0170     3.7230     0.3540 N.2   1 <1>  -0.7070 
 11 C       -0.0140     2.7270    -0.5400 C.3   1 <1>   0.0160 
 12 C        3.1750     3.3060     0.7480 C.2   1 <1>   0.1080 
 13 C        4.5540     1.1110     0.9510 C.3   1 <1>   0.0210 
 14 N       -0.7570    -4.5990     0.6770 N.am  1 <1>  -0.7300 
 15 C        4.2070     4.2540     1.3170 C.3   1 <1>  -0.0590 
 16 C        5.5050     1.0190    -0.2430 C.3   1 <1>  -0.2400 
 17 C       -0.4750    -5.6410     1.4900 C.2   1 <1>   0.5690 
 18 O       -1.2420    -5.9410     2.3670 O.2   1 <1>  -0.5700 
 19 C        0.7930    -6.4410     1.3190 C.3   1 <1>  -0.1790 
 20 H        2.4180    -0.5140     0.2130 H     1 <1>   0.3700 
 21 H        1.9990    -2.2720    -1.3310 H     1 <1>   0.0800 
 22 H        0.5800    -2.1390    -2.3240 H     1 <1>   0.0800 
 23 H       -0.8420    -2.0940    -0.2780 H     1 <1>   0.0800 
 24 H        0.5860    -2.3220     0.7040 H     1 <1>   0.0800 
 25 H        1.0080    -4.4860    -0.4690 H     1 <1>   0.0800 
 26 H       -0.4740    -4.2630    -1.3690 H     1 <1>   0.0800 
 27 H       -0.5700     1.8790    -0.1900 H     1 <1>   0.0800 
 28 H       -0.0330     2.7620    -1.6130 H     1 <1>   0.0800 
 29 H       -0.4430     3.6280    -0.1430 H     1 <1>   0.0800 
 30 H        4.2530     0.1230     1.2490 H     1 <1>   0.0800 
 31 H        5.0600     1.5630     1.7860 H     1 <1>   0.0800 
 32 H       -1.6540    -4.1450     0.8640 H     1 <1>   0.3700 
 33 H        5.1680     4.0590     0.8820 H     1 <1>   0.0800 
 34 H        4.2620     4.1310     2.3820 H     1 <1>   0.0800 
 35 H        3.9270     5.2680     1.0970 H     1 <1>   0.0800 
 36 H        5.0060     0.5630    -1.0800 H     1 <1>   0.0800 
 37 H        6.3680     0.4300     0.0110 H     1 <1>   0.0800 
 38 H        5.8300     2.0020    -0.5360 H     1 <1>   0.0800 
 39 H        0.8390    -6.8420     0.3240 H     1 <1>   0.0800 
 40 H        0.8030    -7.2540     2.0210 H     1 <1>   0.0800 
 41 H        1.6450    -5.8140     1.5010 H     1 <1>   0.0800 
@<TRIPOS>BOND
  1   1   2  2   
  2   2   3  am  
  3   2   4  1   
  4   3   5  1   
  5   3  20  1   
  6   4   6  1   
  7   4  21  1   
  8   4  22  1   
  9   5   7  1   
 10   5   8  2   
 11   6   9  1   
 12   6  23  1   
 13   6  24  1   
 14   7  10  1   
 15   7  11  1   
 16   8  12  1   
 17   8  13  1   
 18   9  14  1   
 19   9  25  1   
 20   9  26  1   
 21  10  12  2   
 22  11  27  1   
 23  11  28  1   
 24  11  29  1   
 25  12  15  1   
 26  13  16  1   
 27  13  30  1   
 28  13  31  1   
 29  14  17  am  
 30  14  32  1   
 31  15  33  1   
 32  15  34  1   
 33  15  35  1   
 34  16  36  1   
 35  16  37  1   
 36  16  38  1   
 37  17  18  2   
 38  17  19  1   
 39  19  39  1   
 40  19  40  1   
 41  19  41  1   
@<TRIPOS>SUBSTRUCTURE
  1 ****   3 GROUP 4 **** **** 0

# MOE 2024.06 (io_trps.svl 2023.06)
