@<TRIPOS>MOLECULE
NONAME
45 46 1 0 0 
SMALL
USER_CHARGES


@<TRIPOS>ATOM
  1 S        0.2510     0.5170    -0.5580 S.o2  1 <1>   1.3330 
  2 O       -0.8400     1.4220    -0.8400 O.2   1 <1>  -0.6500 
  3 O        0.3050    -0.7660    -1.2230 O.2   1 <1>  -0.6500 
  4 N        0.2430     0.2320     1.1170 N.am  1 <1>  -0.8490 
  5 C        1.8080     1.3590    -0.8480 C.3   1 <1>  -0.0550 
  6 C       -0.5920    -0.9180     1.4770 C.3   1 <1>   0.1160 
  7 C       -0.1620     1.4030     1.9030 C.3   1 <1>   0.1160 
  8 C        3.0570     0.4790    -0.6210 C.3   1 <1>  -0.0800 
  9 C        4.3700     1.1200    -1.0450 C.3   1 <1>   0.2200 
 10 C        3.3270     0.0910     0.8390 C.3   1 <1>   0.1200 
 11 N        4.4220     2.5410    -0.6250 N.am  1 <1>  -0.7300 
 12 C        5.3550     0.3220    -0.2030 C.3   1 <1>   0.1200 
 13 O        4.7130     0.1300     1.0200 O.3   1 <1>  -0.5600 
 14 C        4.2880     3.6250    -1.4430 C.2   1 <1>   0.5440 
 15 O        4.0000     3.4060    -2.6030 O.2   1 <1>  -0.5700 
 16 C        4.4380     4.9940    -0.9680 C.ar  1 <1>   0.0860 
 17 C        5.0770     5.3570     0.2240 C.ar  1 <1>   0.1900 
 18 C        3.9150     6.0440    -1.7300 C.ar  1 <1>  -0.1500 
 19 F        5.5740     4.4040     0.9720 F     1 <1>  -0.1900 
 20 C        5.1960     6.6850     0.6510 C.ar  1 <1>   0.0820 
 21 C        4.0150     7.3630    -1.3270 C.ar  1 <1>  -0.1500 
 22 O        5.8020     7.1290     1.7890 O.3   1 <1>  -0.3620 
 23 C        4.6490     7.6800    -0.1410 C.ar  1 <1>  -0.1500 
 24 C        6.7440     6.3660     2.5120 C.3   1 <1>   0.0400 
 25 H        1.8230     1.6930    -1.8680 H     1 <1>   0.0800 
 26 H        1.8600     2.2310    -0.2280 H     1 <1>   0.0800 
 27 H       -0.5670    -1.0800     2.5410 H     1 <1>   0.0800 
 28 H       -0.2240    -1.8070     0.9930 H     1 <1>   0.0800 
 29 H       -1.6100    -0.7530     1.1660 H     1 <1>   0.0800 
 30 H       -0.0630     1.1950     2.9550 H     1 <1>   0.0800 
 31 H       -1.1870     1.6630     1.6920 H     1 <1>   0.0800 
 32 H        0.4620     2.2460     1.6650 H     1 <1>   0.0800 
 33 H        2.9400    -0.4310    -1.1830 H     1 <1>   0.0800 
 34 H        4.5610     1.0230    -2.1010 H     1 <1>   0.0800 
 35 H        2.9700    -0.9000     1.0610 H     1 <1>   0.0800 
 36 H        2.8920     0.7950     1.5260 H     1 <1>   0.0800 
 37 H        4.6960     2.6740     0.3540 H     1 <1>   0.3700 
 38 H        6.2870     0.8370    -0.0500 H     1 <1>   0.0800 
 39 H        5.5340    -0.6450    -0.6380 H     1 <1>   0.0800 
 40 H        3.4180     5.8210    -2.6600 H     1 <1>   0.1500 
 41 H        3.5980     8.1470    -1.9380 H     1 <1>   0.1500 
 42 H        4.7270     8.7050     0.1750 H     1 <1>   0.1500 
 43 H        7.2250     7.0160     3.2210 H     1 <1>   0.0800 
 44 H        7.4740     5.9670     1.8300 H     1 <1>   0.0800 
 45 H        6.2320     5.5790     3.0350 H     1 <1>   0.0800 
@<TRIPOS>BOND
  1   1   2  2   
  2   1   3  2   
  3   1   4  am  
  4   1   5  1   
  5   4   6  1   
  6   4   7  1   
  7   5   8  1   
  8   5  25  1   
  9   5  26  1   
 10   6  27  1   
 11   6  28  1   
 12   6  29  1   
 13   7  30  1   
 14   7  31  1   
 15   7  32  1   
 16   8   9  1   
 17   8  10  1   
 18   8  33  1   
 19   9  11  1   
 20   9  12  1   
 21   9  34  1   
 22  10  13  1   
 23  10  35  1   
 24  10  36  1   
 25  11  14  am  
 26  11  37  1   
 27  12  13  1   
 28  12  38  1   
 29  12  39  1   
 30  14  15  2   
 31  14  16  1   
 32  16  17  ar  
 33  16  18  ar  
 34  17  19  1   
 35  17  20  ar  
 36  18  21  ar  
 37  18  40  1   
 38  20  22  1   
 39  20  23  ar  
 40  21  23  ar  
 41  21  41  1   
 42  22  24  1   
 43  23  42  1   
 44  24  43  1   
 45  24  44  1   
 46  24  45  1   
@<TRIPOS>SUBSTRUCTURE
  1 ****  11 GROUP 4 **** **** 0

# MOE 2024.06 (io_trps.svl 2023.06)
