@<TRIPOS>MOLECULE
NONAME
62 65 1 0 0 
SMALL
USER_CHARGES


@<TRIPOS>ATOM
  1 O        0.7030     0.1070    -1.3460 O.2   1 <1>  -0.5700 
  2 C       -0.4600    -0.0250    -1.0540 C.2   1 <1>   0.5690 
  3 N       -1.1180     0.9050    -0.3210 N.am  1 <1>  -0.7300 
  4 C       -1.2090    -1.2680    -1.5200 C.3   1 <1>  -0.0190 
  5 C       -0.5410     2.1780     0.1300 C.3   1 <1>   0.2840 
  6 C       -2.4050    -0.9010    -2.4200 C.3   1 <1>  -0.1600 
  7 C       -1.6730    -2.1250    -0.3280 C.3   1 <1>  -0.1600 
  8 C       -1.6850     3.1250     0.4420 C.ar  1 <1>  -0.1440 
  9 C       -3.2050    -2.1360    -2.8450 C.3   1 <1>   0.2090 
 10 C       -2.4430    -3.3620    -0.7900 C.3   1 <1>   0.2090 
 11 C       -2.0900     3.3360     1.7520 C.ar  1 <1>  -0.1500 
 12 C       -2.3420     3.7840    -0.5860 C.ar  1 <1>  -0.1500 
 13 N       -3.5740    -2.9480    -1.6550 N.pl3 1 <1>  -0.8380 
 14 C       -3.1360     4.1990     2.0340 C.ar  1 <1>  -0.1500 
 15 C       -3.3870     4.6460    -0.3070 C.ar  1 <1>  -0.1500 
 16 C       -4.8260    -2.8160    -1.0920 C.ar  1 <1>   0.4100 
 17 C       -3.7910     4.8620     1.0010 C.ar  1 <1>   0.0820 
 18 N       -5.2410    -1.5850    -0.8670 N.ar  1 <1>  -0.6200 
 19 C       -5.6070    -3.9150    -0.7630 C.ar  1 <1>  -0.1440 
 20 O       -4.8200     5.7260     1.1880 O.3   1 <1>  -0.3620 
 21 C       -6.4200    -1.4690    -0.2990 C.ar  1 <1>   0.4700 
 22 C       -6.8230    -3.6530    -0.1680 C.ar  1 <1>   0.3930 
 23 C       -5.1470    -5.3460    -1.0540 C.3   1 <1>  -0.0970 
 24 C       -5.2800     6.0490     2.4820 C.3   1 <1>   0.0400 
 25 N       -7.2460    -2.4230     0.0740 N.ar  1 <1>  -0.6200 
 26 O       -7.6060    -4.6940     0.2020 O.3   1 <1>  -0.1650 
 27 C       -8.9350    -4.6050     0.4840 C.ar  1 <1>   0.0820 
 28 C       -9.4570    -5.2180     1.6250 C.ar  1 <1>   0.1670 
 29 C       -9.7930    -3.9420    -0.3760 C.ar  1 <1>  -0.1500 
 30 N      -10.7420    -5.2110     1.9480 N.ar  1 <1>  -0.6200 
 31 C       -8.5650    -5.9620     2.6040 C.3   1 <1>  -0.0970 
 32 C      -11.1290    -3.9250    -0.0400 C.ar  1 <1>  -0.1500 
 33 C      -11.5430    -4.5650     1.1160 C.ar  1 <1>   0.1600 
 34 H       -2.1120     0.7900    -0.1140 H     1 <1>   0.3700 
 35 H       -0.5230    -1.8550    -2.1050 H     1 <1>   0.0800 
 36 H        0.0870     2.5880    -0.6440 H     1 <1>   0.0800 
 37 H        0.0620     2.0070     1.0040 H     1 <1>   0.0800 
 38 H       -2.0540    -0.3890    -3.2970 H     1 <1>   0.0800 
 39 H       -3.0700    -0.2350    -1.8990 H     1 <1>   0.0800 
 40 H       -2.3140    -1.5490     0.3160 H     1 <1>   0.0800 
 41 H       -0.8190    -2.4340     0.2480 H     1 <1>   0.0800 
 42 H       -2.6180    -2.7420    -3.5130 H     1 <1>   0.0800 
 43 H       -4.0970    -1.8300    -3.3660 H     1 <1>   0.0800 
 44 H       -2.8140    -3.8970     0.0680 H     1 <1>   0.0800 
 45 H       -1.7950    -4.0180    -1.3450 H     1 <1>   0.0800 
 46 H       -1.5920     2.8270     2.5590 H     1 <1>   0.1500 
 47 H       -2.0410     3.6250    -1.6080 H     1 <1>   0.1500 
 48 H       -3.4250     4.3400     3.0580 H     1 <1>   0.1500 
 49 H       -3.8980     5.1580    -1.1020 H     1 <1>   0.1500 
 50 H       -6.7540    -0.4610    -0.1130 H     1 <1>   0.1500 
 51 H       -4.5240    -5.3730    -1.9300 H     1 <1>   0.0800 
 52 H       -5.9850    -5.9950    -1.2330 H     1 <1>   0.0800 
 53 H       -4.5870    -5.7250    -0.2190 H     1 <1>   0.0800 
 54 H       -6.0820     6.7580     2.3830 H     1 <1>   0.0800 
 55 H       -4.4720     6.4870     3.0400 H     1 <1>   0.0800 
 56 H       -5.6400     5.1540     2.9580 H     1 <1>   0.0800 
 57 H       -9.4310    -3.4610    -1.2670 H     1 <1>   0.1500 
 58 H       -7.5240    -5.7650     2.4340 H     1 <1>   0.0800 
 59 H       -8.7420    -7.0180     2.5140 H     1 <1>   0.0800 
 60 H       -8.8060    -5.6580     3.6070 H     1 <1>   0.0800 
 61 H      -11.8430    -3.4220    -0.6650 H     1 <1>   0.1500 
 62 H      -12.5900    -4.5460     1.3680 H     1 <1>   0.1500 
@<TRIPOS>BOND
  1   1   2  2   
  2   2   3  am  
  3   2   4  1   
  4   3   5  1   
  5   3  34  1   
  6   4   6  1   
  7   4   7  1   
  8   4  35  1   
  9   5   8  1   
 10   5  36  1   
 11   5  37  1   
 12   6   9  1   
 13   6  38  1   
 14   6  39  1   
 15   7  10  1   
 16   7  40  1   
 17   7  41  1   
 18   8  11  ar  
 19   8  12  ar  
 20   9  13  1   
 21   9  42  1   
 22   9  43  1   
 23  10  13  1   
 24  10  44  1   
 25  10  45  1   
 26  11  14  ar  
 27  11  46  1   
 28  12  15  ar  
 29  12  47  1   
 30  13  16  1   
 31  14  17  ar  
 32  14  48  1   
 33  15  17  ar  
 34  15  49  1   
 35  16  18  ar  
 36  16  19  ar  
 37  17  20  1   
 38  18  21  ar  
 39  19  22  ar  
 40  19  23  1   
 41  20  24  1   
 42  21  25  ar  
 43  21  50  1   
 44  22  25  ar  
 45  22  26  1   
 46  23  51  1   
 47  23  52  1   
 48  23  53  1   
 49  24  54  1   
 50  24  55  1   
 51  24  56  1   
 52  26  27  1   
 53  27  28  ar  
 54  27  29  ar  
 55  28  30  ar  
 56  28  31  1   
 57  29  32  ar  
 58  29  57  1   
 59  30  33  ar  
 60  31  58  1   
 61  31  59  1   
 62  31  60  1   
 63  32  33  ar  
 64  32  61  1   
 65  33  62  1   
@<TRIPOS>SUBSTRUCTURE
  1 ****  18 GROUP 4 **** **** 0

# MOE 2024.06 (io_trps.svl 2023.06)
