@<TRIPOS>MOLECULE
NONAME
49 50 1 0 0 
SMALL
USER_CHARGES


@<TRIPOS>ATOM
  1 F        0.5790     1.3210    -1.1920 F     1 <1>  -0.1900 
  2 C        1.6700     1.9460    -0.8400 C.ar  1 <1>   0.1900 
  3 C        2.8880     1.4560    -1.2710 C.ar  1 <1>  -0.1500 
  4 C        1.5670     3.0740    -0.0500 C.ar  1 <1>  -0.1500 
  5 C        4.0400     2.1250    -0.8940 C.ar  1 <1>  -0.1500 
  6 C        2.7270     3.7330     0.3200 C.ar  1 <1>  -0.1500 
  7 C        3.9660     3.2630    -0.0990 C.ar  1 <1>  -0.1430 
  8 C        5.2420     3.9880     0.3130 C.3   1 <1>   0.2540 
  9 N        6.0690     4.3330    -0.8610 N.3   1 <1>  -0.8100 
 10 C        7.4100     4.8250    -0.4360 C.3   1 <1>   0.1710 
 11 C        5.3830     5.2760    -1.7560 C.3   1 <1>   0.0300 
 12 C        7.4250     6.1120     0.4020 C.2   1 <1>   0.5690 
 13 O        7.3610     6.0310     1.6070 O.2   1 <1>  -0.5700 
 14 N        7.5140     7.3150    -0.2300 N.am  1 <1>  -0.7300 
 15 C        7.5690     8.6270     0.4460 C.3   1 <1>   0.1400 
 16 C        8.6850     9.4620    -0.1780 C.3   1 <1>  -0.1600 
 17 C        8.8220    10.8200     0.5180 C.3   1 <1>   0.0210 
 18 C        9.9250    11.6320    -0.1380 C.2   1 <1>  -0.1810 
 19 C        9.7830    12.5410    -1.1860 C.2   1 <1>   0.1080 
 20 C       11.2460    11.6410     0.1470 C.2   1 <1>  -0.3320 
 21 N       10.9110    13.0760    -1.5290 N.2   1 <1>  -0.7070 
 22 C        8.4890    12.9050    -1.8770 C.3   1 <1>  -0.0590 
 23 N       11.8150    12.5200    -0.7040 N.pl3 1 <1>   0.3000 
 24 C       12.0360    10.8610     1.1850 C.3   1 <1>  -0.0600 
 25 H        2.9310     0.5760    -1.8870 H     1 <1>   0.1500 
 26 H        0.6010     3.4240     0.2650 H     1 <1>   0.1500 
 27 H        5.0020     1.7690    -1.2220 H     1 <1>   0.1500 
 28 H        2.6630     4.6140     0.9360 H     1 <1>   0.1500 
 29 H        5.8030     3.3400     0.9660 H     1 <1>   0.0800 
 30 H        4.9990     4.8800     0.8650 H     1 <1>   0.0800 
 31 H        8.0140     4.9800    -1.3120 H     1 <1>   0.0800 
 32 H        7.8900     4.0540     0.1400 H     1 <1>   0.0800 
 33 H        4.4850     4.8260    -2.1450 H     1 <1>   0.0800 
 34 H        6.0180     5.5230    -2.5890 H     1 <1>   0.0800 
 35 H        5.1170     6.1770    -1.2290 H     1 <1>   0.0800 
 36 H        7.5370     7.3420    -1.2500 H     1 <1>   0.3700 
 37 H        7.7570     8.4870     1.4990 H     1 <1>   0.0800 
 38 H        6.6200     9.1240     0.3330 H     1 <1>   0.0800 
 39 H        8.4780     9.6220    -1.2210 H     1 <1>   0.0800 
 40 H        9.6180     8.9340    -0.0900 H     1 <1>   0.0800 
 41 H        9.0580    10.6760     1.5570 H     1 <1>   0.0800 
 42 H        7.8960    11.3630     0.4650 H     1 <1>   0.0800 
 43 H        7.9340    12.0180    -2.1160 H     1 <1>   0.0800 
 44 H        8.7010    13.4370    -2.7870 H     1 <1>   0.0800 
 45 H        7.9030    13.5360    -1.2350 H     1 <1>   0.0800 
 46 H       12.8110    12.7620    -0.7480 H     1 <1>   0.2700 
 47 H       11.3940    10.1890     1.7250 H     1 <1>   0.0800 
 48 H       12.4910    11.5370     1.8870 H     1 <1>   0.0800 
 49 H       12.8050    10.2820     0.7060 H     1 <1>   0.0800 
@<TRIPOS>BOND
  1   1   2  1   
  2   2   3  ar  
  3   2   4  ar  
  4   3   5  ar  
  5   3  25  1   
  6   4   6  ar  
  7   4  26  1   
  8   5   7  ar  
  9   5  27  1   
 10   6   7  ar  
 11   6  28  1   
 12   7   8  1   
 13   8   9  1   
 14   8  29  1   
 15   8  30  1   
 16   9  10  1   
 17   9  11  1   
 18  10  12  1   
 19  10  31  1   
 20  10  32  1   
 21  11  33  1   
 22  11  34  1   
 23  11  35  1   
 24  12  13  2   
 25  12  14  am  
 26  14  15  1   
 27  14  36  1   
 28  15  16  1   
 29  15  37  1   
 30  15  38  1   
 31  16  17  1   
 32  16  39  1   
 33  16  40  1   
 34  17  18  1   
 35  17  41  1   
 36  17  42  1   
 37  18  19  1   
 38  18  20  2   
 39  19  21  2   
 40  19  22  1   
 41  20  23  1   
 42  20  24  1   
 43  21  23  1   
 44  22  43  1   
 45  22  44  1   
 46  22  45  1   
 47  23  46  1   
 48  24  47  1   
 49  24  48  1   
 50  24  49  1   
@<TRIPOS>SUBSTRUCTURE
  1 ****  14 GROUP 4 **** **** 0

# MOE 2024.06 (io_trps.svl 2023.06)
