@<TRIPOS>MOLECULE
NONAME
61 63 1 0 0 
SMALL
USER_CHARGES


@<TRIPOS>ATOM
  1 O       -1.3130     0.0970     2.0600 O.2   1 <1>  -0.5700 
  2 C       -1.8160     0.6940     1.1270 C.2   1 <1>   0.7150 
  3 N       -2.4120    -0.0190     0.1140 N.am  1 <1>  -0.6600 
  4 C       -1.7450     2.1260     1.0940 C.2   1 <1>  -0.2370 
  5 C       -2.3780    -1.5220     0.1360 C.3   1 <1>   0.3640 
  6 C       -3.0540     0.6420    -1.0640 C.3   1 <1>   0.1400 
  7 N       -0.5880     2.8210     1.2430 N.pl3 1 <1>   0.3140 
  8 C       -2.7110     3.0730     0.9300 C.2   1 <1>  -0.1500 
  9 C       -1.0350    -2.0490    -0.3880 C.ar  1 <1>  -0.1440 
 10 C       -3.5540    -2.2060    -0.6320 C.3   1 <1>   0.2000 
 11 C       -3.5710    -0.3620    -2.1020 C.3   1 <1>   0.1200 
 12 N       -0.7790     4.1470     1.1470 N.2   1 <1>  -0.7070 
 13 C        0.7700     2.2800     1.4930 C.3   1 <1>   0.0960 
 14 C       -2.0580     4.2920     0.9660 C.2   1 <1>   0.1080 
 15 C       -0.5360    -3.2250     0.1580 C.ar  1 <1>  -0.1500 
 16 C       -0.2990    -1.4160    -1.3840 C.ar  1 <1>  -0.1500 
 17 O       -4.3080    -1.3430    -1.4510 O.3   1 <1>  -0.5600 
 18 C       -4.5460    -2.8770     0.3260 C.3   1 <1>   0.1200 
 19 C        1.3750     1.6620     0.2260 C.3   1 <1>  -0.2400 
 20 C       -2.7450     5.6470     0.8160 C.3   1 <1>   0.1010 
 21 C        0.6600    -3.7690    -0.2780 C.ar  1 <1>   0.0830 
 22 C        0.9080    -1.9400    -1.8160 C.ar  1 <1>  -0.1500 
 23 O       -3.9430    -3.9500     0.9770 O.3   1 <1>  -0.6800 
 24 C       -2.2340     6.3790    -0.4310 C.3   1 <1>  -0.2400 
 25 C       -2.5300     6.5070     2.0670 C.3   1 <1>  -0.2400 
 26 O        1.0500    -4.9420     0.2780 O.3   1 <1>  -0.3630 
 27 C        1.4030    -3.1060    -1.2600 C.ar  1 <1>   0.0830 
 28 C        1.1150    -6.0570    -0.5840 C.3   1 <1>   0.0400 
 29 O        2.6090    -3.5440    -1.6990 O.3   1 <1>  -0.3630 
 30 C        3.6570    -3.5400    -0.7550 C.3   1 <1>   0.0400 
 31 H       -2.4460    -1.8350     1.1640 H     1 <1>   0.0800 
 32 H       -3.8940     1.2200    -0.7210 H     1 <1>   0.0800 
 33 H       -2.3540     1.3140    -1.5280 H     1 <1>   0.0800 
 34 H       -3.7680     2.9290     0.8050 H     1 <1>   0.1500 
 35 H       -3.1550    -2.9650    -1.2820 H     1 <1>   0.0800 
 36 H       -2.7680    -0.8270    -2.6470 H     1 <1>   0.0800 
 37 H       -4.2210     0.1320    -2.8020 H     1 <1>   0.0800 
 38 H        1.3910     3.0890     1.8320 H     1 <1>   0.0800 
 39 H        0.7150     1.5500     2.2790 H     1 <1>   0.0800 
 40 H       -1.0780    -3.7380     0.9340 H     1 <1>   0.1500 
 41 H       -0.6460    -0.5030    -1.8280 H     1 <1>   0.1500 
 42 H       -5.4010    -3.2500    -0.2110 H     1 <1>   0.0800 
 43 H       -4.8700    -2.1740     1.0750 H     1 <1>   0.0800 
 44 H        1.4040     2.3900    -0.5650 H     1 <1>   0.0800 
 45 H        0.8000     0.8100    -0.0860 H     1 <1>   0.0800 
 46 H        2.3790     1.3340     0.4290 H     1 <1>   0.0800 
 47 H       -3.8010     5.4790     0.7000 H     1 <1>   0.0800 
 48 H        1.4760    -1.4430    -2.5810 H     1 <1>   0.1500 
 49 H       -3.8660    -4.7220     0.3810 H     1 <1>   0.4000 
 50 H       -1.1780     6.5640    -0.3410 H     1 <1>   0.0800 
 51 H       -2.7440     7.3170    -0.5540 H     1 <1>   0.0800 
 52 H       -2.4000     5.7750    -1.3050 H     1 <1>   0.0800 
 53 H       -1.4810     6.7000     2.2060 H     1 <1>   0.0800 
 54 H       -2.8970     5.9880     2.9340 H     1 <1>   0.0800 
 55 H       -3.0490     7.4440     1.9770 H     1 <1>   0.0800 
 56 H        1.3190    -6.9290     0.0100 H     1 <1>   0.0800 
 57 H        1.9020    -5.9100    -1.3010 H     1 <1>   0.0800 
 58 H        0.1690    -6.1650    -1.0840 H     1 <1>   0.0800 
 59 H        4.5680    -3.8000    -1.2620 H     1 <1>   0.0800 
 60 H        3.4480    -4.2620     0.0140 H     1 <1>   0.0800 
 61 H        3.7380    -2.5550    -0.3300 H     1 <1>   0.0800 
@<TRIPOS>BOND
  1   1   2  2   
  2   2   3  am  
  3   2   4  1   
  4   3   5  1   
  5   3   6  1   
  6   4   7  1   
  7   4   8  2   
  8   5   9  1   
  9   5  10  1   
 10   5  31  1   
 11   6  11  1   
 12   6  32  1   
 13   6  33  1   
 14   7  12  1   
 15   7  13  1   
 16   8  14  1   
 17   8  34  1   
 18   9  15  ar  
 19   9  16  ar  
 20  10  17  1   
 21  10  18  1   
 22  10  35  1   
 23  11  17  1   
 24  11  36  1   
 25  11  37  1   
 26  12  14  2   
 27  13  19  1   
 28  13  38  1   
 29  13  39  1   
 30  14  20  1   
 31  15  21  ar  
 32  15  40  1   
 33  16  22  ar  
 34  16  41  1   
 35  18  23  1   
 36  18  42  1   
 37  18  43  1   
 38  19  44  1   
 39  19  45  1   
 40  19  46  1   
 41  20  24  1   
 42  20  25  1   
 43  20  47  1   
 44  21  26  1   
 45  21  27  ar  
 46  22  27  ar  
 47  22  48  1   
 48  23  49  1   
 49  24  50  1   
 50  24  51  1   
 51  24  52  1   
 52  25  53  1   
 53  25  54  1   
 54  25  55  1   
 55  26  28  1   
 56  27  29  1   
 57  28  56  1   
 58  28  57  1   
 59  28  58  1   
 60  29  30  1   
 61  30  59  1   
 62  30  60  1   
 63  30  61  1   
@<TRIPOS>SUBSTRUCTURE
  1 ****   3 GROUP 4 **** **** 0

# MOE 2024.06 (io_trps.svl 2023.06)
