@<TRIPOS>MOLECULE
NONAME
43 45 1 0 0 
SMALL
USER_CHARGES


@<TRIPOS>ATOM
  1 O       -0.7760     0.6350     1.8090 O.2   1 <1>  -0.5700 
  2 C       -1.5260     1.1200     0.9870 C.2   1 <1>   0.5440 
  3 N       -2.6090     0.3950     0.5560 N.am  1 <1>  -0.6600 
  4 C       -1.2510     2.4400     0.4670 C.ar  1 <1>   0.0860 
  5 C       -3.6430     0.8350    -0.4160 C.3   1 <1>   0.1400 
  6 C       -2.7970    -1.0360     0.8770 C.3   1 <1>   0.1400 
  7 C       -0.6970     2.6170    -0.8060 C.ar  1 <1>   0.0730 
  8 C       -1.5300     3.5650     1.2400 C.ar  1 <1>  -0.1500 
  9 C       -4.5270    -0.3960    -0.6690 C.3   1 <1>   0.2000 
 10 C       -3.6290    -1.5770    -0.2860 C.3   1 <1>  -0.0800 
 11 C       -0.3990     1.4890    -1.6400 C.1   1 <1>   0.4840 
 12 C       -0.4460     3.9040    -1.2680 C.ar  1 <1>  -0.1500 
 13 C       -1.2780     4.8390     0.7700 C.ar  1 <1>  -0.1500 
 14 O       -5.6330    -0.3730     0.1880 O.3   1 <1>  -0.5600 
 15 C       -4.3790    -2.8780     0.0490 C.3   1 <1>   0.0200 
 16 N       -0.2130     0.6000    -2.3310 N.1   1 <1>  -0.5570 
 17 C       -0.7340     5.0100    -0.4900 C.ar  1 <1>  -0.1500 
 18 C       -6.7330     0.3410    -0.2800 C.3   1 <1>   0.0400 
 19 C       -3.4470    -4.0640     0.2380 C.2   1 <1>  -0.0400 
 20 O       -3.9500    -5.2050     0.6290 O.3   1 <1>  -0.0190 
 21 C       -2.1240    -4.2350     0.0810 C.2   1 <1>  -0.1500 
 22 N       -3.0370    -6.1270     0.7450 N.2   1 <1>  -0.4100 
 23 C       -1.9260    -5.5690     0.4220 C.2   1 <1>   0.1080 
 24 C       -0.5890    -6.2740     0.4150 C.3   1 <1>  -0.0590 
 25 H       -4.2120     1.6580    -0.0230 H     1 <1>   0.0800 
 26 H       -3.1680     1.1250    -1.3350 H     1 <1>   0.0800 
 27 H       -1.8510    -1.5410     0.9700 H     1 <1>   0.0800 
 28 H       -3.3400    -1.1150     1.8040 H     1 <1>   0.0800 
 29 H       -1.9460     3.4290     2.2250 H     1 <1>   0.1500 
 30 H       -4.8660    -0.4650    -1.6890 H     1 <1>   0.0800 
 31 H       -2.9630    -1.7610    -1.1100 H     1 <1>   0.0800 
 32 H       -0.0190     4.0470    -2.2470 H     1 <1>   0.1500 
 33 H       -1.5000     5.6970     1.3830 H     1 <1>   0.1500 
 34 H       -5.0640    -3.1100    -0.7470 H     1 <1>   0.0800 
 35 H       -4.9560    -2.7460     0.9480 H     1 <1>   0.0800 
 36 H       -0.5340     6.0020    -0.8600 H     1 <1>   0.1500 
 37 H       -7.5030     0.2950     0.4710 H     1 <1>   0.0800 
 38 H       -7.0900    -0.1100    -1.1890 H     1 <1>   0.0800 
 39 H       -6.4550     1.3670    -0.4470 H     1 <1>   0.0800 
 40 H       -1.3640    -3.5430    -0.2310 H     1 <1>   0.1500 
 41 H       -0.1590    -6.2320    -0.5680 H     1 <1>   0.0800 
 42 H       -0.7150    -7.3040     0.6980 H     1 <1>   0.0800 
 43 H        0.0750    -5.8000     1.1140 H     1 <1>   0.0800 
@<TRIPOS>BOND
  1   1   2  2   
  2   2   3  am  
  3   2   4  1   
  4   3   5  1   
  5   3   6  1   
  6   4   7  ar  
  7   4   8  ar  
  8   5   9  1   
  9   5  25  1   
 10   5  26  1   
 11   6  10  1   
 12   6  27  1   
 13   6  28  1   
 14   7  11  1   
 15   7  12  ar  
 16   8  13  ar  
 17   8  29  1   
 18   9  10  1   
 19   9  14  1   
 20   9  30  1   
 21  10  15  1   
 22  10  31  1   
 23  11  16  3   
 24  12  17  ar  
 25  12  32  1   
 26  13  17  ar  
 27  13  33  1   
 28  14  18  1   
 29  15  19  1   
 30  15  34  1   
 31  15  35  1   
 32  17  36  1   
 33  18  37  1   
 34  18  38  1   
 35  18  39  1   
 36  19  20  1   
 37  19  21  2   
 38  20  22  1   
 39  21  23  1   
 40  21  40  1   
 41  22  23  2   
 42  23  24  1   
 43  24  41  1   
 44  24  42  1   
 45  24  43  1   
@<TRIPOS>SUBSTRUCTURE
  1 ****   3 GROUP 4 **** **** 0

# MOE 2024.06 (io_trps.svl 2023.06)
