@<TRIPOS>MOLECULE
NONAME
54 55 1 0 0 
SMALL
USER_CHARGES


@<TRIPOS>ATOM
  1 O        2.0940    -0.3860     2.2590 O.2   1 <1>  -0.5700 
  2 C        2.6720    -1.0920     1.4530 C.2   1 <1>   0.5440 
  3 N        3.9080    -0.6930     0.9740 N.am  1 <1>  -0.6600 
  4 C        2.0480    -2.3300     1.0300 C.ar  1 <1>   0.0860 
  5 C        4.4070     0.6970     1.2160 C.3   1 <1>   0.1400 
  6 C        4.9460    -1.6900     0.5830 C.3   1 <1>   0.1400 
  7 C        1.9620    -2.6880    -0.3150 C.ar  1 <1>  -0.1500 
  8 C        1.4980    -3.2130     1.9580 C.ar  1 <1>  -0.1500 
  9 C        4.0440     1.6440     0.0570 C.3   1 <1>  -0.0800 
 10 C        5.4270    -1.4500    -0.8460 C.3   1 <1>  -0.2400 
 11 C        1.3820    -3.8770    -0.7120 C.ar  1 <1>  -0.1500 
 12 C        0.9160    -4.4030     1.5650 C.ar  1 <1>  -0.1500 
 13 C        4.7320     3.0060     0.2420 C.3   1 <1>  -0.1600 
 14 C        2.5270     1.8700    -0.0720 C.3   1 <1>  -0.1600 
 15 C        0.8520    -4.7610     0.2230 C.ar  1 <1>   0.1170 
 16 C        4.2920     3.9950    -0.8430 C.3   1 <1>   0.1200 
 17 C        2.2110     2.9400    -1.1220 C.3   1 <1>   0.1200 
 18 N        0.2570    -5.9780    -0.1160 N.am  1 <1>  -0.5470 
 19 O        2.9040     4.1140    -0.8240 O.3   1 <1>  -0.5600 
 20 C        0.0770    -6.6480    -1.2940 C.2   1 <1>   0.5690 
 21 O        0.4450    -6.2500    -2.3730 O.2   1 <1>  -0.5700 
 22 C       -0.6360    -7.9980    -1.1970 C.3   1 <1>   0.1710 
 23 N       -1.4200    -8.1790     0.0660 N.3   1 <1>  -0.8100 
 24 C       -1.6920    -9.6000     0.3080 C.3   1 <1>   0.0300 
 25 C       -2.6840    -7.4280     0.0150 C.3   1 <1>   0.0300 
 26 H        5.4760     0.6730     1.3360 H     1 <1>   0.0800 
 27 H        3.9940     1.0810     2.1330 H     1 <1>   0.0800 
 28 H        4.5540    -2.6890     0.6620 H     1 <1>   0.0800 
 29 H        5.7780    -1.6190     1.2630 H     1 <1>   0.0800 
 30 H        2.3550    -2.0160    -1.0570 H     1 <1>   0.1500 
 31 H        1.5340    -2.9500     3.0020 H     1 <1>   0.1500 
 32 H        4.4010     1.2190    -0.8630 H     1 <1>   0.0800 
 33 H        4.5960    -1.4260    -1.5270 H     1 <1>   0.0800 
 34 H        6.0840    -2.2490    -1.1410 H     1 <1>   0.0800 
 35 H        5.9740    -0.5290    -0.9120 H     1 <1>   0.0800 
 36 H        1.3410    -4.1130    -1.7590 H     1 <1>   0.1500 
 37 H        0.5060    -5.0620     2.3080 H     1 <1>   0.1500 
 38 H        5.8000     2.8870     0.2000 H     1 <1>   0.0800 
 39 H        4.4810     3.4200     1.2030 H     1 <1>   0.0800 
 40 H        2.1180     2.1810     0.8740 H     1 <1>   0.0800 
 41 H        2.0400     0.9540    -0.3510 H     1 <1>   0.0800 
 42 H        4.5960     3.6670    -1.8220 H     1 <1>   0.0800 
 43 H        4.7060     4.9700    -0.6550 H     1 <1>   0.0800 
 44 H        1.1600     3.1700    -1.1190 H     1 <1>   0.0800 
 45 H        2.4960     2.6140    -2.1080 H     1 <1>   0.0800 
 46 H       -0.1770    -6.5040     0.6510 H     1 <1>   0.3700 
 47 H        0.1260    -8.7550    -1.2530 H     1 <1>   0.0800 
 48 H       -1.2790    -8.1170    -2.0520 H     1 <1>   0.0800 
 49 H       -0.7660   -10.1430     0.3950 H     1 <1>   0.0800 
 50 H       -2.2700   -10.0180    -0.4990 H     1 <1>   0.0800 
 51 H       -2.2380    -9.7180     1.2280 H     1 <1>   0.0800 
 52 H       -2.4940    -6.3800    -0.1420 H     1 <1>   0.0800 
 53 H       -3.2140    -7.5390     0.9460 H     1 <1>   0.0800 
 54 H       -3.3080    -7.7910    -0.7850 H     1 <1>   0.0800 
@<TRIPOS>BOND
  1   1   2  2   
  2   2   3  am  
  3   2   4  1   
  4   3   5  1   
  5   3   6  1   
  6   4   7  ar  
  7   4   8  ar  
  8   5   9  1   
  9   5  26  1   
 10   5  27  1   
 11   6  10  1   
 12   6  28  1   
 13   6  29  1   
 14   7  11  ar  
 15   7  30  1   
 16   8  12  ar  
 17   8  31  1   
 18   9  13  1   
 19   9  14  1   
 20   9  32  1   
 21  10  33  1   
 22  10  34  1   
 23  10  35  1   
 24  11  15  ar  
 25  11  36  1   
 26  12  15  ar  
 27  12  37  1   
 28  13  16  1   
 29  13  38  1   
 30  13  39  1   
 31  14  17  1   
 32  14  40  1   
 33  14  41  1   
 34  15  18  1   
 35  16  19  1   
 36  16  42  1   
 37  16  43  1   
 38  17  19  1   
 39  17  44  1   
 40  17  45  1   
 41  18  20  am  
 42  18  46  1   
 43  20  21  2   
 44  20  22  1   
 45  22  23  1   
 46  22  47  1   
 47  22  48  1   
 48  23  24  1   
 49  23  25  1   
 50  24  49  1   
 51  24  50  1   
 52  24  51  1   
 53  25  52  1   
 54  25  53  1   
 55  25  54  1   
@<TRIPOS>SUBSTRUCTURE
  1 ****   7 GROUP 4 **** **** 0

# MOE 2024.06 (io_trps.svl 2023.06)
