@<TRIPOS>MOLECULE
NONAME
44 46 1 0 0 
SMALL
USER_CHARGES


@<TRIPOS>ATOM
  1 F       -0.7920    -1.2510    -1.5870 F     1 <1>  -0.3400 
  2 C        0.0020    -1.7700    -0.6610 C.3   1 <1>   1.0200 
  3 F        1.2220    -1.3180    -0.9080 F     1 <1>  -0.3400 
  4 F       -0.3760    -1.2380     0.4930 F     1 <1>  -0.3400 
  5 C       -0.0590    -3.2960    -0.6390 C.3   1 <1>  -0.1600 
  6 C       -1.4720    -3.8570    -0.3500 C.3   1 <1>  -0.0990 
  7 C       -1.5370    -5.3780    -0.3360 C.2   1 <1>   0.5690 
  8 O       -0.5180    -6.0110    -0.4710 O.2   1 <1>  -0.5700 
  9 N       -2.7430    -5.9980    -0.1670 N.am  1 <1>  -0.6600 
 10 C       -4.0500    -5.3400     0.0800 C.3   1 <1>   0.1400 
 11 C       -2.8840    -7.4720    -0.1350 C.3   1 <1>   0.1400 
 12 C       -5.0450    -6.4910     0.2410 C.3   1 <1>   0.2000 
 13 C       -4.2090    -7.7240     0.5900 C.3   1 <1>  -0.0800 
 14 O       -5.9620    -6.2320     1.2470 O.3   1 <1>  -0.6800 
 15 C       -4.9090    -9.0350     0.1840 C.3   1 <1>  -0.0170 
 16 C       -4.1680   -10.3380     0.5080 C.ar  1 <1>  -0.1440 
 17 C       -4.5990   -11.5590    -0.0700 C.ar  1 <1>   0.0000 
 18 C       -3.0970   -10.4020     1.3550 C.ar  1 <1>  -0.1500 
 19 C       -3.8720   -12.7360     0.2390 C.ar  1 <1>   0.3100 
 20 C       -5.7170   -11.6860    -0.9300 C.ar  1 <1>  -0.1500 
 21 C       -2.4530   -11.6210     1.5990 C.ar  1 <1>   0.1600 
 22 N       -2.8030   -12.7490     1.0720 N.ar  1 <1>  -0.6200 
 23 C       -4.2690   -13.9550    -0.3340 C.ar  1 <1>  -0.1500 
 24 C       -6.0800   -12.8910    -1.4690 C.ar  1 <1>  -0.1500 
 25 C       -5.3470   -14.0410    -1.1710 C.ar  1 <1>  -0.1500 
 26 H        0.2820    -3.6590    -1.5920 H     1 <1>   0.0800 
 27 H        0.6260    -3.6470     0.1110 H     1 <1>   0.0800 
 28 H       -2.1530    -3.5010    -1.1020 H     1 <1>   0.0800 
 29 H       -1.8080    -3.5010     0.6060 H     1 <1>   0.0800 
 30 H       -3.9920    -4.7530     0.9800 H     1 <1>   0.0800 
 31 H       -4.3230    -4.7200    -0.7550 H     1 <1>   0.0800 
 32 H       -2.9220    -7.8410    -1.1460 H     1 <1>   0.0800 
 33 H       -2.0510    -7.9250     0.3750 H     1 <1>   0.0800 
 34 H       -5.5860    -6.6290    -0.6800 H     1 <1>   0.0800 
 35 H       -4.0140    -7.7220     1.6480 H     1 <1>   0.0800 
 36 H       -5.5170    -6.1890     2.1160 H     1 <1>   0.4000 
 37 H       -5.0760    -8.9930    -0.8780 H     1 <1>   0.0800 
 38 H       -5.8720    -9.0720     0.6630 H     1 <1>   0.0800 
 39 H       -2.7050    -9.5440     1.8650 H     1 <1>   0.1500 
 40 H       -6.3050   -10.8210    -1.1690 H     1 <1>   0.1500 
 41 H       -1.6090   -11.6180     2.2680 H     1 <1>   0.1500 
 42 H       -3.6920   -14.8270    -0.0860 H     1 <1>   0.1500 
 43 H       -6.9310   -12.9690    -2.1230 H     1 <1>   0.1500 
 44 H       -5.6410   -14.9830    -1.6020 H     1 <1>   0.1500 
@<TRIPOS>BOND
  1   1   2  1   
  2   2   3  1   
  3   2   4  1   
  4   2   5  1   
  5   5   6  1   
  6   5  26  1   
  7   5  27  1   
  8   6   7  1   
  9   6  28  1   
 10   6  29  1   
 11   7   8  2   
 12   7   9  am  
 13   9  10  1   
 14   9  11  1   
 15  10  12  1   
 16  10  30  1   
 17  10  31  1   
 18  11  13  1   
 19  11  32  1   
 20  11  33  1   
 21  12  13  1   
 22  12  14  1   
 23  12  34  1   
 24  13  15  1   
 25  13  35  1   
 26  14  36  1   
 27  15  16  1   
 28  15  37  1   
 29  15  38  1   
 30  16  17  ar  
 31  16  18  ar  
 32  17  19  ar  
 33  17  20  ar  
 34  18  21  ar  
 35  18  39  1   
 36  19  22  ar  
 37  19  23  ar  
 38  20  24  ar  
 39  20  40  1   
 40  21  22  ar  
 41  21  41  1   
 42  23  25  ar  
 43  23  42  1   
 44  24  25  ar  
 45  24  43  1   
 46  25  44  1   
@<TRIPOS>SUBSTRUCTURE
  1 ****  11 GROUP 4 **** **** 0

# MOE 2024.06 (io_trps.svl 2023.06)
