@<TRIPOS>MOLECULE
NONAME
42 44 1 0 0 
SMALL
USER_CHARGES


@<TRIPOS>ATOM
  1 O       -1.5780     0.2780     2.0300 O.2   1 <1>  -0.5700 
  2 C       -1.9400     0.7560     0.9810 C.2   1 <1>   0.6300 
  3 N       -2.4700    -0.0080    -0.0240 N.am  1 <1>  -0.6600 
  4 C       -1.7390     2.2590     0.7910 C.3   1 <1>  -0.0950 
  5 C       -2.4730    -1.5050     0.1240 C.3   1 <1>   0.3640 
  6 C       -3.0780     0.5730    -1.2630 C.3   1 <1>   0.1400 
  7 C       -2.1310     3.1790     1.9180 C.3   1 <1>  -0.2000 
  8 C       -2.9310     3.1730     0.6510 C.3   1 <1>  -0.2000 
  9 C       -0.4080     2.4940     0.0590 C.3   1 <1>   0.2150 
 10 C       -1.1000    -2.0790    -0.2480 C.ar  1 <1>  -0.1440 
 11 C       -3.5920    -2.2470    -0.6730 C.3   1 <1>   0.2000 
 12 C       -3.5920    -0.4940    -2.2370 C.3   1 <1>   0.1200 
 13 O       -0.2560     3.8280    -0.2850 O.3   1 <1>  -0.6800 
 14 C       -0.3280    -1.5810    -1.2920 C.ar  1 <1>  -0.1500 
 15 C       -0.6090    -3.1480     0.4890 C.ar  1 <1>  -0.1500 
 16 O       -4.3440    -1.4240    -1.5310 O.3   1 <1>  -0.5600 
 17 C       -4.5930    -2.9430     0.2590 C.3   1 <1>   0.1200 
 18 C        0.8980    -2.1460    -1.5970 C.ar  1 <1>  -0.1500 
 19 C        0.6170    -3.7140     0.1880 C.ar  1 <1>  -0.1500 
 20 O       -3.9690    -3.9660     0.9690 O.3   1 <1>  -0.6800 
 21 C        1.3720    -3.2140    -0.8570 C.ar  1 <1>  -0.1500 
 22 H       -2.6250    -1.7260     1.1670 H     1 <1>   0.0800 
 23 H       -3.9130     1.1890    -0.9830 H     1 <1>   0.0800 
 24 H       -2.3600     1.1950    -1.7670 H     1 <1>   0.0800 
 25 H       -2.5570     2.7390     2.8040 H     1 <1>   0.1000 
 26 H       -1.5290     4.0400     2.1450 H     1 <1>   0.1000 
 27 H       -2.8700     4.0210    -0.0090 H     1 <1>   0.1000 
 28 H       -3.9270     2.7680     0.7050 H     1 <1>   0.1000 
 29 H       -0.3640     1.9190    -0.8490 H     1 <1>   0.0800 
 30 H        0.4180     2.2090     0.6890 H     1 <1>   0.0800 
 31 H       -3.1390    -2.9990    -1.2950 H     1 <1>   0.0800 
 32 H       -2.7870    -0.9990    -2.7410 H     1 <1>   0.0800 
 33 H       -4.2320    -0.0430    -2.9750 H     1 <1>   0.0800 
 34 H       -0.3900     4.3830     0.5060 H     1 <1>   0.4000 
 35 H       -0.6690    -0.7480    -1.8760 H     1 <1>   0.1500 
 36 H       -1.1830    -3.5460     1.3100 H     1 <1>   0.1500 
 37 H       -5.4000    -3.3730    -0.3070 H     1 <1>   0.0800 
 38 H       -4.9880    -2.2380     0.9710 H     1 <1>   0.0800 
 39 H        1.4870    -1.7520    -2.4070 H     1 <1>   0.1500 
 40 H        0.9850    -4.5410     0.7700 H     1 <1>   0.1500 
 41 H       -3.7760    -4.7270     0.3860 H     1 <1>   0.4000 
 42 H        2.3260    -3.6520    -1.0910 H     1 <1>   0.1500 
@<TRIPOS>BOND
  1   1   2  2   
  2   2   3  am  
  3   2   4  1   
  4   3   5  1   
  5   3   6  1   
  6   4   7  1   
  7   4   8  1   
  8   4   9  1   
  9   5  10  1   
 10   5  11  1   
 11   5  22  1   
 12   6  12  1   
 13   6  23  1   
 14   6  24  1   
 15   7   8  1   
 16   7  25  1   
 17   7  26  1   
 18   8  27  1   
 19   8  28  1   
 20   9  13  1   
 21   9  29  1   
 22   9  30  1   
 23  10  14  ar  
 24  10  15  ar  
 25  11  16  1   
 26  11  17  1   
 27  11  31  1   
 28  12  16  1   
 29  12  32  1   
 30  12  33  1   
 31  13  34  1   
 32  14  18  ar  
 33  14  35  1   
 34  15  19  ar  
 35  15  36  1   
 36  17  20  1   
 37  17  37  1   
 38  17  38  1   
 39  18  21  ar  
 40  18  39  1   
 41  19  21  ar  
 42  19  40  1   
 43  20  41  1   
 44  21  42  1   
@<TRIPOS>SUBSTRUCTURE
  1 ****   3 GROUP 4 **** **** 0

# MOE 2024.06 (io_trps.svl 2023.06)
