@<TRIPOS>MOLECULE
NONAME
55 59 1 0 0 
SMALL
USER_CHARGES


@<TRIPOS>ATOM
  1 O       -0.8820     5.4540    -1.9350 O.2   1 <1>  -0.5700 
  2 C       -0.6510     4.5950    -1.1060 C.2   1 <1>   0.5440 
  3 N       -1.6900     3.8160    -0.6370 N.am  1 <1>  -0.6600 
  4 C        0.7090     4.4240    -0.6370 C.ar  1 <1>   0.0860 
  5 C       -3.1150     4.0870    -1.0120 C.3   1 <1>   0.1400 
  6 C       -1.5310     2.6560     0.2820 C.3   1 <1>   0.1400 
  7 C        1.7160     4.0240    -1.5080 C.ar  1 <1>  -0.1500 
  8 C        1.0420     4.6640     0.7100 C.ar  1 <1>  -0.1500 
  9 C       -3.9580     4.3760     0.2440 C.3   1 <1>   0.1440 
 10 C       -2.3300     2.9110     1.5660 C.3   1 <1>  -0.1600 
 11 C        3.0180     3.8490    -1.0450 C.ar  1 <1>   0.0000 
 12 C        2.3270     4.4950     1.1810 C.ar  1 <1>  -0.1500 
 13 C       -5.4000     4.5860    -0.1800 C.ar  1 <1>   0.1660 
 14 C       -3.8080     3.2200     1.2590 C.3   1 <1>  -0.1600 
 15 C       -3.5910     5.7520     0.8640 C.3   1 <1>  -0.1600 
 16 C        3.3050     4.0820     0.2870 C.ar  1 <1>   0.1400 
 17 C        4.2490     3.4610    -1.6120 C.2   1 <1>  -0.1500 
 18 N       -6.2260     3.6410    -0.5560 N.ar  1 <1>  -0.6200 
 19 C       -5.7470     5.9020    -0.1390 C.ar  1 <1>  -0.1430 
 20 C       -4.6010     6.7730     0.3110 C.3   1 <1>  -0.0170 
 21 O        4.5940     3.8570     0.5320 O.3   1 <1>  -0.2800 
 22 C        5.1520     3.4860    -0.6150 C.2   1 <1>  -0.0400 
 23 C       -7.4510     4.0550    -0.8890 C.ar  1 <1>   0.7200 
 24 C       -7.0270     6.2350    -0.5020 C.ar  1 <1>   0.1600 
 25 C        6.6320     3.1700    -0.6120 C.3   1 <1>  -0.0600 
 26 N       -7.8890     5.3190    -0.8760 N.ar  1 <1>  -0.6200 
 27 N       -8.3520     3.0850    -1.2850 N.pl3 1 <1>  -0.8380 
 28 C       -7.9220     1.7050    -1.6420 C.3   1 <1>   0.1290 
 29 C       -9.8120     3.3580    -1.3900 C.3   1 <1>   0.1290 
 30 H       -3.5130     3.2240    -1.5160 H     1 <1>   0.0800 
 31 H       -3.1850     4.9190    -1.6910 H     1 <1>   0.0800 
 32 H       -0.4970     2.4810     0.5190 H     1 <1>   0.0800 
 33 H       -1.9080     1.7740    -0.2080 H     1 <1>   0.0800 
 34 H        1.4920     3.8520    -2.5460 H     1 <1>   0.1500 
 35 H        0.2640     4.9920     1.3780 H     1 <1>   0.1500 
 36 H       -1.8860     3.7320     2.1000 H     1 <1>   0.0800 
 37 H       -2.2710     2.0420     2.1970 H     1 <1>   0.0800 
 38 H        2.5920     4.6750     2.2070 H     1 <1>   0.1500 
 39 H       -4.2620     2.3370     0.8430 H     1 <1>   0.0800 
 40 H       -4.3370     3.4520     2.1670 H     1 <1>   0.0800 
 41 H       -2.5790     6.0460     0.6480 H     1 <1>   0.0800 
 42 H       -3.7110     5.7090     1.9320 H     1 <1>   0.0800 
 43 H        4.3870     3.2050    -2.6470 H     1 <1>   0.1500 
 44 H       -4.1880     7.2920    -0.5360 H     1 <1>   0.0800 
 45 H       -4.9050     7.4790     1.0640 H     1 <1>   0.0800 
 46 H       -7.3470     7.2620    -0.4870 H     1 <1>   0.1500 
 47 H        6.9540     2.8850    -1.5960 H     1 <1>   0.0800 
 48 H        6.8280     2.3620     0.0700 H     1 <1>   0.0800 
 49 H        7.1860     4.0350    -0.2970 H     1 <1>   0.0800 
 50 H       -6.9190     1.7120    -2.0330 H     1 <1>   0.0800 
 51 H       -8.5740     1.2960    -2.3930 H     1 <1>   0.0800 
 52 H       -7.9520     1.0820    -0.7650 H     1 <1>   0.0800 
 53 H      -10.1040     4.1220    -0.6900 H     1 <1>   0.0800 
 54 H      -10.3720     2.4670    -1.1700 H     1 <1>   0.0800 
 55 H      -10.0440     3.6900    -2.3860 H     1 <1>   0.0800 
@<TRIPOS>BOND
  1   1   2  2   
  2   2   3  am  
  3   2   4  1   
  4   3   5  1   
  5   3   6  1   
  6   4   7  ar  
  7   4   8  ar  
  8   5   9  1   
  9   5  30  1   
 10   5  31  1   
 11   6  10  1   
 12   6  32  1   
 13   6  33  1   
 14   7  11  ar  
 15   7  34  1   
 16   8  12  ar  
 17   8  35  1   
 18   9  13  1   
 19   9  14  1   
 20   9  15  1   
 21  10  14  1   
 22  10  36  1   
 23  10  37  1   
 24  11  16  ar  
 25  11  17  1   
 26  12  16  ar  
 27  12  38  1   
 28  13  18  ar  
 29  13  19  ar  
 30  14  39  1   
 31  14  40  1   
 32  15  20  1   
 33  15  41  1   
 34  15  42  1   
 35  16  21  1   
 36  17  22  2   
 37  17  43  1   
 38  18  23  ar  
 39  19  20  1   
 40  19  24  ar  
 41  20  44  1   
 42  20  45  1   
 43  21  22  1   
 44  22  25  1   
 45  23  26  ar  
 46  23  27  1   
 47  24  26  ar  
 48  24  46  1   
 49  25  47  1   
 50  25  48  1   
 51  25  49  1   
 52  27  28  1   
 53  27  29  1   
 54  28  50  1   
 55  28  51  1   
 56  28  52  1   
 57  29  53  1   
 58  29  54  1   
 59  29  55  1   
@<TRIPOS>SUBSTRUCTURE
  1 ****   3 GROUP 4 **** **** 0

# MOE 2024.06 (io_trps.svl 2023.06)
