@<TRIPOS>MOLECULE
NONAME
49 51 1 0 0 
SMALL
USER_CHARGES


@<TRIPOS>ATOM
  1 S       -0.8090    -0.1590     1.9720 S.3   1 <1>  -0.0800 
  2 C       -1.1320     1.2640     0.9730 C.2   1 <1>  -0.0450 
  3 C       -1.7430    -1.1980     0.9220 C.2   1 <1>  -0.1100 
  4 C       -1.9240     0.8940    -0.0700 C.2   1 <1>  -0.1810 
  5 C       -0.5840     2.5340     1.3850 C.2   1 <1>   0.7150 
  6 C       -2.2600    -0.4920    -0.0990 C.2   1 <1>  -0.1500 
  7 C       -2.4520     1.8250    -1.1470 C.3   1 <1>  -0.0590 
  8 O       -1.3380     3.4740     1.5660 O.2   1 <1>  -0.5700 
  9 N        0.7730     2.7340     1.5450 N.am  1 <1>  -0.6600 
 10 C        1.8280     1.8130     1.0170 C.3   1 <1>   0.1400 
 11 C        1.3030     3.9650     2.1900 C.3   1 <1>   0.1400 
 12 C        2.4650     2.3420    -0.2750 C.3   1 <1>   0.1400 
 13 C        1.4090     5.1320     1.2000 C.3   1 <1>  -0.1600 
 14 N        3.0230     3.7210    -0.1080 N.am  1 <1>  -0.6600 
 15 C        1.9980     4.7990    -0.1790 C.3   1 <1>   0.1400 
 16 C        4.3810     3.9420     0.0870 C.2   1 <1>   0.7160 
 17 O        5.0920     2.9500     0.1790 O.2   1 <1>  -0.5700 
 18 C        4.9910     5.2730     0.1670 C.2   1 <1>   0.2030 
 19 N        4.4850     6.3330     0.7790 N.2   1 <1>  -0.7070 
 20 C        6.2350     5.6110    -0.4020 C.2   1 <1>  -0.1810 
 21 N        5.3800     7.3110     0.6100 N.pl3 1 <1>   0.3000 
 22 C        6.4480     6.9090    -0.1030 C.2   1 <1>  -0.3320 
 23 C        7.1360     4.6700    -1.1890 C.3   1 <1>  -0.0590 
 24 C        7.6040     7.8390    -0.4340 C.3   1 <1>   0.0200 
 25 C        8.4070     8.1590     0.8270 C.3   1 <1>  -0.2400 
 26 H       -1.8120    -2.2400     1.1820 H     1 <1>   0.1500 
 27 H       -2.8760    -0.9000    -0.8810 H     1 <1>   0.1500 
 28 H       -2.1140     2.8330    -0.9830 H     1 <1>   0.0800 
 29 H       -3.5270     1.8230    -1.1350 H     1 <1>   0.0800 
 30 H       -2.1130     1.5010    -2.1140 H     1 <1>   0.0800 
 31 H        1.4180     0.8430     0.8110 H     1 <1>   0.0800 
 32 H        2.5960     1.6840     1.7600 H     1 <1>   0.0800 
 33 H        2.2780     3.7610     2.6000 H     1 <1>   0.0800 
 34 H        0.6610     4.2480     3.0070 H     1 <1>   0.0800 
 35 H        1.7270     2.3440    -1.0570 H     1 <1>   0.0800 
 36 H        3.2420     1.6630    -0.5800 H     1 <1>   0.0800 
 37 H        2.0060     5.8990     1.6570 H     1 <1>   0.0800 
 38 H        0.4310     5.5550     1.0580 H     1 <1>   0.0800 
 39 H        2.4170     5.6860    -0.6210 H     1 <1>   0.0800 
 40 H        1.1980     4.4750    -0.8220 H     1 <1>   0.0800 
 41 H        5.2460     8.2530     0.9950 H     1 <1>   0.2700 
 42 H        6.5770     4.2030    -1.9800 H     1 <1>   0.0800 
 43 H        7.5160     3.9040    -0.5370 H     1 <1>   0.0800 
 44 H        7.9670     5.1930    -1.6210 H     1 <1>   0.0800 
 45 H        7.2250     8.7490    -0.8680 H     1 <1>   0.0800 
 46 H        8.2530     7.3810    -1.1570 H     1 <1>   0.0800 
 47 H        7.7950     8.6650     1.5510 H     1 <1>   0.0800 
 48 H        9.2440     8.7890     0.5820 H     1 <1>   0.0800 
 49 H        8.7780     7.2480     1.2650 H     1 <1>   0.0800 
@<TRIPOS>BOND
  1   1   2  1   
  2   1   3  1   
  3   2   4  2   
  4   2   5  1   
  5   3   6  2   
  6   3  26  1   
  7   4   6  1   
  8   4   7  1   
  9   5   8  2   
 10   5   9  am  
 11   6  27  1   
 12   7  28  1   
 13   7  29  1   
 14   7  30  1   
 15   9  10  1   
 16   9  11  1   
 17  10  12  1   
 18  10  31  1   
 19  10  32  1   
 20  11  13  1   
 21  11  33  1   
 22  11  34  1   
 23  12  14  1   
 24  12  35  1   
 25  12  36  1   
 26  13  15  1   
 27  13  37  1   
 28  13  38  1   
 29  14  15  1   
 30  14  16  am  
 31  15  39  1   
 32  15  40  1   
 33  16  17  2   
 34  16  18  1   
 35  18  19  2   
 36  18  20  1   
 37  19  21  1   
 38  20  22  2   
 39  20  23  1   
 40  21  22  1   
 41  21  41  1   
 42  22  24  1   
 43  23  42  1   
 44  23  43  1   
 45  23  44  1   
 46  24  25  1   
 47  24  45  1   
 48  24  46  1   
 49  25  47  1   
 50  25  48  1   
 51  25  49  1   
@<TRIPOS>SUBSTRUCTURE
  1 ****  14 GROUP 4 **** **** 0

# MOE 2024.06 (io_trps.svl 2023.06)
