@<TRIPOS>MOLECULE
NONAME
52 56 1 0 0 
SMALL
USER_CHARGES


@<TRIPOS>ATOM
  1 O        0.0640    -0.0090     0.3570 O.2   1 <1>  -0.5700 
  2 C       -0.3590     0.9920    -0.1710 C.2   1 <1>   0.5690 
  3 N       -1.7000     1.2910    -0.1930 N.am  1 <1>  -0.6600 
  4 C        0.6650     1.9060    -0.8220 C.3   1 <1>  -0.0990 
  5 C       -2.2910     2.5670    -0.7150 C.3   1 <1>   0.1400 
  6 C       -2.7170     0.2710     0.2040 C.3   1 <1>   0.1400 
  7 C        1.1360     3.0050     0.1370 C.3   1 <1>  -0.0170 
  8 C       -3.2790     3.1900     0.2910 C.3   1 <1>   0.1440 
  9 C       -3.7330     0.8610     1.1900 C.3   1 <1>  -0.1600 
 10 C        1.9670     4.0420    -0.5980 C.ar  1 <1>  -0.1440 
 11 C       -3.8420     4.4540    -0.3310 C.ar  1 <1>   0.1660 
 12 C       -4.3650     2.1580     0.6550 C.3   1 <1>  -0.1600 
 13 C       -2.5650     3.7380     1.5580 C.3   1 <1>  -0.1600 
 14 C        3.3540     3.9400    -0.6130 C.ar  1 <1>  -0.1500 
 15 C        1.3370     5.0960    -1.2610 C.ar  1 <1>  -0.1500 
 16 N       -4.7110     4.4970    -1.3120 N.ar  1 <1>  -0.6200 
 17 C       -3.3100     5.5740     0.2390 C.ar  1 <1>  -0.1440 
 18 C       -2.3190     5.2390     1.3250 C.3   1 <1>  -0.0170 
 19 C        4.0720     4.9060    -1.2900 C.ar  1 <1>   0.0820 
 20 C        2.0770     6.0570    -1.9380 C.ar  1 <1>  -0.1500 
 21 C       -5.0300     5.7240    -1.6960 C.ar  1 <1>   0.7200 
 22 C       -3.7240     6.7940    -0.2380 C.ar  1 <1>   0.1600 
 23 O        5.3980     5.0070    -1.4320 O.3   1 <1>  -0.3630 
 24 C        3.4510     5.9350    -1.9350 C.ar  1 <1>   0.0820 
 25 N       -4.5990     6.8810    -1.2150 N.ar  1 <1>  -0.6200 
 26 N       -5.9210     5.8070    -2.6850 N.pl3 1 <1>  -0.9000 
 27 C        5.6370     6.1760    -2.2140 C.3   1 <1>   0.4000 
 28 O        4.3570     6.7330    -2.5100 O.3   1 <1>  -0.3620 
 29 H        0.2580     2.3300    -1.7190 H     1 <1>   0.0800 
 30 H        1.5140     1.3140    -1.1150 H     1 <1>   0.0800 
 31 H       -2.8150     2.3530    -1.6310 H     1 <1>   0.0800 
 32 H       -1.5290     3.2890    -0.9390 H     1 <1>   0.0800 
 33 H       -2.2410    -0.5850     0.6530 H     1 <1>   0.0800 
 34 H       -3.2280    -0.0660    -0.6820 H     1 <1>   0.0800 
 35 H        1.7100     2.5620     0.9330 H     1 <1>   0.0800 
 36 H        0.2910     3.4920     0.5850 H     1 <1>   0.0800 
 37 H       -3.2390     1.0440     2.1270 H     1 <1>   0.0800 
 38 H       -4.5060     0.1350     1.3700 H     1 <1>   0.0800 
 39 H       -4.9390     1.9290    -0.2270 H     1 <1>   0.0800 
 40 H       -5.0420     2.5700     1.3820 H     1 <1>   0.0800 
 41 H       -1.6600     3.2050     1.7870 H     1 <1>   0.0800 
 42 H       -3.2240     3.6430     2.4030 H     1 <1>   0.0800 
 43 H        3.8710     3.1390    -0.1160 H     1 <1>   0.1500 
 44 H        0.2650     5.1740    -1.2550 H     1 <1>   0.1500 
 45 H       -1.3180     5.4140     0.9720 H     1 <1>   0.0800 
 46 H       -2.4970     5.8110     2.2190 H     1 <1>   0.0800 
 47 H        1.6070     6.8750    -2.4540 H     1 <1>   0.1500 
 48 H       -3.3350     7.7060     0.1820 H     1 <1>   0.1500 
 49 H       -6.3890     6.7050    -2.7670 H     1 <1>   0.4000 
 50 H       -6.4900     4.9780    -2.8250 H     1 <1>   0.4000 
 51 H        6.1330     5.9040    -3.1290 H     1 <1>   0.0800 
 52 H        6.2130     6.8810    -1.6420 H     1 <1>   0.0800 
@<TRIPOS>BOND
  1   1   2  2   
  2   2   3  am  
  3   2   4  1   
  4   3   5  1   
  5   3   6  1   
  6   4   7  1   
  7   4  29  1   
  8   4  30  1   
  9   5   8  1   
 10   5  31  1   
 11   5  32  1   
 12   6   9  1   
 13   6  33  1   
 14   6  34  1   
 15   7  10  1   
 16   7  35  1   
 17   7  36  1   
 18   8  11  1   
 19   8  12  1   
 20   8  13  1   
 21   9  12  1   
 22   9  37  1   
 23   9  38  1   
 24  10  14  ar  
 25  10  15  ar  
 26  11  16  ar  
 27  11  17  ar  
 28  12  39  1   
 29  12  40  1   
 30  13  18  1   
 31  13  41  1   
 32  13  42  1   
 33  14  19  ar  
 34  14  43  1   
 35  15  20  ar  
 36  15  44  1   
 37  16  21  ar  
 38  17  18  1   
 39  17  22  ar  
 40  18  45  1   
 41  18  46  1   
 42  19  23  1   
 43  19  24  ar  
 44  20  24  ar  
 45  20  47  1   
 46  21  25  ar  
 47  21  26  1   
 48  22  25  ar  
 49  22  48  1   
 50  23  27  1   
 51  24  28  1   
 52  26  49  1   
 53  26  50  1   
 54  27  28  1   
 55  27  51  1   
 56  27  52  1   
@<TRIPOS>SUBSTRUCTURE
  1 ****   5 GROUP 4 **** **** 0

# MOE 2024.06 (io_trps.svl 2023.06)
