@<TRIPOS>MOLECULE
NONAME
54 56 1 0 0 
SMALL
USER_CHARGES


@<TRIPOS>ATOM
  1 O       -0.2180    -0.5320    -0.3480 O.2   1 <1>  -0.5700 
  2 C       -0.2730    -1.7350    -0.2830 C.2   1 <1>   0.5690 
  3 N       -1.0710    -2.4440    -1.1170 N.am  1 <1>  -0.5470 
  4 C        0.5820    -2.5020     0.7250 C.3   1 <1>   0.1810 
  5 C       -1.2000    -3.8260    -1.0230 C.ar  1 <1>   0.1170 
  6 O        0.1070    -3.8250     0.9970 O.3   1 <1>  -0.3630 
  7 C       -0.5980    -4.5000     0.0440 C.ar  1 <1>   0.0830 
  8 C       -1.9150    -4.5600    -1.9590 C.ar  1 <1>  -0.1500 
  9 C       -0.7180    -5.8700     0.1640 C.ar  1 <1>  -0.1500 
 10 C       -2.0260    -5.9330    -1.8310 C.ar  1 <1>  -0.1500 
 11 C       -1.4380    -6.6210    -0.7660 C.ar  1 <1>   0.0860 
 12 C       -1.5520    -8.0600    -0.6310 C.2   1 <1>   0.5440 
 13 O       -0.5600    -8.7120    -0.3640 O.2   1 <1>  -0.5700 
 14 N       -2.7540    -8.7170    -0.7890 N.am  1 <1>  -0.6600 
 15 C       -4.0830    -8.0880    -0.5220 C.3   1 <1>   0.1400 
 16 C       -2.8330   -10.2060    -0.9110 C.3   1 <1>   0.1400 
 17 C       -4.8090    -8.8120     0.6350 C.3   1 <1>   0.2000 
 18 C       -3.6230   -10.8140     0.2660 C.3   1 <1>   0.2000 
 19 O       -4.8700   -10.1880     0.3750 O.3   1 <1>  -0.5600 
 20 C       -6.2480    -8.3080     0.8990 C.3   1 <1>  -0.0800 
 21 C       -3.8960   -12.3140     0.1000 C.3   1 <1>  -0.1600 
 22 C       -7.2030    -8.5130    -0.2900 C.3   1 <1>  -0.2400 
 23 C       -6.2710    -6.8340     1.3310 C.3   1 <1>  -0.2400 
 24 C       -2.6160   -13.1650     0.1140 C.3   1 <1>  -0.1600 
 25 C       -2.9480   -14.6600     0.0450 C.3   1 <1>  -0.1600 
 26 C       -1.6740   -15.5090     0.0550 C.3   1 <1>  -0.2400 
 27 H       -1.5990    -1.9070    -1.8040 H     1 <1>   0.3700 
 28 H        0.6090    -1.9670     1.6560 H     1 <1>   0.0800 
 29 H        1.5810    -2.5890     0.3430 H     1 <1>   0.0800 
 30 H       -2.3790    -4.0580    -2.7890 H     1 <1>   0.1500 
 31 H       -0.2430    -6.3720     0.9880 H     1 <1>   0.1500 
 32 H       -2.5730    -6.4940    -2.5700 H     1 <1>   0.1500 
 33 H       -3.9610    -7.0530    -0.2630 H     1 <1>   0.0800 
 34 H       -4.6790    -8.1440    -1.4150 H     1 <1>   0.0800 
 35 H       -3.3240   -10.4560    -1.8340 H     1 <1>   0.0800 
 36 H       -1.8460   -10.6310    -0.9400 H     1 <1>   0.0800 
 37 H       -4.2370    -8.6790     1.5370 H     1 <1>   0.0800 
 38 H       -3.0840   -10.6500     1.1830 H     1 <1>   0.0800 
 39 H       -6.6250    -8.8870     1.7250 H     1 <1>   0.0800 
 40 H       -4.5290   -12.6290     0.9120 H     1 <1>   0.0800 
 41 H       -4.4280   -12.4770    -0.8210 H     1 <1>   0.0800 
 42 H       -6.9210    -7.9060    -1.1300 H     1 <1>   0.0800 
 43 H       -8.2070    -8.2520    -0.0060 H     1 <1>   0.0800 
 44 H       -7.2020    -9.5450    -0.5950 H     1 <1>   0.0800 
 45 H       -5.9750    -6.1860     0.5250 H     1 <1>   0.0800 
 46 H       -5.6090    -6.6770     2.1640 H     1 <1>   0.0800 
 47 H       -7.2650    -6.5570     1.6370 H     1 <1>   0.0800 
 48 H       -1.9930   -12.9070    -0.7250 H     1 <1>   0.0800 
 49 H       -2.0620   -12.9650     1.0160 H     1 <1>   0.0800 
 50 H       -3.5630   -14.9340     0.8860 H     1 <1>   0.0800 
 51 H       -3.5040   -14.8660    -0.8550 H     1 <1>   0.0800 
 52 H       -1.1140   -15.3340     0.9570 H     1 <1>   0.0800 
 53 H       -1.0550   -15.2690    -0.7910 H     1 <1>   0.0800 
 54 H       -1.9280   -16.5530     0.0070 H     1 <1>   0.0800 
@<TRIPOS>BOND
  1   1   2  2   
  2   2   3  am  
  3   2   4  1   
  4   3   5  1   
  5   3  27  1   
  6   4   6  1   
  7   4  28  1   
  8   4  29  1   
  9   5   7  ar  
 10   5   8  ar  
 11   6   7  1   
 12   7   9  ar  
 13   8  10  ar  
 14   8  30  1   
 15   9  11  ar  
 16   9  31  1   
 17  10  11  ar  
 18  10  32  1   
 19  11  12  1   
 20  12  13  2   
 21  12  14  am  
 22  14  15  1   
 23  14  16  1   
 24  15  17  1   
 25  15  33  1   
 26  15  34  1   
 27  16  18  1   
 28  16  35  1   
 29  16  36  1   
 30  17  19  1   
 31  17  20  1   
 32  17  37  1   
 33  18  19  1   
 34  18  21  1   
 35  18  38  1   
 36  20  22  1   
 37  20  23  1   
 38  20  39  1   
 39  21  24  1   
 40  21  40  1   
 41  21  41  1   
 42  22  42  1   
 43  22  43  1   
 44  22  44  1   
 45  23  45  1   
 46  23  46  1   
 47  23  47  1   
 48  24  25  1   
 49  24  48  1   
 50  24  49  1   
 51  25  26  1   
 52  25  50  1   
 53  25  51  1   
 54  26  52  1   
 55  26  53  1   
 56  26  54  1   
@<TRIPOS>SUBSTRUCTURE
  1 ****  12 GROUP 4 **** **** 0

# MOE 2024.06 (io_trps.svl 2023.06)
