@<TRIPOS>MOLECULE
NONAME
44 47 1 0 0 
SMALL
USER_CHARGES


@<TRIPOS>ATOM
  1 O        1.4330    -0.3860    -0.9810 O.3   1 <1>  -0.5600 
  2 C        2.2890    -1.1940    -0.2040 C.3   1 <1>   0.4240 
  3 C        0.0980    -0.3220    -0.6020 C.3   1 <1>   0.1200 
  4 C        1.5900    -2.5190     0.2180 C.ar  1 <1>  -0.1440 
  5 C        3.4600    -1.4710    -1.1620 C.3   1 <1>  -0.1600 
  6 C        2.7220    -0.3440     1.0140 C.3   1 <1>  -0.1600 
  7 C       -0.5260    -1.6830    -0.8710 C.3   1 <1>  -0.0160 
  8 C        2.2590    -3.5040     0.9550 C.ar  1 <1>   0.0820 
  9 C        0.2590    -2.7460    -0.1290 C.ar  1 <1>  -0.1440 
 10 C        4.2540    -0.1940    -1.4370 C.3   1 <1>   0.2090 
 11 C        4.2370    -0.1410     1.1020 C.3   1 <1>   0.2090 
 12 O        3.5390    -3.2690     1.3480 O.3   1 <1>  -0.3630 
 13 C        1.6100    -4.6920     1.2870 C.ar  1 <1>  -0.1500 
 14 C       -0.3760    -3.9300     0.2060 C.ar  1 <1>  -0.1500 
 15 N        4.7610     0.4280    -0.1760 N.pl3 1 <1>  -0.8380 
 16 C        4.3000    -4.2150     2.0670 C.3   1 <1>   0.0400 
 17 C        0.3000    -4.9060     0.9100 C.ar  1 <1>  -0.1500 
 18 C        5.1460     1.7650    -0.2360 C.ar  1 <1>   0.4100 
 19 N        4.5840     2.6070     0.6260 N.ar  1 <1>  -0.6200 
 20 C        6.0890     2.1990    -1.1870 C.ar  1 <1>   0.1600 
 21 C        4.9990     3.8520     0.4710 C.ar  1 <1>   0.1600 
 22 N        6.5050     3.4430    -1.3460 N.ar  1 <1>  -0.6200 
 23 C        5.9240     4.2590    -0.4800 C.ar  1 <1>   0.1600 
 24 H       -0.3780     0.4400    -1.1940 H     1 <1>   0.0800 
 25 H        0.0360    -0.0590     0.4400 H     1 <1>   0.0800 
 26 H        3.0730    -1.8670    -2.0820 H     1 <1>   0.0800 
 27 H        4.1310    -2.2050    -0.7640 H     1 <1>   0.0800 
 28 H        2.3920    -0.8150     1.9200 H     1 <1>   0.0800 
 29 H        2.2710     0.6300     0.9720 H     1 <1>   0.0800 
 30 H       -0.5100    -1.8860    -1.9270 H     1 <1>   0.0800 
 31 H       -1.5490    -1.6740    -0.5400 H     1 <1>   0.0800 
 32 H        3.6240     0.5160    -1.9480 H     1 <1>   0.0800 
 33 H        5.0870    -0.4270    -2.0770 H     1 <1>   0.0800 
 34 H        4.7280    -1.0790     1.2870 H     1 <1>   0.0800 
 35 H        4.4690     0.5060     1.9310 H     1 <1>   0.0800 
 36 H        2.1040    -5.4660     1.8410 H     1 <1>   0.1500 
 37 H       -1.4000    -4.0960    -0.0780 H     1 <1>   0.1500 
 38 H        5.2760    -3.7960     2.2390 H     1 <1>   0.0800 
 39 H        4.3870    -5.1120     1.4810 H     1 <1>   0.0800 
 40 H        3.8170    -4.4110     3.0070 H     1 <1>   0.0800 
 41 H       -0.1950    -5.8260     1.1660 H     1 <1>   0.1500 
 42 H        6.5080     1.4540    -1.8340 H     1 <1>   0.1500 
 43 H        4.5830     4.5890     1.1320 H     1 <1>   0.1500 
 44 H        6.1960     5.2980    -0.5280 H     1 <1>   0.1500 
@<TRIPOS>BOND
  1   1   2  1   
  2   1   3  1   
  3   2   4  1   
  4   2   5  1   
  5   2   6  1   
  6   3   7  1   
  7   3  24  1   
  8   3  25  1   
  9   4   8  ar  
 10   4   9  ar  
 11   5  10  1   
 12   5  26  1   
 13   5  27  1   
 14   6  11  1   
 15   6  28  1   
 16   6  29  1   
 17   7   9  1   
 18   7  30  1   
 19   7  31  1   
 20   8  12  1   
 21   8  13  ar  
 22   9  14  ar  
 23  10  15  1   
 24  10  32  1   
 25  10  33  1   
 26  11  15  1   
 27  11  34  1   
 28  11  35  1   
 29  12  16  1   
 30  13  17  ar  
 31  13  36  1   
 32  14  17  ar  
 33  14  37  1   
 34  15  18  1   
 35  16  38  1   
 36  16  39  1   
 37  16  40  1   
 38  17  41  1   
 39  18  19  ar  
 40  18  20  ar  
 41  19  21  ar  
 42  20  22  ar  
 43  20  42  1   
 44  21  23  ar  
 45  21  43  1   
 46  22  23  ar  
 47  23  44  1   
@<TRIPOS>SUBSTRUCTURE
  1 ****   2 GROUP 4 **** **** 0

# MOE 2024.06 (io_trps.svl 2023.06)
