@<TRIPOS>MOLECULE
NONAME
60 63 1 0 0 
SMALL
USER_CHARGES


@<TRIPOS>ATOM
  1 O       -1.5560     1.4190    -3.3990 O.2   1 <1>  -0.5700 
  2 C       -1.7710     1.7980    -2.2630 C.2   1 <1>   0.5440 
  3 N       -2.1000     0.8350    -1.3190 N.am  1 <1>  -0.6600 
  4 C       -1.6560     3.2200    -1.9520 C.ar  1 <1>   0.3960 
  5 C       -1.7000    -0.5920    -1.5020 C.3   1 <1>   0.1400 
  6 C       -2.5250     1.1470     0.0770 C.3   1 <1>   0.1400 
  7 N       -1.0070     3.6090    -0.8400 N.ar  1 <1>  -0.6200 
  8 C       -2.2330     4.1370    -2.8320 C.ar  1 <1>   0.1600 
  9 C       -0.5550    -0.9350    -0.5280 C.3   1 <1>   0.3430 
 10 C       -1.3670     0.8380     1.0440 C.3   1 <1>   0.3430 
 11 C       -1.0040     4.9200    -0.6630 C.ar  1 <1>   0.4100 
 12 N       -2.2420     5.4510    -2.6690 N.ar  1 <1>  -0.6200 
 13 N       -0.8900    -0.5910     0.9070 N.4   1 <1>  -0.9590 
 14 N       -0.3480     5.3620     0.4750 N.pl3 1 <1>  -0.8380 
 15 C       -1.6160     5.8060    -1.5670 C.ar  1 <1>   0.1600 
 16 C        0.2790    -0.8450     1.8010 C.3   1 <1>   0.2630 
 17 C        1.0960     5.0180     0.6590 C.3   1 <1>   0.2090 
 18 C       -0.9460     6.3930     1.3690 C.3   1 <1>   0.2090 
 19 C        2.0150     5.9390    -0.1640 C.3   1 <1>   0.2090 
 20 C       -0.0150     7.5770     1.6620 C.3   1 <1>  -0.1600 
 21 N        2.0780     7.3430     0.3570 N.pl3 1 <1>  -0.8380 
 22 C        0.7900     8.0830     0.4620 C.3   1 <1>   0.2090 
 23 C        3.2650     7.9350     0.6300 C.ar  1 <1>   0.1000 
 24 C        3.8420     8.9170    -0.1960 C.ar  1 <1>  -0.1440 
 25 C        3.9660     7.5610     1.7810 C.ar  1 <1>  -0.1500 
 26 C        5.0450     9.4790     0.1560 C.ar  1 <1>   0.2110 
 27 C        3.1490     9.3450    -1.4870 C.3   1 <1>  -0.0970 
 28 C        5.1640     8.1440     2.0960 C.ar  1 <1>   0.2110 
 29 N        5.6910     9.0960     1.2870 N.ar  1 <1>  -0.1790 
 30 H       -1.3700    -0.7720    -2.5120 H     1 <1>   0.0800 
 31 H       -2.5480    -1.2290    -1.3220 H     1 <1>   0.0800 
 32 H       -3.3830     0.5480     0.3310 H     1 <1>   0.0800 
 33 H       -2.8200     2.1770     0.1730 H     1 <1>   0.0800 
 34 H       -2.7150     3.7530    -3.7160 H     1 <1>   0.1500 
 35 H        0.3180    -0.3830    -0.8350 H     1 <1>   0.0800 
 36 H       -0.3260    -1.9840    -0.6110 H     1 <1>   0.0800 
 37 H       -1.6910     1.0240     2.0550 H     1 <1>   0.0800 
 38 H       -0.5590     1.5180     0.8260 H     1 <1>   0.0800 
 39 H       -1.6660    -1.2040     1.1960 H     1 <1>   0.4500 
 40 H       -1.5640     6.8550    -1.3520 H     1 <1>   0.1500 
 41 H        1.1100    -0.2200     1.5160 H     1 <1>   0.0800 
 42 H        0.5850    -1.8770     1.7350 H     1 <1>   0.0800 
 43 H        0.0220    -0.6290     2.8250 H     1 <1>   0.0800 
 44 H        1.2580     4.0050     0.3360 H     1 <1>   0.0800 
 45 H        1.3630     5.0730     1.6990 H     1 <1>   0.0800 
 46 H       -1.2190     5.9250     2.3000 H     1 <1>   0.0800 
 47 H       -1.8550     6.7640     0.9270 H     1 <1>   0.0800 
 48 H        1.6770     5.9520    -1.1860 H     1 <1>   0.0800 
 49 H        3.0070     5.5230    -0.1580 H     1 <1>   0.0800 
 50 H        0.6540     7.3290     2.4650 H     1 <1>   0.0800 
 51 H       -0.6320     8.3830     2.0150 H     1 <1>   0.0800 
 52 H        1.0040     9.1270     0.6100 H     1 <1>   0.0800 
 53 H        0.2300     7.9850    -0.4520 H     1 <1>   0.0800 
 54 H        3.5340     6.8080     2.4150 H     1 <1>   0.1500 
 55 H        5.5040    10.2340    -0.4620 H     1 <1>   0.1500 
 56 H        2.8400     8.4780    -2.0450 H     1 <1>   0.0800 
 57 H        3.8010     9.9290    -2.1120 H     1 <1>   0.0800 
 58 H        2.2780     9.9340    -1.2630 H     1 <1>   0.0800 
 59 H        5.7030     7.8590     2.9860 H     1 <1>   0.1500 
 60 H        6.5880     9.5300     1.5300 H     1 <1>   0.4570 
@<TRIPOS>BOND
  1   1   2  2   
  2   2   3  am  
  3   2   4  1   
  4   3   5  1   
  5   3   6  1   
  6   4   7  ar  
  7   4   8  ar  
  8   5   9  1   
  9   5  30  1   
 10   5  31  1   
 11   6  10  1   
 12   6  32  1   
 13   6  33  1   
 14   7  11  ar  
 15   8  12  ar  
 16   8  34  1   
 17   9  13  1   
 18   9  35  1   
 19   9  36  1   
 20  10  13  1   
 21  10  37  1   
 22  10  38  1   
 23  11  14  1   
 24  11  15  ar  
 25  12  15  ar  
 26  13  16  1   
 27  13  39  1   
 28  14  17  1   
 29  14  18  1   
 30  15  40  1   
 31  16  41  1   
 32  16  42  1   
 33  16  43  1   
 34  17  19  1   
 35  17  44  1   
 36  17  45  1   
 37  18  20  1   
 38  18  46  1   
 39  18  47  1   
 40  19  21  1   
 41  19  48  1   
 42  19  49  1   
 43  20  22  1   
 44  20  50  1   
 45  20  51  1   
 46  21  22  1   
 47  21  23  1   
 48  22  52  1   
 49  22  53  1   
 50  23  24  ar  
 51  23  25  ar  
 52  24  26  ar  
 53  24  27  1   
 54  25  28  ar  
 55  25  54  1   
 56  26  29  ar  
 57  26  55  1   
 58  27  56  1   
 59  27  57  1   
 60  27  58  1   
 61  28  29  ar  
 62  28  59  1   
 63  29  60  1   
@<TRIPOS>SUBSTRUCTURE
  1 ****  17 GROUP 4 **** **** 0

# MOE 2024.06 (io_trps.svl 2023.06)
