@<TRIPOS>MOLECULE
NONAME
44 47 1 0 0 
SMALL
USER_CHARGES


@<TRIPOS>ATOM
  1 O       -0.0970     0.7420     1.3710 O.2   1 <1>  -0.5700 
  2 C       -0.8010     0.9470     0.4100 C.2   1 <1>   0.5690 
  3 N       -0.5910     2.0110    -0.4300 N.am  1 <1>  -0.6600 
  4 C       -1.9470    -0.0410     0.1560 C.3   1 <1>   0.2010 
  5 C       -1.5160     2.3260    -1.5610 C.3   1 <1>   0.1400 
  6 C        0.4460     3.0360    -0.1370 C.3   1 <1>   0.2840 
  7 N       -2.9430     0.4090    -0.8820 N.am  1 <1>  -0.6600 
  8 C       -2.2960     1.0940    -2.0390 C.3   1 <1>   0.1400 
  9 C       -0.2250     4.3390     0.2680 C.ar  1 <1>  -0.1430 
 10 C       -4.3110     0.3240    -0.7790 C.2   1 <1>   0.5690 
 11 C       -0.2470     5.4220    -0.6060 C.ar  1 <1>  -0.1500 
 12 C       -0.8300     4.4400     1.5210 C.ar  1 <1>  -0.1500 
 13 O       -5.0210     0.8030    -1.6320 O.2   1 <1>  -0.5700 
 14 C       -4.9730    -0.3780     0.4120 C.3   1 <1>  -0.0190 
 15 C       -0.8820     6.5770    -0.1950 C.ar  1 <1>   0.0830 
 16 C       -1.4620     5.6120     1.9180 C.ar  1 <1>  -0.1500 
 17 C       -4.7190    -1.9020     0.4480 C.3   1 <1>  -0.0220 
 18 C       -6.5060    -0.2030     0.5370 C.3   1 <1>  -0.0220 
 19 O       -1.0280     7.7240    -0.8650 O.3   1 <1>  -0.3630 
 20 C       -1.4730     6.6700     1.0310 C.ar  1 <1>   0.0830 
 21 C       -5.9860    -2.4400     1.0630 C.2   1 <1>  -0.2880 
 22 C       -6.9460    -1.5260     1.1150 C.2   1 <1>  -0.2880 
 23 C       -1.7600     8.6030    -0.0130 C.3   1 <1>   0.4000 
 24 O       -2.0170     7.8810     1.1890 O.3   1 <1>  -0.3630 
 25 H       -2.4290    -0.2120     1.0980 H     1 <1>   0.0800 
 26 H       -1.5140    -0.9700    -0.1650 H     1 <1>   0.0800 
 27 H       -0.9530     2.7250    -2.3870 H     1 <1>   0.0800 
 28 H       -2.2170     3.0800    -1.2420 H     1 <1>   0.0800 
 29 H        1.0560     3.1840    -1.0110 H     1 <1>   0.0800 
 30 H        1.0920     2.7060     0.6590 H     1 <1>   0.0800 
 31 H       -1.6230     0.4090    -2.5250 H     1 <1>   0.0800 
 32 H       -3.0280     1.4000    -2.7660 H     1 <1>   0.0800 
 33 H        0.2090     5.3830    -1.5780 H     1 <1>   0.1500 
 34 H       -0.8100     3.5960     2.1900 H     1 <1>   0.1500 
 35 H       -4.5630     0.0420     1.3110 H     1 <1>   0.0800 
 36 H       -1.9320     5.7030     2.8800 H     1 <1>   0.1500 
 37 H       -3.8610    -2.1440     1.0490 H     1 <1>   0.0800 
 38 H       -4.5990    -2.3030    -0.5440 H     1 <1>   0.0800 
 39 H       -6.9860    -0.0620    -0.4160 H     1 <1>   0.0800 
 40 H       -6.7490     0.6190     1.1880 H     1 <1>   0.0800 
 41 H       -6.0160    -3.4690     1.3820 H     1 <1>   0.1500 
 42 H       -7.9530    -1.6210     1.4860 H     1 <1>   0.1500 
 43 H       -2.6910     8.8670    -0.4810 H     1 <1>   0.0800 
 44 H       -1.1640     9.4710     0.2080 H     1 <1>   0.0800 
@<TRIPOS>BOND
  1   1   2  2   
  2   2   3  am  
  3   2   4  1   
  4   3   5  1   
  5   3   6  1   
  6   4   7  1   
  7   4  25  1   
  8   4  26  1   
  9   5   8  1   
 10   5  27  1   
 11   5  28  1   
 12   6   9  1   
 13   6  29  1   
 14   6  30  1   
 15   7   8  1   
 16   7  10  am  
 17   8  31  1   
 18   8  32  1   
 19   9  11  ar  
 20   9  12  ar  
 21  10  13  2   
 22  10  14  1   
 23  11  15  ar  
 24  11  33  1   
 25  12  16  ar  
 26  12  34  1   
 27  14  17  1   
 28  14  18  1   
 29  14  35  1   
 30  15  19  1   
 31  15  20  ar  
 32  16  20  ar  
 33  16  36  1   
 34  17  21  1   
 35  17  37  1   
 36  17  38  1   
 37  18  22  1   
 38  18  39  1   
 39  18  40  1   
 40  19  23  1   
 41  20  24  1   
 42  21  22  2   
 43  21  41  1   
 44  22  42  1   
 45  23  24  1   
 46  23  43  1   
 47  23  44  1   
@<TRIPOS>SUBSTRUCTURE
  1 ****   5 GROUP 4 **** **** 0

# MOE 2024.06 (io_trps.svl 2023.06)
