@<TRIPOS>MOLECULE
NONAME
50 52 1 0 0 
SMALL
USER_CHARGES


@<TRIPOS>ATOM
  1 O        0.1670     1.1030     1.6320 O.2   1 <1>  -0.5700 
  2 C        0.2260     2.2010     1.1260 C.2   1 <1>   0.5690 
  3 N       -0.8680     3.0260     1.0670 N.am  1 <1>  -0.6600 
  4 C        1.5520     2.6520     0.5390 C.3   1 <1>  -0.0990 
  5 C       -2.2040     2.5780     1.5590 C.3   1 <1>   0.1400 
  6 C       -0.9120     4.3700     0.4280 C.3   1 <1>   0.1400 
  7 C        2.6380     1.5820     0.6520 C.3   1 <1>   0.1200 
  8 C       -3.1890     2.4480     0.3830 C.3   1 <1>   0.0000 
  9 C       -1.8600     4.3290    -0.7750 C.3   1 <1>  -0.1600 
 10 O        3.8190     2.0880     0.0700 O.3   1 <1>  -0.3630 
 11 C       -4.5660     1.9820     0.8910 C.3   1 <1>   0.2000 
 12 C       -3.2540     3.7980    -0.3880 C.3   1 <1>  -0.1600 
 13 C       -2.8140     1.2940    -0.5640 C.3   1 <1>  -0.1600 
 14 C        4.9510     1.3410     0.0250 C.ar  1 <1>   0.0820 
 15 O       -5.3120     3.0390     1.4160 O.3   1 <1>  -0.5600 
 16 C       -5.2550     1.3490    -0.3210 C.3   1 <1>  -0.1600 
 17 C       -4.1230     0.8600    -1.2350 C.3   1 <1>  -0.1600 
 18 C        5.0500     0.0500     0.5370 C.ar  1 <1>  -0.1500 
 19 C        6.0590     1.9230    -0.5730 C.ar  1 <1>  -0.1500 
 20 C       -6.4320     2.6610     2.1520 C.3   1 <1>   0.0400 
 21 C        6.2460    -0.6410     0.4480 C.ar  1 <1>  -0.1500 
 22 C        7.2540     1.2300    -0.6610 C.ar  1 <1>  -0.1500 
 23 C        7.3470    -0.0530    -0.1500 C.ar  1 <1>  -0.1500 
 24 H        1.4050     2.8830    -0.4990 H     1 <1>   0.0800 
 25 H        1.8760     3.5310     1.0620 H     1 <1>   0.0800 
 26 H       -2.1220     1.6370     2.0760 H     1 <1>   0.0800 
 27 H       -2.5800     3.3020     2.2610 H     1 <1>   0.0800 
 28 H       -1.2750     5.0830     1.1480 H     1 <1>   0.0800 
 29 H        0.0640     4.6900     0.1110 H     1 <1>   0.0800 
 30 H        2.3470     0.6920     0.1210 H     1 <1>   0.0800 
 31 H        2.8350     1.3510     1.6850 H     1 <1>   0.0800 
 32 H       -1.9600     5.3220    -1.1770 H     1 <1>   0.0800 
 33 H       -1.4260     3.7160    -1.5430 H     1 <1>   0.0800 
 34 H       -4.4250     1.2380     1.6570 H     1 <1>   0.0800 
 35 H       -3.8620     3.7010    -1.2690 H     1 <1>   0.0800 
 36 H       -3.7200     4.5370     0.2400 H     1 <1>   0.0800 
 37 H       -2.0640     1.5620    -1.2850 H     1 <1>   0.0800 
 38 H       -2.4330     0.4690     0.0160 H     1 <1>   0.0800 
 39 H       -5.8860     0.5330    -0.0180 H     1 <1>   0.0800 
 40 H       -5.8400     2.0900    -0.8380 H     1 <1>   0.0800 
 41 H       -4.1510    -0.2090    -1.3590 H     1 <1>   0.0800 
 42 H       -4.2130     1.3250    -2.2020 H     1 <1>   0.0800 
 43 H        4.2120    -0.4310     1.0070 H     1 <1>   0.1500 
 44 H        5.9780     2.9190    -0.9670 H     1 <1>   0.1500 
 45 H       -6.9030     3.5540     2.5230 H     1 <1>   0.0800 
 46 H       -6.1240     2.0440     2.9780 H     1 <1>   0.0800 
 47 H       -7.1180     2.1300     1.5150 H     1 <1>   0.0800 
 48 H        6.3200    -1.6390     0.8450 H     1 <1>   0.1500 
 49 H        8.1080     1.6890    -1.1270 H     1 <1>   0.1500 
 50 H        8.2760    -0.5930    -0.2190 H     1 <1>   0.1500 
@<TRIPOS>BOND
  1   1   2  2   
  2   2   3  am  
  3   2   4  1   
  4   3   5  1   
  5   3   6  1   
  6   4   7  1   
  7   4  24  1   
  8   4  25  1   
  9   5   8  1   
 10   5  26  1   
 11   5  27  1   
 12   6   9  1   
 13   6  28  1   
 14   6  29  1   
 15   7  10  1   
 16   7  30  1   
 17   7  31  1   
 18   8  11  1   
 19   8  12  1   
 20   8  13  1   
 21   9  12  1   
 22   9  32  1   
 23   9  33  1   
 24  10  14  1   
 25  11  15  1   
 26  11  16  1   
 27  11  34  1   
 28  12  35  1   
 29  12  36  1   
 30  13  17  1   
 31  13  37  1   
 32  13  38  1   
 33  14  18  ar  
 34  14  19  ar  
 35  15  20  1   
 36  16  17  1   
 37  16  39  1   
 38  16  40  1   
 39  17  41  1   
 40  17  42  1   
 41  18  21  ar  
 42  18  43  1   
 43  19  22  ar  
 44  19  44  1   
 45  20  45  1   
 46  20  46  1   
 47  20  47  1   
 48  21  23  ar  
 49  21  48  1   
 50  22  23  ar  
 51  22  49  1   
 52  23  50  1   
@<TRIPOS>SUBSTRUCTURE
  1 ****   2 GROUP 4 **** **** 0

# MOE 2024.06 (io_trps.svl 2023.06)
