@<TRIPOS>MOLECULE
NONAME
31 31 1 0 0 
SMALL
USER_CHARGES


@<TRIPOS>ATOM
  1 O        0.3550     1.2570     0.4590 O.2   1 <1>  -0.5200 
  2 N        0.1240     2.4470     0.7040 N.pl3 1 <1>   0.8000 
  3 O       -1.0170     2.8860     0.8910 O.2   1 <1>  -0.5200 
  4 C        1.2540     3.3840     0.7310 C.3   1 <1>   0.0800 
  5 C        1.3720     4.1210    -0.6140 C.3   1 <1>   0.0000 
  6 C        2.4680     5.2060    -0.6400 C.3   1 <1>   0.2250 
  7 C        0.3660     5.2770    -0.8140 C.3   1 <1>   0.2250 
  8 N        1.4170     6.2320    -0.3210 N.am  1 <1>  -0.5100 
  9 C        1.3140     6.8400     0.8980 C.2   1 <1>   0.7800 
 10 O        1.8520     6.3750     1.8820 O.2   1 <1>  -0.5700 
 11 O        0.6030     7.9560     1.0580 O.3   1 <1>  -0.4300 
 12 C        0.3640     8.9860     0.1230 C.3   1 <1>   0.2800 
 13 C        1.6800     9.4350    -0.5230 C.3   1 <1>  -0.2400 
 14 C       -0.2140    10.1370     0.9470 C.3   1 <1>  -0.2400 
 15 C       -0.6710     8.5430    -0.9150 C.3   1 <1>  -0.2400 
 16 H        2.1500     2.8240     0.9230 H     1 <1>   0.0800 
 17 H        1.0970     4.0660     1.5440 H     1 <1>   0.0800 
 18 H        1.4420     3.4540    -1.4550 H     1 <1>   0.0000 
 19 H        2.8830     5.3730    -1.6190 H     1 <1>   0.0000 
 20 H        3.2100     5.1040     0.1320 H     1 <1>   0.0000 
 21 H       -0.4910     5.2460    -0.1650 H     1 <1>   0.0000 
 22 H        0.1270     5.4640    -1.8460 H     1 <1>   0.0000 
 23 H        2.4020     9.6820     0.2350 H     1 <1>   0.0800 
 24 H        1.5120    10.3090    -1.1250 H     1 <1>   0.0800 
 25 H        2.0830     8.6730    -1.1630 H     1 <1>   0.0800 
 26 H        0.4870    10.4420     1.7030 H     1 <1>   0.0800 
 27 H       -1.1290     9.8330     1.4220 H     1 <1>   0.0800 
 28 H       -0.4230    10.9840     0.3180 H     1 <1>   0.0800 
 29 H       -0.2480     7.8540    -1.6190 H     1 <1>   0.0800 
 30 H       -1.0140     9.3950    -1.4740 H     1 <1>   0.0800 
 31 H       -1.5190     8.0930    -0.4300 H     1 <1>   0.0800 
@<TRIPOS>BOND
  1   1   2  2   
  2   2   3  2   
  3   2   4  1   
  4   4   5  1   
  5   4  16  1   
  6   4  17  1   
  7   5   6  1   
  8   5   7  1   
  9   5  18  1   
 10   6   8  1   
 11   6  19  1   
 12   6  20  1   
 13   7   8  1   
 14   7  21  1   
 15   7  22  1   
 16   8   9  am  
 17   9  10  2   
 18   9  11  1   
 19  11  12  1   
 20  12  13  1   
 21  12  14  1   
 22  12  15  1   
 23  13  23  1   
 24  13  24  1   
 25  13  25  1   
 26  14  26  1   
 27  14  27  1   
 28  14  28  1   
 29  15  29  1   
 30  15  30  1   
 31  15  31  1   
@<TRIPOS>SUBSTRUCTURE
  1 ****   8 GROUP 4 **** **** 0

# MOE 2024.06 (io_trps.svl 2023.06)
