@<TRIPOS>MOLECULE
NONAME
53 55 1 0 0 
SMALL
USER_CHARGES


@<TRIPOS>ATOM
  1 O        0.0950     1.1550    -1.6980 O.2   1 <1>  -0.5700 
  2 C       -0.0490     2.2600    -1.2300 C.2   1 <1>   0.5690 
  3 N       -1.0510     2.5700    -0.3490 N.am  1 <1>  -0.6600 
  4 C        0.9410     3.3370    -1.6710 C.3   1 <1>   0.1810 
  5 C       -1.2210     3.9880     0.1430 C.3   1 <1>   0.3640 
  6 C       -1.8490     1.4630     0.2700 C.3   1 <1>   0.2200 
  7 O        1.0530     4.3920    -0.7450 O.3   1 <1>  -0.5600 
  8 C       -2.6180     4.5190    -0.1810 C.ar  1 <1>  -0.1440 
  9 C       -0.1930     4.9990    -0.4430 C.3   1 <1>   0.2610 
 10 C       -3.1990     1.3030    -0.4280 C.3   1 <1>  -0.2400 
 11 C       -2.0240     1.6360     1.7800 C.3   1 <1>  -0.2400 
 12 C       -3.1470     4.4170    -1.4620 C.ar  1 <1>  -0.1500 
 13 C       -3.3690     5.1360     0.8090 C.ar  1 <1>  -0.1500 
 14 C        0.0230     6.2160     0.4790 C.2   1 <1>   0.5690 
 15 C       -4.4030     4.9220    -1.7470 C.ar  1 <1>  -0.1500 
 16 C       -4.6260     5.6410     0.5260 C.ar  1 <1>  -0.1500 
 17 O       -0.3710     6.1720     1.6230 O.2   1 <1>  -0.5700 
 18 N        0.7070     7.3310     0.0420 N.am  1 <1>  -0.6600 
 19 C       -5.1440     5.5350    -0.7520 C.ar  1 <1>  -0.1500 
 20 C        1.0200     8.4380     0.9940 C.3   1 <1>   0.1400 
 21 C        1.6130     7.3420    -1.1440 C.3   1 <1>   0.1400 
 22 C        2.4650     8.2700     1.5040 C.3   1 <1>   0.3430 
 23 C        3.0670     7.1530    -0.6620 C.3   1 <1>   0.3430 
 24 N        3.4650     8.1850     0.3710 N.4   1 <1>  -0.9590 
 25 C        4.8340     7.9000     0.9000 C.3   1 <1>   0.2630 
 26 H        0.6340     3.7370    -2.6200 H     1 <1>   0.0800 
 27 H        1.9130     2.8920    -1.7800 H     1 <1>   0.0800 
 28 H       -1.0930     3.9690     1.2090 H     1 <1>   0.0800 
 29 H       -1.3110     0.5400     0.1270 H     1 <1>   0.0800 
 30 H       -0.5880     5.3760    -1.3680 H     1 <1>   0.0800 
 31 H       -3.8600     2.1150    -0.1910 H     1 <1>   0.0800 
 32 H       -3.6660     0.3930    -0.1010 H     1 <1>   0.0800 
 33 H       -3.0590     1.2470    -1.4920 H     1 <1>   0.0800 
 34 H       -2.6630     2.4700     2.0060 H     1 <1>   0.0800 
 35 H       -1.0670     1.7670     2.2530 H     1 <1>   0.0800 
 36 H       -2.4790     0.7530     2.1900 H     1 <1>   0.0800 
 37 H       -2.5870     3.9330    -2.2440 H     1 <1>   0.1500 
 38 H       -2.9790     5.2330     1.8080 H     1 <1>   0.1500 
 39 H       -4.8070     4.8350    -2.7400 H     1 <1>   0.1500 
 40 H       -5.2010     6.1180     1.3010 H     1 <1>   0.1500 
 41 H       -6.1210     5.9270    -0.9720 H     1 <1>   0.1500 
 42 H        0.9060     9.3870     0.5000 H     1 <1>   0.0800 
 43 H        0.3400     8.4280     1.8300 H     1 <1>   0.0800 
 44 H        1.3580     6.5660    -1.8410 H     1 <1>   0.0800 
 45 H        1.5160     8.2800    -1.6620 H     1 <1>   0.0800 
 46 H        2.5050     7.3670     2.0920 H     1 <1>   0.0800 
 47 H        2.7100     9.0960     2.1510 H     1 <1>   0.0800 
 48 H        3.7310     7.2070    -1.5090 H     1 <1>   0.0800 
 49 H        3.1510     6.1650    -0.2390 H     1 <1>   0.0800 
 50 H        3.4780     9.1030    -0.0960 H     1 <1>   0.4500 
 51 H        4.8490     6.9450     1.4010 H     1 <1>   0.0800 
 52 H        5.1310     8.6620     1.6030 H     1 <1>   0.0800 
 53 H        5.5510     7.8780     0.0950 H     1 <1>   0.0800 
@<TRIPOS>BOND
  1   1   2  2   
  2   2   3  am  
  3   2   4  1   
  4   3   5  1   
  5   3   6  1   
  6   4   7  1   
  7   4  26  1   
  8   4  27  1   
  9   5   8  1   
 10   5   9  1   
 11   5  28  1   
 12   6  10  1   
 13   6  11  1   
 14   6  29  1   
 15   7   9  1   
 16   8  12  ar  
 17   8  13  ar  
 18   9  14  1   
 19   9  30  1   
 20  10  31  1   
 21  10  32  1   
 22  10  33  1   
 23  11  34  1   
 24  11  35  1   
 25  11  36  1   
 26  12  15  ar  
 27  12  37  1   
 28  13  16  ar  
 29  13  38  1   
 30  14  17  2   
 31  14  18  am  
 32  15  19  ar  
 33  15  39  1   
 34  16  19  ar  
 35  16  40  1   
 36  18  20  1   
 37  18  21  1   
 38  19  41  1   
 39  20  22  1   
 40  20  42  1   
 41  20  43  1   
 42  21  23  1   
 43  21  44  1   
 44  21  45  1   
 45  22  24  1   
 46  22  46  1   
 47  22  47  1   
 48  23  24  1   
 49  23  48  1   
 50  23  49  1   
 51  24  25  1   
 52  24  50  1   
 53  25  51  1   
 54  25  52  1   
 55  25  53  1   
@<TRIPOS>SUBSTRUCTURE
  1 ****   9 GROUP 4 **** **** 0

# MOE 2024.06 (io_trps.svl 2023.06)
