@<TRIPOS>MOLECULE
NONAME
43 45 1 0 0 
SMALL
USER_CHARGES


@<TRIPOS>ATOM
  1 S        0.2570    -0.1430     0.9060 S.o2  1 <1>   1.3330 
  2 O       -0.6810     0.3610     1.8850 O.2   1 <1>  -0.6500 
  3 O        0.8950    -1.4250     1.1150 O.2   1 <1>  -0.6500 
  4 N        1.4630     1.0190     0.6710 N.am  1 <1>  -0.8490 
  5 C       -0.5570    -0.1470    -0.6970 C.3   1 <1>  -0.0550 
  6 C        1.6660     1.8980     1.8440 C.3   1 <1>   0.1960 
  7 C        2.7550     0.4460     0.2320 C.3   1 <1>   0.1960 
  8 C       -1.7350    -1.1310    -0.8140 C.3   1 <1>  -0.2400 
  9 C        2.7280     2.9850     1.5870 C.3   1 <1>   0.2090 
 10 C        3.8140     1.5290    -0.0420 C.3   1 <1>   0.2090 
 11 N        4.0230     2.3700     1.1710 N.pl3 1 <1>  -0.8210 
 12 C        5.0770     3.2790     1.0590 C.2   1 <1>   0.3720 
 13 N        6.1220     3.1950     1.8040 N.2   1 <1>  -0.4100 
 14 C        5.1700     4.3610     0.1860 C.2   1 <1>  -0.2330 
 15 O        6.8890     4.1930     1.4480 O.3   1 <1>  -0.0190 
 16 C        6.3670     4.9230     0.4890 C.2   1 <1>   0.0870 
 17 C        4.1950     4.7290    -0.7840 C.2   1 <1>   1.0330 
 18 C        7.0820     6.0720    -0.0190 C.ar  1 <1>   0.0530 
 19 O        3.3260     5.5750    -0.5080 O.co2 1 <1>  -0.9000 
 20 O        4.1900     4.2050    -1.9110 O.co2 1 <1>  -0.9000 
 21 C        8.4640     6.1850     0.1470 C.ar  1 <1>  -0.1500 
 22 C        6.4350     7.1130    -0.6870 C.ar  1 <1>  -0.1500 
 23 C        9.1660     7.2780    -0.3290 C.ar  1 <1>  -0.1500 
 24 C        7.1300     8.2070    -1.1680 C.ar  1 <1>  -0.1500 
 25 C        8.4990     8.2930    -0.9900 C.ar  1 <1>  -0.1500 
 26 H        0.1660    -0.3870    -1.4520 H     1 <1>   0.0800 
 27 H       -0.9160     0.8440    -0.9000 H     1 <1>   0.0800 
 28 H        1.9670     1.3080     2.6920 H     1 <1>   0.0800 
 29 H        0.7400     2.3880     2.0900 H     1 <1>   0.0800 
 30 H        2.6070    -0.1260    -0.6670 H     1 <1>   0.0800 
 31 H        3.1370    -0.2170     0.9900 H     1 <1>   0.0800 
 32 H       -1.3950    -2.1370    -0.6390 H     1 <1>   0.0800 
 33 H       -2.1710    -1.0760    -1.7950 H     1 <1>   0.0800 
 34 H       -2.4890    -0.8910    -0.0840 H     1 <1>   0.0800 
 35 H        2.8810     3.5620     2.4820 H     1 <1>   0.0800 
 36 H        2.3660     3.6490     0.8210 H     1 <1>   0.0800 
 37 H        3.4810     2.1330    -0.8670 H     1 <1>   0.0800 
 38 H        4.7460     1.0680    -0.3190 H     1 <1>   0.0800 
 39 H        8.9940     5.4000     0.6560 H     1 <1>   0.1500 
 40 H        5.3700     7.0720    -0.8320 H     1 <1>   0.1500 
 41 H       10.2300     7.3360    -0.1870 H     1 <1>   0.1500 
 42 H        6.5990     8.9900    -1.6800 H     1 <1>   0.1500 
 43 H        9.0400     9.1450    -1.3640 H     1 <1>   0.1500 
@<TRIPOS>BOND
  1   1   2  2   
  2   1   3  2   
  3   1   4  am  
  4   1   5  1   
  5   4   6  1   
  6   4   7  1   
  7   5   8  1   
  8   5  26  1   
  9   5  27  1   
 10   6   9  1   
 11   6  28  1   
 12   6  29  1   
 13   7  10  1   
 14   7  30  1   
 15   7  31  1   
 16   8  32  1   
 17   8  33  1   
 18   8  34  1   
 19   9  11  1   
 20   9  35  1   
 21   9  36  1   
 22  10  11  1   
 23  10  37  1   
 24  10  38  1   
 25  11  12  1   
 26  12  13  2   
 27  12  14  1   
 28  13  15  1   
 29  14  16  2   
 30  14  17  1   
 31  15  16  1   
 32  16  18  1   
 33  17  19  ar  
 34  17  20  ar  
 35  18  21  ar  
 36  18  22  ar  
 37  21  23  ar  
 38  21  39  1   
 39  22  24  ar  
 40  22  40  1   
 41  23  25  ar  
 42  23  41  1   
 43  24  25  ar  
 44  24  42  1   
 45  25  43  1   
@<TRIPOS>SUBSTRUCTURE
  1 ****  12 GROUP 4 **** **** 0

# MOE 2024.06 (io_trps.svl 2023.06)
