@<TRIPOS>MOLECULE
NONAME
48 50 1 0 0 
SMALL
USER_CHARGES


@<TRIPOS>ATOM
  1 O       -0.8580     0.1760     2.5340 O.2   1 <1>  -0.5700 
  2 C       -1.4240     0.7940     1.6620 C.2   1 <1>   0.5690 
  3 N       -2.4580     0.2290     0.9590 N.am  1 <1>  -0.6600 
  4 C       -0.9750     2.2410     1.4200 C.3   1 <1>   0.1810 
  5 C       -3.2470     0.8780    -0.1130 C.3   1 <1>   0.1400 
  6 C       -2.8650    -1.1890     1.1160 C.3   1 <1>   0.1400 
  7 O       -0.8720     2.5770     0.0570 O.3   1 <1>  -0.5600 
  8 C       -4.4660    -0.0260    -0.2820 C.3   1 <1>   0.2000 
  9 C       -3.9520    -1.4290     0.0540 C.3   1 <1>  -0.0800 
 10 C       -0.3880     3.8570    -0.1750 C.3   1 <1>   0.1200 
 11 O       -5.4040     0.3240     0.6750 O.3   1 <1>  -0.6800 
 12 C       -3.3840    -2.1200    -1.2010 C.3   1 <1>  -0.0170 
 13 C       -0.3750     4.0830    -1.6850 C.3   1 <1>  -0.1600 
 14 C       -3.0300    -3.5740    -0.9310 C.ar  1 <1>   0.1670 
 15 C        0.1440     5.4820    -2.0370 C.3   1 <1>  -0.2400 
 16 N       -1.7860    -3.8580    -0.6970 N.ar  1 <1>  -0.6200 
 17 C       -4.0560    -4.5330    -0.9450 C.ar  1 <1>  -0.1500 
 18 C       -1.4670    -5.1530    -0.4480 C.ar  1 <1>   0.3100 
 19 C       -3.7650    -5.8410    -0.7030 C.ar  1 <1>  -0.1500 
 20 C       -2.4290    -6.1870    -0.4420 C.ar  1 <1>   0.0000 
 21 C       -0.1290    -5.4840    -0.1840 C.ar  1 <1>  -0.1500 
 22 C       -2.0130    -7.5080    -0.1770 C.ar  1 <1>  -0.1500 
 23 C        0.2550    -6.7740     0.0720 C.ar  1 <1>  -0.1500 
 24 C       -0.6990    -7.7970     0.0750 C.ar  1 <1>  -0.1500 
 25 H       -0.0100     2.3780     1.8750 H     1 <1>   0.0800 
 26 H       -1.6820     2.9050     1.8820 H     1 <1>   0.0800 
 27 H       -3.5270     1.8860     0.1430 H     1 <1>   0.0800 
 28 H       -2.6630     0.8870    -1.0170 H     1 <1>   0.0800 
 29 H       -2.0140    -1.8380     0.9920 H     1 <1>   0.0800 
 30 H       -3.2660    -1.3310     2.1050 H     1 <1>   0.0800 
 31 H       -4.9250     0.0560    -1.2520 H     1 <1>   0.0800 
 32 H       -4.7450    -2.0390     0.4500 H     1 <1>   0.0800 
 33 H       -1.0350     4.5680     0.3100 H     1 <1>   0.0800 
 34 H        0.6090     3.9290     0.2280 H     1 <1>   0.0800 
 35 H       -4.9570     0.3620     1.5450 H     1 <1>   0.4000 
 36 H       -2.5070    -1.6000    -1.5460 H     1 <1>   0.0800 
 37 H       -4.1110    -2.0900    -1.9930 H     1 <1>   0.0800 
 38 H        0.2570     3.3440    -2.1460 H     1 <1>   0.0800 
 39 H       -1.3740     3.9690    -2.0680 H     1 <1>   0.0800 
 40 H        1.1500     5.6110    -1.6770 H     1 <1>   0.0800 
 41 H       -0.4820     6.2390    -1.5980 H     1 <1>   0.0800 
 42 H        0.1440     5.6150    -3.1040 H     1 <1>   0.0800 
 43 H       -5.0640    -4.2210    -1.1490 H     1 <1>   0.1500 
 44 H       -4.5230    -6.6040    -0.7060 H     1 <1>   0.1500 
 45 H        0.5880    -4.6830    -0.1900 H     1 <1>   0.1500 
 46 H       -2.7520    -8.2890    -0.1760 H     1 <1>   0.1500 
 47 H        1.2850    -7.0130     0.2730 H     1 <1>   0.1500 
 48 H       -0.3840    -8.8060     0.2770 H     1 <1>   0.1500 
@<TRIPOS>BOND
  1   1   2  2   
  2   2   3  am  
  3   2   4  1   
  4   3   5  1   
  5   3   6  1   
  6   4   7  1   
  7   4  25  1   
  8   4  26  1   
  9   5   8  1   
 10   5  27  1   
 11   5  28  1   
 12   6   9  1   
 13   6  29  1   
 14   6  30  1   
 15   7  10  1   
 16   8   9  1   
 17   8  11  1   
 18   8  31  1   
 19   9  12  1   
 20   9  32  1   
 21  10  13  1   
 22  10  33  1   
 23  10  34  1   
 24  11  35  1   
 25  12  14  1   
 26  12  36  1   
 27  12  37  1   
 28  13  15  1   
 29  13  38  1   
 30  13  39  1   
 31  14  16  ar  
 32  14  17  ar  
 33  15  40  1   
 34  15  41  1   
 35  15  42  1   
 36  16  18  ar  
 37  17  19  ar  
 38  17  43  1   
 39  18  20  ar  
 40  18  21  ar  
 41  19  20  ar  
 42  19  44  1   
 43  20  22  ar  
 44  21  23  ar  
 45  21  45  1   
 46  22  24  ar  
 47  22  46  1   
 48  23  24  ar  
 49  23  47  1   
 50  24  48  1   
@<TRIPOS>SUBSTRUCTURE
  1 ****   6 GROUP 4 **** **** 0

# MOE 2024.06 (io_trps.svl 2023.06)
