@<TRIPOS>MOLECULE
NONAME
55 57 1 0 0 
SMALL
USER_CHARGES


@<TRIPOS>ATOM
  1 O       -0.8730     0.3850    -2.3330 O.2   1 <1>  -0.5700 
  2 C       -1.2890     1.3120    -1.6730 C.2   1 <1>   0.5690 
  3 N       -1.8110     1.0880    -0.4350 N.am  1 <1>  -0.7300 
  4 C       -1.2780     2.7550    -2.2660 C.3   1 <1>   0.3410 
  5 C       -1.8100    -0.2000     0.2890 C.3   1 <1>   0.2200 
  6 O       -1.0350     3.7780    -1.2950 O.3   1 <1>  -0.3630 
  7 C       -2.6740     3.0770    -2.8200 C.3   1 <1>  -0.2400 
  8 C       -0.2580     2.9380    -3.4050 C.3   1 <1>  -0.2400 
  9 C       -3.2430    -0.6580     0.4880 C.3   1 <1>  -0.0800 
 10 C       -1.3490     0.0260     1.7270 C.3   1 <1>   0.1200 
 11 C       -0.3100     3.5720    -0.1670 C.ar  1 <1>   0.0820 
 12 C       -3.6540     0.1320     1.7340 C.3   1 <1>   0.1200 
 13 C       -3.3240    -2.1800     0.7080 C.3   1 <1>  -0.0160 
 14 O       -2.4860     0.3870     2.4590 O.3   1 <1>  -0.5600 
 15 C       -0.9270     3.7090     1.0780 C.ar  1 <1>  -0.1440 
 16 C        1.0310     3.2250    -0.2500 C.ar  1 <1>  -0.1500 
 17 C       -4.7610    -2.6410     0.8990 C.ar  1 <1>  -0.1440 
 18 C       -0.1920     3.4560     2.2320 C.ar  1 <1>  -0.1440 
 19 C       -2.3950     4.1220     1.1910 C.3   1 <1>  -0.0970 
 20 C        1.7550     2.9820     0.9000 C.ar  1 <1>  -0.1500 
 21 C       -5.2620    -2.9860     2.1390 C.ar  1 <1>  -0.1500 
 22 C       -5.6390    -2.7390    -0.1610 C.ar  1 <1>  -0.1500 
 23 C        1.1440     3.0940     2.1340 C.ar  1 <1>  -0.1500 
 24 C       -0.8170     3.5530     3.6180 C.3   1 <1>  -0.0970 
 25 C       -6.5800    -3.3950     2.2560 C.ar  1 <1>   0.1600 
 26 C       -6.9400    -3.1600     0.0640 C.ar  1 <1>   0.1600 
 27 N       -7.4320    -3.4880     1.2480 N.ar  1 <1>  -0.6200 
 28 H       -1.9700     1.9060     0.1640 H     1 <1>   0.3700 
 29 H       -1.1980    -0.9200    -0.2270 H     1 <1>   0.0800 
 30 H       -2.9340     2.3730    -3.5900 H     1 <1>   0.0800 
 31 H       -2.6950     4.0670    -3.2380 H     1 <1>   0.0800 
 32 H       -3.4080     3.0060    -2.0390 H     1 <1>   0.0800 
 33 H       -0.5560     2.3540    -4.2570 H     1 <1>   0.0800 
 34 H        0.7120     2.5890    -3.1110 H     1 <1>   0.0800 
 35 H       -0.1990     3.9700    -3.6990 H     1 <1>   0.0800 
 36 H       -3.8560    -0.3950    -0.3560 H     1 <1>   0.0800 
 37 H       -0.6040     0.7970     1.8040 H     1 <1>   0.0800 
 38 H       -0.9680    -0.8860     2.1490 H     1 <1>   0.0800 
 39 H       -4.3510    -0.3930     2.3620 H     1 <1>   0.0800 
 40 H       -4.0730     1.0830     1.4540 H     1 <1>   0.0800 
 41 H       -2.7380    -2.4660     1.5640 H     1 <1>   0.0800 
 42 H       -2.9120    -2.6860    -0.1490 H     1 <1>   0.0800 
 43 H        1.5190     3.1500    -1.2000 H     1 <1>   0.1500 
 44 H       -2.4710     5.0330     1.7560 H     1 <1>   0.0800 
 45 H       -2.9560     3.3550     1.6930 H     1 <1>   0.0800 
 46 H       -2.8480     4.2970     0.2330 H     1 <1>   0.0800 
 47 H        2.7940     2.7100     0.8350 H     1 <1>   0.1500 
 48 H       -4.6410    -2.9390     3.0150 H     1 <1>   0.1500 
 49 H       -5.3250    -2.4930    -1.1580 H     1 <1>   0.1500 
 50 H        1.7200     2.8980     3.0210 H     1 <1>   0.1500 
 51 H       -0.0980     3.3290     4.3840 H     1 <1>   0.0800 
 52 H       -1.6270     2.8510     3.7050 H     1 <1>   0.0800 
 53 H       -1.1900     4.5460     3.7880 H     1 <1>   0.0800 
 54 H       -6.9530    -3.6590     3.2300 H     1 <1>   0.1500 
 55 H       -7.6110    -3.2310    -0.7750 H     1 <1>   0.1500 
@<TRIPOS>BOND
  1   1   2  2   
  2   2   3  am  
  3   2   4  1   
  4   3   5  1   
  5   3  28  1   
  6   4   6  1   
  7   4   7  1   
  8   4   8  1   
  9   5   9  1   
 10   5  10  1   
 11   5  29  1   
 12   6  11  1   
 13   7  30  1   
 14   7  31  1   
 15   7  32  1   
 16   8  33  1   
 17   8  34  1   
 18   8  35  1   
 19   9  12  1   
 20   9  13  1   
 21   9  36  1   
 22  10  14  1   
 23  10  37  1   
 24  10  38  1   
 25  11  15  ar  
 26  11  16  ar  
 27  12  14  1   
 28  12  39  1   
 29  12  40  1   
 30  13  17  1   
 31  13  41  1   
 32  13  42  1   
 33  15  18  ar  
 34  15  19  1   
 35  16  20  ar  
 36  16  43  1   
 37  17  21  ar  
 38  17  22  ar  
 39  18  23  ar  
 40  18  24  1   
 41  19  44  1   
 42  19  45  1   
 43  19  46  1   
 44  20  23  ar  
 45  20  47  1   
 46  21  25  ar  
 47  21  48  1   
 48  22  26  ar  
 49  22  49  1   
 50  23  50  1   
 51  24  51  1   
 52  24  52  1   
 53  24  53  1   
 54  25  27  ar  
 55  25  54  1   
 56  26  27  ar  
 57  26  55  1   
@<TRIPOS>SUBSTRUCTURE
  1 ****   3 GROUP 4 **** **** 0

# MOE 2024.06 (io_trps.svl 2023.06)
