@<TRIPOS>MOLECULE
NONAME
45 47 1 0 0 
SMALL
USER_CHARGES


@<TRIPOS>ATOM
  1 F       -1.8790    -0.2330     1.7290 F     1 <1>  -0.1900 
  2 C       -2.0910     0.4450     0.6340 C.ar  1 <1>   0.1900 
  3 C       -2.7410    -0.1520    -0.4580 C.ar  1 <1>   0.3960 
  4 C       -1.6740     1.7580     0.6280 C.ar  1 <1>  -0.1500 
  5 N       -3.0200     0.5700    -1.5680 N.ar  1 <1>  -0.6200 
  6 C       -3.1390    -1.5590    -0.4130 C.2   1 <1>   0.5440 
  7 C       -1.9590     2.4440    -0.5280 C.ar  1 <1>   0.1900 
  8 C       -2.6210     1.8340    -1.5820 C.ar  1 <1>   0.1600 
  9 O       -2.4110    -2.4060     0.0840 O.2   1 <1>  -0.5700 
 10 N       -4.3590    -2.0050    -0.8960 N.am  1 <1>  -0.6600 
 11 F       -1.6040     3.6940    -0.6280 F     1 <1>  -0.1900 
 12 C       -4.6050    -3.4520    -1.0750 C.3   1 <1>   0.1400 
 13 C       -5.6170    -1.2370    -0.6770 C.3   1 <1>   0.1400 
 14 C       -5.3660    -3.8500     0.1950 C.3   1 <1>   0.4230 
 15 C       -6.4890    -1.9280     0.4090 C.3   1 <1>  -0.1600 
 16 N       -4.9890    -5.1650     0.8280 N.4   1 <1>  -0.9590 
 17 C       -6.9090    -3.4570     0.0480 C.3   1 <1>   0.0000 
 18 C       -5.1840    -6.3190    -0.0600 C.3   1 <1>   0.3430 
 19 C       -3.5890    -5.1070     1.3640 C.3   1 <1>   0.2630 
 20 C       -7.3480    -4.9510    -0.3850 C.3   1 <1>  -0.1600 
 21 C       -8.4490    -3.0140    -0.0120 C.3   1 <1>   0.1200 
 22 C       -6.3860    -6.0350    -0.9380 C.3   1 <1>  -0.1600 
 23 O       -8.9050    -2.8830     1.2980 O.3   1 <1>  -0.6800 
 24 H       -1.1700     2.2120     1.4610 H     1 <1>   0.1500 
 25 H       -2.8260     2.4170    -2.4640 H     1 <1>   0.1500 
 26 H       -5.1970    -3.6070    -1.9590 H     1 <1>   0.0800 
 27 H       -3.6770    -3.9870    -1.1750 H     1 <1>   0.0800 
 28 H       -5.3910    -0.2290    -0.3710 H     1 <1>   0.0800 
 29 H       -6.1580    -1.1810    -1.6070 H     1 <1>   0.0800 
 30 H       -4.9250    -3.1920     0.9190 H     1 <1>   0.0800 
 31 H       -6.0010    -1.8600     1.3690 H     1 <1>   0.0800 
 32 H       -7.2700    -1.2020     0.5750 H     1 <1>   0.0800 
 33 H       -5.6390    -5.2730     1.6190 H     1 <1>   0.4500 
 34 H       -4.3140    -6.4770    -0.6770 H     1 <1>   0.0800 
 35 H       -5.3540    -7.2060     0.5300 H     1 <1>   0.0800 
 36 H       -2.8820    -4.9650     0.5620 H     1 <1>   0.0800 
 37 H       -3.3460    -6.0180     1.8850 H     1 <1>   0.0800 
 38 H       -3.4850    -4.2800     2.0480 H     1 <1>   0.0800 
 39 H       -7.8810    -5.3970     0.4420 H     1 <1>   0.0800 
 40 H       -8.0210    -4.9270    -1.2290 H     1 <1>   0.0800 
 41 H       -9.1830    -3.6570    -0.4670 H     1 <1>   0.0800 
 42 H       -8.6110    -2.0880    -0.5410 H     1 <1>   0.0800 
 43 H       -6.0350    -5.7450    -1.9130 H     1 <1>   0.0800 
 44 H       -6.9250    -6.9560    -1.0810 H     1 <1>   0.0800 
 45 H       -9.8400    -2.5910     1.3210 H     1 <1>   0.4000 
@<TRIPOS>BOND
  1   1   2  1   
  2   2   3  ar  
  3   2   4  ar  
  4   3   5  ar  
  5   3   6  1   
  6   4   7  ar  
  7   4  24  1   
  8   5   8  ar  
  9   6   9  2   
 10   6  10  am  
 11   7   8  ar  
 12   7  11  1   
 13   8  25  1   
 14  10  12  1   
 15  10  13  1   
 16  12  14  1   
 17  12  26  1   
 18  12  27  1   
 19  13  15  1   
 20  13  28  1   
 21  13  29  1   
 22  14  16  1   
 23  14  17  1   
 24  14  30  1   
 25  15  17  1   
 26  15  31  1   
 27  15  32  1   
 28  16  18  1   
 29  16  19  1   
 30  16  33  1   
 31  17  20  1   
 32  17  21  1   
 33  18  22  1   
 34  18  34  1   
 35  18  35  1   
 36  19  36  1   
 37  19  37  1   
 38  19  38  1   
 39  20  22  1   
 40  20  39  1   
 41  20  40  1   
 42  21  23  1   
 43  21  41  1   
 44  21  42  1   
 45  22  43  1   
 46  22  44  1   
 47  23  45  1   
@<TRIPOS>SUBSTRUCTURE
  1 ****  10 GROUP 4 **** **** 0

# MOE 2024.06 (io_trps.svl 2023.06)
