@<TRIPOS>MOLECULE
NONAME
43 44 1 0 0 
SMALL
USER_CHARGES


@<TRIPOS>ATOM
  1 O        0.1600    -0.5110     0.1650 O.2   1 <1>  -0.5700 
  2 C        1.2820    -0.8120    -0.1700 C.2   1 <1>   0.5690 
  3 N        2.2210     0.0920    -0.5840 N.am  1 <1>  -0.4940 
  4 C        1.7180    -2.2860    -0.1150 C.3   1 <1>   0.2610 
  5 C        2.2540     1.5020    -0.6300 C.2   1 <1>  -0.0880 
  6 O        3.1210    -2.4040    -0.0760 O.3   1 <1>  -0.5600 
  7 C        1.2560    -3.0630    -1.3490 C.3   1 <1>  -0.2400 
  8 N        1.2280     2.3690    -0.8460 N.pl3 1 <1>   0.3140 
  9 C        3.3760     2.2550    -0.4610 C.2   1 <1>  -0.0540 
 10 C        3.6970    -2.2100     1.1810 C.3   1 <1>   0.0400 
 11 N        1.6570     3.6510    -0.8260 N.2   1 <1>  -0.7070 
 12 C       -0.1810     2.0780    -1.1400 C.3   1 <1>   0.0160 
 13 C        4.7120     1.7910    -0.1860 C.ar  1 <1>   0.0540 
 14 C        2.9270     3.5720    -0.5980 C.2   1 <1>   0.1080 
 15 C        5.3860     0.9730    -1.0880 C.ar  1 <1>  -0.1500 
 16 C        5.3580     2.1310     0.9990 C.ar  1 <1>  -0.1500 
 17 C        3.7990     4.8040    -0.5040 C.3   1 <1>  -0.0590 
 18 C        6.6580     0.5060    -0.8110 C.ar  1 <1>  -0.1500 
 19 C        6.6310     1.6710     1.2820 C.ar  1 <1>  -0.1500 
 20 C        7.2910     0.8490     0.3720 C.ar  1 <1>   0.0830 
 21 O        8.5370     0.3500     0.5670 O.3   1 <1>  -0.3630 
 22 C        9.2840     0.6760     1.7180 C.3   1 <1>   0.0400 
 23 H        3.1330    -0.3620    -0.7130 H     1 <1>   0.3700 
 24 H        1.3060    -2.7450     0.7670 H     1 <1>   0.0800 
 25 H        1.6720    -2.6290    -2.2410 H     1 <1>   0.0800 
 26 H        0.1830    -3.0290    -1.4190 H     1 <1>   0.0800 
 27 H        1.5630    -4.0910    -1.2730 H     1 <1>   0.0800 
 28 H        4.7650    -2.2900     1.0760 H     1 <1>   0.0800 
 29 H        3.3440    -2.9720     1.8550 H     1 <1>   0.0800 
 30 H        3.4460    -1.2310     1.5530 H     1 <1>   0.0800 
 31 H       -0.2420     1.2130    -1.7710 H     1 <1>   0.0800 
 32 H       -0.6190     2.9220    -1.6390 H     1 <1>   0.0800 
 33 H       -0.6990     1.8960    -0.2180 H     1 <1>   0.0800 
 34 H        4.9070     0.7070    -2.0130 H     1 <1>   0.1500 
 35 H        4.8460     2.7600     1.7060 H     1 <1>   0.1500 
 36 H        4.7950     4.5830    -0.8400 H     1 <1>   0.0800 
 37 H        3.8320     5.1440     0.5140 H     1 <1>   0.0800 
 38 H        3.3890     5.5840    -1.1190 H     1 <1>   0.0800 
 39 H        7.1710    -0.1270    -1.5130 H     1 <1>   0.1500 
 40 H        7.0910     1.9580     2.2080 H     1 <1>   0.1500 
 41 H       10.2370     0.1810     1.6490 H     1 <1>   0.0800 
 42 H        8.7560     0.3290     2.5880 H     1 <1>   0.0800 
 43 H        9.4280     1.7410     1.7510 H     1 <1>   0.0800 
@<TRIPOS>BOND
  1   1   2  2   
  2   2   3  am  
  3   2   4  1   
  4   3   5  1   
  5   3  23  1   
  6   4   6  1   
  7   4   7  1   
  8   4  24  1   
  9   5   8  1   
 10   5   9  2   
 11   6  10  1   
 12   7  25  1   
 13   7  26  1   
 14   7  27  1   
 15   8  11  1   
 16   8  12  1   
 17   9  13  1   
 18   9  14  1   
 19  10  28  1   
 20  10  29  1   
 21  10  30  1   
 22  11  14  2   
 23  12  31  1   
 24  12  32  1   
 25  12  33  1   
 26  13  15  ar  
 27  13  16  ar  
 28  14  17  1   
 29  15  18  ar  
 30  15  34  1   
 31  16  19  ar  
 32  16  35  1   
 33  17  36  1   
 34  17  37  1   
 35  17  38  1   
 36  18  20  ar  
 37  18  39  1   
 38  19  20  ar  
 39  19  40  1   
 40  20  21  1   
 41  21  22  1   
 42  22  41  1   
 43  22  42  1   
 44  22  43  1   
@<TRIPOS>SUBSTRUCTURE
  1 ****  13 GROUP 4 **** **** 0

# MOE 2024.06 (io_trps.svl 2023.06)
