@<TRIPOS>MOLECULE
NONAME
53 56 1 0 0 
SMALL
USER_CHARGES


@<TRIPOS>ATOM
  1 S        0.2870     0.1280     0.5530 S.3   1 <1>  -0.0800 
  2 C       -0.5860     1.6180     0.9020 C.2   1 <1>   0.4620 
  3 C       -1.1430    -0.7940     0.9280 C.2   1 <1>  -0.1400 
  4 N       -1.8040     1.4100     1.2570 N.2   1 <1>  -0.5650 
  5 N        0.0480     2.8340     0.7830 N.pl3 1 <1>  -0.8220 
  6 C       -2.1100     0.0690     1.2800 C.2   1 <1>   0.0770 
  7 C       -1.0370    -2.2950     0.7950 C.3   1 <1>   0.5230 
  8 C       -0.6430     4.1000     1.1750 C.3   1 <1>   0.2090 
  9 C        1.4770     3.0340     0.3910 C.3   1 <1>   0.2090 
 10 N       -2.3870    -2.8800     0.5920 N.4   1 <1>  -0.9590 
 11 C       -0.3700     5.2170     0.1520 C.3   1 <1>   0.1200 
 12 C        1.6180     4.2180    -0.5840 C.3   1 <1>   0.1200 
 13 C       -3.0960    -2.4300    -0.6400 C.3   1 <1>   0.3430 
 14 C       -2.4220    -4.3700     0.5600 C.3   1 <1>   0.3430 
 15 O        1.0050     5.3690    -0.0740 O.3   1 <1>  -0.5600 
 16 C       -4.2270    -3.4450    -0.7760 C.3   1 <1>   0.2000 
 17 C       -3.5200    -4.7610    -0.4420 C.3   1 <1>  -0.0800 
 18 O       -5.1600    -3.1810     0.2320 O.3   1 <1>  -0.5600 
 19 C       -4.4400    -5.8880     0.0680 C.3   1 <1>   0.0200 
 20 C       -6.2470    -2.3950    -0.1540 C.3   1 <1>   0.0400 
 21 C       -3.6480    -7.1620     0.2970 C.2   1 <1>  -0.0400 
 22 O       -2.7170    -7.1940     1.2120 O.3   1 <1>  -0.0190 
 23 C       -3.6920    -8.3680    -0.2870 C.2   1 <1>  -0.1500 
 24 N       -2.1220    -8.3470     1.2600 N.2   1 <1>  -0.4100 
 25 C       -2.6940    -9.0800     0.3730 C.2   1 <1>   0.1080 
 26 C       -2.3240   -10.5200     0.0910 C.3   1 <1>  -0.0590 
 27 H       -3.1120    -0.1890     1.5800 H     1 <1>   0.1500 
 28 H       -0.5800    -2.7010     1.6830 H     1 <1>   0.0800 
 29 H       -0.4100    -2.5330    -0.0490 H     1 <1>   0.0800 
 30 H       -1.7050     3.9440     1.2490 H     1 <1>   0.0800 
 31 H       -0.2880     4.4120     2.1410 H     1 <1>   0.0800 
 32 H        2.0590     3.2350     1.2730 H     1 <1>   0.0800 
 33 H        1.8760     2.1540    -0.0790 H     1 <1>   0.0800 
 34 H       -2.9980    -2.6020     1.3750 H     1 <1>   0.4500 
 35 H       -0.7490     6.1540     0.5180 H     1 <1>   0.0800 
 36 H       -0.8500     4.9910    -0.7840 H     1 <1>   0.0800 
 37 H        1.1670     3.9800    -1.5310 H     1 <1>   0.0800 
 38 H        2.6570     4.4440    -0.7430 H     1 <1>   0.0800 
 39 H       -3.4750    -1.4260    -0.5510 H     1 <1>   0.0800 
 40 H       -2.4400    -2.4970    -1.4930 H     1 <1>   0.0800 
 41 H       -1.4770    -4.7800     0.2420 H     1 <1>   0.0800 
 42 H       -2.6540    -4.7550     1.5420 H     1 <1>   0.0800 
 43 H       -4.7030    -3.4520    -1.7440 H     1 <1>   0.0800 
 44 H       -3.0290    -5.1120    -1.3330 H     1 <1>   0.0800 
 45 H       -5.2120    -6.0790    -0.6560 H     1 <1>   0.0800 
 46 H       -4.9170    -5.6070     0.9910 H     1 <1>   0.0800 
 47 H       -6.8750    -2.2420     0.7070 H     1 <1>   0.0800 
 48 H       -6.8080    -2.9100    -0.9160 H     1 <1>   0.0800 
 49 H       -5.8990    -1.4430    -0.5190 H     1 <1>   0.0800 
 50 H       -4.3230    -8.7370    -1.0750 H     1 <1>   0.1500 
 51 H       -3.1760   -11.1540     0.2590 H     1 <1>   0.0800 
 52 H       -1.5280   -10.8300     0.7440 H     1 <1>   0.0800 
 53 H       -2.0000   -10.6230    -0.9270 H     1 <1>   0.0800 
@<TRIPOS>BOND
  1   1   2  1   
  2   1   3  1   
  3   2   4  2   
  4   2   5  1   
  5   3   6  2   
  6   3   7  1   
  7   4   6  1   
  8   5   8  1   
  9   5   9  1   
 10   6  27  1   
 11   7  10  1   
 12   7  28  1   
 13   7  29  1   
 14   8  11  1   
 15   8  30  1   
 16   8  31  1   
 17   9  12  1   
 18   9  32  1   
 19   9  33  1   
 20  10  13  1   
 21  10  14  1   
 22  10  34  1   
 23  11  15  1   
 24  11  35  1   
 25  11  36  1   
 26  12  15  1   
 27  12  37  1   
 28  12  38  1   
 29  13  16  1   
 30  13  39  1   
 31  13  40  1   
 32  14  17  1   
 33  14  41  1   
 34  14  42  1   
 35  16  17  1   
 36  16  18  1   
 37  16  43  1   
 38  17  19  1   
 39  17  44  1   
 40  18  20  1   
 41  19  21  1   
 42  19  45  1   
 43  19  46  1   
 44  20  47  1   
 45  20  48  1   
 46  20  49  1   
 47  21  22  1   
 48  21  23  2   
 49  22  24  1   
 50  23  25  1   
 51  23  50  1   
 52  24  25  2   
 53  25  26  1   
 54  26  51  1   
 55  26  52  1   
 56  26  53  1   
@<TRIPOS>SUBSTRUCTURE
  1 ****  10 GROUP 4 **** **** 0

# MOE 2024.06 (io_trps.svl 2023.06)
