@<TRIPOS>MOLECULE
NONAME
44 46 1 0 0 
SMALL
USER_CHARGES


@<TRIPOS>ATOM
  1 F       -2.0780    -1.0220    -0.6340 F     1 <1>  -0.1900 
  2 C       -2.2650     0.0240     0.1310 C.ar  1 <1>   0.1900 
  3 C       -1.8040     1.2820    -0.2700 C.ar  1 <1>   0.0830 
  4 C       -2.9480    -0.1760     1.3290 C.ar  1 <1>   0.0860 
  5 O       -1.1270     1.5710    -1.4170 O.3   1 <1>  -0.3630 
  6 C       -2.0480     2.3620     0.5620 C.ar  1 <1>  -0.1500 
  7 C       -3.4310    -1.4770     1.7280 C.2   1 <1>   0.5440 
  8 C       -3.1540     0.9370     2.1420 C.ar  1 <1>  -0.1500 
  9 C       -0.4010     0.5970    -2.1350 C.3   1 <1>   0.0400 
 10 C       -2.7150     2.1930     1.7640 C.ar  1 <1>  -0.1500 
 11 O       -2.9260    -2.0420     2.6770 O.2   1 <1>  -0.5700 
 12 N       -4.4790    -2.0830     1.0790 N.am  1 <1>  -0.6600 
 13 C       -5.2730    -1.5000    -0.0330 C.3   1 <1>   0.1400 
 14 C       -4.8830    -3.4890     1.3270 C.3   1 <1>   0.1400 
 15 C       -6.3850    -2.5190    -0.2890 C.3   1 <1>   0.2000 
 16 C       -5.7780    -3.8580     0.1360 C.3   1 <1>  -0.0800 
 17 O       -7.4420    -2.2310     0.5600 O.3   1 <1>  -0.6800 
 18 C       -4.9570    -4.4760    -1.0130 C.3   1 <1>   0.0210 
 19 C       -4.3350    -5.7960    -0.6050 C.2   1 <1>   0.1080 
 20 N       -5.0310    -6.8720    -0.4160 N.2   1 <1>  -0.7070 
 21 C       -2.9770    -6.0010    -0.3810 C.2   1 <1>  -0.1500 
 22 N       -4.1270    -7.8050    -0.0650 N.pl3 1 <1>   0.3000 
 23 C       -2.8750    -7.3010    -0.0360 C.2   1 <1>  -0.3320 
 24 C       -1.6390    -8.1030     0.3300 C.3   1 <1>  -0.0600 
 25 H       -1.7060     3.3390     0.2670 H     1 <1>   0.1500 
 26 H       -3.6650     0.8050     3.0810 H     1 <1>   0.1500 
 27 H        0.2340     1.1060    -2.8380 H     1 <1>   0.0800 
 28 H       -1.0900    -0.0360    -2.6640 H     1 <1>   0.0800 
 29 H        0.1990     0.0260    -1.4480 H     1 <1>   0.0800 
 30 H       -2.8890     3.0410     2.4040 H     1 <1>   0.1500 
 31 H       -5.6690    -0.5320     0.2220 H     1 <1>   0.0800 
 32 H       -4.6510    -1.4170    -0.9070 H     1 <1>   0.0800 
 33 H       -4.0200    -4.1270     1.4170 H     1 <1>   0.0800 
 34 H       -5.4420    -3.5360     2.2450 H     1 <1>   0.0800 
 35 H       -6.7520    -2.5060    -1.3010 H     1 <1>   0.0800 
 36 H       -6.5390    -4.5620     0.4260 H     1 <1>   0.0800 
 37 H       -7.1070    -2.1830     1.4770 H     1 <1>   0.4000 
 38 H       -4.1780    -3.8050    -1.3260 H     1 <1>   0.0800 
 39 H       -5.6000    -4.6580    -1.8550 H     1 <1>   0.0800 
 40 H       -2.2010    -5.2620    -0.4690 H     1 <1>   0.1500 
 41 H       -4.3950    -8.7730     0.1490 H     1 <1>   0.2700 
 42 H       -0.7660    -7.4760     0.2840 H     1 <1>   0.0800 
 43 H       -1.5100    -8.9210    -0.3560 H     1 <1>   0.0800 
 44 H       -1.7290    -8.4910     1.3290 H     1 <1>   0.0800 
@<TRIPOS>BOND
  1   1   2  1   
  2   2   3  ar  
  3   2   4  ar  
  4   3   5  1   
  5   3   6  ar  
  6   4   7  1   
  7   4   8  ar  
  8   5   9  1   
  9   6  10  ar  
 10   6  25  1   
 11   7  11  2   
 12   7  12  am  
 13   8  10  ar  
 14   8  26  1   
 15   9  27  1   
 16   9  28  1   
 17   9  29  1   
 18  10  30  1   
 19  12  13  1   
 20  12  14  1   
 21  13  15  1   
 22  13  31  1   
 23  13  32  1   
 24  14  16  1   
 25  14  33  1   
 26  14  34  1   
 27  15  16  1   
 28  15  17  1   
 29  15  35  1   
 30  16  18  1   
 31  16  36  1   
 32  17  37  1   
 33  18  19  1   
 34  18  38  1   
 35  18  39  1   
 36  19  20  2   
 37  19  21  1   
 38  20  22  1   
 39  21  23  2   
 40  21  40  1   
 41  22  23  1   
 42  22  41  1   
 43  23  24  1   
 44  24  42  1   
 45  24  43  1   
 46  24  44  1   
@<TRIPOS>SUBSTRUCTURE
  1 ****  12 GROUP 4 **** **** 0

# MOE 2024.06 (io_trps.svl 2023.06)
