@<TRIPOS>MOLECULE
NONAME
48 50 1 0 0 
SMALL
USER_CHARGES


@<TRIPOS>ATOM
  1 O       -0.3320     0.3800    -0.0610 O.2   1 <1>  -0.5700 
  2 C       -1.3700     0.9540    -0.2870 C.2   1 <1>   0.5690 
  3 N       -2.5130     0.2750    -0.6140 N.am  1 <1>  -0.6600 
  4 C       -1.3800     2.4700    -0.1970 C.3   1 <1>  -0.0990 
  5 C       -3.8630     0.8840    -0.8390 C.3   1 <1>   0.1400 
  6 C       -2.5220    -1.2160    -0.7570 C.3   1 <1>   0.1400 
  7 C        0.0240     3.0520     0.0190 C.3   1 <1>   0.0960 
  8 C       -4.9470     0.1360    -0.0400 C.3   1 <1>   0.2950 
  9 C       -3.6940    -1.8510     0.0250 C.3   1 <1>   0.2000 
 10 N       -0.0430     4.5220     0.0880 N.pl3 1 <1>   0.0480 
 11 O       -4.8970    -1.2300    -0.3240 O.3   1 <1>  -0.5600 
 12 C       -6.3510     0.6320    -0.3980 C.3   1 <1>  -0.1950 
 13 C       -3.8710    -3.3470    -0.2640 C.3   1 <1>  -0.1600 
 14 C       -0.2270     5.2990     1.1560 C.2   1 <1>   0.0360 
 15 C        0.0310     5.4080    -0.9070 C.2   1 <1>   0.0360 
 16 C       -6.9490     1.8240     0.2830 C.3   1 <1>  -0.2000 
 17 C       -7.5000     0.4500     0.5440 C.3   1 <1>  -0.2000 
 18 C       -2.6790    -4.1980     0.2050 C.3   1 <1>  -0.1600 
 19 N       -0.2660     6.5470     0.8400 N.2   1 <1>  -0.3380 
 20 N       -0.1010     6.6160    -0.4830 N.2   1 <1>  -0.3380 
 21 C       -2.9480    -5.6900    -0.0210 C.3   1 <1>  -0.1600 
 22 C       -1.7620    -6.5400     0.4430 C.3   1 <1>  -0.2400 
 23 H       -1.7850     2.8610    -1.1120 H     1 <1>   0.0800 
 24 H       -2.0120     2.7550     0.6230 H     1 <1>   0.0800 
 25 H       -3.8800     1.9180    -0.5510 H     1 <1>   0.0800 
 26 H       -4.1030     0.8270    -1.8870 H     1 <1>   0.0800 
 27 H       -2.6150    -1.4680    -1.7990 H     1 <1>   0.0800 
 28 H       -1.5950    -1.6300    -0.4010 H     1 <1>   0.0800 
 29 H        0.6720     2.7680    -0.7910 H     1 <1>   0.0800 
 30 H        0.4450     2.6780     0.9360 H     1 <1>   0.0800 
 31 H       -4.7790     0.2650     1.0150 H     1 <1>   0.0800 
 32 H       -3.5410    -1.7120     1.0820 H     1 <1>   0.0800 
 33 H       -6.5630     0.5110    -1.4460 H     1 <1>   0.1000 
 34 H       -4.7570    -3.6830     0.2470 H     1 <1>   0.0800 
 35 H       -4.0200    -3.4880    -1.3200 H     1 <1>   0.0800 
 36 H       -0.3300     4.9160     2.1550 H     1 <1>   0.1500 
 37 H        0.1800     5.1320    -1.9350 H     1 <1>   0.1500 
 38 H       -6.4160     2.3120     1.0810 H     1 <1>   0.1000 
 39 H       -7.5420     2.5110    -0.2960 H     1 <1>   0.1000 
 40 H       -8.4580     0.1820     0.1320 H     1 <1>   0.1000 
 41 H       -7.3170    -0.0200     1.4950 H     1 <1>   0.1000 
 42 H       -1.7910    -3.9190    -0.3340 H     1 <1>   0.0800 
 43 H       -2.5050    -4.0240     1.2540 H     1 <1>   0.0800 
 44 H       -3.8300    -5.9870     0.5220 H     1 <1>   0.0800 
 45 H       -3.1260    -5.8720    -1.0680 H     1 <1>   0.0800 
 46 H       -1.5800    -6.3910     1.4920 H     1 <1>   0.0800 
 47 H       -0.8740    -6.2780    -0.1050 H     1 <1>   0.0800 
 48 H       -1.9700    -7.5830     0.2770 H     1 <1>   0.0800 
@<TRIPOS>BOND
  1   1   2  2   
  2   2   3  am  
  3   2   4  1   
  4   3   5  1   
  5   3   6  1   
  6   4   7  1   
  7   4  23  1   
  8   4  24  1   
  9   5   8  1   
 10   5  25  1   
 11   5  26  1   
 12   6   9  1   
 13   6  27  1   
 14   6  28  1   
 15   7  10  1   
 16   7  29  1   
 17   7  30  1   
 18   8  11  1   
 19   8  12  1   
 20   8  31  1   
 21   9  11  1   
 22   9  13  1   
 23   9  32  1   
 24  10  14  1   
 25  10  15  1   
 26  12  16  1   
 27  12  17  1   
 28  12  33  1   
 29  13  18  1   
 30  13  34  1   
 31  13  35  1   
 32  14  19  2   
 33  14  36  1   
 34  15  20  2   
 35  15  37  1   
 36  16  17  1   
 37  16  38  1   
 38  16  39  1   
 39  17  40  1   
 40  17  41  1   
 41  18  21  1   
 42  18  42  1   
 43  18  43  1   
 44  19  20  1   
 45  21  22  1   
 46  21  44  1   
 47  21  45  1   
 48  22  46  1   
 49  22  47  1   
 50  22  48  1   
@<TRIPOS>SUBSTRUCTURE
  1 ****   3 GROUP 4 **** **** 0

# MOE 2024.06 (io_trps.svl 2023.06)
