@<TRIPOS>MOLECULE
NONAME
51 54 1 0 0 
SMALL
USER_CHARGES


@<TRIPOS>ATOM
  1 S        0.0980    -0.0300     1.1530 S.3   1 <1>  -0.0800 
  2 C       -0.5160    -1.6620     1.3770 C.ar  1 <1>   0.2970 
  3 C       -0.8190     0.1690    -0.3390 C.2   1 <1>  -0.1400 
  4 N       -0.1480    -2.4160     2.3900 N.ar  1 <1>  -0.5670 
  5 C       -1.3900    -2.0000     0.3710 C.ar  1 <1>   0.0000 
  6 C       -1.5330    -0.9420    -0.6140 C.2   1 <1>  -0.1810 
  7 C       -0.6370     1.5090    -1.0270 C.3   1 <1>  -0.0600 
  8 C       -0.7120    -3.6020     2.3670 C.ar  1 <1>   0.4700 
  9 C       -1.9390    -3.2840     0.5060 C.ar  1 <1>   0.4100 
 10 C       -2.4030    -1.1180    -1.8490 C.3   1 <1>  -0.0590 
 11 N       -1.5790    -4.0940     1.4890 N.ar  1 <1>  -0.6200 
 12 N       -2.9000    -3.7880    -0.3440 N.pl3 1 <1>  -0.8380 
 13 C       -2.7420    -5.1740    -0.8540 C.3   1 <1>   0.2090 
 14 C       -4.3060    -3.3500    -0.1310 C.3   1 <1>   0.2090 
 15 C       -3.4640    -6.1830     0.0760 C.3   1 <1>   0.4230 
 16 C       -5.0090    -4.3400     0.8030 C.3   1 <1>  -0.1600 
 17 N       -3.2390    -7.6480    -0.2970 N.4   1 <1>  -0.9590 
 18 C       -4.9590    -5.8120     0.3050 C.3   1 <1>   0.0000 
 19 C       -4.2320    -8.5940     0.3090 C.3   1 <1>   0.3430 
 20 C       -3.0990    -7.9260    -1.7630 C.3   1 <1>   0.2630 
 21 C       -5.5580    -6.7280     1.4140 C.3   1 <1>  -0.1600 
 22 C       -5.7580    -5.9640    -1.0200 C.3   1 <1>   0.1200 
 23 C       -4.7820    -8.0420     1.6220 C.3   1 <1>  -0.1600 
 24 O       -7.0350    -5.4400    -0.9110 O.3   1 <1>  -0.6800 
 25 H       -1.2450     1.5830    -1.9080 H     1 <1>   0.0800 
 26 H        0.3940     1.6350    -1.3080 H     1 <1>   0.0800 
 27 H       -0.9110     2.3020    -0.3550 H     1 <1>   0.0800 
 28 H       -0.4330    -4.2620     3.1710 H     1 <1>   0.1500 
 29 H       -2.1710    -2.0490    -2.3320 H     1 <1>   0.0800 
 30 H       -2.2390    -0.3290    -2.5580 H     1 <1>   0.0800 
 31 H       -3.4410    -1.1110    -1.5740 H     1 <1>   0.0800 
 32 H       -3.1330    -5.2130    -1.8540 H     1 <1>   0.0800 
 33 H       -1.6920    -5.4090    -0.8890 H     1 <1>   0.0800 
 34 H       -4.3170    -2.3680     0.3150 H     1 <1>   0.0800 
 35 H       -4.8170    -3.2890    -1.0770 H     1 <1>   0.0800 
 36 H       -2.9970    -6.0460     1.0370 H     1 <1>   0.0800 
 37 H       -4.5300    -4.2620     1.7650 H     1 <1>   0.0800 
 38 H       -6.0270    -4.0190     0.9400 H     1 <1>   0.0800 
 39 H       -2.3330    -7.8770     0.1380 H     1 <1>   0.4500 
 40 H       -5.0560    -8.7420    -0.3700 H     1 <1>   0.0800 
 41 H       -3.7670    -9.5520     0.4810 H     1 <1>   0.0800 
 42 H       -4.0030    -7.6620    -2.2870 H     1 <1>   0.0800 
 43 H       -2.9020    -8.9740    -1.9270 H     1 <1>   0.0800 
 44 H       -2.2800    -7.3620    -2.1800 H     1 <1>   0.0800 
 45 H       -5.5740    -6.2140     2.3610 H     1 <1>   0.0800 
 46 H       -6.5830    -6.9610     1.1860 H     1 <1>   0.0800 
 47 H       -5.8580    -6.9960    -1.3040 H     1 <1>   0.0800 
 48 H       -5.2840    -5.4350    -1.8270 H     1 <1>   0.0800 
 49 H       -5.4380    -8.7710     2.0660 H     1 <1>   0.0800 
 50 H       -3.9680    -7.8890     2.3100 H     1 <1>   0.0800 
 51 H       -7.5660    -5.8940    -0.2270 H     1 <1>   0.4000 
@<TRIPOS>BOND
  1   1   2  1   
  2   1   3  1   
  3   2   4  ar  
  4   2   5  ar  
  5   3   6  2   
  6   3   7  1   
  7   4   8  ar  
  8   5   6  1   
  9   5   9  ar  
 10   6  10  1   
 11   7  25  1   
 12   7  26  1   
 13   7  27  1   
 14   8  11  ar  
 15   8  28  1   
 16   9  11  ar  
 17   9  12  1   
 18  10  29  1   
 19  10  30  1   
 20  10  31  1   
 21  12  13  1   
 22  12  14  1   
 23  13  15  1   
 24  13  32  1   
 25  13  33  1   
 26  14  16  1   
 27  14  34  1   
 28  14  35  1   
 29  15  17  1   
 30  15  18  1   
 31  15  36  1   
 32  16  18  1   
 33  16  37  1   
 34  16  38  1   
 35  17  19  1   
 36  17  20  1   
 37  17  39  1   
 38  18  21  1   
 39  18  22  1   
 40  19  23  1   
 41  19  40  1   
 42  19  41  1   
 43  20  42  1   
 44  20  43  1   
 45  20  44  1   
 46  21  23  1   
 47  21  45  1   
 48  21  46  1   
 49  22  24  1   
 50  22  47  1   
 51  22  48  1   
 52  23  49  1   
 53  23  50  1   
 54  24  51  1   
@<TRIPOS>SUBSTRUCTURE
  1 ****  12 GROUP 4 **** **** 0

# MOE 2024.06 (io_trps.svl 2023.06)
