@<TRIPOS>MOLECULE
NONAME
49 51 1 0 0 
SMALL
USER_CHARGES


@<TRIPOS>ATOM
  1 O        0.0450     1.5610    -0.8790 O.2   1 <1>  -0.5700 
  2 C       -0.2990     2.7170    -0.7820 C.2   1 <1>   0.5690 
  3 N       -0.9060     3.2380     0.3280 N.am  1 <1>  -0.5090 
  4 C       -0.0440     3.6520    -1.9570 C.3   1 <1>   0.1810 
  5 C       -1.3500     4.6700     0.3490 C.3   1 <1>   0.3640 
  6 C       -0.9690     2.5030     1.6150 C.3   1 <1>   0.0490 
  7 O        0.3220     4.9280    -1.5030 O.3   1 <1>  -0.5600 
  8 C       -2.8690     4.7620     0.1580 C.ar  1 <1>  -0.1440 
  9 C       -0.6540     5.5850    -0.7030 C.3   1 <1>   0.2610 
 10 C       -1.6830     1.1890     1.6530 C.3   1 <1>  -0.2000 
 11 C       -2.2640     2.3710     2.3580 C.3   1 <1>  -0.2000 
 12 C       -3.5730     3.8810    -0.6580 C.ar  1 <1>  -0.1500 
 13 C       -3.5700     5.7650     0.8140 C.ar  1 <1>  -0.1500 
 14 C       -0.0380     6.8010    -0.0010 C.2   1 <1>   0.5690 
 15 C       -4.9430     3.9980    -0.8130 C.ar  1 <1>  -0.1500 
 16 C       -4.9390     5.8840     0.6600 C.ar  1 <1>  -0.1500 
 17 O       -0.7250     7.4760     0.7300 O.2   1 <1>  -0.5700 
 18 N        1.2680     7.1090    -0.2030 N.am  1 <1>  -0.7300 
 19 C       -5.6370     5.0050    -0.1500 C.ar  1 <1>   0.0830 
 20 C        1.9630     8.2560     0.3870 C.3   1 <1>   0.2010 
 21 O       -6.9770     5.1890    -0.2440 O.3   1 <1>  -0.3630 
 22 C        3.4210     8.4110    -0.0870 C.2   1 <1>   0.5690 
 23 C       -7.7840     4.3280    -1.0160 C.3   1 <1>   0.0400 
 24 O        3.9190     7.6020    -0.8660 O.2   1 <1>  -0.5700 
 25 N        4.1220     9.4540     0.3750 N.am  1 <1>  -0.7300 
 26 C        5.5100     9.7020    -0.0080 C.3   1 <1>   0.0600 
 27 H       -0.9240     3.7360    -2.5690 H     1 <1>   0.0800 
 28 H        0.7660     3.2700    -2.5510 H     1 <1>   0.0800 
 29 H       -1.1250     5.0530     1.3300 H     1 <1>   0.0800 
 30 H       -0.0570     2.5940     2.1810 H     1 <1>   0.1000 
 31 H       -1.3990     5.9630    -1.3800 H     1 <1>   0.0800 
 32 H       -2.1480     0.8350     0.7500 H     1 <1>   0.1000 
 33 H       -1.2600     0.3930     2.2400 H     1 <1>   0.1000 
 34 H       -2.2470     2.3730     3.4330 H     1 <1>   0.1000 
 35 H       -3.1740     2.7830     1.9630 H     1 <1>   0.1000 
 36 H       -3.0650     3.0870    -1.1770 H     1 <1>   0.1500 
 37 H       -3.0550     6.4660     1.4510 H     1 <1>   0.1500 
 38 H       -5.4510     3.2980    -1.4480 H     1 <1>   0.1500 
 39 H       -5.4780     6.6630     1.1700 H     1 <1>   0.1500 
 40 H        1.8070     6.5230    -0.8330 H     1 <1>   0.3700 
 41 H        1.4230     9.1690     0.1360 H     1 <1>   0.0800 
 42 H        1.9660     8.1540     1.4720 H     1 <1>   0.0800 
 43 H       -8.8030     4.6590    -0.9290 H     1 <1>   0.0800 
 44 H       -7.6910     3.3270    -0.6350 H     1 <1>   0.0800 
 45 H       -7.4680     4.3820    -2.0430 H     1 <1>   0.0800 
 46 H        3.6810    10.1000     1.0090 H     1 <1>   0.3700 
 47 H        5.5780     9.8300    -1.0900 H     1 <1>   0.0800 
 48 H        6.1310     8.8520     0.2810 H     1 <1>   0.0800 
 49 H        5.8840    10.6010     0.4830 H     1 <1>   0.0800 
@<TRIPOS>BOND
  1   1   2  2   
  2   2   3  am  
  3   2   4  1   
  4   3   5  1   
  5   3   6  1   
  6   4   7  1   
  7   4  27  1   
  8   4  28  1   
  9   5   8  1   
 10   5   9  1   
 11   5  29  1   
 12   6  10  1   
 13   6  11  1   
 14   6  30  1   
 15   7   9  1   
 16   8  12  ar  
 17   8  13  ar  
 18   9  14  1   
 19   9  31  1   
 20  10  11  1   
 21  10  32  1   
 22  10  33  1   
 23  11  34  1   
 24  11  35  1   
 25  12  15  ar  
 26  12  36  1   
 27  13  16  ar  
 28  13  37  1   
 29  14  17  2   
 30  14  18  am  
 31  15  19  ar  
 32  15  38  1   
 33  16  19  ar  
 34  16  39  1   
 35  18  20  1   
 36  18  40  1   
 37  19  21  1   
 38  20  22  1   
 39  20  41  1   
 40  20  42  1   
 41  21  23  1   
 42  22  24  2   
 43  22  25  am  
 44  23  43  1   
 45  23  44  1   
 46  23  45  1   
 47  25  26  1   
 48  25  46  1   
 49  26  47  1   
 50  26  48  1   
 51  26  49  1   
@<TRIPOS>SUBSTRUCTURE
  1 ****   5 GROUP 4 **** **** 0

# MOE 2024.06 (io_trps.svl 2023.06)
