@<TRIPOS>MOLECULE
NONAME
40 42 1 0 0 
SMALL
USER_CHARGES


@<TRIPOS>ATOM
  1 S        0.8830    -0.7400     2.6850 S.3   1 <1>  -0.0800 
  2 C        1.3040    -0.5510     0.9810 C.2   1 <1>  -0.0450 
  3 C        0.8820    -2.4820     2.5760 C.2   1 <1>  -0.1100 
  4 C        1.4680     0.7810     0.4630 C.2   1 <1>   0.5940 
  5 C        1.4120    -1.7900     0.4270 C.2   1 <1>  -0.1500 
  6 C        1.1680    -2.8790     1.3210 C.2   1 <1>  -0.1810 
  7 O        1.2570     1.7820     1.0960 O.2   1 <1>  -0.5700 
  8 C        1.9260     0.9510    -0.9690 C.3   1 <1>  -0.1790 
  9 C        1.2370    -4.3250     0.8720 C.3   1 <1>   0.5240 
 10 N       -0.1460    -4.7840     0.5830 N.4   1 <1>  -0.9590 
 11 C       -0.2630    -6.2470     0.3050 C.3   1 <1>   0.3430 
 12 C       -0.8040    -4.0750    -0.5390 C.3   1 <1>   0.3430 
 13 C       -1.3350    -6.4130    -0.7820 C.3   1 <1>   0.0630 
 14 C       -1.9330    -5.0090    -0.9300 C.3   1 <1>  -0.1600 
 15 C       -2.3300    -7.5340    -0.4590 C.ar  1 <1>  -0.1430 
 16 C       -3.7030    -7.3810    -0.6490 C.ar  1 <1>  -0.1500 
 17 C       -1.8470    -8.7530     0.0120 C.ar  1 <1>  -0.1500 
 18 C       -4.5790    -8.4100    -0.3460 C.ar  1 <1>  -0.1500 
 19 C       -2.7130    -9.7900     0.3180 C.ar  1 <1>  -0.1500 
 20 C       -4.0660    -9.5970     0.1360 C.ar  1 <1>   0.1900 
 21 F       -4.8880   -10.5690     0.4260 F     1 <1>  -0.1900 
 22 H        0.6610    -3.0200     3.4830 H     1 <1>   0.1500 
 23 H        1.6700    -1.9600    -0.6050 H     1 <1>   0.1500 
 24 H        2.8250     0.3890    -1.1370 H     1 <1>   0.0800 
 25 H        2.1290     1.9890    -1.1640 H     1 <1>   0.0800 
 26 H        1.1570     0.6190    -1.6390 H     1 <1>   0.0800 
 27 H        1.6610    -4.9200     1.6650 H     1 <1>   0.0800 
 28 H        1.8640    -4.4170     0.0000 H     1 <1>   0.0800 
 29 H       -0.7050    -4.5770     1.4220 H     1 <1>   0.4500 
 30 H       -0.5560    -6.7710     1.2000 H     1 <1>   0.0800 
 31 H        0.6720    -6.6510    -0.0490 H     1 <1>   0.0800 
 32 H       -0.1180    -3.9660    -1.3650 H     1 <1>   0.0800 
 33 H       -1.1680    -3.1030    -0.2410 H     1 <1>   0.0800 
 34 H       -0.8350    -6.6730    -1.6990 H     1 <1>   0.0800 
 35 H       -2.2820    -4.8190    -1.9300 H     1 <1>   0.0800 
 36 H       -2.7440    -4.8570    -0.2390 H     1 <1>   0.0800 
 37 H       -4.1230    -6.4720    -1.0390 H     1 <1>   0.1500 
 38 H       -0.7930    -8.9270     0.1430 H     1 <1>   0.1500 
 39 H       -5.6400    -8.3020    -0.4840 H     1 <1>   0.1500 
 40 H       -2.3530   -10.7340     0.6860 H     1 <1>   0.1500 
@<TRIPOS>BOND
  1   1   2  1   
  2   1   3  1   
  3   2   4  1   
  4   2   5  2   
  5   3   6  2   
  6   3  22  1   
  7   4   7  2   
  8   4   8  1   
  9   5   6  1   
 10   5  23  1   
 11   6   9  1   
 12   8  24  1   
 13   8  25  1   
 14   8  26  1   
 15   9  10  1   
 16   9  27  1   
 17   9  28  1   
 18  10  11  1   
 19  10  12  1   
 20  10  29  1   
 21  11  13  1   
 22  11  30  1   
 23  11  31  1   
 24  12  14  1   
 25  12  32  1   
 26  12  33  1   
 27  13  14  1   
 28  13  15  1   
 29  13  34  1   
 30  14  35  1   
 31  14  36  1   
 32  15  16  ar  
 33  15  17  ar  
 34  16  18  ar  
 35  16  37  1   
 36  17  19  ar  
 37  17  38  1   
 38  18  20  ar  
 39  18  39  1   
 40  19  20  ar  
 41  19  40  1   
 42  20  21  1   
@<TRIPOS>SUBSTRUCTURE
  1 ****  10 GROUP 4 **** **** 0

# MOE 2024.06 (io_trps.svl 2023.06)
