@<TRIPOS>MOLECULE
NONAME
52 54 1 0 0 
SMALL
USER_CHARGES


@<TRIPOS>ATOM
  1 O       -1.4130     0.4190     1.9340 O.2   1 <1>  -0.5700 
  2 C       -2.2350     1.2220     1.5280 C.2   1 <1>   0.5440 
  3 N       -3.5480     0.8180     1.4050 N.am  1 <1>  -0.6600 
  4 C       -1.8210     2.5610     1.1790 C.ar  1 <1>   0.0860 
  5 C       -3.9460    -0.5810     1.7260 C.3   1 <1>   0.1400 
  6 C       -4.5170     1.4990     0.5010 C.3   1 <1>   0.1400 
  7 C       -1.2490     2.8430    -0.0620 C.ar  1 <1>   0.0830 
  8 C       -1.9890     3.6100     2.0820 C.ar  1 <1>  -0.1500 
  9 C       -3.9380    -1.3920     0.4090 C.3   1 <1>   0.4230 
 10 C       -4.5970     0.7070    -0.8130 C.3   1 <1>  -0.1600 
 11 O       -1.1020     1.8320    -0.9520 O.3   1 <1>  -0.3630 
 12 C       -0.8570     4.1420    -0.3960 C.ar  1 <1>   0.0830 
 13 C       -1.6000     4.8970     1.7640 C.ar  1 <1>  -0.1500 
 14 N       -4.1760    -2.8660     0.5810 N.4   1 <1>  -0.9590 
 15 C       -4.9600    -0.7900    -0.5820 C.3   1 <1>  -0.1060 
 16 C        0.1930     1.2870    -1.0640 C.3   1 <1>   0.0400 
 17 O       -0.3130     4.3560    -1.6290 O.3   1 <1>  -0.3630 
 18 C       -1.0350     5.1660     0.5290 C.ar  1 <1>  -0.1500 
 19 C       -4.0270    -3.6010    -0.7000 C.3   1 <1>   0.3430 
 20 C       -3.4200    -3.4980     1.6940 C.3   1 <1>   0.2630 
 21 C       -6.3710    -0.9240     0.0260 C.2   1 <1>   0.9060 
 22 C       -4.8720    -1.5370    -1.9340 C.3   1 <1>  -0.1600 
 23 C        0.0430     5.6470    -2.0710 C.3   1 <1>   0.0400 
 24 C       -5.0020    -3.0570    -1.7470 C.3   1 <1>  -0.1600 
 25 O       -6.6220    -1.9030     0.7500 O.co2 1 <1>  -0.9000 
 26 O       -7.2190    -0.0640    -0.2030 O.co2 1 <1>  -0.9000 
 27 H       -3.2540    -0.9950     2.4340 H     1 <1>   0.0800 
 28 H       -4.9250    -0.5790     2.1740 H     1 <1>   0.0800 
 29 H       -5.4870     1.5340     0.9730 H     1 <1>   0.0800 
 30 H       -4.2160     2.5120     0.2980 H     1 <1>   0.0800 
 31 H       -2.4280     3.4020     3.0420 H     1 <1>   0.1500 
 32 H       -2.9550    -1.2660    -0.0140 H     1 <1>   0.0800 
 33 H       -5.3390     1.1650    -1.4450 H     1 <1>   0.0800 
 34 H       -3.6510     0.7920    -1.3190 H     1 <1>   0.0800 
 35 H       -1.7360     5.6920     2.4770 H     1 <1>   0.1500 
 36 H       -5.2080    -2.8700     0.8080 H     1 <1>   0.4500 
 37 H        0.1640     0.4950    -1.7890 H     1 <1>   0.0800 
 38 H        0.4900     0.9010    -0.1040 H     1 <1>   0.0800 
 39 H        0.8720     2.0570    -1.3860 H     1 <1>   0.0800 
 40 H       -0.7430     6.1760     0.3130 H     1 <1>   0.1500 
 41 H       -3.0170    -3.4940    -1.0600 H     1 <1>   0.0800 
 42 H       -4.2270    -4.6480    -0.5440 H     1 <1>   0.0800 
 43 H       -2.3600    -3.3820     1.5370 H     1 <1>   0.0800 
 44 H       -3.6550    -4.5480     1.7510 H     1 <1>   0.0800 
 45 H       -3.6870    -3.0400     2.6310 H     1 <1>   0.0800 
 46 H       -5.6550    -1.1860    -2.5860 H     1 <1>   0.0800 
 47 H       -3.9290    -1.3220    -2.4070 H     1 <1>   0.0800 
 48 H        0.4180     5.5640    -3.0750 H     1 <1>   0.0800 
 49 H        0.8090     6.0390    -1.4260 H     1 <1>   0.0800 
 50 H       -0.8320     6.2740    -2.0590 H     1 <1>   0.0800 
 51 H       -4.8220    -3.5480    -2.6870 H     1 <1>   0.0800 
 52 H       -6.0080    -3.3020    -1.4490 H     1 <1>   0.0800 
@<TRIPOS>BOND
  1   1   2  2   
  2   2   3  am  
  3   2   4  1   
  4   3   5  1   
  5   3   6  1   
  6   4   7  ar  
  7   4   8  ar  
  8   5   9  1   
  9   5  27  1   
 10   5  28  1   
 11   6  10  1   
 12   6  29  1   
 13   6  30  1   
 14   7  11  1   
 15   7  12  ar  
 16   8  13  ar  
 17   8  31  1   
 18   9  14  1   
 19   9  15  1   
 20   9  32  1   
 21  10  15  1   
 22  10  33  1   
 23  10  34  1   
 24  11  16  1   
 25  12  17  1   
 26  12  18  ar  
 27  13  18  ar  
 28  13  35  1   
 29  14  19  1   
 30  14  20  1   
 31  14  36  1   
 32  15  21  1   
 33  15  22  1   
 34  16  37  1   
 35  16  38  1   
 36  16  39  1   
 37  17  23  1   
 38  18  40  1   
 39  19  24  1   
 40  19  41  1   
 41  19  42  1   
 42  20  43  1   
 43  20  44  1   
 44  20  45  1   
 45  21  25  ar  
 46  21  26  ar  
 47  22  24  1   
 48  22  46  1   
 49  22  47  1   
 50  23  48  1   
 51  23  49  1   
 52  23  50  1   
 53  24  51  1   
 54  24  52  1   
@<TRIPOS>SUBSTRUCTURE
  1 ****   3 GROUP 4 **** **** 0

# MOE 2024.06 (io_trps.svl 2023.06)
