@<TRIPOS>MOLECULE
NONAME
48 49 1 0 0 
SMALL
USER_CHARGES


@<TRIPOS>ATOM
  1 S       -4.2130    -1.1270     0.8850 S.3   1 <1>  -0.4600 
  2 C       -3.1100    -0.9270    -0.5540 C.3   1 <1>   0.2500 
  3 C       -3.6020     0.1230     2.0510 C.3   1 <1>  -0.0100 
  4 C       -3.6420    -1.7730    -1.6990 C.2   1 <1>  -0.0400 
  5 O       -3.9340    -3.0350    -1.4860 O.3   1 <1>  -0.2800 
  6 C       -3.8930    -1.4550    -2.9870 C.2   1 <1>  -0.1500 
  7 C       -4.4090    -3.5790    -2.6020 C.2   1 <1>   0.0550 
  8 C       -4.3830    -2.6230    -3.5730 C.2   1 <1>  -0.1500 
  9 C       -4.8960    -4.9450    -2.6670 C.2   1 <1>   0.7150 
 10 O       -5.2850    -5.3660    -3.7420 O.2   1 <1>  -0.5700 
 11 N       -5.0000    -5.7920    -1.5730 N.am  1 <1>  -0.6600 
 12 C       -5.6970    -7.1090    -1.7810 C.3   1 <1>   0.3210 
 13 C       -4.1280    -5.6690    -0.3530 C.3   1 <1>   0.1400 
 14 C       -6.1070    -7.8250    -0.4910 C.2   1 <1>   0.0460 
 15 C       -4.6710    -4.7440     0.7670 C.3   1 <1>   0.3430 
 16 N       -7.0880    -7.3450     0.3050 N.2   1 <1>  -0.5650 
 17 C       -5.6140    -8.9850     0.0090 C.2   1 <1>  -0.3320 
 18 N       -6.1630    -4.6740     0.8530 N.4   1 <1>  -0.9590 
 19 C       -7.1880    -8.2280     1.2460 C.2   1 <1>   0.0360 
 20 N       -6.3150    -9.2480     1.1260 N.pl3 1 <1>   0.0330 
 21 C       -4.5210    -9.9150    -0.4950 C.3   1 <1>  -0.0600 
 22 C       -6.7210    -3.6080    -0.0310 C.3   1 <1>   0.2630 
 23 C       -6.6210    -4.4780     2.2530 C.3   1 <1>   0.2630 
 24 H       -2.1300    -1.2530    -0.2560 H     1 <1>   0.0800 
 25 H       -3.0940     0.1160    -0.8140 H     1 <1>   0.0800 
 26 H       -4.2050     0.0680     2.9400 H     1 <1>   0.0800 
 27 H       -3.6980     1.0890     1.5870 H     1 <1>   0.0800 
 28 H       -2.5740    -0.0990     2.2740 H     1 <1>   0.0800 
 29 H       -3.7620    -0.5120    -3.4900 H     1 <1>   0.1500 
 30 H       -4.6920    -2.7300    -4.5990 H     1 <1>   0.1500 
 31 H       -5.0520    -7.7480    -2.3560 H     1 <1>   0.0800 
 32 H       -6.5890    -6.9510    -2.3630 H     1 <1>   0.0800 
 33 H       -3.1580    -5.3080    -0.6490 H     1 <1>   0.0800 
 34 H       -3.9560    -6.6430     0.0690 H     1 <1>   0.0800 
 35 H       -4.2790    -3.7510     0.6280 H     1 <1>   0.0800 
 36 H       -4.2750    -5.1020     1.7020 H     1 <1>   0.0800 
 37 H       -6.5240    -5.5960     0.5120 H     1 <1>   0.4500 
 38 H       -7.8960    -8.1810     2.0560 H     1 <1>   0.1500 
 39 H       -6.2270   -10.0630     1.7430 H     1 <1>   0.2700 
 40 H       -4.0560    -9.5230    -1.3820 H     1 <1>   0.0800 
 41 H       -4.9360   -10.8800    -0.7300 H     1 <1>   0.0800 
 42 H       -3.7610   -10.0400     0.2560 H     1 <1>   0.0800 
 43 H       -6.3160    -2.6470     0.2400 H     1 <1>   0.0800 
 44 H       -7.7940    -3.5740     0.0590 H     1 <1>   0.0800 
 45 H       -6.4740    -3.8060    -1.0580 H     1 <1>   0.0800 
 46 H       -6.2580    -3.5380     2.6350 H     1 <1>   0.0800 
 47 H       -6.2550    -5.2760     2.8780 H     1 <1>   0.0800 
 48 H       -7.6980    -4.4790     2.2920 H     1 <1>   0.0800 
@<TRIPOS>BOND
  1   1   2  1   
  2   1   3  1   
  3   2   4  1   
  4   2  24  1   
  5   2  25  1   
  6   3  26  1   
  7   3  27  1   
  8   3  28  1   
  9   4   5  1   
 10   4   6  2   
 11   5   7  1   
 12   6   8  1   
 13   6  29  1   
 14   7   8  2   
 15   7   9  1   
 16   8  30  1   
 17   9  10  2   
 18   9  11  am  
 19  11  12  1   
 20  11  13  1   
 21  12  14  1   
 22  12  31  1   
 23  12  32  1   
 24  13  15  1   
 25  13  33  1   
 26  13  34  1   
 27  14  16  1   
 28  14  17  2   
 29  15  18  1   
 30  15  35  1   
 31  15  36  1   
 32  16  19  2   
 33  17  20  1   
 34  17  21  1   
 35  18  22  1   
 36  18  23  1   
 37  18  37  1   
 38  19  20  1   
 39  19  38  1   
 40  20  39  1   
 41  21  40  1   
 42  21  41  1   
 43  21  42  1   
 44  22  43  1   
 45  22  44  1   
 46  22  45  1   
 47  23  46  1   
 48  23  47  1   
 49  23  48  1   
@<TRIPOS>SUBSTRUCTURE
  1 ****  13 GROUP 4 **** **** 0

# MOE 2024.06 (io_trps.svl 2023.06)
