@<TRIPOS>MOLECULE
NONAME
48 50 1 0 0 
SMALL
USER_CHARGES


@<TRIPOS>ATOM
  1 O       -1.6190     0.6130    -1.6690 O.2   1 <1>  -0.5700 
  2 C       -1.5400     0.6760    -0.4550 C.2   1 <1>   0.5440 
  3 N       -1.7920    -0.4610     0.2620 N.am  1 <1>  -0.7300 
  4 C       -1.2020     1.9260     0.2260 C.ar  1 <1>   0.3960 
  5 C       -2.2320    -1.7610    -0.2900 C.3   1 <1>   0.2200 
  6 N       -1.2610     1.9870     1.5540 N.ar  1 <1>  -0.6200 
  7 C       -0.8280     3.0430    -0.5010 C.ar  1 <1>  -0.1500 
  8 C       -3.7280    -1.9030    -0.0780 C.3   1 <1>  -0.0800 
  9 C       -1.6760    -2.9040     0.5570 C.3   1 <1>   0.1200 
 10 C       -0.9340     3.1440     2.0840 C.ar  1 <1>   0.7200 
 11 C       -0.5210     4.2030     0.1680 C.ar  1 <1>   0.1660 
 12 C       -3.7910    -2.4370     1.3550 C.3   1 <1>   0.1200 
 13 C       -4.3540    -2.8770    -1.0930 C.3   1 <1>  -0.0160 
 14 O       -2.6040    -3.1410     1.5760 O.3   1 <1>  -0.5600 
 15 N       -0.5780     4.2580     1.4780 N.ar  1 <1>  -0.6200 
 16 N       -0.9920     3.2110     3.4140 N.pl3 1 <1>  -0.9000 
 17 C       -0.1050     5.4570    -0.6060 C.3   1 <1>   0.0630 
 18 C       -5.8580    -2.9860    -0.8950 C.ar  1 <1>  -0.1430 
 19 C        1.3200     5.8880    -0.2360 C.3   1 <1>  -0.2400 
 20 C       -1.0900     6.6090    -0.3660 C.3   1 <1>  -0.2400 
 21 C       -6.4450    -4.0970    -0.3230 C.ar  1 <1>  -0.1500 
 22 C       -6.7140    -1.9740    -1.2780 C.ar  1 <1>  -0.1500 
 23 C       -7.8200    -4.1380    -0.1630 C.ar  1 <1>   0.1600 
 24 C       -8.0760    -2.1140    -1.0730 C.ar  1 <1>   0.1600 
 25 N       -8.6500    -3.1720    -0.5230 N.ar  1 <1>  -0.6200 
 26 H       -1.7550    -0.3980     1.2850 H     1 <1>   0.3700 
 27 H       -1.9380    -1.8430    -1.3230 H     1 <1>   0.0800 
 28 H       -0.7820     2.9930    -1.5730 H     1 <1>   0.1500 
 29 H       -4.2250    -0.9520    -0.1580 H     1 <1>   0.0800 
 30 H       -0.7180    -2.6700     0.9870 H     1 <1>   0.0800 
 31 H       -1.6020    -3.8040    -0.0270 H     1 <1>   0.0800 
 32 H       -4.6280    -3.0910     1.5310 H     1 <1>   0.0800 
 33 H       -3.8210    -1.6240     2.0590 H     1 <1>   0.0800 
 34 H       -3.9050    -3.8510    -1.0030 H     1 <1>   0.0800 
 35 H       -4.1640    -2.5220    -2.0910 H     1 <1>   0.0800 
 36 H       -1.5660     2.5140     3.8790 H     1 <1>   0.4000 
 37 H       -1.0010     4.1510     3.8010 H     1 <1>   0.4000 
 38 H       -0.1160     5.2310    -1.6580 H     1 <1>   0.0800 
 39 H        1.3730     6.1520     0.8060 H     1 <1>   0.0800 
 40 H        1.6210     6.7370    -0.8230 H     1 <1>   0.0800 
 41 H        2.0080     5.0810    -0.4170 H     1 <1>   0.0800 
 42 H       -1.0900     6.8910     0.6730 H     1 <1>   0.0800 
 43 H       -2.0860     6.3060    -0.6370 H     1 <1>   0.0800 
 44 H       -0.8180     7.4660    -0.9560 H     1 <1>   0.0800 
 45 H       -5.8480    -4.9290     0.0020 H     1 <1>   0.1500 
 46 H       -6.3340    -1.0770    -1.7340 H     1 <1>   0.1500 
 47 H       -8.2610    -5.0110     0.2860 H     1 <1>   0.1500 
 48 H       -8.7280    -1.3140    -1.3780 H     1 <1>   0.1500 
@<TRIPOS>BOND
  1   1   2  2   
  2   2   3  am  
  3   2   4  1   
  4   3   5  1   
  5   3  26  1   
  6   4   6  ar  
  7   4   7  ar  
  8   5   8  1   
  9   5   9  1   
 10   5  27  1   
 11   6  10  ar  
 12   7  11  ar  
 13   7  28  1   
 14   8  12  1   
 15   8  13  1   
 16   8  29  1   
 17   9  14  1   
 18   9  30  1   
 19   9  31  1   
 20  10  15  ar  
 21  10  16  1   
 22  11  15  ar  
 23  11  17  1   
 24  12  14  1   
 25  12  32  1   
 26  12  33  1   
 27  13  18  1   
 28  13  34  1   
 29  13  35  1   
 30  16  36  1   
 31  16  37  1   
 32  17  19  1   
 33  17  20  1   
 34  17  38  1   
 35  18  21  ar  
 36  18  22  ar  
 37  19  39  1   
 38  19  40  1   
 39  19  41  1   
 40  20  42  1   
 41  20  43  1   
 42  20  44  1   
 43  21  23  ar  
 44  21  45  1   
 45  22  24  ar  
 46  22  46  1   
 47  23  25  ar  
 48  23  47  1   
 49  24  25  ar  
 50  24  48  1   
@<TRIPOS>SUBSTRUCTURE
  1 ****   3 GROUP 4 **** **** 0

# MOE 2024.06 (io_trps.svl 2023.06)
