@<TRIPOS>MOLECULE
NONAME
55 57 1 0 0 
SMALL
USER_CHARGES


@<TRIPOS>ATOM
  1 O        2.2440    -1.3100     3.6300 O.2   1 <1>  -0.5700 
  2 C        1.5430    -0.9440     2.7160 C.2   1 <1>   0.5690 
  3 N        1.4240     0.3600     2.3720 N.am  1 <1>  -0.7300 
  4 C        0.8070    -1.9730     1.8510 C.3   1 <1>   0.1710 
  5 C        2.4290     1.3840     2.6870 C.3   1 <1>   0.2840 
  6 N        0.7620    -1.6190     0.3960 N.3   1 <1>  -0.8100 
  7 C        3.3020     1.4970     1.4530 C.ar  1 <1>  -0.1430 
  8 C        2.1210    -1.5280    -0.1860 C.3   1 <1>   0.1100 
  9 C        0.0160    -2.6290    -0.3800 C.3   1 <1>   0.1100 
 10 C        2.9520     2.3580     0.4230 C.ar  1 <1>  -0.1500 
 11 C        4.4230     0.6910     1.3200 C.ar  1 <1>  -0.1500 
 12 C        2.0370    -2.1490    -1.5750 C.3   1 <1>   0.2000 
 13 C        0.9880    -3.2380    -1.4010 C.3   1 <1>  -0.0800 
 14 C        3.6950     2.3980    -0.7440 C.ar  1 <1>   0.0820 
 15 C        5.1620     0.7120     0.1500 C.ar  1 <1>  -0.1500 
 16 O        1.5380    -1.1960    -2.4450 O.3   1 <1>  -0.6800 
 17 C        1.6320    -4.5450    -0.8930 C.3   1 <1>  -0.0160 
 18 O        3.3090     3.2860    -1.6930 O.3   1 <1>  -0.3620 
 19 C        4.7860     1.5340    -0.8980 C.ar  1 <1>   0.0820 
 20 C        0.6140    -5.6610    -0.7220 C.ar  1 <1>   0.1670 
 21 C        4.2430     4.2850    -2.0420 C.3   1 <1>   0.0400 
 22 O        5.4890     1.4340    -2.0520 O.3   1 <1>  -0.3630 
 23 N        0.1690    -5.8730     0.5070 N.ar  1 <1>  -0.6200 
 24 C        0.2080    -6.3890    -1.8310 C.ar  1 <1>  -0.1500 
 25 C        4.7760     0.9340    -3.1650 C.3   1 <1>   0.0400 
 26 C       -0.7130    -6.8520     0.6370 C.ar  1 <1>   0.1600 
 27 C       -0.7130    -7.4040    -1.6810 C.ar  1 <1>  -0.1500 
 28 C       -1.1810    -7.6340    -0.4060 C.ar  1 <1>  -0.1500 
 29 H        0.9340     0.5130     1.4860 H     1 <1>   0.3700 
 30 H       -0.1980    -2.0530     2.2240 H     1 <1>   0.0800 
 31 H        1.2820    -2.9300     1.9780 H     1 <1>   0.0800 
 32 H        1.9420     2.3190     2.9020 H     1 <1>   0.0800 
 33 H        3.0130     1.0900     3.5430 H     1 <1>   0.0800 
 34 H        2.4580    -0.5080    -0.2360 H     1 <1>   0.0800 
 35 H        2.8200    -2.0940     0.4070 H     1 <1>   0.0800 
 36 H       -0.4330    -3.3750     0.2530 H     1 <1>   0.0800 
 37 H       -0.7770    -2.1270    -0.9070 H     1 <1>   0.0800 
 38 H        2.0940     2.9990     0.5110 H     1 <1>   0.1500 
 39 H        4.7070     0.0280     2.1210 H     1 <1>   0.1500 
 40 H        2.9840    -2.4970    -1.9520 H     1 <1>   0.0800 
 41 H        0.4870    -3.4420    -2.3310 H     1 <1>   0.0800 
 42 H        6.0220     0.0770     0.0370 H     1 <1>   0.1500 
 43 H        0.8210    -0.7210    -1.9750 H     1 <1>   0.4000 
 44 H        2.1270    -4.3790     0.0470 H     1 <1>   0.0800 
 45 H        2.3780    -4.8690    -1.5950 H     1 <1>   0.0800 
 46 H        3.7530     4.9920    -2.6870 H     1 <1>   0.0800 
 47 H        5.0710     3.8350    -2.5580 H     1 <1>   0.0800 
 48 H        4.5810     4.7730    -1.1460 H     1 <1>   0.0800 
 49 H        0.6080    -6.1660    -2.8030 H     1 <1>   0.1500 
 50 H        5.4730     0.7670    -3.9650 H     1 <1>   0.0800 
 51 H        4.0360     1.6520    -3.4670 H     1 <1>   0.0800 
 52 H        4.3000     0.0080    -2.8890 H     1 <1>   0.0800 
 53 H       -1.0850    -7.0410     1.6290 H     1 <1>   0.1500 
 54 H       -1.0500    -7.9890    -2.5200 H     1 <1>   0.1500 
 55 H       -1.9000    -8.4100    -0.2180 H     1 <1>   0.1500 
@<TRIPOS>BOND
  1   1   2  2   
  2   2   3  am  
  3   2   4  1   
  4   3   5  1   
  5   3  29  1   
  6   4   6  1   
  7   4  30  1   
  8   4  31  1   
  9   5   7  1   
 10   5  32  1   
 11   5  33  1   
 12   6   8  1   
 13   6   9  1   
 14   7  10  ar  
 15   7  11  ar  
 16   8  12  1   
 17   8  34  1   
 18   8  35  1   
 19   9  13  1   
 20   9  36  1   
 21   9  37  1   
 22  10  14  ar  
 23  10  38  1   
 24  11  15  ar  
 25  11  39  1   
 26  12  13  1   
 27  12  16  1   
 28  12  40  1   
 29  13  17  1   
 30  13  41  1   
 31  14  18  1   
 32  14  19  ar  
 33  15  19  ar  
 34  15  42  1   
 35  16  43  1   
 36  17  20  1   
 37  17  44  1   
 38  17  45  1   
 39  18  21  1   
 40  19  22  1   
 41  20  23  ar  
 42  20  24  ar  
 43  21  46  1   
 44  21  47  1   
 45  21  48  1   
 46  22  25  1   
 47  23  26  ar  
 48  24  27  ar  
 49  24  49  1   
 50  25  50  1   
 51  25  51  1   
 52  25  52  1   
 53  26  28  ar  
 54  26  53  1   
 55  27  28  ar  
 56  27  54  1   
 57  28  55  1   
@<TRIPOS>SUBSTRUCTURE
  1 ****   8 GROUP 4 **** **** 0

# MOE 2024.06 (io_trps.svl 2023.06)
