@<TRIPOS>MOLECULE
NONAME
48 51 1 0 0 
SMALL
USER_CHARGES


@<TRIPOS>ATOM
  1 O        4.4860    -2.0450     1.4660 O.2   1 <1>  -0.5700 
  2 C        3.4780    -1.8180     0.8220 C.2   1 <1>   0.5440 
  3 N        3.3180    -0.5270     0.3790 N.am  1 <1>  -0.6600 
  4 C        2.5490    -2.8760     0.4650 C.ar  1 <1>   0.0860 
  5 C        3.7010     0.6140     1.2930 C.3   1 <1>   0.2200 
  6 C        3.2470    -0.2860    -1.0910 C.3   1 <1>   0.1400 
  7 C        1.2100    -2.6070     0.1650 C.ar  1 <1>  -0.1500 
  8 C        2.9630    -4.2080     0.4060 C.ar  1 <1>  -0.1500 
  9 C        2.9870     1.9290     0.9390 C.3   1 <1>   0.1200 
 10 C        5.2340     0.8310     1.3310 C.3   1 <1>   0.3430 
 11 C        4.1680     0.8460    -1.5850 C.3   1 <1>  -0.0800 
 12 C        0.3260    -3.6070    -0.1980 C.ar  1 <1>  -0.1440 
 13 C        2.0910    -5.2180     0.0470 C.ar  1 <1>  -0.1500 
 14 O        3.7160     2.6390    -0.0190 O.3   1 <1>  -0.5600 
 15 N        5.9290     0.1520     0.1870 N.4   1 <1>  -0.9590 
 16 C        3.5530     2.2330    -1.3360 C.3   1 <1>   0.1200 
 17 C        5.6530     0.7640    -1.1560 C.3   1 <1>   0.3430 
 18 C        0.7730    -4.9240    -0.2570 C.ar  1 <1>   0.0830 
 19 C       -1.1210    -3.2740    -0.5240 C.3   1 <1>  -0.0170 
 20 C        7.3860     0.0050     0.4520 C.3   1 <1>   0.2630 
 21 O       -0.0390    -5.9440    -0.6110 O.3   1 <1>  -0.3630 
 22 C       -1.7600    -4.4080    -1.3280 C.3   1 <1>  -0.1600 
 23 C       -1.4390    -5.7540    -0.6730 C.3   1 <1>   0.1200 
 24 H        3.3830     0.3490     2.2870 H     1 <1>   0.0800 
 25 H        3.5150    -1.1950    -1.6050 H     1 <1>   0.0800 
 26 H        2.2270    -0.0630    -1.3560 H     1 <1>   0.0800 
 27 H        0.8560    -1.5930     0.2220 H     1 <1>   0.1500 
 28 H        3.9830    -4.4550     0.6460 H     1 <1>   0.1500 
 29 H        2.9470     2.5540     1.8140 H     1 <1>   0.0800 
 30 H        1.9800     1.7640     0.5980 H     1 <1>   0.0800 
 31 H        5.5960     0.4130     2.2550 H     1 <1>   0.0800 
 32 H        5.4590     1.8850     1.3380 H     1 <1>   0.0800 
 33 H        4.1740     0.7560    -2.6560 H     1 <1>   0.0800 
 34 H        2.4220    -6.2400     0.0000 H     1 <1>   0.1500 
 35 H        5.4940    -0.7930     0.2090 H     1 <1>   0.4500 
 36 H        2.5030     2.2550    -1.5800 H     1 <1>   0.0800 
 37 H        4.0490     2.9670    -1.9490 H     1 <1>   0.0800 
 38 H        6.0710     1.7580    -1.1840 H     1 <1>   0.0800 
 39 H        6.1730     0.1800    -1.8970 H     1 <1>   0.0800 
 40 H       -1.6590    -3.1410     0.3990 H     1 <1>   0.0800 
 41 H       -1.1780    -2.3570    -1.0840 H     1 <1>   0.0800 
 42 H        7.8580     0.9720     0.5020 H     1 <1>   0.0800 
 43 H        7.8520    -0.5710    -0.3310 H     1 <1>   0.0800 
 44 H        7.5410    -0.5060     1.3890 H     1 <1>   0.0800 
 45 H       -1.3760    -4.4100    -2.3330 H     1 <1>   0.0800 
 46 H       -2.8250    -4.2700    -1.3760 H     1 <1>   0.0800 
 47 H       -1.8540    -6.5680    -1.2400 H     1 <1>   0.0800 
 48 H       -1.8190    -5.7920     0.3330 H     1 <1>   0.0800 
@<TRIPOS>BOND
  1   1   2  2   
  2   2   3  am  
  3   2   4  1   
  4   3   5  1   
  5   3   6  1   
  6   4   7  ar  
  7   4   8  ar  
  8   5   9  1   
  9   5  10  1   
 10   5  24  1   
 11   6  11  1   
 12   6  25  1   
 13   6  26  1   
 14   7  12  ar  
 15   7  27  1   
 16   8  13  ar  
 17   8  28  1   
 18   9  14  1   
 19   9  29  1   
 20   9  30  1   
 21  10  15  1   
 22  10  31  1   
 23  10  32  1   
 24  11  16  1   
 25  11  17  1   
 26  11  33  1   
 27  12  18  ar  
 28  12  19  1   
 29  13  18  ar  
 30  13  34  1   
 31  14  16  1   
 32  15  17  1   
 33  15  20  1   
 34  15  35  1   
 35  16  36  1   
 36  16  37  1   
 37  17  38  1   
 38  17  39  1   
 39  18  21  1   
 40  19  22  1   
 41  19  40  1   
 42  19  41  1   
 43  20  42  1   
 44  20  43  1   
 45  20  44  1   
 46  21  23  1   
 47  22  23  1   
 48  22  45  1   
 49  22  46  1   
 50  23  47  1   
 51  23  48  1   
@<TRIPOS>SUBSTRUCTURE
  1 ****   2 GROUP 4 **** **** 0

# MOE 2024.06 (io_trps.svl 2023.06)
