@<TRIPOS>MOLECULE
NONAME
53 55 1 0 0 
SMALL
USER_CHARGES


@<TRIPOS>ATOM
  1 S       -0.1660    -0.6060    -2.4210 S.3   1 <1>  -0.0800 
  2 C        0.3740    -1.8910    -1.3520 C.2   1 <1>  -0.1400 
  3 C        1.0730     0.4750    -1.8160 C.2   1 <1>  -0.1100 
  4 C        1.4230    -1.4760    -0.6180 C.2   1 <1>  -0.1500 
  5 C       -0.3640    -3.2110    -1.3980 C.3   1 <1>   0.5230 
  6 C        1.8270    -0.1240    -0.8720 C.2   1 <1>   0.0190 
  7 N       -1.6210    -3.0500    -0.6240 N.4   1 <1>  -0.9590 
  8 C        2.9210     0.4680    -0.1660 C.1   1 <1>  -0.0190 
  9 C       -1.9940    -4.3230     0.0910 C.3   1 <1>   0.3430 
 10 C       -2.7300    -2.5590    -1.4980 C.3   1 <1>   0.3430 
 11 C        3.8330     0.9590     0.4210 C.1   1 <1>  -0.2000 
 12 C       -3.0710    -4.1340     1.1800 C.3   1 <1>   0.1400 
 13 C       -3.5830    -1.5100    -0.7780 C.3   1 <1>  -0.1600 
 14 C        4.9770     1.5760     1.1420 C.3   1 <1>   0.3200 
 15 N       -4.2650    -3.4020     0.6620 N.am  1 <1>  -0.6600 
 16 C       -4.1050    -1.9250     0.6030 C.3   1 <1>   0.1400 
 17 O        6.0450     1.5950     0.2730 O.3   1 <1>  -0.6800 
 18 C       -5.4390    -4.0160     0.2490 C.2   1 <1>   0.7150 
 19 O       -6.3760    -3.2980    -0.0440 O.2   1 <1>  -0.5700 
 20 C       -5.5680    -5.4510     0.1090 C.2   1 <1>   0.0550 
 21 O       -4.5550    -6.2000    -0.3170 O.3   1 <1>  -0.2800 
 22 C       -6.6330    -6.2520     0.3250 C.2   1 <1>   0.0460 
 23 C       -5.0880    -7.4080    -0.3260 C.2   1 <1>   0.2980 
 24 N       -6.3080    -7.5070     0.0490 N.2   1 <1>  -0.5650 
 25 C       -8.0350    -5.9270     0.8000 C.3   1 <1>  -0.0590 
 26 C       -4.2020    -8.5610    -0.7800 C.3   1 <1>   0.0200 
 27 C       -4.8960    -9.9310    -0.7450 C.3   1 <1>  -0.2400 
 28 H        1.1200     1.4670    -2.2310 H     1 <1>   0.1500 
 29 H        1.9610    -2.0570     0.1140 H     1 <1>   0.1500 
 30 H        0.2560    -3.9640    -0.9400 H     1 <1>   0.0800 
 31 H       -0.5650    -3.5020    -2.4160 H     1 <1>   0.0800 
 32 H       -1.4270    -2.3130     0.0650 H     1 <1>   0.4500 
 33 H       -1.1190    -4.7430     0.5600 H     1 <1>   0.0800 
 34 H       -2.3540    -5.0450    -0.6240 H     1 <1>   0.0800 
 35 H       -3.3580    -3.3860    -1.7890 H     1 <1>   0.0800 
 36 H       -2.3340    -2.1160    -2.3980 H     1 <1>   0.0800 
 37 H       -2.6510    -3.5920     2.0100 H     1 <1>   0.0800 
 38 H       -3.3650    -5.0960     1.5640 H     1 <1>   0.0800 
 39 H       -4.4360    -1.3040    -1.4010 H     1 <1>   0.0800 
 40 H       -3.0390    -0.5860    -0.6930 H     1 <1>   0.0800 
 41 H        5.2480     0.9910     2.0040 H     1 <1>   0.0800 
 42 H        4.7600     2.5880     1.4370 H     1 <1>   0.0800 
 43 H       -5.0480    -1.4370     0.7980 H     1 <1>   0.0800 
 44 H       -3.4210    -1.6040     1.3690 H     1 <1>   0.0800 
 45 H        6.0350     0.7740    -0.2550 H     1 <1>   0.4000 
 46 H       -8.1380    -4.8820     1.0260 H     1 <1>   0.0800 
 47 H       -8.2570    -6.4970     1.6840 H     1 <1>   0.0800 
 48 H       -8.7420    -6.1880     0.0350 H     1 <1>   0.0800 
 49 H       -3.3350    -8.5940    -0.1460 H     1 <1>   0.0800 
 50 H       -3.8760    -8.3610    -1.7840 H     1 <1>   0.0800 
 51 H       -5.2190   -10.1580     0.2560 H     1 <1>   0.0800 
 52 H       -4.2220   -10.7010    -1.0750 H     1 <1>   0.0800 
 53 H       -5.7590    -9.9260    -1.3880 H     1 <1>   0.0800 
@<TRIPOS>BOND
  1   1   2  1   
  2   1   3  1   
  3   2   4  2   
  4   2   5  1   
  5   3   6  2   
  6   3  28  1   
  7   4   6  1   
  8   4  29  1   
  9   5   7  1   
 10   5  30  1   
 11   5  31  1   
 12   6   8  1   
 13   7   9  1   
 14   7  10  1   
 15   7  32  1   
 16   8  11  3   
 17   9  12  1   
 18   9  33  1   
 19   9  34  1   
 20  10  13  1   
 21  10  35  1   
 22  10  36  1   
 23  11  14  1   
 24  12  15  1   
 25  12  37  1   
 26  12  38  1   
 27  13  16  1   
 28  13  39  1   
 29  13  40  1   
 30  14  17  1   
 31  14  41  1   
 32  14  42  1   
 33  15  16  1   
 34  15  18  am  
 35  16  43  1   
 36  16  44  1   
 37  17  45  1   
 38  18  19  2   
 39  18  20  1   
 40  20  21  1   
 41  20  22  2   
 42  21  23  1   
 43  22  24  1   
 44  22  25  1   
 45  23  24  2   
 46  23  26  1   
 47  25  46  1   
 48  25  47  1   
 49  25  48  1   
 50  26  27  1   
 51  26  49  1   
 52  26  50  1   
 53  27  51  1   
 54  27  52  1   
 55  27  53  1   
@<TRIPOS>SUBSTRUCTURE
  1 ****   7 GROUP 4 **** **** 0

# MOE 2024.06 (io_trps.svl 2023.06)
