@<TRIPOS>MOLECULE
NONAME
41 43 1 0 0 
SMALL
USER_CHARGES


@<TRIPOS>ATOM
  1 O        1.4240     1.2060    -1.2490 O.3   1 <1>  -0.0190 
  2 N        2.3900     0.3390    -1.2050 N.2   1 <1>  -0.4100 
  3 C        1.0190     1.5430    -0.0540 C.2   1 <1>  -0.0400 
  4 C        2.6000     0.0970     0.0390 C.2   1 <1>   0.1080 
  5 C        1.7440     0.8520     0.8380 C.2   1 <1>  -0.1500 
  6 C       -0.0810     2.5750     0.1070 C.3   1 <1>   0.0200 
  7 C        3.6370    -0.8770     0.5530 C.3   1 <1>  -0.0590 
  8 C        0.2140     3.8130    -0.7630 C.3   1 <1>  -0.0800 
  9 C       -0.7120     5.0170    -0.5790 C.3   1 <1>   0.2000 
 10 C        1.6270     4.3750    -0.5570 C.3   1 <1>   0.3430 
 11 O       -0.9040     5.2620     0.7810 O.3   1 <1>  -0.6800 
 12 C        0.1260     6.1560    -1.1640 C.3   1 <1>   0.3430 
 13 N        1.5310     5.8480    -0.7630 N.4   1 <1>  -0.9590 
 14 C        1.8990     6.6290     0.4480 C.3   1 <1>   0.5230 
 15 C        2.2150     8.0510     0.0030 C.2   1 <1>   0.0060 
 16 N        2.5310     8.3530    -1.2200 N.2   1 <1>  -0.5650 
 17 N        2.1950     9.1180     0.8410 N.pl3 1 <1>   0.0480 
 18 C        2.7290     9.6830    -1.1810 C.2   1 <1>   0.0770 
 19 C        2.5280    10.1630     0.0640 C.2   1 <1>  -0.3020 
 20 C        1.8870     9.1840     2.2840 C.3   1 <1>   0.0160 
 21 H        1.7090     0.8460     1.9120 H     1 <1>   0.1500 
 22 H       -1.0170     2.1360    -0.1920 H     1 <1>   0.0800 
 23 H       -0.1490     2.8360     1.1480 H     1 <1>   0.0800 
 24 H        4.3310    -0.3710     1.1980 H     1 <1>   0.0800 
 25 H        4.1780    -1.3070    -0.2710 H     1 <1>   0.0800 
 26 H        3.1560    -1.6670     1.1000 H     1 <1>   0.0800 
 27 H        0.1510     3.5090    -1.7940 H     1 <1>   0.0800 
 28 H       -1.6700     4.9160    -1.0620 H     1 <1>   0.0800 
 29 H        2.3160     3.9250    -1.2550 H     1 <1>   0.0800 
 30 H        1.9590     4.1620     0.4460 H     1 <1>   0.0800 
 31 H       -1.6800     4.7660     1.1200 H     1 <1>   0.4000 
 32 H       -0.2010     7.1190    -0.8080 H     1 <1>   0.0800 
 33 H        0.0520     6.1350    -2.2390 H     1 <1>   0.0800 
 34 H        2.1690     6.2190    -1.4900 H     1 <1>   0.4500 
 35 H        1.0910     6.6230     1.1590 H     1 <1>   0.0800 
 36 H        2.7770     6.2080     0.9070 H     1 <1>   0.0800 
 37 H        3.0120    10.2390    -2.0620 H     1 <1>   0.1500 
 38 H        2.6050    11.1730     0.4240 H     1 <1>   0.1500 
 39 H        1.8890    10.2110     2.6040 H     1 <1>   0.0800 
 40 H        2.6330     8.6430     2.8370 H     1 <1>   0.0800 
 41 H        0.9150     8.7620     2.4680 H     1 <1>   0.0800 
@<TRIPOS>BOND
  1   1   2  1   
  2   1   3  1   
  3   2   4  2   
  4   3   5  2   
  5   3   6  1   
  6   4   5  1   
  7   4   7  1   
  8   5  21  1   
  9   6   8  1   
 10   6  22  1   
 11   6  23  1   
 12   7  24  1   
 13   7  25  1   
 14   7  26  1   
 15   8   9  1   
 16   8  10  1   
 17   8  27  1   
 18   9  11  1   
 19   9  12  1   
 20   9  28  1   
 21  10  13  1   
 22  10  29  1   
 23  10  30  1   
 24  11  31  1   
 25  12  13  1   
 26  12  32  1   
 27  12  33  1   
 28  13  14  1   
 29  13  34  1   
 30  14  15  1   
 31  14  35  1   
 32  14  36  1   
 33  15  16  2   
 34  15  17  1   
 35  16  18  1   
 36  17  19  1   
 37  17  20  1   
 38  18  19  2   
 39  18  37  1   
 40  19  38  1   
 41  20  39  1   
 42  20  40  1   
 43  20  41  1   
@<TRIPOS>SUBSTRUCTURE
  1 ****  10 GROUP 4 **** **** 0

# MOE 2024.06 (io_trps.svl 2023.06)
