@<TRIPOS>MOLECULE
NONAME
41 42 1 0 0 
SMALL
USER_CHARGES


@<TRIPOS>ATOM
  1 S       -0.2790     0.0800     0.3890 S.o2  1 <1>   1.3330 
  2 O        0.0960     0.3190     1.7650 O.2   1 <1>  -0.6500 
  3 O       -1.1540    -1.0220     0.0620 O.2   1 <1>  -0.6500 
  4 N        1.1480    -0.1290    -0.5100 N.am  1 <1>  -0.8490 
  5 C       -0.9810     1.5950    -0.2720 C.3   1 <1>  -0.0550 
  6 C        2.1550    -0.8980     0.2290 C.3   1 <1>   0.1160 
  7 C        0.9240    -0.7510    -1.8210 C.3   1 <1>   0.1160 
  8 C       -0.2480     2.8780     0.1590 C.3   1 <1>  -0.0800 
  9 C       -0.9030     4.1360    -0.4110 C.3   1 <1>   0.2000 
 10 C        1.2050     2.9720    -0.3130 C.3   1 <1>   0.1100 
 11 O       -1.6090     4.7790     0.5910 O.3   1 <1>  -0.6800 
 12 C        0.2530     5.0110    -0.9080 C.3   1 <1>   0.1100 
 13 N        1.5060     4.4040    -0.4140 N.3   1 <1>  -0.8100 
 14 C        1.9110     4.9510     0.9040 C.3   1 <1>   0.2900 
 15 C        2.3090     6.4080     0.7840 C.2   1 <1>   0.0070 
 16 N        3.0180     6.8760    -0.2380 N.pl3 1 <1>   0.0330 
 17 N        2.0120     7.3430     1.6200 N.2   1 <1>  -0.3380 
 18 C        3.1350     8.1730     0.0370 C.2   1 <1>   0.0060 
 19 N        2.5430     8.4720     1.1410 N.2   1 <1>  -0.3380 
 20 C        3.8690     9.1600    -0.8470 C.3   1 <1>  -0.0600 
 21 H       -1.0120     1.5380    -1.3420 H     1 <1>   0.0800 
 22 H       -1.9940     1.6700     0.0740 H     1 <1>   0.0800 
 23 H        3.0500    -1.0060    -0.3600 H     1 <1>   0.0800 
 24 H        1.7730    -1.8750     0.4770 H     1 <1>   0.0800 
 25 H        2.4140    -0.3880     1.1410 H     1 <1>   0.0800 
 26 H        1.8440    -0.7790    -2.3790 H     1 <1>   0.0800 
 27 H        0.2030    -0.1850    -2.3850 H     1 <1>   0.0800 
 28 H        0.5560    -1.7570    -1.7040 H     1 <1>   0.0800 
 29 H       -0.2450     2.9230     1.2350 H     1 <1>   0.0800 
 30 H       -1.5880     3.9230    -1.2140 H     1 <1>   0.0800 
 31 H        1.3020     2.5350    -1.2930 H     1 <1>   0.0800 
 32 H        1.8810     2.4630     0.3550 H     1 <1>   0.0800 
 33 H       -0.9930     5.1960     1.2260 H     1 <1>   0.4000 
 34 H        0.1410     6.0400    -0.6100 H     1 <1>   0.0800 
 35 H        0.2690     4.9720    -1.9830 H     1 <1>   0.0800 
 36 H        1.1140     4.8580     1.6210 H     1 <1>   0.0800 
 37 H        2.7580     4.4000     1.2730 H     1 <1>   0.0800 
 38 H        3.3510     6.3340    -1.0380 H     1 <1>   0.2700 
 39 H        4.9000     8.8750    -0.9420 H     1 <1>   0.0800 
 40 H        3.8200    10.1420    -0.4120 H     1 <1>   0.0800 
 41 H        3.4150     9.1920    -1.8210 H     1 <1>   0.0800 
@<TRIPOS>BOND
  1   1   2  2   
  2   1   3  2   
  3   1   4  am  
  4   1   5  1   
  5   4   6  1   
  6   4   7  1   
  7   5   8  1   
  8   5  21  1   
  9   5  22  1   
 10   6  23  1   
 11   6  24  1   
 12   6  25  1   
 13   7  26  1   
 14   7  27  1   
 15   7  28  1   
 16   8   9  1   
 17   8  10  1   
 18   8  29  1   
 19   9  11  1   
 20   9  12  1   
 21   9  30  1   
 22  10  13  1   
 23  10  31  1   
 24  10  32  1   
 25  11  33  1   
 26  12  13  1   
 27  12  34  1   
 28  12  35  1   
 29  13  14  1   
 30  14  15  1   
 31  14  36  1   
 32  14  37  1   
 33  15  16  1   
 34  15  17  2   
 35  16  18  1   
 36  16  38  1   
 37  17  19  1   
 38  18  19  2   
 39  18  20  1   
 40  20  39  1   
 41  20  40  1   
 42  20  41  1   
@<TRIPOS>SUBSTRUCTURE
  1 ****  10 GROUP 4 **** **** 0

# MOE 2024.06 (io_trps.svl 2023.06)
