@<TRIPOS>MOLECULE
NONAME
53 56 1 0 0 
SMALL
USER_CHARGES


@<TRIPOS>ATOM
  1 O       -3.1150     2.0270     2.1700 O.2   1 <1>  -0.5700 
  2 C       -3.2910     1.8220     0.9810 C.2   1 <1>   0.7150 
  3 N       -3.6330     0.5500     0.5780 N.am  1 <1>  -0.6600 
  4 C       -3.1070     2.9120     0.0590 C.2   1 <1>  -0.2370 
  5 C       -3.3390     0.0360    -0.7950 C.3   1 <1>   0.1400 
  6 C       -4.0560    -0.4610     1.5930 C.3   1 <1>   0.1400 
  7 N       -2.3660     4.0030     0.4210 N.pl3 1 <1>   0.0330 
  8 C       -3.5640     3.1420    -1.2170 C.2   1 <1>  -0.1500 
  9 C       -2.9780    -1.4580    -0.7880 C.3   1 <1>   0.1400 
 10 C       -4.8220    -1.6320     0.9550 C.3   1 <1>   0.1400 
 11 C       -2.3450     4.8810    -0.6100 C.2   1 <1>  -0.3020 
 12 C       -3.0760     4.3770    -1.6370 C.2   1 <1>  -0.1500 
 13 N       -4.0490    -2.3000    -0.1500 N.am  1 <1>  -0.6600 
 14 C       -4.2780    -3.5830    -0.5990 C.2   1 <1>   0.5690 
 15 O       -3.5860    -4.0680    -1.4690 O.2   1 <1>  -0.5700 
 16 C       -5.3950    -4.4990    -0.0130 C.3   1 <1>   0.6270 
 17 N       -5.4400    -5.8830    -0.6480 N.4   1 <1>  -0.9590 
 18 C       -6.7880    -3.8630    -0.0570 C.ar  1 <1>  -0.1430 
 19 C       -6.0080    -5.8700    -2.0350 C.3   1 <1>   0.2630 
 20 C       -6.1410    -6.8890     0.2030 C.3   1 <1>   0.2630 
 21 C       -7.6470    -4.0490     1.0240 C.ar  1 <1>  -0.1500 
 22 C       -7.2070    -3.0900    -1.1460 C.ar  1 <1>  -0.1500 
 23 C       -8.8970    -3.4680     0.9760 C.ar  1 <1>   0.0820 
 24 C       -8.4700    -2.5130    -1.1730 C.ar  1 <1>  -0.1500 
 25 O       -9.8670    -3.5240     1.8920 O.3   1 <1>  -0.3620 
 26 C       -9.2990    -2.7220    -0.0910 C.ar  1 <1>   0.0820 
 27 C      -10.9620    -2.7640     1.3770 C.3   1 <1>   0.4000 
 28 O      -10.5420    -2.2740     0.1040 O.3   1 <1>  -0.3620 
 29 H       -2.5180     0.5880    -1.2190 H     1 <1>   0.0800 
 30 H       -4.2020     0.1850    -1.4190 H     1 <1>   0.0800 
 31 H       -4.6840     0.0160     2.3270 H     1 <1>   0.0800 
 32 H       -3.1830    -0.8330     2.1020 H     1 <1>   0.0800 
 33 H       -1.9270     4.1100     1.3440 H     1 <1>   0.2700 
 34 H       -4.1980     2.5100    -1.8110 H     1 <1>   0.1500 
 35 H       -2.0550    -1.5930    -0.2510 H     1 <1>   0.0800 
 36 H       -2.8130    -1.7750    -1.8040 H     1 <1>   0.0800 
 37 H       -5.7480    -1.2500     0.5600 H     1 <1>   0.0800 
 38 H       -5.0560    -2.3430     1.7270 H     1 <1>   0.0800 
 39 H       -1.8180     5.8190    -0.5610 H     1 <1>   0.1500 
 40 H       -3.2610     4.8310    -2.5960 H     1 <1>   0.1500 
 41 H       -5.1370    -4.6270     1.0230 H     1 <1>   0.0800 
 42 H       -4.4440    -6.1400    -0.7560 H     1 <1>   0.4500 
 43 H       -7.0490    -5.5910    -2.0140 H     1 <1>   0.0800 
 44 H       -5.9230    -6.8470    -2.4830 H     1 <1>   0.0800 
 45 H       -5.4720    -5.1670    -2.6520 H     1 <1>   0.0800 
 46 H       -7.1820    -6.6270     0.3100 H     1 <1>   0.0800 
 47 H       -5.6920    -6.9370     1.1810 H     1 <1>   0.0800 
 48 H       -6.0800    -7.8670    -0.2490 H     1 <1>   0.0800 
 49 H       -7.3800    -4.6210     1.8950 H     1 <1>   0.1500 
 50 H       -6.5570    -2.9180    -1.9890 H     1 <1>   0.1500 
 51 H       -8.8080    -1.9150    -2.0020 H     1 <1>   0.1500 
 52 H      -11.1700    -1.9370     2.0320 H     1 <1>   0.0800 
 53 H      -11.8200    -3.4010     1.2540 H     1 <1>   0.0800 
@<TRIPOS>BOND
  1   1   2  2   
  2   2   3  am  
  3   2   4  1   
  4   3   5  1   
  5   3   6  1   
  6   4   7  1   
  7   4   8  2   
  8   5   9  1   
  9   5  29  1   
 10   5  30  1   
 11   6  10  1   
 12   6  31  1   
 13   6  32  1   
 14   7  11  1   
 15   7  33  1   
 16   8  12  1   
 17   8  34  1   
 18   9  13  1   
 19   9  35  1   
 20   9  36  1   
 21  10  13  1   
 22  10  37  1   
 23  10  38  1   
 24  11  12  2   
 25  11  39  1   
 26  12  40  1   
 27  13  14  am  
 28  14  15  2   
 29  14  16  1   
 30  16  17  1   
 31  16  18  1   
 32  16  41  1   
 33  17  19  1   
 34  17  20  1   
 35  17  42  1   
 36  18  21  ar  
 37  18  22  ar  
 38  19  43  1   
 39  19  44  1   
 40  19  45  1   
 41  20  46  1   
 42  20  47  1   
 43  20  48  1   
 44  21  23  ar  
 45  21  49  1   
 46  22  24  ar  
 47  22  50  1   
 48  23  25  1   
 49  23  26  ar  
 50  24  26  ar  
 51  24  51  1   
 52  25  27  1   
 53  26  28  1   
 54  27  28  1   
 55  27  52  1   
 56  27  53  1   
@<TRIPOS>SUBSTRUCTURE
  1 ****  10 GROUP 4 **** **** 0

# MOE 2024.06 (io_trps.svl 2023.06)
