@<TRIPOS>MOLECULE
NONAME
48 50 1 0 0 
SMALL
USER_CHARGES


@<TRIPOS>ATOM
  1 O       -0.6070    -1.8330     1.9530 O.2   1 <1>  -0.5700 
  2 C       -0.5800    -1.9950     0.7480 C.2   1 <1>   0.5440 
  3 N        0.3880    -1.3520     0.0260 N.am  1 <1>  -0.7300 
  4 C       -1.5630    -2.8370     0.1030 C.ar  1 <1>   0.0860 
  5 C        1.4460    -0.4970     0.5980 C.3   1 <1>   0.1400 
  6 C       -2.7540    -3.1560     0.7570 C.ar  1 <1>   0.1600 
  7 C       -1.3910    -3.3710    -1.1720 C.ar  1 <1>  -0.1500 
  8 C        2.7260    -0.7060    -0.2020 C.3   1 <1>  -0.2400 
  9 N       -3.7380    -3.9050     0.2780 N.ar  1 <1>  -0.6200 
 10 C       -2.3960    -4.1510    -1.6890 C.ar  1 <1>  -0.1500 
 11 C       -3.5430    -4.3930    -0.9440 C.ar  1 <1>   0.4100 
 12 N       -4.5530    -5.1700    -1.4550 N.pl3 1 <1>  -0.8380 
 13 C       -5.8440    -4.4730    -1.6780 C.3   1 <1>   0.2090 
 14 C       -4.8620    -6.4110    -0.7040 C.3   1 <1>   0.2090 
 15 C       -6.7220    -4.8330    -0.4730 C.3   1 <1>   0.2000 
 16 C       -6.0580    -6.0560     0.1960 C.3   1 <1>   0.4230 
 17 O       -6.7220    -3.7930     0.4470 O.3   1 <1>  -0.6800 
 18 N       -7.0100    -7.1830     0.5150 N.4   1 <1>  -0.9590 
 19 C       -7.7000    -7.8260    -0.6590 C.3   1 <1>   0.3430 
 20 C       -8.0180    -6.7570     1.5490 C.3   1 <1>   0.3430 
 21 C       -8.6780    -8.9330    -0.2000 C.3   1 <1>   0.1200 
 22 C       -8.9910    -7.9070     1.8970 C.3   1 <1>   0.1200 
 23 O       -8.6640    -9.0770     1.1950 O.3   1 <1>  -0.5600 
 24 H        0.3550    -1.3720    -0.9930 H     1 <1>   0.3700 
 25 H        1.1380     0.5340     0.5510 H     1 <1>   0.0800 
 26 H        1.6120    -0.7570     1.6320 H     1 <1>   0.0800 
 27 H       -2.8930    -2.7540     1.7480 H     1 <1>   0.1500 
 28 H       -0.4950    -3.1870    -1.7370 H     1 <1>   0.1500 
 29 H        2.5810    -0.4210    -1.2290 H     1 <1>   0.0800 
 30 H        3.0320    -1.7360    -0.1510 H     1 <1>   0.0800 
 31 H        3.5110    -0.0980     0.2110 H     1 <1>   0.0800 
 32 H       -2.3170    -4.5870    -2.6680 H     1 <1>   0.1500 
 33 H       -5.7110    -3.4070    -1.7710 H     1 <1>   0.0800 
 34 H       -6.2840    -4.8470    -2.5860 H     1 <1>   0.0800 
 35 H       -5.1070    -7.1870    -1.4060 H     1 <1>   0.0800 
 36 H       -4.0160    -6.7150    -0.1100 H     1 <1>   0.0800 
 37 H       -7.7380    -5.0070    -0.7770 H     1 <1>   0.0800 
 38 H       -5.6320    -5.7060     1.1210 H     1 <1>   0.0800 
 39 H       -5.7910    -3.4740     0.5650 H     1 <1>   0.4000 
 40 H       -6.4900    -7.9470     0.9730 H     1 <1>   0.4500 
 41 H       -8.2520    -7.0880    -1.2160 H     1 <1>   0.0800 
 42 H       -6.9740    -8.2600    -1.3270 H     1 <1>   0.0800 
 43 H       -7.5120    -6.4430     2.4480 H     1 <1>   0.0800 
 44 H       -8.5850    -5.9130     1.1920 H     1 <1>   0.0800 
 45 H       -8.3970    -9.8790    -0.6290 H     1 <1>   0.0800 
 46 H       -9.6840    -8.7080    -0.5120 H     1 <1>   0.0800 
 47 H      -10.0060    -7.6340     1.6590 H     1 <1>   0.0800 
 48 H       -8.9420    -8.1290     2.9490 H     1 <1>   0.0800 
@<TRIPOS>BOND
  1   1   2  2   
  2   2   3  am  
  3   2   4  1   
  4   3   5  1   
  5   3  24  1   
  6   4   6  ar  
  7   4   7  ar  
  8   5   8  1   
  9   5  25  1   
 10   5  26  1   
 11   6   9  ar  
 12   6  27  1   
 13   7  10  ar  
 14   7  28  1   
 15   8  29  1   
 16   8  30  1   
 17   8  31  1   
 18   9  11  ar  
 19  10  11  ar  
 20  10  32  1   
 21  11  12  1   
 22  12  13  1   
 23  12  14  1   
 24  13  15  1   
 25  13  33  1   
 26  13  34  1   
 27  14  16  1   
 28  14  35  1   
 29  14  36  1   
 30  15  16  1   
 31  15  17  1   
 32  15  37  1   
 33  16  18  1   
 34  16  38  1   
 35  17  39  1   
 36  18  19  1   
 37  18  20  1   
 38  18  40  1   
 39  19  21  1   
 40  19  41  1   
 41  19  42  1   
 42  20  22  1   
 43  20  43  1   
 44  20  44  1   
 45  21  23  1   
 46  21  45  1   
 47  21  46  1   
 48  22  23  1   
 49  22  47  1   
 50  22  48  1   
@<TRIPOS>SUBSTRUCTURE
  1 ****   9 GROUP 4 **** **** 0

# MOE 2024.06 (io_trps.svl 2023.06)
