@<TRIPOS>MOLECULE
NONAME
53 56 1 0 0 
SMALL
USER_CHARGES


@<TRIPOS>ATOM
  1 O       -2.1000     0.9420    -2.0850 O.2   1 <1>  -0.5700 
  2 C       -2.1940     1.2390    -0.9200 C.2   1 <1>   0.5690 
  3 N       -2.3610     0.3060     0.0470 N.am  1 <1>  -0.7300 
  4 C       -2.1180     2.6930    -0.5170 C.3   1 <1>  -0.0990 
  5 C       -2.4520    -1.1500    -0.1940 C.3   1 <1>   0.2200 
  6 C       -0.6560     3.1660    -0.4430 C.3   1 <1>  -0.0160 
  7 C       -3.9010    -1.5860    -0.0540 C.3   1 <1>  -0.0800 
  8 C       -1.7910    -1.9000     0.9560 C.3   1 <1>   0.1200 
  9 C       -0.4770     4.6170     0.0100 C.ar  1 <1>   0.1660 
 10 C       -4.0370    -1.7930     1.4590 C.3   1 <1>   0.1200 
 11 C       -4.1800    -2.8760    -0.8490 C.3   1 <1>  -0.0170 
 12 O       -2.7460    -1.9610     1.9730 O.3   1 <1>  -0.5600 
 13 N       -1.5070     5.2520     0.4820 N.ar  1 <1>  -0.6200 
 14 C        0.8210     5.2030    -0.0970 C.ar  1 <1>   0.3930 
 15 C       -5.6380    -3.2940    -0.7350 C.ar  1 <1>  -0.1440 
 16 C       -1.2580     6.5330     0.8610 C.ar  1 <1>   0.3100 
 17 O        1.8160     4.4340    -0.5920 O.3   1 <1>  -0.3630 
 18 N        1.0940     6.4270     0.2580 N.ar  1 <1>  -0.6200 
 19 C       -6.6380    -2.6250    -1.4100 C.ar  1 <1>  -0.1500 
 20 C       -6.0380    -4.3610     0.0450 C.ar  1 <1>  -0.1500 
 21 C        0.0310     7.1110     0.7480 C.ar  1 <1>   0.3100 
 22 C       -2.3040     7.3100     1.3800 C.ar  1 <1>  -0.1500 
 23 C        3.1300     4.9350    -0.7490 C.3   1 <1>   0.0400 
 24 C       -7.9530    -3.0390    -1.2740 C.ar  1 <1>   0.1600 
 25 C       -7.3810    -4.6930     0.1130 C.ar  1 <1>   0.1600 
 26 C        0.2080     8.4410     1.1600 C.ar  1 <1>  -0.1500 
 27 C       -2.1020     8.6070     1.7760 C.ar  1 <1>  -0.1500 
 28 N       -8.3490    -4.0570    -0.5260 N.ar  1 <1>  -0.6200 
 29 C       -0.8320     9.1780     1.6640 C.ar  1 <1>  -0.1500 
 30 H       -2.4600     0.5800     1.0270 H     1 <1>   0.3700 
 31 H       -2.6500     3.2820    -1.2410 H     1 <1>   0.0800 
 32 H       -2.5970     2.8230     0.4360 H     1 <1>   0.0800 
 33 H       -2.0200    -1.4000    -1.1490 H     1 <1>   0.0800 
 34 H       -0.2160     3.0510    -1.4190 H     1 <1>   0.0800 
 35 H       -0.1140     2.5340     0.2370 H     1 <1>   0.0800 
 36 H       -4.5710    -0.8190    -0.4000 H     1 <1>   0.0800 
 37 H       -0.9050    -1.4080     1.3190 H     1 <1>   0.0800 
 38 H       -1.5550    -2.9090     0.6680 H     1 <1>   0.0800 
 39 H       -4.6280    -2.6530     1.7170 H     1 <1>   0.0800 
 40 H       -4.4590    -0.9190     1.9250 H     1 <1>   0.0800 
 41 H       -3.5470    -3.6740    -0.5030 H     1 <1>   0.0800 
 42 H       -3.9520    -2.7090    -1.8880 H     1 <1>   0.0800 
 43 H       -6.4080    -1.7860    -2.0420 H     1 <1>   0.1500 
 44 H       -5.3210    -4.9370     0.6010 H     1 <1>   0.1500 
 45 H       -3.2740     6.8530     1.4570 H     1 <1>   0.1500 
 46 H        3.7440     4.1550    -1.1600 H     1 <1>   0.0800 
 47 H        3.5060     5.2350     0.2140 H     1 <1>   0.0800 
 48 H        3.1030     5.7770    -1.4180 H     1 <1>   0.0800 
 49 H       -8.7190    -2.5040    -1.8080 H     1 <1>   0.1500 
 50 H       -7.6740    -5.5280     0.7270 H     1 <1>   0.1500 
 51 H        1.1920     8.8650     1.0680 H     1 <1>   0.1500 
 52 H       -2.9120     9.1960     2.1730 H     1 <1>   0.1500 
 53 H       -0.6830    10.1980     1.9780 H     1 <1>   0.1500 
@<TRIPOS>BOND
  1   1   2  2   
  2   2   3  am  
  3   2   4  1   
  4   3   5  1   
  5   3  30  1   
  6   4   6  1   
  7   4  31  1   
  8   4  32  1   
  9   5   7  1   
 10   5   8  1   
 11   5  33  1   
 12   6   9  1   
 13   6  34  1   
 14   6  35  1   
 15   7  10  1   
 16   7  11  1   
 17   7  36  1   
 18   8  12  1   
 19   8  37  1   
 20   8  38  1   
 21   9  13  ar  
 22   9  14  ar  
 23  10  12  1   
 24  10  39  1   
 25  10  40  1   
 26  11  15  1   
 27  11  41  1   
 28  11  42  1   
 29  13  16  ar  
 30  14  17  1   
 31  14  18  ar  
 32  15  19  ar  
 33  15  20  ar  
 34  16  21  ar  
 35  16  22  ar  
 36  17  23  1   
 37  18  21  ar  
 38  19  24  ar  
 39  19  43  1   
 40  20  25  ar  
 41  20  44  1   
 42  21  26  ar  
 43  22  27  ar  
 44  22  45  1   
 45  23  46  1   
 46  23  47  1   
 47  23  48  1   
 48  24  28  ar  
 49  24  49  1   
 50  25  28  ar  
 51  25  50  1   
 52  26  29  ar  
 53  26  51  1   
 54  27  29  ar  
 55  27  52  1   
 56  29  53  1   
@<TRIPOS>SUBSTRUCTURE
  1 ****   4 GROUP 4 **** **** 0

# MOE 2024.06 (io_trps.svl 2023.06)
