@<TRIPOS>MOLECULE
NONAME
56 58 1 0 0 
SMALL
USER_CHARGES


@<TRIPOS>ATOM
  1 O        0.2460     1.0510    -1.4670 O.2   1 <1>  -0.5700 
  2 C        0.0720     2.1790    -1.0680 C.2   1 <1>   0.5690 
  3 N       -0.9080     2.5000    -0.1640 N.am  1 <1>  -0.6600 
  4 C        0.9890     3.2680    -1.6230 C.3   1 <1>   0.1810 
  5 C       -1.1410     3.9450     0.2190 C.3   1 <1>   0.3640 
  6 C       -1.5970     1.4040     0.5890 C.3   1 <1>   0.2200 
  7 O        1.0560     4.3950    -0.7900 O.3   1 <1>  -0.5600 
  8 C       -2.5870     4.3560    -0.0710 C.ar  1 <1>  -0.1440 
  9 C       -0.2090     4.9570    -0.5020 C.3   1 <1>   0.2610 
 10 C       -2.9700     1.1050    -0.0090 C.3   1 <1>  -0.2400 
 11 C       -1.6980     1.6970     2.0880 C.3   1 <1>  -0.2400 
 12 C       -3.3310     5.0040     0.9040 C.ar  1 <1>  -0.1500 
 13 C       -3.1680     4.1100    -1.3090 C.ar  1 <1>  -0.1500 
 14 C       -0.0550     6.2780     0.2800 C.2   1 <1>   0.5690 
 15 C       -4.6340     5.3950     0.6500 C.ar  1 <1>  -0.1500 
 16 C       -4.4710     4.5020    -1.5650 C.ar  1 <1>  -0.1500 
 17 O       -0.4290     6.3230     1.4330 O.2   1 <1>  -0.5700 
 18 N        0.4980     7.3880    -0.3180 N.am  1 <1>  -0.6600 
 19 C       -5.2050     5.1440    -0.5850 C.ar  1 <1>  -0.1500 
 20 C        0.7550     8.6290     0.4700 C.3   1 <1>   0.2840 
 21 C        1.1080     7.3860    -1.6800 C.3   1 <1>   0.0600 
 22 C        2.2530     8.8560     0.6170 C.ar  1 <1>  -0.1440 
 23 C        2.8640     9.9680     0.0590 C.ar  1 <1>  -0.1500 
 24 C        3.0250     7.9390     1.3130 C.ar  1 <1>  -0.1500 
 25 C        4.2290    10.1580     0.1950 C.ar  1 <1>  -0.1500 
 26 C        4.3890     8.1280     1.4480 C.ar  1 <1>  -0.1500 
 27 C        4.9990     9.2380     0.8880 C.ar  1 <1>  -0.1440 
 28 C        6.4950     9.4450     1.0370 C.3   1 <1>  -0.0970 
 29 H        0.6420     3.5750    -2.5930 H     1 <1>   0.0800 
 30 H        1.9850     2.8750    -1.7190 H     1 <1>   0.0800 
 31 H       -0.9560     4.0280     1.2740 H     1 <1>   0.0800 
 32 H       -1.0080     0.5070     0.4910 H     1 <1>   0.0800 
 33 H       -0.6610     5.2050    -1.4440 H     1 <1>   0.0800 
 34 H       -3.6680     1.8940     0.1980 H     1 <1>   0.0800 
 35 H       -3.3590     0.1990     0.4190 H     1 <1>   0.0800 
 36 H       -2.8860     0.9650    -1.0720 H     1 <1>   0.0800 
 37 H       -2.3790     2.5050     2.2830 H     1 <1>   0.0800 
 38 H       -0.7270     1.9300     2.4870 H     1 <1>   0.0800 
 39 H       -2.0680     0.8260     2.5970 H     1 <1>   0.0800 
 40 H       -2.8970     5.2150     1.8670 H     1 <1>   0.1500 
 41 H       -2.6120     3.6020    -2.0770 H     1 <1>   0.1500 
 42 H       -5.2020     5.8980     1.4140 H     1 <1>   0.1500 
 43 H       -4.9140     4.3030    -2.5250 H     1 <1>   0.1500 
 44 H       -6.2180     5.4480    -0.7820 H     1 <1>   0.1500 
 45 H        0.3000     9.4630    -0.0340 H     1 <1>   0.0800 
 46 H        0.3140     8.5640     1.4490 H     1 <1>   0.0800 
 47 H        1.0900     8.3790    -2.0940 H     1 <1>   0.0800 
 48 H        0.5740     6.7340    -2.3450 H     1 <1>   0.0800 
 49 H        2.1310     7.0580    -1.6110 H     1 <1>   0.0800 
 50 H        2.2840    10.6930    -0.4830 H     1 <1>   0.1500 
 51 H        2.5590     7.0700     1.7490 H     1 <1>   0.1500 
 52 H        4.6900    11.0260    -0.2420 H     1 <1>   0.1500 
 53 H        4.9710     7.4050     1.9920 H     1 <1>   0.1500 
 54 H        6.8830    10.0010     0.2030 H     1 <1>   0.0800 
 55 H        7.0020     8.4980     1.0790 H     1 <1>   0.0800 
 56 H        6.6970     9.9880     1.9430 H     1 <1>   0.0800 
@<TRIPOS>BOND
  1   1   2  2   
  2   2   3  am  
  3   2   4  1   
  4   3   5  1   
  5   3   6  1   
  6   4   7  1   
  7   4  29  1   
  8   4  30  1   
  9   5   8  1   
 10   5   9  1   
 11   5  31  1   
 12   6  10  1   
 13   6  11  1   
 14   6  32  1   
 15   7   9  1   
 16   8  12  ar  
 17   8  13  ar  
 18   9  14  1   
 19   9  33  1   
 20  10  34  1   
 21  10  35  1   
 22  10  36  1   
 23  11  37  1   
 24  11  38  1   
 25  11  39  1   
 26  12  15  ar  
 27  12  40  1   
 28  13  16  ar  
 29  13  41  1   
 30  14  17  2   
 31  14  18  am  
 32  15  19  ar  
 33  15  42  1   
 34  16  19  ar  
 35  16  43  1   
 36  18  20  1   
 37  18  21  1   
 38  19  44  1   
 39  20  22  1   
 40  20  45  1   
 41  20  46  1   
 42  21  47  1   
 43  21  48  1   
 44  21  49  1   
 45  22  23  ar  
 46  22  24  ar  
 47  23  25  ar  
 48  23  50  1   
 49  24  26  ar  
 50  24  51  1   
 51  25  27  ar  
 52  25  52  1   
 53  26  27  ar  
 54  26  53  1   
 55  27  28  1   
 56  28  54  1   
 57  28  55  1   
 58  28  56  1   
@<TRIPOS>SUBSTRUCTURE
  1 ****  14 GROUP 4 **** **** 0

# MOE 2024.06 (io_trps.svl 2023.06)
