@<TRIPOS>MOLECULE
NONAME
52 54 1 0 0 
SMALL
USER_CHARGES


@<TRIPOS>ATOM
  1 O       -3.5600     0.2730    -1.7190 O.co2 1 <1>  -0.9000 
  2 C       -4.6520     0.5350    -1.2150 C.2   1 <1>   0.9790 
  3 O       -5.6790     0.4220    -1.9090 O.co2 1 <1>  -0.9000 
  4 C       -4.8390     0.5760     0.2160 C.ar  1 <1>  -0.1790 
  5 C       -4.8480    -0.6260     0.9330 C.ar  1 <1>  -0.1440 
  6 C       -5.0570     1.7690     0.9000 C.ar  1 <1>  -0.1500 
  7 C       -5.0830    -0.6130     2.2990 C.ar  1 <1>  -0.1500 
  8 C       -4.5440    -1.9360     0.2030 C.3   1 <1>   0.4870 
  9 C       -5.3000     1.7720     2.2600 C.ar  1 <1>  -0.1500 
 10 C       -5.3180     0.5790     2.9600 C.ar  1 <1>  -0.1500 
 11 N       -5.5150    -2.1900    -0.9120 N.4   1 <1>  -0.9590 
 12 C       -6.6280    -3.1450    -0.6530 C.3   1 <1>   0.4230 
 13 C       -4.7170    -2.5820    -2.1190 C.3   1 <1>   0.2630 
 14 C       -7.7270    -2.9920    -1.7070 C.3   1 <1>  -0.1600 
 15 C       -7.3700    -2.9410     0.6740 C.3   1 <1>  -0.1600 
 16 C       -8.8320    -2.1010    -1.1170 C.3   1 <1>  -0.0800 
 17 C       -8.6650    -2.1550     0.4060 C.3   1 <1>  -0.0800 
 18 C       -8.7380    -0.6200    -1.5180 C.3   1 <1>  -0.1600 
 19 C       -8.6390    -0.7000     0.8960 C.3   1 <1>  -0.1600 
 20 C       -8.1700     0.1110    -0.3020 C.3   1 <1>   0.4230 
 21 N       -8.5210     1.5610    -0.2160 N.4   1 <1>  -0.9590 
 22 C       -9.9810     1.8790    -0.1640 C.3   1 <1>   0.2630 
 23 C       -7.8640     2.2980    -1.3430 C.3   1 <1>   0.2630 
 24 H       -5.0220     2.7000     0.3580 H     1 <1>   0.1500 
 25 H       -5.0740    -1.5270     2.8690 H     1 <1>   0.1500 
 26 H       -4.5450    -2.7610     0.8950 H     1 <1>   0.0800 
 27 H       -3.5490    -1.8460    -0.2050 H     1 <1>   0.0800 
 28 H       -5.4600     2.7020     2.7800 H     1 <1>   0.1500 
 29 H       -5.4970     0.5830     4.0220 H     1 <1>   0.1500 
 30 H       -5.8890    -1.2530    -1.1850 H     1 <1>   0.4500 
 31 H       -6.2290    -4.1470    -0.6840 H     1 <1>   0.0800 
 32 H       -4.2600    -3.5460    -1.9770 H     1 <1>   0.0800 
 33 H       -3.9410    -1.8550    -2.3030 H     1 <1>   0.0800 
 34 H       -5.3440    -2.6130    -2.9930 H     1 <1>   0.0800 
 35 H       -7.3760    -2.6360    -2.6580 H     1 <1>   0.0800 
 36 H       -8.1500    -3.9680    -1.8670 H     1 <1>   0.0800 
 37 H       -7.6650    -3.9200     1.0100 H     1 <1>   0.0800 
 38 H       -6.7780    -2.5200     1.4590 H     1 <1>   0.0800 
 39 H       -9.7970    -2.4850    -1.4090 H     1 <1>   0.0800 
 40 H       -9.4950    -2.6720     0.8620 H     1 <1>   0.0800 
 41 H       -9.7280    -0.2720    -1.7460 H     1 <1>   0.0800 
 42 H       -8.1120    -0.4720    -2.3810 H     1 <1>   0.0800 
 43 H       -7.9900    -0.5640     1.7420 H     1 <1>   0.0800 
 44 H       -9.6400    -0.4280     1.1730 H     1 <1>   0.0800 
 45 H       -7.1020     0.0160    -0.3340 H     1 <1>   0.0800 
 46 H       -8.0760     1.8930     0.6520 H     1 <1>   0.4500 
 47 H      -10.4690     1.5540    -1.0680 H     1 <1>   0.0800 
 48 H      -10.1240     2.9430    -0.0630 H     1 <1>   0.0800 
 49 H      -10.4470     1.3930     0.6770 H     1 <1>   0.0800 
 50 H       -8.1610     1.8820    -2.2910 H     1 <1>   0.0800 
 51 H       -6.7930     2.2220    -1.2660 H     1 <1>   0.0800 
 52 H       -8.1310     3.3410    -1.3200 H     1 <1>   0.0800 
@<TRIPOS>BOND
  1   1   2  ar  
  2   2   3  ar  
  3   2   4  1   
  4   4   5  ar  
  5   4   6  ar  
  6   5   7  ar  
  7   5   8  1   
  8   6   9  ar  
  9   6  24  1   
 10   7  10  ar  
 11   7  25  1   
 12   8  11  1   
 13   8  26  1   
 14   8  27  1   
 15   9  10  ar  
 16   9  28  1   
 17  10  29  1   
 18  11  12  1   
 19  11  13  1   
 20  11  30  1   
 21  12  14  1   
 22  12  15  1   
 23  12  31  1   
 24  13  32  1   
 25  13  33  1   
 26  13  34  1   
 27  14  16  1   
 28  14  35  1   
 29  14  36  1   
 30  15  17  1   
 31  15  37  1   
 32  15  38  1   
 33  16  17  1   
 34  16  18  1   
 35  16  39  1   
 36  17  19  1   
 37  17  40  1   
 38  18  20  1   
 39  18  41  1   
 40  18  42  1   
 41  19  20  1   
 42  19  43  1   
 43  19  44  1   
 44  20  21  1   
 45  20  45  1   
 46  21  22  1   
 47  21  23  1   
 48  21  46  1   
 49  22  47  1   
 50  22  48  1   
 51  22  49  1   
 52  23  50  1   
 53  23  51  1   
 54  23  52  1   
@<TRIPOS>SUBSTRUCTURE
  1 ****  20 GROUP 4 **** **** 0

# MOE 2024.06 (io_trps.svl 2023.06)
