@<TRIPOS>MOLECULE
NONAME
46 48 1 0 0 
SMALL
USER_CHARGES


@<TRIPOS>ATOM
  1 O       -2.0980     0.6180    -2.2210 O.2   1 <1>  -0.5700 
  2 C       -1.9540     0.8220    -1.0310 C.2   1 <1>   0.5440 
  3 N       -1.8940    -0.2660    -0.2070 N.am  1 <1>  -0.7300 
  4 C       -1.8650     2.1700    -0.5120 C.ar  1 <1>   0.0860 
  5 C       -1.9580    -1.6820    -0.6420 C.3   1 <1>   0.2200 
  6 C       -1.7920     3.2600    -1.3790 C.ar  1 <1>   0.1600 
  7 C       -1.8490     2.4650     0.8510 C.ar  1 <1>  -0.1500 
  8 C       -3.3220    -2.2900    -0.3430 C.3   1 <1>  -0.0800 
  9 C       -1.0770    -2.5130     0.2790 C.3   1 <1>   0.1200 
 10 N       -1.7120     4.5320    -1.0320 N.ar  1 <1>  -0.6200 
 11 C       -1.7660     3.7830     1.2290 C.ar  1 <1>  -0.1500 
 12 C       -3.1950    -2.7190     1.1240 C.3   1 <1>   0.1200 
 13 C       -4.5390    -1.3940    -0.6400 C.3   1 <1>  -0.0170 
 14 O       -1.8320    -2.6830     1.4400 O.3   1 <1>  -0.5600 
 15 C       -1.7050     4.7930     0.2710 C.ar  1 <1>   0.4100 
 16 C       -5.8380    -2.1380    -0.3720 C.ar  1 <1>  -0.1430 
 17 N       -1.6340     6.1160     0.6550 N.pl3 1 <1>  -0.8380 
 18 C       -6.3630    -3.0320    -1.2830 C.ar  1 <1>  -0.1500 
 19 C       -6.5590    -1.9610     0.7920 C.ar  1 <1>  -0.1500 
 20 C       -2.6010     6.6730     1.6370 C.3   1 <1>   0.1290 
 21 C       -1.0120     7.1220    -0.2500 C.3   1 <1>   0.1290 
 22 C       -7.5450    -3.6920    -0.9920 C.ar  1 <1>   0.1600 
 23 C       -7.7320    -2.6720     0.9860 C.ar  1 <1>   0.1600 
 24 N       -8.2410    -3.5360     0.1220 N.ar  1 <1>  -0.6200 
 25 H       -1.7750    -0.1590     0.8020 H     1 <1>   0.3700 
 26 H       -1.6750    -1.7790    -1.6780 H     1 <1>   0.0800 
 27 H       -1.8010     3.0570    -2.4370 H     1 <1>   0.1500 
 28 H       -1.8990     1.6920     1.5940 H     1 <1>   0.1500 
 29 H       -3.4160    -3.1860    -0.9300 H     1 <1>   0.0800 
 30 H       -0.1450    -2.0310     0.5150 H     1 <1>   0.0800 
 31 H       -0.8920    -3.4860    -0.1420 H     1 <1>   0.0800 
 32 H       -1.7380     4.0560     2.2660 H     1 <1>   0.1500 
 33 H       -3.5650    -3.7180     1.2800 H     1 <1>   0.0800 
 34 H       -3.7000    -2.0370     1.7850 H     1 <1>   0.0800 
 35 H       -4.5110    -1.0840    -1.6700 H     1 <1>   0.0800 
 36 H       -4.5100    -0.5050    -0.0360 H     1 <1>   0.0800 
 37 H       -5.8640    -3.2200    -2.2160 H     1 <1>   0.1500 
 38 H       -6.2220    -1.2790     1.5510 H     1 <1>   0.1500 
 39 H       -2.0670     7.1080     2.4640 H     1 <1>   0.0800 
 40 H       -3.2540     5.9010     2.0070 H     1 <1>   0.0800 
 41 H       -3.2040     7.4310     1.1670 H     1 <1>   0.0800 
 42 H       -0.6230     7.9450     0.3240 H     1 <1>   0.0800 
 43 H       -1.7470     7.4850    -0.9480 H     1 <1>   0.0800 
 44 H       -0.2030     6.6730    -0.8000 H     1 <1>   0.0800 
 45 H       -7.9390    -4.3860    -1.7150 H     1 <1>   0.1500 
 46 H       -8.2800    -2.5230     1.9000 H     1 <1>   0.1500 
@<TRIPOS>BOND
  1   1   2  2   
  2   2   3  am  
  3   2   4  1   
  4   3   5  1   
  5   3  25  1   
  6   4   6  ar  
  7   4   7  ar  
  8   5   8  1   
  9   5   9  1   
 10   5  26  1   
 11   6  10  ar  
 12   6  27  1   
 13   7  11  ar  
 14   7  28  1   
 15   8  12  1   
 16   8  13  1   
 17   8  29  1   
 18   9  14  1   
 19   9  30  1   
 20   9  31  1   
 21  10  15  ar  
 22  11  15  ar  
 23  11  32  1   
 24  12  14  1   
 25  12  33  1   
 26  12  34  1   
 27  13  16  1   
 28  13  35  1   
 29  13  36  1   
 30  15  17  1   
 31  16  18  ar  
 32  16  19  ar  
 33  17  20  1   
 34  17  21  1   
 35  18  22  ar  
 36  18  37  1   
 37  19  23  ar  
 38  19  38  1   
 39  20  39  1   
 40  20  40  1   
 41  20  41  1   
 42  21  42  1   
 43  21  43  1   
 44  21  44  1   
 45  22  24  ar  
 46  22  45  1   
 47  23  24  ar  
 48  23  46  1   
@<TRIPOS>SUBSTRUCTURE
  1 ****   3 GROUP 4 **** **** 0

# MOE 2024.06 (io_trps.svl 2023.06)
