@<TRIPOS>MOLECULE
NONAME
56 59 1 0 0 
SMALL
USER_CHARGES


@<TRIPOS>ATOM
  1 O       -0.4680     0.5850    -1.1140 O.2   1 <1>  -0.5700 
  2 C       -0.3290     1.7210    -0.7220 C.2   1 <1>   0.5690 
  3 N       -1.3740     2.4850    -0.2680 N.am  1 <1>  -0.5090 
  4 C        1.0800     2.3180    -0.7830 C.3   1 <1>   0.1810 
  5 C       -1.1900     3.9340     0.0630 C.3   1 <1>   0.3640 
  6 C       -2.7280     1.9260    -0.0310 C.3   1 <1>   0.0490 
  7 O        1.2150     3.5210    -0.0650 O.3   1 <1>  -0.5600 
  8 C       -2.2580     4.7880    -0.6220 C.ar  1 <1>  -0.1440 
  9 C        0.2030     4.4670    -0.3420 C.3   1 <1>   0.2610 
 10 C       -3.3260     2.0340     1.3380 C.3   1 <1>  -0.2000 
 11 C       -2.8830     0.7040     0.8190 C.3   1 <1>  -0.2000 
 12 C       -2.8840     5.8040     0.0890 C.ar  1 <1>   0.1600 
 13 C       -2.6100     4.5950    -1.9460 C.ar  1 <1>  -0.1500 
 14 C        0.4830     5.8170     0.3390 C.2   1 <1>   0.5690 
 15 N       -3.8060     6.6170    -0.4020 N.ar  1 <1>  -0.6200 
 16 C       -3.5710     5.4320    -2.4710 C.ar  1 <1>  -0.1500 
 17 O        0.0170     6.0030     1.4420 O.2   1 <1>  -0.5700 
 18 N        1.1960     6.7940    -0.3250 N.am  1 <1>  -0.6600 
 19 C       -4.1280     6.4120    -1.6680 C.ar  1 <1>   0.1600 
 20 C        1.1470     8.2380     0.0590 C.3   1 <1>   0.2200 
 21 C        2.1210     6.4990    -1.4560 C.3   1 <1>   0.0600 
 22 C        1.8240     8.4460     1.4230 C.3   1 <1>  -0.1600 
 23 C       -0.3090     8.7360     0.0340 C.3   1 <1>  -0.1600 
 24 C        2.4980     9.8170     1.6040 C.3   1 <1>  -0.1600 
 25 C       -0.4620    10.2630     0.0010 C.3   1 <1>  -0.1600 
 26 C        1.7660    11.0280     1.0020 C.3   1 <1>  -0.1600 
 27 C        0.2370    11.0040     1.1530 C.3   1 <1>  -0.1600 
 28 H        1.3440     2.5030    -1.8080 H     1 <1>   0.0800 
 29 H        1.7780     1.6140    -0.3690 H     1 <1>   0.0800 
 30 H       -1.2970     4.0270     1.1290 H     1 <1>   0.0800 
 31 H       -3.3760     2.0300    -0.8860 H     1 <1>   0.1000 
 32 H        0.2000     4.6320    -1.4030 H     1 <1>   0.0800 
 33 H       -2.7610     2.4670     2.1440 H     1 <1>   0.1000 
 34 H       -4.3820     2.2190     1.4260 H     1 <1>   0.1000 
 35 H       -3.6310    -0.0180     0.5450 H     1 <1>   0.1000 
 36 H       -1.9980     0.2470     1.2250 H     1 <1>   0.1000 
 37 H       -2.6080     5.9650     1.1190 H     1 <1>   0.1500 
 38 H       -2.1630     3.8220    -2.5480 H     1 <1>   0.1500 
 39 H       -3.8890     5.3290    -3.4920 H     1 <1>   0.1500 
 40 H       -4.8780     7.0600    -2.0880 H     1 <1>   0.1500 
 41 H        1.6980     8.7930    -0.6820 H     1 <1>   0.0800 
 42 H        3.0390     7.0460    -1.3260 H     1 <1>   0.0800 
 43 H        1.6650     6.7950    -2.3850 H     1 <1>   0.0800 
 44 H        2.3650     5.4520    -1.4940 H     1 <1>   0.0800 
 45 H        1.0930     8.3120     2.2000 H     1 <1>   0.0800 
 46 H        2.5760     7.6900     1.5670 H     1 <1>   0.0800 
 47 H       -0.7960     8.3400    -0.8410 H     1 <1>   0.0800 
 48 H       -0.8370     8.3600     0.8920 H     1 <1>   0.0800 
 49 H        2.6250     9.9810     2.6600 H     1 <1>   0.0800 
 50 H        3.4840     9.7780     1.1740 H     1 <1>   0.0800 
 51 H       -0.1010    10.6400    -0.9400 H     1 <1>   0.0800 
 52 H       -1.5140    10.4880     0.0460 H     1 <1>   0.0800 
 53 H        2.1430    11.9110     1.4910 H     1 <1>   0.0800 
 54 H        2.0220    11.1230    -0.0390 H     1 <1>   0.0800 
 55 H       -0.1110    12.0220     1.1390 H     1 <1>   0.0800 
 56 H       -0.0470    10.5840     2.1030 H     1 <1>   0.0800 
@<TRIPOS>BOND
  1   1   2  2   
  2   2   3  am  
  3   2   4  1   
  4   3   5  1   
  5   3   6  1   
  6   4   7  1   
  7   4  28  1   
  8   4  29  1   
  9   5   8  1   
 10   5   9  1   
 11   5  30  1   
 12   6  10  1   
 13   6  11  1   
 14   6  31  1   
 15   7   9  1   
 16   8  12  ar  
 17   8  13  ar  
 18   9  14  1   
 19   9  32  1   
 20  10  11  1   
 21  10  33  1   
 22  10  34  1   
 23  11  35  1   
 24  11  36  1   
 25  12  15  ar  
 26  12  37  1   
 27  13  16  ar  
 28  13  38  1   
 29  14  17  2   
 30  14  18  am  
 31  15  19  ar  
 32  16  19  ar  
 33  16  39  1   
 34  18  20  1   
 35  18  21  1   
 36  19  40  1   
 37  20  22  1   
 38  20  23  1   
 39  20  41  1   
 40  21  42  1   
 41  21  43  1   
 42  21  44  1   
 43  22  24  1   
 44  22  45  1   
 45  22  46  1   
 46  23  25  1   
 47  23  47  1   
 48  23  48  1   
 49  24  26  1   
 50  24  49  1   
 51  24  50  1   
 52  25  27  1   
 53  25  51  1   
 54  25  52  1   
 55  26  27  1   
 56  26  53  1   
 57  26  54  1   
 58  27  55  1   
 59  27  56  1   
@<TRIPOS>SUBSTRUCTURE
  1 ****  14 GROUP 4 **** **** 0

# MOE 2024.06 (io_trps.svl 2023.06)
