@<TRIPOS>MOLECULE
NONAME
51 53 1 0 0 
SMALL
USER_CHARGES


@<TRIPOS>ATOM
  1 S        0.2350     0.6860    -0.2590 S.o2  1 <1>   1.3330 
  2 O       -0.9230     1.5170    -0.4960 O.2   1 <1>  -0.6500 
  3 O        0.2160    -0.7020    -0.6660 O.2   1 <1>  -0.6500 
  4 N        0.5450     0.7320     1.4120 N.am  1 <1>  -0.8490 
  5 C        1.6850     1.4600    -0.9750 C.3   1 <1>  -0.0550 
  6 C        0.2760     2.0450     2.0120 C.3   1 <1>   0.1160 
  7 C       -0.1980    -0.3030     2.1350 C.3   1 <1>   0.1160 
  8 C        2.9460     0.5670    -0.9860 C.3   1 <1>  -0.0800 
  9 C        4.1880     1.2040    -1.5940 C.3   1 <1>   0.2200 
 10 C        3.4460     0.1220     0.3920 C.3   1 <1>   0.1200 
 11 N        4.3690     2.5790    -1.0770 N.am  1 <1>  -0.7300 
 12 C        5.2690     0.3170    -0.9930 C.3   1 <1>   0.1200 
 13 O        4.8400     0.0370     0.3070 O.3   1 <1>  -0.5600 
 14 C        3.8920     3.7220    -1.6460 C.2   1 <1>   0.5440 
 15 O        3.4460     3.6470    -2.7740 O.2   1 <1>  -0.5700 
 16 C        3.8960     4.9840    -0.9360 C.ar  1 <1>   0.0860 
 17 C        3.7380     5.0810     0.4620 C.ar  1 <1>   0.3930 
 18 C        4.0510     6.1710    -1.6450 C.ar  1 <1>  -0.1500 
 19 O        3.5540     3.9450     1.1730 O.3   1 <1>  -0.3630 
 20 N        3.7480     6.2200     1.1580 N.ar  1 <1>  -0.6200 
 21 C        4.0560     7.3430    -0.9280 C.ar  1 <1>  -0.1430 
 22 C        3.4860     3.9400     2.5870 C.3   1 <1>   0.0400 
 23 C        3.9080     7.3070     0.4340 C.ar  1 <1>   0.1670 
 24 C        4.2040     8.7560    -1.4370 C.3   1 <1>  -0.0170 
 25 C        3.9450     8.6930     1.0220 C.3   1 <1>  -0.0170 
 26 C        4.3970     9.5820    -0.1520 C.3   1 <1>  -0.1600 
 27 H        1.4630     1.7270    -1.9910 H     1 <1>   0.0800 
 28 H        1.8820     2.3700    -0.4460 H     1 <1>   0.0800 
 29 H        0.5660     2.0440     3.0480 H     1 <1>   0.0800 
 30 H       -0.7730     2.2840     1.9420 H     1 <1>   0.0800 
 31 H        0.8360     2.8110     1.5040 H     1 <1>   0.0800 
 32 H        0.0250    -0.2590     3.1870 H     1 <1>   0.0800 
 33 H        0.0820    -1.2790     1.7740 H     1 <1>   0.0800 
 34 H       -1.2580    -0.1730     1.9910 H     1 <1>   0.0800 
 35 H        2.7200    -0.3230    -1.5490 H     1 <1>   0.0800 
 36 H        4.1890     1.1950    -2.6710 H     1 <1>   0.0800 
 37 H        3.0480    -0.8380     0.6750 H     1 <1>   0.0800 
 38 H        3.2150     0.8500     1.1500 H     1 <1>   0.0800 
 39 H        4.6290     2.6070    -0.0850 H     1 <1>   0.3700 
 40 H        6.2320     0.7950    -0.9650 H     1 <1>   0.0800 
 41 H        5.3370    -0.6160    -1.5260 H     1 <1>   0.0800 
 42 H        4.1620     6.1640    -2.7160 H     1 <1>   0.1500 
 43 H        3.3660     2.9250     2.9180 H     1 <1>   0.0800 
 44 H        2.6450     4.5360     2.8980 H     1 <1>   0.0800 
 45 H        4.3990     4.3520     2.9800 H     1 <1>   0.0800 
 46 H        5.0460     8.8520    -2.0990 H     1 <1>   0.0800 
 47 H        3.3030     9.0510    -1.9470 H     1 <1>   0.0800 
 48 H        2.9590     8.9620     1.3560 H     1 <1>   0.0800 
 49 H        4.6350     8.7420     1.8460 H     1 <1>   0.0800 
 50 H        3.8460    10.5060    -0.1860 H     1 <1>   0.0800 
 51 H        5.4440     9.8050    -0.0360 H     1 <1>   0.0800 
@<TRIPOS>BOND
  1   1   2  2   
  2   1   3  2   
  3   1   4  am  
  4   1   5  1   
  5   4   6  1   
  6   4   7  1   
  7   5   8  1   
  8   5  27  1   
  9   5  28  1   
 10   6  29  1   
 11   6  30  1   
 12   6  31  1   
 13   7  32  1   
 14   7  33  1   
 15   7  34  1   
 16   8   9  1   
 17   8  10  1   
 18   8  35  1   
 19   9  11  1   
 20   9  12  1   
 21   9  36  1   
 22  10  13  1   
 23  10  37  1   
 24  10  38  1   
 25  11  14  am  
 26  11  39  1   
 27  12  13  1   
 28  12  40  1   
 29  12  41  1   
 30  14  15  2   
 31  14  16  1   
 32  16  17  ar  
 33  16  18  ar  
 34  17  19  1   
 35  17  20  ar  
 36  18  21  ar  
 37  18  42  1   
 38  19  22  1   
 39  20  23  ar  
 40  21  23  ar  
 41  21  24  1   
 42  22  43  1   
 43  22  44  1   
 44  22  45  1   
 45  23  25  1   
 46  24  26  1   
 47  24  46  1   
 48  24  47  1   
 49  25  26  1   
 50  25  48  1   
 51  25  49  1   
 52  26  50  1   
 53  26  51  1   
@<TRIPOS>SUBSTRUCTURE
  1 ****  19 GROUP 4 **** **** 0

# MOE 2024.06 (io_trps.svl 2023.06)
