@<TRIPOS>MOLECULE
NONAME
37 38 1 0 0 
SMALL
USER_CHARGES


@<TRIPOS>ATOM
  1 O       -0.6480     0.6500    -0.5390 O.co2 1 <1>  -0.9000 
  2 C       -0.9710     1.2170     0.5170 C.2   1 <1>   0.9060 
  3 O       -1.1060     0.5910     1.5730 O.co2 1 <1>  -0.9000 
  4 C       -0.9770     2.7520     0.5590 C.3   1 <1>   0.0940 
  5 O       -2.2440     3.3910     0.4590 O.3   1 <1>  -0.5600 
  6 C       -0.0870     3.2620    -0.5770 C.3   1 <1>   0.2090 
  7 C       -2.1820     4.7810     0.6180 C.3   1 <1>   0.1200 
  8 N        0.0880     4.7530    -0.4740 N.pl3 1 <1>  -0.8380 
  9 C       -1.2580     5.4280    -0.4370 C.3   1 <1>   0.2090 
 10 C        1.2610     5.4220    -0.3650 C.ar  1 <1>   0.7710 
 11 N        1.2640     6.7450    -0.3240 N.ar  1 <1>  -0.6200 
 12 N        2.3980     4.7120    -0.2980 N.ar  1 <1>  -0.1790 
 13 C        2.4200     7.3700    -0.2050 C.ar  1 <1>   0.4100 
 14 C        3.6070     5.3100    -0.2090 C.ar  1 <1>   0.2110 
 15 N        2.3640     8.7250    -0.1270 N.pl3 1 <1>  -0.8380 
 16 C        3.6520     6.6650    -0.1680 C.ar  1 <1>  -0.1440 
 17 C        1.4250     9.5120    -0.9770 C.3   1 <1>   0.1290 
 18 C        2.9290     9.4950     1.0160 C.3   1 <1>   0.1290 
 19 C        4.9970     7.3880    -0.1240 C.3   1 <1>  -0.0970 
 20 H       -0.5510     3.0220     1.5060 H     1 <1>   0.0800 
 21 H       -0.5590     3.0150    -1.5150 H     1 <1>   0.0800 
 22 H        0.8460     2.7330    -0.5440 H     1 <1>   0.0800 
 23 H       -1.8270     4.9930     1.6110 H     1 <1>   0.0800 
 24 H       -3.1810     5.1640     0.5210 H     1 <1>   0.0800 
 25 H       -1.1680     6.4770    -0.2160 H     1 <1>   0.0800 
 26 H       -1.7230     5.3380    -1.4030 H     1 <1>   0.0800 
 27 H        2.2770     3.7050    -0.3250 H     1 <1>   0.4570 
 28 H        4.4900     4.6930    -0.1830 H     1 <1>   0.1500 
 29 H        1.1030     8.9260    -1.8210 H     1 <1>   0.0800 
 30 H        1.9140    10.3980    -1.3420 H     1 <1>   0.0800 
 31 H        0.5600     9.7950    -0.4020 H     1 <1>   0.0800 
 32 H        3.3160     8.8270     1.7660 H     1 <1>   0.0800 
 33 H        2.1610    10.0980     1.4680 H     1 <1>   0.0800 
 34 H        3.7200    10.1370     0.6690 H     1 <1>   0.0800 
 35 H        4.9960     8.2100    -0.8200 H     1 <1>   0.0800 
 36 H        5.8050     6.7300    -0.3900 H     1 <1>   0.0800 
 37 H        5.1870     7.7730     0.8620 H     1 <1>   0.0800 
@<TRIPOS>BOND
  1   1   2  ar  
  2   2   3  ar  
  3   2   4  1   
  4   4   5  1   
  5   4   6  1   
  6   4  20  1   
  7   5   7  1   
  8   6   8  1   
  9   6  21  1   
 10   6  22  1   
 11   7   9  1   
 12   7  23  1   
 13   7  24  1   
 14   8   9  1   
 15   8  10  1   
 16   9  25  1   
 17   9  26  1   
 18  10  11  ar  
 19  10  12  ar  
 20  11  13  ar  
 21  12  14  ar  
 22  12  27  1   
 23  13  15  1   
 24  13  16  ar  
 25  14  16  ar  
 26  14  28  1   
 27  15  17  1   
 28  15  18  1   
 29  16  19  1   
 30  17  29  1   
 31  17  30  1   
 32  17  31  1   
 33  18  32  1   
 34  18  33  1   
 35  18  34  1   
 36  19  35  1   
 37  19  36  1   
 38  19  37  1   
@<TRIPOS>SUBSTRUCTURE
  1 ****  10 GROUP 4 **** **** 0

# MOE 2024.06 (io_trps.svl 2023.06)
