@<TRIPOS>MOLECULE
NONAME
48 50 1 0 0 
SMALL
USER_CHARGES


@<TRIPOS>ATOM
  1 O       -0.4010     0.9330    -0.7820 O.2   1 <1>  -0.5700 
  2 C       -0.4800     2.1040    -0.4940 C.2   1 <1>   0.5690 
  3 N       -1.6280     2.6970    -0.0290 N.am  1 <1>  -0.6600 
  4 C        0.7790     2.9460    -0.6870 C.3   1 <1>   0.1810 
  5 C       -1.6420     4.1580     0.3310 C.3   1 <1>   0.3640 
  6 C       -2.8550     1.9490     0.3700 C.3   1 <1>   0.2200 
  7 O        0.8150     4.0740     0.1490 O.3   1 <1>  -0.5600 
  8 C       -2.7870     4.8590    -0.4060 C.ar  1 <1>  -0.1440 
  9 C       -0.3190     4.9130     0.0200 C.3   1 <1>   0.2610 
 10 C       -2.5460     1.0030     1.5290 C.3   1 <1>  -0.2400 
 11 C       -3.4720     1.2130    -0.8210 C.3   1 <1>  -0.2400 
 12 C       -2.9890     4.6680    -1.7680 C.ar  1 <1>  -0.1500 
 13 C       -3.6390     5.7090     0.2850 C.ar  1 <1>  -0.1500 
 14 C       -0.1490     6.1800     0.8840 C.2   1 <1>   0.5690 
 15 C       -4.0220     5.3140    -2.4240 C.ar  1 <1>  -0.1500 
 16 C       -4.6720     6.3560    -0.3690 C.ar  1 <1>  -0.1500 
 17 O       -0.9190     6.3730     1.7990 O.2   1 <1>  -0.5700 
 18 N        0.8580     7.0820     0.6260 N.am  1 <1>  -0.6600 
 19 C       -4.8640     6.1590    -1.7250 C.ar  1 <1>  -0.1500 
 20 C        1.1250     8.2360     1.5670 C.3   1 <1>   0.2010 
 21 C        1.9390     6.8990    -0.3910 C.3   1 <1>   0.1400 
 22 C        2.5940     8.3550     1.9940 C.2   1 <1>   0.5690 
 23 C        3.2850     6.6220     0.3030 C.3   1 <1>   0.1400 
 24 O        2.9000     9.1140     2.8790 O.2   1 <1>  -0.5700 
 25 N        3.5520     7.6210     1.3700 N.am  1 <1>  -0.7300 
 26 H        0.8430     3.2690    -1.7090 H     1 <1>   0.0800 
 27 H        1.6410     2.3450    -0.4580 H     1 <1>   0.0800 
 28 H       -1.8250     4.2110     1.3900 H     1 <1>   0.0800 
 29 H       -3.5920     2.6530     0.7210 H     1 <1>   0.0800 
 30 H       -0.3560     5.2350    -1.0040 H     1 <1>   0.0800 
 31 H       -1.8750     0.2220     1.2200 H     1 <1>   0.0800 
 32 H       -3.4530     0.5450     1.8770 H     1 <1>   0.0800 
 33 H       -2.1050     1.5470     2.3450 H     1 <1>   0.0800 
 34 H       -2.8300     0.4260    -1.1680 H     1 <1>   0.0800 
 35 H       -3.6620     1.8990    -1.6250 H     1 <1>   0.0800 
 36 H       -4.4070     0.7740    -0.5260 H     1 <1>   0.0800 
 37 H       -2.3470     4.0070    -2.3240 H     1 <1>   0.1500 
 38 H       -3.4990     5.8790     1.3400 H     1 <1>   0.1500 
 39 H       -4.1730     5.1570    -3.4780 H     1 <1>   0.1500 
 40 H       -5.3250     7.0140     0.1770 H     1 <1>   0.1500 
 41 H       -5.6680     6.6620    -2.2330 H     1 <1>   0.1500 
 42 H        0.8400     9.1510     1.0820 H     1 <1>   0.0800 
 43 H        0.5330     8.1410     2.4590 H     1 <1>   0.0800 
 44 H        1.7160     6.0960    -1.0670 H     1 <1>   0.0800 
 45 H        2.0240     7.7980    -0.9760 H     1 <1>   0.0800 
 46 H        4.0770     6.6540    -0.4250 H     1 <1>   0.0800 
 47 H        3.2640     5.6360     0.7380 H     1 <1>   0.0800 
 48 H        4.5020     7.6930     1.7420 H     1 <1>   0.3700 
@<TRIPOS>BOND
  1   1   2  2   
  2   2   3  am  
  3   2   4  1   
  4   3   5  1   
  5   3   6  1   
  6   4   7  1   
  7   4  26  1   
  8   4  27  1   
  9   5   8  1   
 10   5   9  1   
 11   5  28  1   
 12   6  10  1   
 13   6  11  1   
 14   6  29  1   
 15   7   9  1   
 16   8  12  ar  
 17   8  13  ar  
 18   9  14  1   
 19   9  30  1   
 20  10  31  1   
 21  10  32  1   
 22  10  33  1   
 23  11  34  1   
 24  11  35  1   
 25  11  36  1   
 26  12  15  ar  
 27  12  37  1   
 28  13  16  ar  
 29  13  38  1   
 30  14  17  2   
 31  14  18  am  
 32  15  19  ar  
 33  15  39  1   
 34  16  19  ar  
 35  16  40  1   
 36  18  20  1   
 37  18  21  1   
 38  19  41  1   
 39  20  22  1   
 40  20  42  1   
 41  20  43  1   
 42  21  23  1   
 43  21  44  1   
 44  21  45  1   
 45  22  24  2   
 46  22  25  am  
 47  23  25  1   
 48  23  46  1   
 49  23  47  1   
 50  25  48  1   
@<TRIPOS>SUBSTRUCTURE
  1 ****   9 GROUP 4 **** **** 0

# MOE 2024.06 (io_trps.svl 2023.06)
