@<TRIPOS>MOLECULE
NONAME
43 45 1 0 0 
SMALL
USER_CHARGES


@<TRIPOS>ATOM
  1 O        4.1490    -1.3720    -1.8950 O.2   1 <1>  -0.5700 
  2 C        3.2100    -1.3550    -1.1210 C.2   1 <1>   0.5440 
  3 N        3.0620    -0.2130    -0.3790 N.am  1 <1>  -0.6600 
  4 C        2.3340    -2.5000    -0.9510 C.ar  1 <1>   0.0860 
  5 C        3.7320    -0.1750     0.9680 C.3   1 <1>   0.2200 
  6 C        2.8210     1.0690    -1.1110 C.3   1 <1>   0.1400 
  7 C        1.2050    -2.4750    -0.1460 C.ar  1 <1>  -0.1500 
  8 C        2.5650    -3.7140    -1.5860 C.ar  1 <1>  -0.1500 
  9 C        3.1210     0.8730     1.9120 C.3   1 <1>   0.1200 
 10 C        5.2640     0.0350     0.8330 C.3   1 <1>   0.3430 
 11 C        3.7170     2.2460    -0.6840 C.3   1 <1>  -0.0800 
 12 C        0.4120    -3.5980    -0.0050 C.ar  1 <1>   0.3920 
 13 C        1.7130    -4.7830    -1.3870 C.ar  1 <1>   0.1600 
 14 O        3.7320     2.1150     1.7300 O.3   1 <1>  -0.5600 
 15 N        5.6650     0.5800    -0.5100 N.4   1 <1>  -0.9590 
 16 C        3.2740     2.8610     0.6530 C.3   1 <1>   0.1200 
 17 C        5.2400     1.9960    -0.7440 C.3   1 <1>   0.3430 
 18 O       -0.6620    -3.4850     0.8040 O.3   1 <1>  -0.3620 
 19 N        0.6460    -4.7570    -0.6090 N.ar  1 <1>  -0.6200 
 20 C        7.1180     0.3880    -0.7720 C.3   1 <1>   0.2630 
 21 C       -1.5440    -4.5750     0.9970 C.3   1 <1>   0.0400 
 22 H        3.5740    -1.1310     1.4370 H     1 <1>   0.0800 
 23 H        2.9590     0.8980    -2.1670 H     1 <1>   0.0800 
 24 H        1.7880     1.3440    -0.9770 H     1 <1>   0.0800 
 25 H        0.9220    -1.5850     0.3810 H     1 <1>   0.1500 
 26 H        3.4120    -3.8250    -2.2390 H     1 <1>   0.1500 
 27 H        3.3160     0.5860     2.9310 H     1 <1>   0.0800 
 28 H        2.0550     0.9570     1.7860 H     1 <1>   0.0800 
 29 H        5.7380    -0.9220     0.9750 H     1 <1>   0.0800 
 30 H        5.6110     0.6860     1.6180 H     1 <1>   0.0800 
 31 H        3.5250     3.0220    -1.4040 H     1 <1>   0.0800 
 32 H        1.9190    -5.7110    -1.8940 H     1 <1>   0.1500 
 33 H        5.1310    -0.0110    -1.1890 H     1 <1>   0.4500 
 34 H        2.2020     2.9520     0.7170 H     1 <1>   0.0800 
 35 H        3.6960     3.8460     0.7590 H     1 <1>   0.0800 
 36 H        5.7260     2.6400    -0.0290 H     1 <1>   0.0800 
 37 H        5.5800     2.2880    -1.7240 H     1 <1>   0.0800 
 38 H        7.7050     0.9620    -0.0730 H     1 <1>   0.0800 
 39 H        7.3610     0.7060    -1.7730 H     1 <1>   0.0800 
 40 H        7.3790    -0.6530    -0.6740 H     1 <1>   0.0800 
 41 H       -2.3230    -4.2650     1.6690 H     1 <1>   0.0800 
 42 H       -0.9940    -5.3970     1.4200 H     1 <1>   0.0800 
 43 H       -1.9640    -4.8550     0.0470 H     1 <1>   0.0800 
@<TRIPOS>BOND
  1   1   2  2   
  2   2   3  am  
  3   2   4  1   
  4   3   5  1   
  5   3   6  1   
  6   4   7  ar  
  7   4   8  ar  
  8   5   9  1   
  9   5  10  1   
 10   5  22  1   
 11   6  11  1   
 12   6  23  1   
 13   6  24  1   
 14   7  12  ar  
 15   7  25  1   
 16   8  13  ar  
 17   8  26  1   
 18   9  14  1   
 19   9  27  1   
 20   9  28  1   
 21  10  15  1   
 22  10  29  1   
 23  10  30  1   
 24  11  16  1   
 25  11  17  1   
 26  11  31  1   
 27  12  18  1   
 28  12  19  ar  
 29  13  19  ar  
 30  13  32  1   
 31  14  16  1   
 32  15  17  1   
 33  15  20  1   
 34  15  33  1   
 35  16  34  1   
 36  16  35  1   
 37  17  36  1   
 38  17  37  1   
 39  18  21  1   
 40  20  38  1   
 41  20  39  1   
 42  20  40  1   
 43  21  41  1   
 44  21  42  1   
 45  21  43  1   
@<TRIPOS>SUBSTRUCTURE
  1 ****   3 GROUP 4 **** **** 0

# MOE 2024.06 (io_trps.svl 2023.06)
