@<TRIPOS>MOLECULE
NONAME
42 45 1 0 0 
SMALL
USER_CHARGES


@<TRIPOS>ATOM
  1 S       -0.5500    -0.2780     1.0230 S.3   1 <1>  -0.0800 
  2 C        0.6770    -1.0750     0.0300 C.2   1 <1>   0.4420 
  3 C        0.3960     1.1930     1.0000 C.ar  1 <1>   0.0400 
  4 N        1.6670    -0.3300    -0.2770 N.2   1 <1>  -0.5650 
  5 N        0.5530    -2.3840    -0.3630 N.am  1 <1>  -0.4940 
  6 C        1.5370     0.9530     0.2560 C.ar  1 <1>   0.2270 
  7 C        0.1010     2.4040     1.6030 C.ar  1 <1>  -0.1500 
  8 C       -0.4120    -3.3250    -0.1420 C.2   1 <1>   0.5690 
  9 C        2.4190     2.0260     0.1290 C.ar  1 <1>   0.1900 
 10 C        1.0040     3.4450     1.4520 C.ar  1 <1>  -0.1500 
 11 O       -1.4220    -3.1040     0.4750 O.2   1 <1>  -0.5700 
 12 C       -0.2000    -4.7110    -0.7380 C.3   1 <1>  -0.0190 
 13 F        3.5200     1.8770    -0.5610 F     1 <1>  -0.1900 
 14 C        2.1690     3.2570     0.7120 C.ar  1 <1>  -0.1500 
 15 C       -1.1150    -5.7880    -0.1320 C.3   1 <1>   0.1400 
 16 C        1.2310    -5.2660    -0.5860 C.3   1 <1>  -0.0990 
 17 N       -0.2880    -7.0130    -0.1670 N.am  1 <1>  -0.6600 
 18 C        1.0110    -6.7410    -0.4160 C.2   1 <1>   0.5690 
 19 C       -0.8000    -8.3620     0.1900 C.3   1 <1>   0.2200 
 20 O        1.9090    -7.5420    -0.4880 O.2   1 <1>  -0.5700 
 21 C       -2.0590    -8.7130    -0.6050 C.3   1 <1>  -0.1600 
 22 C       -1.2090    -8.4150     1.6680 C.3   1 <1>  -0.1600 
 23 C       -3.2400    -8.3690     0.3020 C.3   1 <1>  -0.1600 
 24 C       -2.7280    -8.6260     1.7160 C.3   1 <1>  -0.1600 
 25 H        1.3490    -2.6800    -0.9210 H     1 <1>   0.3700 
 26 H       -0.8060     2.5250     2.1700 H     1 <1>   0.1500 
 27 H        0.8060     4.4020     1.9070 H     1 <1>   0.1500 
 28 H       -0.4330    -4.6540    -1.7860 H     1 <1>   0.0800 
 29 H        2.8760     4.0590     0.5890 H     1 <1>   0.1500 
 30 H       -2.0090    -5.8990    -0.7190 H     1 <1>   0.0800 
 31 H       -1.3730    -5.5640     0.8890 H     1 <1>   0.0800 
 32 H        1.7100    -4.8970     0.3030 H     1 <1>   0.0800 
 33 H        1.8390    -5.0710    -1.4490 H     1 <1>   0.0800 
 34 H       -0.0300    -9.0910    -0.0080 H     1 <1>   0.0800 
 35 H       -2.0610    -9.7750    -0.7770 H     1 <1>   0.0800 
 36 H       -2.1000    -8.2130    -1.5560 H     1 <1>   0.0800 
 37 H       -0.9310    -7.5130     2.1830 H     1 <1>   0.0800 
 38 H       -0.7170    -9.2420     2.1480 H     1 <1>   0.0800 
 39 H       -4.1070    -8.9660     0.0750 H     1 <1>   0.0800 
 40 H       -3.4980    -7.3310     0.1970 H     1 <1>   0.0800 
 41 H       -3.1990    -7.9750     2.4320 H     1 <1>   0.0800 
 42 H       -2.9350    -9.6470     1.9880 H     1 <1>   0.0800 
@<TRIPOS>BOND
  1   1   2  1   
  2   1   3  1   
  3   2   4  2   
  4   2   5  1   
  5   3   6  ar  
  6   3   7  ar  
  7   4   6  1   
  8   5   8  am  
  9   5  25  1   
 10   6   9  ar  
 11   7  10  ar  
 12   7  26  1   
 13   8  11  2   
 14   8  12  1   
 15   9  13  1   
 16   9  14  ar  
 17  10  14  ar  
 18  10  27  1   
 19  12  15  1   
 20  12  16  1   
 21  12  28  1   
 22  14  29  1   
 23  15  17  1   
 24  15  30  1   
 25  15  31  1   
 26  16  18  1   
 27  16  32  1   
 28  16  33  1   
 29  17  18  am  
 30  17  19  1   
 31  18  20  2   
 32  19  21  1   
 33  19  22  1   
 34  19  34  1   
 35  21  23  1   
 36  21  35  1   
 37  21  36  1   
 38  22  24  1   
 39  22  37  1   
 40  22  38  1   
 41  23  24  1   
 42  23  39  1   
 43  23  40  1   
 44  24  41  1   
 45  24  42  1   
@<TRIPOS>SUBSTRUCTURE
  1 ****   8 GROUP 4 **** **** 0

# MOE 2024.06 (io_trps.svl 2023.06)
