@<TRIPOS>MOLECULE
NONAME
43 45 1 0 0 
SMALL
USER_CHARGES


@<TRIPOS>ATOM
  1 O        1.5370     0.4120    -1.2250 O.3   1 <1>  -0.6800 
  2 C        1.5320     0.1520     0.1320 C.3   1 <1>   0.2800 
  3 C        2.9990     0.1160     0.6320 C.3   1 <1>  -0.0800 
  4 C        0.8760    -1.2230     0.3450 C.3   1 <1>  -0.1600 
  5 C        0.6790     1.2490     0.8070 C.3   1 <1>  -0.1600 
  6 C        3.7310    -1.2330     0.4630 C.3   1 <1>  -0.0800 
  7 C        3.9040     1.1210    -0.0680 C.3   1 <1>   0.3430 
  8 C        1.6040    -2.3980    -0.3410 C.3   1 <1>  -0.1600 
  9 C        1.1560     2.7010     0.6280 C.3   1 <1>  -0.2400 
 10 C        3.0940    -2.1320    -0.6100 C.3   1 <1>  -0.1600 
 11 C        5.1730    -0.8860     0.0820 C.3   1 <1>   0.3430 
 12 N        5.2830     0.5980     0.1320 N.4   1 <1>  -0.9590 
 13 C        6.2600     1.1520    -0.8450 C.3   1 <1>   0.4860 
 14 C        6.3640     2.6470    -0.6520 C.ar  1 <1>  -0.1440 
 15 C        5.6680     3.5250    -1.4520 C.ar  1 <1>   0.1600 
 16 C        7.1540     3.1920     0.3350 C.ar  1 <1>   0.1600 
 17 N        5.7280     4.8240    -1.2780 N.ar  1 <1>  -0.6200 
 18 N        7.2320     4.4870     0.5290 N.ar  1 <1>  -0.6200 
 19 C        6.5130     5.2340    -0.2930 C.ar  1 <1>   0.4700 
 20 H        0.6220     0.3530    -1.5650 H     1 <1>   0.4000 
 21 H        2.9960     0.3490     1.6830 H     1 <1>   0.0800 
 22 H        0.8610    -1.4170     1.4030 H     1 <1>   0.0800 
 23 H       -0.1520    -1.2040     0.0250 H     1 <1>   0.0800 
 24 H       -0.3280     1.1800     0.4300 H     1 <1>   0.0800 
 25 H        0.6210     1.0440     1.8620 H     1 <1>   0.0800 
 26 H        3.7250    -1.7670     1.3980 H     1 <1>   0.0800 
 27 H        3.7920     2.1140     0.3350 H     1 <1>   0.0800 
 28 H        3.6730     1.1380    -1.1200 H     1 <1>   0.0800 
 29 H        1.4980    -3.2740     0.2760 H     1 <1>   0.0800 
 30 H        1.1230    -2.6130    -1.2800 H     1 <1>   0.0800 
 31 H        1.3070     2.9350    -0.4110 H     1 <1>   0.0800 
 32 H        2.0650     2.8840     1.1720 H     1 <1>   0.0800 
 33 H        0.4090     3.3740     1.0130 H     1 <1>   0.0800 
 34 H        3.1820    -1.6540    -1.5720 H     1 <1>   0.0800 
 35 H        3.6140    -3.0740    -0.6710 H     1 <1>   0.0800 
 36 H        5.3660    -1.2360    -0.9200 H     1 <1>   0.0800 
 37 H        5.8740    -1.3510     0.7560 H     1 <1>   0.0800 
 38 H        5.5680     0.8690     1.0810 H     1 <1>   0.4500 
 39 H        7.2290     0.7030    -0.6940 H     1 <1>   0.0800 
 40 H        5.9390     0.9350    -1.8510 H     1 <1>   0.0800 
 41 H        5.0420     3.1680    -2.2550 H     1 <1>   0.1500 
 42 H        7.7400     2.5650     0.9870 H     1 <1>   0.1500 
 43 H        6.5720     6.3010    -0.1440 H     1 <1>   0.1500 
@<TRIPOS>BOND
  1   1   2  1   
  2   1  20  1   
  3   2   3  1   
  4   2   4  1   
  5   2   5  1   
  6   3   6  1   
  7   3   7  1   
  8   3  21  1   
  9   4   8  1   
 10   4  22  1   
 11   4  23  1   
 12   5   9  1   
 13   5  24  1   
 14   5  25  1   
 15   6  10  1   
 16   6  11  1   
 17   6  26  1   
 18   7  12  1   
 19   7  27  1   
 20   7  28  1   
 21   8  10  1   
 22   8  29  1   
 23   8  30  1   
 24   9  31  1   
 25   9  32  1   
 26   9  33  1   
 27  10  34  1   
 28  10  35  1   
 29  11  12  1   
 30  11  36  1   
 31  11  37  1   
 32  12  13  1   
 33  12  38  1   
 34  13  14  1   
 35  13  39  1   
 36  13  40  1   
 37  14  15  ar  
 38  14  16  ar  
 39  15  17  ar  
 40  15  41  1   
 41  16  18  ar  
 42  16  42  1   
 43  17  19  ar  
 44  18  19  ar  
 45  19  43  1   
@<TRIPOS>SUBSTRUCTURE
  1 ****   7 GROUP 4 **** **** 0

# MOE 2024.06 (io_trps.svl 2023.06)
