@<TRIPOS>MOLECULE
NONAME
44 46 1 0 0 
SMALL
USER_CHARGES


@<TRIPOS>ATOM
  1 O        0.2390     0.3170    -0.0090 O.2   1 <1>  -0.5700 
  2 C       -0.2890     1.3310     0.3830 C.2   1 <1>   0.5690 
  3 N       -1.6580     1.4710     0.4020 N.am  1 <1>  -0.6600 
  4 C        0.6420     2.4490     0.8680 C.3   1 <1>   0.2010 
  5 C       -2.3890     2.7130     0.8180 C.3   1 <1>   0.1400 
  6 C       -2.5560     0.3340     0.0450 C.3   1 <1>   0.1400 
  7 N        0.7580     3.5860    -0.0990 N.am  1 <1>  -0.7300 
  8 C       -3.3900     3.1760    -0.2600 C.3   1 <1>   0.1430 
  9 C       -3.5540     0.7590    -1.0380 C.3   1 <1>  -0.1600 
 10 C        0.7190     4.9150     0.1320 C.2   1 <1>   0.5690 
 11 C       -4.1420     4.3790     0.2790 C.ar  1 <1>   0.1670 
 12 C       -4.3390     2.0150    -0.6240 C.3   1 <1>  -0.1600 
 13 C       -2.6750     3.7510    -1.5140 C.3   1 <1>  -0.1600 
 14 O        0.7460     5.6840    -0.7920 O.2   1 <1>  -0.5700 
 15 C        0.6280     5.4580     1.5360 C.3   1 <1>  -0.1790 
 16 N       -5.0120     4.3510     1.2650 N.ar  1 <1>  -0.6200 
 17 C       -3.7950     5.5260    -0.3670 C.ar  1 <1>  -0.1440 
 18 C       -2.7610     5.2870    -1.4370 C.3   1 <1>  -0.0170 
 19 C       -5.5360     5.5310     1.5670 C.ar  1 <1>   0.4770 
 20 C       -4.3960     6.6940     0.0310 C.ar  1 <1>   0.1600 
 21 N       -5.2790     6.7060     1.0090 N.ar  1 <1>  -0.6200 
 22 C       -6.5510     5.5450     2.6840 C.3   1 <1>  -0.0970 
 23 H        1.6200     2.0260     1.0140 H     1 <1>   0.0800 
 24 H        0.2940     2.7990     1.8220 H     1 <1>   0.0800 
 25 H       -1.7090     3.5170     1.0250 H     1 <1>   0.0800 
 26 H       -2.9300     2.5030     1.7250 H     1 <1>   0.0800 
 27 H       -3.0900     0.0230     0.9270 H     1 <1>   0.0800 
 28 H       -1.9850    -0.5080    -0.3080 H     1 <1>   0.0800 
 29 H        0.8730     3.3080    -1.0770 H     1 <1>   0.3700 
 30 H       -4.2410    -0.0490    -1.2180 H     1 <1>   0.0800 
 31 H       -3.0180     0.9370    -1.9540 H     1 <1>   0.0800 
 32 H       -5.0050     2.3160    -1.4140 H     1 <1>   0.0800 
 33 H       -4.9450     1.7780     0.2330 H     1 <1>   0.0800 
 34 H       -3.1890     3.4350    -2.4040 H     1 <1>   0.0800 
 35 H       -1.6540     3.4220    -1.5890 H     1 <1>   0.0800 
 36 H        1.3890     5.0170     2.1520 H     1 <1>   0.0800 
 37 H       -0.3410     5.2510     1.9480 H     1 <1>   0.0800 
 38 H        0.7740     6.5230     1.5190 H     1 <1>   0.0800 
 39 H       -3.0630     5.7110    -2.3790 H     1 <1>   0.0800 
 40 H       -1.8220     5.7120    -1.1360 H     1 <1>   0.0800 
 41 H       -4.1520     7.6250    -0.4500 H     1 <1>   0.1500 
 42 H       -6.5200     4.6220     3.2330 H     1 <1>   0.0800 
 43 H       -7.5320     5.6740     2.2680 H     1 <1>   0.0800 
 44 H       -6.3420     6.3580     3.3530 H     1 <1>   0.0800 
@<TRIPOS>BOND
  1   1   2  2   
  2   2   3  am  
  3   2   4  1   
  4   3   5  1   
  5   3   6  1   
  6   4   7  1   
  7   4  23  1   
  8   4  24  1   
  9   5   8  1   
 10   5  25  1   
 11   5  26  1   
 12   6   9  1   
 13   6  27  1   
 14   6  28  1   
 15   7  10  am  
 16   7  29  1   
 17   8  11  1   
 18   8  12  1   
 19   8  13  1   
 20   9  12  1   
 21   9  30  1   
 22   9  31  1   
 23  10  14  2   
 24  10  15  1   
 25  11  16  ar  
 26  11  17  ar  
 27  12  32  1   
 28  12  33  1   
 29  13  18  1   
 30  13  34  1   
 31  13  35  1   
 32  15  36  1   
 33  15  37  1   
 34  15  38  1   
 35  16  19  ar  
 36  17  18  1   
 37  17  20  ar  
 38  18  39  1   
 39  18  40  1   
 40  19  21  ar  
 41  19  22  1   
 42  20  21  ar  
 43  20  41  1   
 44  22  42  1   
 45  22  43  1   
 46  22  44  1   
@<TRIPOS>SUBSTRUCTURE
  1 ****   8 GROUP 4 **** **** 0

# MOE 2024.06 (io_trps.svl 2023.06)
