@<TRIPOS>MOLECULE
NONAME
43 45 1 0 0 
SMALL
USER_CHARGES


@<TRIPOS>ATOM
  1 O        0.7690    -0.4070    -0.7970 O.co2 1 <1>  -0.9000 
  2 C        1.9920    -0.3920    -0.9100 C.2   1 <1>   0.9060 
  3 O        2.6200    -1.0830    -1.7210 O.co2 1 <1>  -0.9000 
  4 C        2.7850     0.4960     0.0220 C.3   1 <1>  -0.1860 
  5 C        3.8330    -0.3440     0.7580 C.3   1 <1>   0.2000 
  6 C        3.4100     1.7130    -0.7070 C.3   1 <1>  -0.1600 
  7 O        4.7140    -0.8690    -0.1740 O.3   1 <1>  -0.6800 
  8 C        4.6330     0.5290     1.7430 C.3   1 <1>   0.3430 
  9 C        4.8350     2.0340    -0.2500 C.3   1 <1>   0.3430 
 10 N        4.9330     1.9260     1.2400 N.4   1 <1>  -0.9590 
 11 C        6.2480     2.3940     1.7450 C.3   1 <1>   0.4860 
 12 C        6.4010     3.8730     1.4450 C.ar  1 <1>  -0.1440 
 13 C        7.1200     4.3180     0.3060 C.ar  1 <1>   0.0000 
 14 C        5.8180     4.7710     2.2990 C.ar  1 <1>  -0.1500 
 15 C        7.1860     5.7110     0.0470 C.ar  1 <1>   0.0000 
 16 C        7.7760     3.4410    -0.5940 C.ar  1 <1>  -0.1500 
 17 C        5.9040     6.1410     2.0520 C.ar  1 <1>  -0.1500 
 18 C        6.5660     6.6100     0.9520 C.ar  1 <1>  -0.1440 
 19 C        7.8740     6.1430    -1.1100 C.ar  1 <1>  -0.1500 
 20 C        8.4360     3.8980    -1.6990 C.ar  1 <1>  -0.1500 
 21 C        6.6290     8.1150     0.7220 C.3   1 <1>  -0.0970 
 22 C        8.4820     5.2670    -1.9630 C.ar  1 <1>  -0.1500 
 23 H        2.0900     0.8630     0.7550 H     1 <1>   0.0800 
 24 H        3.3710    -1.1740     1.2650 H     1 <1>   0.0800 
 25 H        2.7770     2.5740    -0.5800 H     1 <1>   0.0800 
 26 H        3.4490     1.5110    -1.7640 H     1 <1>   0.0800 
 27 H        4.1390    -1.1790    -0.9430 H     1 <1>   0.4000 
 28 H        5.5480     0.0060     1.9630 H     1 <1>   0.0800 
 29 H        4.0690     0.6060     2.6570 H     1 <1>   0.0800 
 30 H        5.1000     3.0250    -0.5830 H     1 <1>   0.0800 
 31 H        5.5140     1.3300    -0.7050 H     1 <1>   0.0800 
 32 H        4.2130     2.5630     1.5990 H     1 <1>   0.4500 
 33 H        6.2940     2.2530     2.8130 H     1 <1>   0.0800 
 34 H        7.0460     1.8240     1.3030 H     1 <1>   0.0800 
 35 H        5.2810     4.4560     3.1770 H     1 <1>   0.1500 
 36 H        7.7720     2.3820    -0.4250 H     1 <1>   0.1500 
 37 H        5.4370     6.8180     2.7480 H     1 <1>   0.1500 
 38 H        7.9270     7.1930    -1.3310 H     1 <1>   0.1500 
 39 H        8.9280     3.2220    -2.3770 H     1 <1>   0.1500 
 40 H        6.1200     8.6500     1.5040 H     1 <1>   0.0800 
 41 H        6.1620     8.3670    -0.2130 H     1 <1>   0.0800 
 42 H        7.6530     8.4430     0.7050 H     1 <1>   0.0800 
 43 H        9.0030     5.6160    -2.8380 H     1 <1>   0.1500 
@<TRIPOS>BOND
  1   1   2  ar  
  2   2   3  ar  
  3   2   4  1   
  4   4   5  1   
  5   4   6  1   
  6   4  23  1   
  7   5   7  1   
  8   5   8  1   
  9   5  24  1   
 10   6   9  1   
 11   6  25  1   
 12   6  26  1   
 13   7  27  1   
 14   8  10  1   
 15   8  28  1   
 16   8  29  1   
 17   9  10  1   
 18   9  30  1   
 19   9  31  1   
 20  10  11  1   
 21  10  32  1   
 22  11  12  1   
 23  11  33  1   
 24  11  34  1   
 25  12  13  ar  
 26  12  14  ar  
 27  13  15  ar  
 28  13  16  ar  
 29  14  17  ar  
 30  14  35  1   
 31  15  18  ar  
 32  15  19  ar  
 33  16  20  ar  
 34  16  36  1   
 35  17  18  ar  
 36  17  37  1   
 37  18  21  1   
 38  19  22  ar  
 39  19  38  1   
 40  20  22  ar  
 41  20  39  1   
 42  21  40  1   
 43  21  41  1   
 44  21  42  1   
 45  22  43  1   
@<TRIPOS>SUBSTRUCTURE
  1 ****   9 GROUP 4 **** **** 0

# MOE 2024.06 (io_trps.svl 2023.06)
