@<TRIPOS>MOLECULE
NONAME
51 53 1 0 0 
SMALL
USER_CHARGES


@<TRIPOS>ATOM
  1 F       -2.0890     1.0850     0.4770 F     1 <1>  -0.1900 
  2 C       -2.8440     0.1160     0.0230 C.ar  1 <1>   0.1900 
  3 C       -3.0600    -1.0570     0.7530 C.ar  1 <1>   0.0820 
  4 C       -3.4190     0.3170    -1.2180 C.ar  1 <1>  -0.1500 
  5 O       -2.5550    -1.3740     1.9780 O.3   1 <1>  -0.3630 
  6 C       -3.8800    -2.0220     0.1910 C.ar  1 <1>  -0.1500 
  7 C       -4.2390    -0.6610    -1.7540 C.ar  1 <1>  -0.1500 
  8 C       -1.6390    -0.5500     2.6660 C.3   1 <1>   0.0400 
  9 C       -4.4830    -1.8330    -1.0470 C.ar  1 <1>  -0.1430 
 10 C       -5.3930    -2.9090    -1.6250 C.3   1 <1>   0.4870 
 11 N       -6.8050    -2.7470    -1.1570 N.4   1 <1>  -0.9590 
 12 C       -7.3720    -1.4250    -1.5530 C.3   1 <1>   0.3430 
 13 C       -6.9210    -2.9200     0.3210 C.3   1 <1>   0.3430 
 14 C       -8.8530    -1.3700    -1.1970 C.3   1 <1>  -0.1600 
 15 C       -8.3910    -2.9070     0.7250 C.3   1 <1>  -0.1600 
 16 C       -9.0710    -1.5950     0.3090 C.3   1 <1>   0.2800 
 17 O       -8.3460    -0.5700     0.9480 O.3   1 <1>  -0.5600 
 18 C      -10.5740    -1.6190     0.7200 C.3   1 <1>   0.2000 
 19 C       -9.0160     0.3070     1.8120 C.3   1 <1>   0.1200 
 20 O      -11.2910    -2.5340    -0.0580 O.3   1 <1>  -0.6800 
 21 C      -11.2510    -0.2150     0.7480 C.3   1 <1>   0.2800 
 22 C      -10.2340     0.8870     1.0900 C.3   1 <1>  -0.1600 
 23 O      -12.1740    -0.2520     1.7740 O.3   1 <1>  -0.6800 
 24 C      -12.0590     0.1640    -0.5020 C.3   1 <1>  -0.2400 
 25 H       -3.2210     1.2300    -1.7530 H     1 <1>   0.1500 
 26 H       -4.0320    -2.9290     0.7490 H     1 <1>   0.1500 
 27 H       -4.6760    -0.4960    -2.7240 H     1 <1>   0.1500 
 28 H       -1.3650    -1.0450     3.5810 H     1 <1>   0.0800 
 29 H       -2.1110     0.3900     2.8900 H     1 <1>   0.0800 
 30 H       -0.7660    -0.4070     2.0540 H     1 <1>   0.0800 
 31 H       -5.0230    -3.8780    -1.3310 H     1 <1>   0.0800 
 32 H       -5.3600    -2.8570    -2.7010 H     1 <1>   0.0800 
 33 H       -7.3780    -3.4760    -1.5980 H     1 <1>   0.4500 
 34 H       -6.8540    -0.6360    -1.0300 H     1 <1>   0.0800 
 35 H       -7.2500    -1.2700    -2.6130 H     1 <1>   0.0800 
 36 H       -6.4710    -3.8510     0.6250 H     1 <1>   0.0800 
 37 H       -6.4110    -2.1120     0.8240 H     1 <1>   0.0800 
 38 H       -9.3870    -2.1070    -1.7690 H     1 <1>   0.0800 
 39 H       -9.2360    -0.4070    -1.4770 H     1 <1>   0.0800 
 40 H       -8.4630    -3.0210     1.7910 H     1 <1>   0.0800 
 41 H       -8.8950    -3.7450     0.2780 H     1 <1>   0.0800 
 42 H      -10.6060    -2.0050     1.7250 H     1 <1>   0.0800 
 43 H       -9.3020    -0.2260     2.7040 H     1 <1>   0.0800 
 44 H       -8.3280     1.0900     2.0820 H     1 <1>   0.0800 
 45 H      -12.2210    -2.5420     0.2550 H     1 <1>   0.4000 
 46 H       -9.8810     1.3600     0.1920 H     1 <1>   0.0800 
 47 H      -10.6880     1.6520     1.6940 H     1 <1>   0.0800 
 48 H      -12.6990     0.5710     1.7780 H     1 <1>   0.4000 
 49 H      -11.4370     0.1400    -1.3760 H     1 <1>   0.0800 
 50 H      -12.4590     1.1580    -0.4090 H     1 <1>   0.0800 
 51 H      -12.8720    -0.5230    -0.6570 H     1 <1>   0.0800 
@<TRIPOS>BOND
  1   1   2  1   
  2   2   3  ar  
  3   2   4  ar  
  4   3   5  1   
  5   3   6  ar  
  6   4   7  ar  
  7   4  25  1   
  8   5   8  1   
  9   6   9  ar  
 10   6  26  1   
 11   7   9  ar  
 12   7  27  1   
 13   8  28  1   
 14   8  29  1   
 15   8  30  1   
 16   9  10  1   
 17  10  11  1   
 18  10  31  1   
 19  10  32  1   
 20  11  12  1   
 21  11  13  1   
 22  11  33  1   
 23  12  14  1   
 24  12  34  1   
 25  12  35  1   
 26  13  15  1   
 27  13  36  1   
 28  13  37  1   
 29  14  16  1   
 30  14  38  1   
 31  14  39  1   
 32  15  16  1   
 33  15  40  1   
 34  15  41  1   
 35  16  17  1   
 36  16  18  1   
 37  17  19  1   
 38  18  20  1   
 39  18  21  1   
 40  18  42  1   
 41  19  22  1   
 42  19  43  1   
 43  19  44  1   
 44  20  45  1   
 45  21  22  1   
 46  21  23  1   
 47  21  24  1   
 48  22  46  1   
 49  22  47  1   
 50  23  48  1   
 51  24  49  1   
 52  24  50  1   
 53  24  51  1   
@<TRIPOS>SUBSTRUCTURE
  1 ****  17 GROUP 4 **** **** 0

# MOE 2024.06 (io_trps.svl 2023.06)
