@<TRIPOS>MOLECULE
NONAME
58 62 1 0 0 
SMALL
USER_CHARGES


@<TRIPOS>ATOM
  1 O       -0.9700     3.8970     2.4380 O.2   1 <1>  -0.5700 
  2 C       -0.6840     3.4030     1.3710 C.2   1 <1>   0.5690 
  3 N       -1.6580     3.2120     0.4130 N.am  1 <1>  -0.6600 
  4 C        0.7990     3.0260     1.2010 C.3   1 <1>  -0.0190 
  5 C       -3.0820     3.5980     0.7330 C.3   1 <1>   0.1400 
  6 C       -1.4330     2.6690    -0.9630 C.3   1 <1>   0.1400 
  7 C        1.5150     3.6810    -0.0020 C.3   1 <1>  -0.1600 
  8 C        1.0530     1.5040     1.2730 C.3   1 <1>  -0.1600 
  9 C       -3.8400     4.1290    -0.4990 C.3   1 <1>   0.1440 
 10 C       -2.7100     2.0500    -1.5390 C.3   1 <1>  -0.1600 
 11 C        3.0160     3.3490    -0.0010 C.3   1 <1>  -0.1600 
 12 C        2.5560     1.1840     1.2450 C.3   1 <1>  -0.1600 
 13 C       -5.2290     4.5630    -0.0560 C.ar  1 <1>   0.1670 
 14 C       -3.8810     3.0480    -1.6130 C.3   1 <1>  -0.1600 
 15 C       -3.2230     5.4720    -0.9900 C.3   1 <1>  -0.1600 
 16 C        3.2390     1.8350     0.0380 C.3   1 <1>   0.2000 
 17 N       -6.2200     3.7600     0.2480 N.ar  1 <1>  -0.6200 
 18 C       -5.3340     5.9180     0.0170 C.ar  1 <1>  -0.1440 
 19 C       -4.0460     6.6050    -0.3550 C.3   1 <1>  -0.0170 
 20 O        4.5910     1.5990     0.1260 O.3   1 <1>  -0.6800 
 21 C       -7.3630     4.3500     0.6220 C.ar  1 <1>   0.6200 
 22 C       -6.5360     6.4480     0.4090 C.ar  1 <1>   0.1600 
 23 N       -7.5540     5.6740     0.7090 N.ar  1 <1>  -0.6200 
 24 C       -8.4850     3.4840     0.9610 C.ar  1 <1>   0.0000 
 25 C       -9.8100     3.8990     0.7910 C.ar  1 <1>  -0.1500 
 26 C       -8.2900     2.1970     1.4710 C.ar  1 <1>  -0.1500 
 27 C      -10.8770     3.0790     1.1110 C.ar  1 <1>  -0.1500 
 28 C       -9.3530     1.3710     1.7930 C.ar  1 <1>  -0.1500 
 29 C      -10.6510     1.8120     1.6130 C.ar  1 <1>  -0.1500 
 30 H        1.2840     3.4350     2.0710 H     1 <1>   0.0800 
 31 H       -3.1010     4.3520     1.5010 H     1 <1>   0.0800 
 32 H       -3.5960     2.7340     1.1170 H     1 <1>   0.0800 
 33 H       -0.6660     1.9200    -0.9510 H     1 <1>   0.0800 
 34 H       -1.1110     3.4710    -1.6050 H     1 <1>   0.0800 
 35 H        1.3830     4.7480     0.0430 H     1 <1>   0.0800 
 36 H        1.1010     3.3370    -0.9290 H     1 <1>   0.0800 
 37 H        0.5750     0.9990     0.4560 H     1 <1>   0.0800 
 38 H        0.6260     1.1190     2.1840 H     1 <1>   0.0800 
 39 H       -2.9880     1.2180    -0.9140 H     1 <1>   0.0800 
 40 H       -2.5110     1.6570    -2.5210 H     1 <1>   0.0800 
 41 H        3.4740     3.8060     0.8590 H     1 <1>   0.0800 
 42 H        3.4710     3.7540    -0.8880 H     1 <1>   0.0800 
 43 H        2.6930     0.1180     1.2010 H     1 <1>   0.0800 
 44 H        3.0050     1.5480     2.1530 H     1 <1>   0.0800 
 45 H       -3.9020     3.5120    -2.5820 H     1 <1>   0.0800 
 46 H       -4.7910     2.4790    -1.5320 H     1 <1>   0.0800 
 47 H       -3.3210     5.5560    -2.0580 H     1 <1>   0.0800 
 48 H       -2.1810     5.5670    -0.7420 H     1 <1>   0.0800 
 49 H        2.8870     1.3830    -0.8750 H     1 <1>   0.0800 
 50 H       -4.2080     7.4140    -1.0460 H     1 <1>   0.0800 
 51 H       -3.5630     6.9720     0.5340 H     1 <1>   0.0800 
 52 H        4.9430     1.9900     0.9470 H     1 <1>   0.4000 
 53 H       -6.6640     7.5140     0.4810 H     1 <1>   0.1500 
 54 H      -10.0050     4.8820     0.4010 H     1 <1>   0.1500 
 55 H       -7.2870     1.8370     1.6190 H     1 <1>   0.1500 
 56 H      -11.8850     3.4290     0.9690 H     1 <1>   0.1500 
 57 H       -9.1680     0.3860     2.1840 H     1 <1>   0.1500 
 58 H      -11.4790     1.1720     1.8630 H     1 <1>   0.1500 
@<TRIPOS>BOND
  1   1   2  2   
  2   2   3  am  
  3   2   4  1   
  4   3   5  1   
  5   3   6  1   
  6   4   7  1   
  7   4   8  1   
  8   4  30  1   
  9   5   9  1   
 10   5  31  1   
 11   5  32  1   
 12   6  10  1   
 13   6  33  1   
 14   6  34  1   
 15   7  11  1   
 16   7  35  1   
 17   7  36  1   
 18   8  12  1   
 19   8  37  1   
 20   8  38  1   
 21   9  13  1   
 22   9  14  1   
 23   9  15  1   
 24  10  14  1   
 25  10  39  1   
 26  10  40  1   
 27  11  16  1   
 28  11  41  1   
 29  11  42  1   
 30  12  16  1   
 31  12  43  1   
 32  12  44  1   
 33  13  17  ar  
 34  13  18  ar  
 35  14  45  1   
 36  14  46  1   
 37  15  19  1   
 38  15  47  1   
 39  15  48  1   
 40  16  20  1   
 41  16  49  1   
 42  17  21  ar  
 43  18  19  1   
 44  18  22  ar  
 45  19  50  1   
 46  19  51  1   
 47  20  52  1   
 48  21  23  ar  
 49  21  24  1   
 50  22  23  ar  
 51  22  53  1   
 52  24  25  ar  
 53  24  26  ar  
 54  25  27  ar  
 55  25  54  1   
 56  26  28  ar  
 57  26  55  1   
 58  27  29  ar  
 59  27  56  1   
 60  28  29  ar  
 61  28  57  1   
 62  29  58  1   
@<TRIPOS>SUBSTRUCTURE
  1 ****   5 GROUP 4 **** **** 0

# MOE 2024.06 (io_trps.svl 2023.06)
