@<TRIPOS>MOLECULE
NONAME
58 61 1 0 0 
SMALL
USER_CHARGES


@<TRIPOS>ATOM
  1 O       -0.9590     0.6140    -2.2410 O.2   1 <1>  -0.5700 
  2 C       -1.7850     1.1690    -1.5570 C.2   1 <1>   0.5690 
  3 N       -2.8520     0.4930    -1.0180 N.am  1 <1>  -0.6600 
  4 C       -1.6080     2.6580    -1.3010 C.3   1 <1>  -0.0990 
  5 C       -2.9860    -0.9950    -1.1770 C.3   1 <1>   0.1400 
  6 C       -4.0150     1.1390    -0.3480 C.3   1 <1>   0.1400 
  7 C       -0.2360     3.1940    -1.7410 C.3   1 <1>   0.0200 
  8 C       -3.1830    -1.7040     0.1870 C.3   1 <1>   0.0000 
  9 C       -4.2220     0.5110     1.0280 C.3   1 <1>  -0.1600 
 10 C       -0.1050     4.6650    -1.4060 C.2   1 <1>   0.2980 
 11 C       -4.3790    -1.0050     0.8880 C.3   1 <1>   0.2000 
 12 C       -3.6050    -3.1760    -0.0550 C.3   1 <1>   0.1200 
 13 C       -1.8830    -1.6140     1.0490 C.3   1 <1>  -0.0170 
 14 O       -0.7690     5.5350    -2.1200 O.3   1 <1>  -0.0190 
 15 N        0.5960     5.1490    -0.4680 N.2   1 <1>  -0.5650 
 16 O       -4.6090    -1.5290     2.1480 O.3   1 <1>  -0.6800 
 17 O       -2.7850    -3.8010    -0.9850 O.3   1 <1>  -0.6800 
 18 C       -0.7400    -2.5260     0.6130 C.ar  1 <1>  -0.1440 
 19 N       -0.4650     6.6760    -1.5880 N.2   1 <1>  -0.4100 
 20 C        0.3460     6.4550    -0.6130 C.2   1 <1>   0.4620 
 21 C       -0.5870    -3.7770     1.1950 C.ar  1 <1>  -0.1500 
 22 C        0.1570    -2.1230    -0.3630 C.ar  1 <1>  -0.1500 
 23 C        0.9330     7.4680     0.2500 C.ar  1 <1>   0.0540 
 24 C        0.4370    -4.6170     0.7930 C.ar  1 <1>  -0.1500 
 25 C        1.1810    -2.9620    -0.7670 C.ar  1 <1>  -0.1500 
 26 C        1.8130     7.1350     1.2820 C.ar  1 <1>  -0.1500 
 27 C        0.6400     8.8230     0.0790 C.ar  1 <1>  -0.1500 
 28 C        1.3200    -4.2110    -0.1900 C.ar  1 <1>  -0.1500 
 29 C        2.3690     8.1000     2.1020 C.ar  1 <1>  -0.1500 
 30 C        1.1920     9.7940     0.8950 C.ar  1 <1>  -0.1500 
 31 C        2.0600     9.4340     1.9100 C.ar  1 <1>  -0.1500 
 32 H       -2.3810     3.1880    -1.8260 H     1 <1>   0.0800 
 33 H       -1.7170     2.8410    -0.2480 H     1 <1>   0.0800 
 34 H       -3.8340    -1.1940    -1.8100 H     1 <1>   0.0800 
 35 H       -2.1250    -1.4010    -1.6780 H     1 <1>   0.0800 
 36 H       -3.8770     2.2000    -0.2410 H     1 <1>   0.0800 
 37 H       -4.8920     0.9830    -0.9540 H     1 <1>   0.0800 
 38 H       -0.1050     3.0610    -2.8010 H     1 <1>   0.0800 
 39 H        0.5430     2.6500    -1.2370 H     1 <1>   0.0800 
 40 H       -5.1150     0.9230     1.4650 H     1 <1>   0.0800 
 41 H       -3.3880     0.7580     1.6590 H     1 <1>   0.0800 
 42 H       -5.2720    -1.1960     0.3140 H     1 <1>   0.0800 
 43 H       -4.6070    -3.2250    -0.4440 H     1 <1>   0.0800 
 44 H       -3.5700    -3.7400     0.8610 H     1 <1>   0.0800 
 45 H       -1.5200    -0.6020     1.0580 H     1 <1>   0.0800 
 46 H       -2.1080    -1.8640     2.0690 H     1 <1>   0.0800 
 47 H       -3.9210    -1.2310     2.7730 H     1 <1>   0.4000 
 48 H       -1.8460    -3.7570    -0.6850 H     1 <1>   0.4000 
 49 H       -1.2650    -4.1080     1.9610 H     1 <1>   0.1500 
 50 H        0.0680    -1.1530    -0.8190 H     1 <1>   0.1500 
 51 H        0.5460    -5.5880     1.2450 H     1 <1>   0.1500 
 52 H        1.8670    -2.6390    -1.5310 H     1 <1>   0.1500 
 53 H        2.0660     6.1020     1.4460 H     1 <1>   0.1500 
 54 H       -0.0330     9.1220    -0.7060 H     1 <1>   0.1500 
 55 H        2.1150    -4.8640    -0.5060 H     1 <1>   0.1500 
 56 H        3.0440     7.8130     2.8900 H     1 <1>   0.1500 
 57 H        0.9480    10.8310     0.7400 H     1 <1>   0.1500 
 58 H        2.4910    10.1870     2.5460 H     1 <1>   0.1500 
@<TRIPOS>BOND
  1   1   2  2   
  2   2   3  am  
  3   2   4  1   
  4   3   5  1   
  5   3   6  1   
  6   4   7  1   
  7   4  32  1   
  8   4  33  1   
  9   5   8  1   
 10   5  34  1   
 11   5  35  1   
 12   6   9  1   
 13   6  36  1   
 14   6  37  1   
 15   7  10  1   
 16   7  38  1   
 17   7  39  1   
 18   8  11  1   
 19   8  12  1   
 20   8  13  1   
 21   9  11  1   
 22   9  40  1   
 23   9  41  1   
 24  10  14  1   
 25  10  15  2   
 26  11  16  1   
 27  11  42  1   
 28  12  17  1   
 29  12  43  1   
 30  12  44  1   
 31  13  18  1   
 32  13  45  1   
 33  13  46  1   
 34  14  19  1   
 35  15  20  1   
 36  16  47  1   
 37  17  48  1   
 38  18  21  ar  
 39  18  22  ar  
 40  19  20  2   
 41  20  23  1   
 42  21  24  ar  
 43  21  49  1   
 44  22  25  ar  
 45  22  50  1   
 46  23  26  ar  
 47  23  27  ar  
 48  24  28  ar  
 49  24  51  1   
 50  25  28  ar  
 51  25  52  1   
 52  26  29  ar  
 53  26  53  1   
 54  27  30  ar  
 55  27  54  1   
 56  28  55  1   
 57  29  31  ar  
 58  29  56  1   
 59  30  31  ar  
 60  30  57  1   
 61  31  58  1   
@<TRIPOS>SUBSTRUCTURE
  1 ****   4 GROUP 4 **** **** 0

# MOE 2024.06 (io_trps.svl 2023.06)
