@<TRIPOS>MOLECULE
NONAME
42 44 1 0 0 
SMALL
USER_CHARGES


@<TRIPOS>ATOM
  1 O       -0.3790     0.3840    -0.1160 O.2   1 <1>  -0.5700 
  2 C       -0.3200     1.5990    -0.1660 C.2   1 <1>   0.7160 
  3 N       -1.4960     2.3170    -0.2150 N.am  1 <1>  -0.6600 
  4 C        0.9700     2.2470    -0.1570 C.2   1 <1>  -0.0860 
  5 C       -2.7790     1.6220    -0.5240 C.3   1 <1>   0.1400 
  6 C       -1.5880     3.7370     0.2380 C.3   1 <1>   0.1400 
  7 C        1.3370     3.3920    -0.8700 C.2   1 <1>   0.1390 
  8 C        2.1160     1.9160     0.5020 C.2   1 <1>  -0.3020 
  9 C       -3.8320     2.6200    -1.0120 C.3   1 <1>  -0.1600 
 10 C       -2.9190     3.9600     0.9540 C.3   1 <1>  -0.1600 
 11 N        2.5650     3.7500    -0.6640 N.2   1 <1>  -0.7070 
 12 N        3.0480     2.8260     0.1860 N.pl3 1 <1>   0.3000 
 13 C       -4.1100     3.7640    -0.0060 C.3   1 <1>   0.2800 
 14 O       -4.2010     4.9180    -0.7970 O.3   1 <1>  -0.5600 
 15 C       -5.4170     3.5150     0.7920 C.3   1 <1>  -0.1600 
 16 C       -4.9290     6.0190    -0.3290 C.3   1 <1>   0.1200 
 17 C       -6.6620     4.1590     0.1660 C.3   1 <1>   0.2800 
 18 C       -6.4070     5.6800    -0.0470 C.3   1 <1>   0.2000 
 19 O       -6.8900     3.5720    -1.0630 O.3   1 <1>  -0.6800 
 20 C       -7.9210     3.8460     0.9860 C.3   1 <1>  -0.2400 
 21 O       -6.7860     6.4220     1.0780 O.3   1 <1>  -0.6800 
 22 H       -2.6080     0.8780    -1.2850 H     1 <1>   0.0800 
 23 H       -3.1270     1.1190     0.3620 H     1 <1>   0.0800 
 24 H       -0.7780     3.9640     0.9100 H     1 <1>   0.0800 
 25 H       -1.5240     4.3910    -0.6160 H     1 <1>   0.0800 
 26 H        0.6720     3.9240    -1.5300 H     1 <1>   0.1500 
 27 H        2.2890     1.0850     1.1610 H     1 <1>   0.1500 
 28 H       -4.7350     2.0850    -1.2360 H     1 <1>   0.0800 
 29 H       -3.4770     3.0310    -1.9410 H     1 <1>   0.0800 
 30 H       -2.9390     4.9430     1.3830 H     1 <1>   0.0800 
 31 H       -2.9770     3.2570     1.7660 H     1 <1>   0.0800 
 32 H        4.0190     2.8480     0.5220 H     1 <1>   0.2700 
 33 H       -5.5690     2.4610     0.9380 H     1 <1>   0.0800 
 34 H       -5.3010     3.9320     1.7750 H     1 <1>   0.0800 
 35 H       -4.4410     6.3850     0.5560 H     1 <1>   0.0800 
 36 H       -4.8770     6.7790    -1.0880 H     1 <1>   0.0800 
 37 H       -7.0200     6.0290    -0.8600 H     1 <1>   0.0800 
 38 H       -7.2010     2.6580    -0.9410 H     1 <1>   0.4000 
 39 H       -7.8190     4.2100     1.9920 H     1 <1>   0.0800 
 40 H       -8.0970     2.7870     1.0350 H     1 <1>   0.0800 
 41 H       -8.7750     4.3290     0.5440 H     1 <1>   0.0800 
 42 H       -6.3190     6.1000     1.8720 H     1 <1>   0.4000 
@<TRIPOS>BOND
  1   1   2  2   
  2   2   3  am  
  3   2   4  1   
  4   3   5  1   
  5   3   6  1   
  6   4   7  1   
  7   4   8  2   
  8   5   9  1   
  9   5  22  1   
 10   5  23  1   
 11   6  10  1   
 12   6  24  1   
 13   6  25  1   
 14   7  11  2   
 15   7  26  1   
 16   8  12  1   
 17   8  27  1   
 18   9  13  1   
 19   9  28  1   
 20   9  29  1   
 21  10  13  1   
 22  10  30  1   
 23  10  31  1   
 24  11  12  1   
 25  12  32  1   
 26  13  14  1   
 27  13  15  1   
 28  14  16  1   
 29  15  17  1   
 30  15  33  1   
 31  15  34  1   
 32  16  18  1   
 33  16  35  1   
 34  16  36  1   
 35  17  18  1   
 36  17  19  1   
 37  17  20  1   
 38  18  21  1   
 39  18  37  1   
 40  19  38  1   
 41  20  39  1   
 42  20  40  1   
 43  20  41  1   
 44  21  42  1   
@<TRIPOS>SUBSTRUCTURE
  1 ****  10 GROUP 4 **** **** 0

# MOE 2024.06 (io_trps.svl 2023.06)
