@<TRIPOS>MOLECULE
NONAME
48 50 1 0 0 
SMALL
USER_CHARGES


@<TRIPOS>ATOM
  1 CL      -0.1750     0.1630    -0.8490 Cl    1 <1>  -0.1770 
  2 C       -1.8170     0.6300    -0.4940 C.ar  1 <1>   0.1770 
  3 C       -2.1200     1.1620     0.7450 C.ar  1 <1>  -0.1500 
  4 C       -2.7960     0.4650    -1.4550 C.ar  1 <1>  -0.1500 
  5 C       -3.4240     1.5300     1.0210 C.ar  1 <1>  -0.1500 
  6 C       -4.0960     0.8390    -1.1670 C.ar  1 <1>  -0.1500 
  7 C       -4.4410     1.3730     0.0770 C.ar  1 <1>   0.0530 
  8 C       -5.7890     1.7720     0.3910 C.2   1 <1>   0.0870 
  9 O       -5.9920     2.9360     0.9570 O.3   1 <1>  -0.0190 
 10 C       -7.0090     1.1810     0.2510 C.2   1 <1>  -0.0860 
 11 N       -7.2530     3.1770     1.1960 N.2   1 <1>  -0.4100 
 12 C       -7.8830     2.1460     0.7720 C.2   1 <1>   0.3720 
 13 C       -7.3810    -0.1090    -0.2500 C.2   1 <1>   0.7160 
 14 N       -9.2690     2.0900     0.8700 N.pl3 1 <1>  -0.8520 
 15 O       -6.6370    -0.7720    -0.9460 O.2   1 <1>  -0.5700 
 16 N       -8.6110    -0.6080     0.0430 N.am  1 <1>  -0.7300 
 17 C      -10.0040     2.2190    -0.4220 C.3   1 <1>   0.2090 
 18 C       -9.2970    -1.7290    -0.6420 C.3   1 <1>   0.1400 
 19 C      -11.3470     1.4900    -0.3330 C.3   1 <1>   0.1200 
 20 C       -9.7930    -2.7710     0.3730 C.3   1 <1>   0.0000 
 21 O      -11.8600     1.3380    -1.6170 O.3   1 <1>  -0.5600 
 22 C      -10.9200    -2.2700     1.2920 C.3   1 <1>   0.2580 
 23 C      -10.9270    -3.6410    -0.1950 C.3   1 <1>   0.2580 
 24 C       -8.6760    -3.5530     1.0880 C.3   1 <1>  -0.2400 
 25 C      -13.0010     0.5410    -1.6720 C.3   1 <1>   0.0400 
 26 O      -11.8310    -2.6390     0.2630 O.3   1 <1>  -0.5160 
 27 H       -1.3430     1.2840     1.4770 H     1 <1>   0.1500 
 28 H       -2.5400     0.0490    -2.4120 H     1 <1>   0.1500 
 29 H       -3.6650     1.9460     1.9850 H     1 <1>   0.1500 
 30 H       -4.8570     0.7150    -1.9180 H     1 <1>   0.1500 
 31 H       -9.5520     2.8630     1.4850 H     1 <1>   0.4000 
 32 H       -9.2070     0.0280     0.5870 H     1 <1>   0.3700 
 33 H       -9.4230     1.7840    -1.2180 H     1 <1>   0.0800 
 34 H      -10.1690     3.2590    -0.6450 H     1 <1>   0.0800 
 35 H       -8.6250    -2.2010    -1.3400 H     1 <1>   0.0800 
 36 H      -10.1270    -1.3320    -1.2040 H     1 <1>   0.0800 
 37 H      -12.0490     2.0560     0.2550 H     1 <1>   0.0800 
 38 H      -11.2110     0.5130     0.0920 H     1 <1>   0.0800 
 39 H      -10.9490    -1.2100     1.4630 H     1 <1>   0.0000 
 40 H      -11.0970    -2.8690     2.1700 H     1 <1>   0.0000 
 41 H      -11.1060    -4.5650     0.3300 H     1 <1>   0.0000 
 42 H      -10.9600    -3.7180    -1.2670 H     1 <1>   0.0000 
 43 H       -8.0550    -2.8790     1.6520 H     1 <1>   0.0800 
 44 H       -8.0580    -4.0580     0.3670 H     1 <1>   0.0800 
 45 H       -9.0870    -4.2840     1.7610 H     1 <1>   0.0800 
 46 H      -13.3240     0.4870    -2.6960 H     1 <1>   0.0800 
 47 H      -13.7760     0.9840    -1.0700 H     1 <1>   0.0800 
 48 H      -12.7650    -0.4480    -1.3150 H     1 <1>   0.0800 
@<TRIPOS>BOND
  1   1   2  1   
  2   2   3  ar  
  3   2   4  ar  
  4   3   5  ar  
  5   3  27  1   
  6   4   6  ar  
  7   4  28  1   
  8   5   7  ar  
  9   5  29  1   
 10   6   7  ar  
 11   6  30  1   
 12   7   8  1   
 13   8   9  1   
 14   8  10  2   
 15   9  11  1   
 16  10  12  1   
 17  10  13  1   
 18  11  12  2   
 19  12  14  1   
 20  13  15  2   
 21  13  16  am  
 22  14  17  1   
 23  14  31  1   
 24  16  18  1   
 25  16  32  1   
 26  17  19  1   
 27  17  33  1   
 28  17  34  1   
 29  18  20  1   
 30  18  35  1   
 31  18  36  1   
 32  19  21  1   
 33  19  37  1   
 34  19  38  1   
 35  20  22  1   
 36  20  23  1   
 37  20  24  1   
 38  21  25  1   
 39  22  26  1   
 40  22  39  1   
 41  22  40  1   
 42  23  26  1   
 43  23  41  1   
 44  23  42  1   
 45  24  43  1   
 46  24  44  1   
 47  24  45  1   
 48  25  46  1   
 49  25  47  1   
 50  25  48  1   
@<TRIPOS>SUBSTRUCTURE
  1 ****  13 GROUP 4 **** **** 0

# MOE 2024.06 (io_trps.svl 2023.06)
