@<TRIPOS>MOLECULE
NONAME
44 46 1 0 0 
SMALL
USER_CHARGES


@<TRIPOS>ATOM
  1 O       -0.5890     0.1740     0.4510 O.2   1 <1>  -0.5700 
  2 C       -1.4940     0.8380    -0.0220 C.2   1 <1>   0.7160 
  3 N       -2.6340     0.1870    -0.4430 N.am  1 <1>  -0.6600 
  4 C       -1.3590     2.2780    -0.1150 C.2   1 <1>  -0.0860 
  5 C       -3.9960     0.7970    -0.3580 C.3   1 <1>   0.1400 
  6 C       -2.6680    -1.2900    -0.6660 C.3   1 <1>   0.1400 
  7 C       -1.9260     3.1710    -0.9940 C.2   1 <1>  -0.3020 
  8 C       -0.5530     3.0680     0.7290 C.2   1 <1>  -0.1500 
  9 C       -4.9040    -0.0060     0.6010 C.3   1 <1>   0.2950 
 10 C       -3.6430    -1.9740     0.3140 C.3   1 <1>   0.2000 
 11 N       -1.5160     4.4310    -0.7210 N.pl3 1 <1>   0.0330 
 12 C       -0.6730     4.3620     0.3410 C.2   1 <1>  -0.3020 
 13 O       -4.8980    -1.3580     0.2430 O.3   1 <1>  -0.5600 
 14 C       -6.3760     0.4440     0.6240 C.3   1 <1>  -0.1950 
 15 C       -3.8640    -3.4610     0.0070 C.3   1 <1>  -0.1600 
 16 C       -7.1620     0.7940    -0.6020 C.3   1 <1>  -0.2000 
 17 C       -6.8140     1.8610     0.4000 C.3   1 <1>  -0.2000 
 18 C       -2.5940    -4.3080     0.1890 C.3   1 <1>  -0.1600 
 19 C       -2.8890    -5.7950    -0.0350 C.3   1 <1>  -0.1600 
 20 C       -1.6250    -6.6410     0.1420 C.3   1 <1>  -0.2400 
 21 H       -3.9320     1.8060     0.0030 H     1 <1>   0.0800 
 22 H       -4.4300     0.8150    -1.3400 H     1 <1>   0.0800 
 23 H       -2.9850    -1.4850    -1.6750 H     1 <1>   0.0800 
 24 H       -1.6840    -1.7070    -0.5480 H     1 <1>   0.0800 
 25 H       -2.5940     2.9490    -1.8070 H     1 <1>   0.1500 
 26 H        0.0440     2.6690     1.5330 H     1 <1>   0.1500 
 27 H       -4.5100     0.0750     1.6000 H     1 <1>   0.0800 
 28 H       -3.2750    -1.8700     1.3210 H     1 <1>   0.0800 
 29 H       -1.7790     5.2850    -1.2260 H     1 <1>   0.2700 
 30 H       -0.1990     5.2330     0.7590 H     1 <1>   0.1500 
 31 H       -6.9100    -0.0940     1.3880 H     1 <1>   0.1000 
 32 H       -4.6230    -3.8290     0.6750 H     1 <1>   0.0800 
 33 H       -4.2250    -3.5640    -1.0010 H     1 <1>   0.0800 
 34 H       -6.6750     0.7930    -1.5620 H     1 <1>   0.1000 
 35 H       -8.1790     0.4480    -0.6650 H     1 <1>   0.1000 
 36 H       -7.6000     2.2580     1.0190 H     1 <1>   0.1000 
 37 H       -6.1110     2.6190     0.1040 H     1 <1>   0.1000 
 38 H       -1.8380    -3.9940    -0.5100 H     1 <1>   0.0800 
 39 H       -2.2080    -4.1670     1.1850 H     1 <1>   0.0800 
 40 H       -3.6370    -6.1260     0.6670 H     1 <1>   0.0800 
 41 H       -3.2770    -5.9420    -1.0280 H     1 <1>   0.0800 
 42 H       -1.2320    -6.5260     1.1370 H     1 <1>   0.0800 
 43 H       -0.8710    -6.3440    -0.5650 H     1 <1>   0.0800 
 44 H       -1.8530    -7.6800    -0.0170 H     1 <1>   0.0800 
@<TRIPOS>BOND
  1   1   2  2   
  2   2   3  am  
  3   2   4  1   
  4   3   5  1   
  5   3   6  1   
  6   4   7  2   
  7   4   8  1   
  8   5   9  1   
  9   5  21  1   
 10   5  22  1   
 11   6  10  1   
 12   6  23  1   
 13   6  24  1   
 14   7  11  1   
 15   7  25  1   
 16   8  12  2   
 17   8  26  1   
 18   9  13  1   
 19   9  14  1   
 20   9  27  1   
 21  10  13  1   
 22  10  15  1   
 23  10  28  1   
 24  11  12  1   
 25  11  29  1   
 26  12  30  1   
 27  14  16  1   
 28  14  17  1   
 29  14  31  1   
 30  15  18  1   
 31  15  32  1   
 32  15  33  1   
 33  16  17  1   
 34  16  34  1   
 35  16  35  1   
 36  17  36  1   
 37  17  37  1   
 38  18  19  1   
 39  18  38  1   
 40  18  39  1   
 41  19  20  1   
 42  19  40  1   
 43  19  41  1   
 44  20  42  1   
 45  20  43  1   
 46  20  44  1   
@<TRIPOS>SUBSTRUCTURE
  1 ****   3 GROUP 4 **** **** 0

# MOE 2024.06 (io_trps.svl 2023.06)
