@<TRIPOS>MOLECULE
NONAME
50 53 1 0 0 
SMALL
USER_CHARGES


@<TRIPOS>ATOM
  1 O       -2.4450     1.2770    -2.6820 O.2   1 <1>  -0.5700 
  2 C       -2.1480     1.3660    -1.5070 C.2   1 <1>   0.5440 
  3 N       -2.2350     0.2510    -0.7280 N.am  1 <1>  -0.7300 
  4 C       -1.7760     2.6370    -0.9340 C.ar  1 <1>   0.0860 
  5 C       -2.6780    -1.0890    -1.1770 C.3   1 <1>   0.2200 
  6 C       -0.6870     2.8210    -0.0600 C.ar  1 <1>   0.0000 
  7 C       -2.5110     3.7750    -1.1980 C.ar  1 <1>  -0.1500 
  8 C       -3.7690    -1.5830    -0.2430 C.3   1 <1>  -0.0800 
  9 C       -1.5740    -2.1080    -0.9230 C.3   1 <1>   0.1200 
 10 C       -0.5030     4.0700     0.5030 C.ar  1 <1>   0.1050 
 11 C        0.3850     2.0640     0.4640 C.2   1 <1>   0.1080 
 12 C       -2.2150     4.9970    -0.5870 C.ar  1 <1>   0.1660 
 13 C       -2.9660    -2.2120     0.9050 C.3   1 <1>   0.1200 
 14 C       -4.6900    -2.6030    -0.9390 C.3   1 <1>  -0.0170 
 15 O       -1.6690    -2.4360     0.4300 O.3   1 <1>  -0.5600 
 16 N       -1.2410     5.1680     0.2660 N.ar  1 <1>  -0.5670 
 17 N        0.5790     3.9660     1.3220 N.pl3 1 <1>   0.3140 
 18 N        1.1190     2.7300     1.2890 N.2   1 <1>  -0.7070 
 19 C        0.7340     0.6320     0.1210 C.3   1 <1>  -0.0590 
 20 C       -3.0560     6.2160    -0.9050 C.3   1 <1>  -0.0970 
 21 C       -5.7960    -3.0760    -0.0090 C.ar  1 <1>  -0.1430 
 22 C        1.1490     5.0470     2.1340 C.3   1 <1>   0.0160 
 23 C       -5.7900    -4.3350     0.5590 C.ar  1 <1>  -0.1500 
 24 C       -6.8680    -2.2680     0.3140 C.ar  1 <1>  -0.1500 
 25 C       -6.8230    -4.7100     1.4030 C.ar  1 <1>   0.1600 
 26 C       -7.8490    -2.7400     1.1690 C.ar  1 <1>   0.1600 
 27 N       -7.8510    -3.9420     1.7230 N.ar  1 <1>  -0.6200 
 28 H       -1.9470     0.2950     0.2520 H     1 <1>   0.3700 
 29 H       -2.9790    -1.0660    -2.2110 H     1 <1>   0.0800 
 30 H       -3.3370     3.7140    -1.8840 H     1 <1>   0.1500 
 31 H       -4.3720    -0.7660     0.1140 H     1 <1>   0.0800 
 32 H       -0.5940    -1.7240    -1.1390 H     1 <1>   0.0800 
 33 H       -1.7450    -3.0050    -1.4910 H     1 <1>   0.0800 
 34 H       -3.3760    -3.1480     1.2420 H     1 <1>   0.0800 
 35 H       -2.8940    -1.5360     1.7390 H     1 <1>   0.0800 
 36 H       -4.1200    -3.4490    -1.2820 H     1 <1>   0.0800 
 37 H       -5.1410    -2.1450    -1.8030 H     1 <1>   0.0800 
 38 H        0.5600     0.4440    -0.9220 H     1 <1>   0.0800 
 39 H        0.1520    -0.0450     0.7180 H     1 <1>   0.0800 
 40 H        1.7750     0.4550     0.3270 H     1 <1>   0.0800 
 41 H       -3.8310     5.9830    -1.6120 H     1 <1>   0.0800 
 42 H       -2.4300     6.9850    -1.3170 H     1 <1>   0.0800 
 43 H       -3.5090     6.5850    -0.0030 H     1 <1>   0.0800 
 44 H        0.3900     5.4300     2.7890 H     1 <1>   0.0800 
 45 H        1.4940     5.8290     1.4830 H     1 <1>   0.0800 
 46 H        1.9700     4.6630     2.7100 H     1 <1>   0.0800 
 47 H       -4.9950    -5.0280     0.3560 H     1 <1>   0.1500 
 48 H       -6.9490    -1.2760    -0.0910 H     1 <1>   0.1500 
 49 H       -6.8010    -5.6950     1.8380 H     1 <1>   0.1500 
 50 H       -8.6770    -2.0960     1.4100 H     1 <1>   0.1500 
@<TRIPOS>BOND
  1   1   2  2   
  2   2   3  am  
  3   2   4  1   
  4   3   5  1   
  5   3  28  1   
  6   4   6  ar  
  7   4   7  ar  
  8   5   8  1   
  9   5   9  1   
 10   5  29  1   
 11   6  10  ar  
 12   6  11  1   
 13   7  12  ar  
 14   7  30  1   
 15   8  13  1   
 16   8  14  1   
 17   8  31  1   
 18   9  15  1   
 19   9  32  1   
 20   9  33  1   
 21  10  16  ar  
 22  10  17  1   
 23  11  18  2   
 24  11  19  1   
 25  12  16  ar  
 26  12  20  1   
 27  13  15  1   
 28  13  34  1   
 29  13  35  1   
 30  14  21  1   
 31  14  36  1   
 32  14  37  1   
 33  17  18  1   
 34  17  22  1   
 35  19  38  1   
 36  19  39  1   
 37  19  40  1   
 38  20  41  1   
 39  20  42  1   
 40  20  43  1   
 41  21  23  ar  
 42  21  24  ar  
 43  22  44  1   
 44  22  45  1   
 45  22  46  1   
 46  23  25  ar  
 47  23  47  1   
 48  24  26  ar  
 49  24  48  1   
 50  25  27  ar  
 51  25  49  1   
 52  26  27  ar  
 53  26  50  1   
@<TRIPOS>SUBSTRUCTURE
  1 ****   3 GROUP 4 **** **** 0

# MOE 2024.06 (io_trps.svl 2023.06)
