@<TRIPOS>MOLECULE
NONAME
39 40 1 0 0 
SMALL
USER_CHARGES


@<TRIPOS>ATOM
  1 CL       0.0060    -0.6930    -2.8680 Cl    1 <1>  -0.1240 
  2 C       -1.2820    -1.6820    -2.2360 C.2   1 <1>   0.1640 
  3 S       -1.8690    -1.2780    -0.6380 S.3   1 <1>  -0.0800 
  4 C       -1.9330    -2.7320    -2.7590 C.2   1 <1>  -0.1500 
  5 C       -3.0420    -2.5990    -0.6940 C.2   1 <1>  -0.0220 
  6 C       -2.9360    -3.2460    -1.8780 C.2   1 <1>  -0.1500 
  7 S       -4.1120    -2.8310     0.7480 S.o2  1 <1>   1.5000 
  8 O       -3.3240    -3.0880     1.9360 O.2   1 <1>  -0.6500 
  9 O       -5.0870    -1.7610     0.7880 O.2   1 <1>  -0.6500 
 10 N       -4.9590    -4.2580     0.4080 N.am  1 <1>  -0.8490 
 11 C       -4.1120    -5.4600     0.5190 C.3   1 <1>   0.1960 
 12 C       -6.1690    -4.3990     1.2260 C.3   1 <1>   0.1960 
 13 C       -4.7870    -6.7340    -0.0600 C.3   1 <1>  -0.1060 
 14 C       -6.9150    -5.7120     0.9350 C.3   1 <1>  -0.1600 
 15 C       -4.2460    -7.0790    -1.4520 C.2   1 <1>   0.9060 
 16 C       -6.2970    -6.4480    -0.2520 C.3   1 <1>   0.2000 
 17 C       -4.5270    -7.9270     0.9160 C.3   1 <1>  -0.1600 
 18 O       -3.2210    -6.5380    -1.8840 O.co2 1 <1>  -0.9000 
 19 O       -4.8600    -7.9190    -2.1280 O.co2 1 <1>  -0.9000 
 20 O       -6.9940    -7.6170    -0.4780 O.3   1 <1>  -0.6800 
 21 C       -3.0380    -8.2680     1.1120 C.3   1 <1>  -0.1600 
 22 C       -2.8700    -9.4510     2.0700 C.3   1 <1>  -0.2400 
 23 H       -1.7540    -3.1790    -3.7210 H     1 <1>   0.1500 
 24 H       -3.5350    -4.0940    -2.1730 H     1 <1>   0.1500 
 25 H       -3.1580    -5.2900     0.0510 H     1 <1>   0.0800 
 26 H       -3.9050    -5.6150     1.5650 H     1 <1>   0.0800 
 27 H       -5.9080    -4.3550     2.2710 H     1 <1>   0.0800 
 28 H       -6.8290    -3.5730     1.0150 H     1 <1>   0.0800 
 29 H       -7.9450    -5.4920     0.7210 H     1 <1>   0.0800 
 30 H       -6.8830    -6.3370     1.8070 H     1 <1>   0.0800 
 31 H       -6.4230    -5.8390    -1.1340 H     1 <1>   0.0800 
 32 H       -4.9700    -7.7150     1.8720 H     1 <1>   0.0800 
 33 H       -5.0120    -8.8070     0.5280 H     1 <1>   0.0800 
 34 H       -6.4820    -8.0780    -1.1990 H     1 <1>   0.4000 
 35 H       -2.5990    -8.5230     0.1610 H     1 <1>   0.0800 
 36 H       -2.5000    -7.4240     1.5050 H     1 <1>   0.0800 
 37 H       -3.3710   -10.3190     1.6780 H     1 <1>   0.0800 
 38 H       -3.2820    -9.2160     3.0350 H     1 <1>   0.0800 
 39 H       -1.8260    -9.6820     2.1860 H     1 <1>   0.0800 
@<TRIPOS>BOND
  1   1   2  1   
  2   2   3  1   
  3   2   4  2   
  4   3   5  1   
  5   4   6  1   
  6   4  23  1   
  7   5   6  2   
  8   5   7  1   
  9   6  24  1   
 10   7   8  2   
 11   7   9  2   
 12   7  10  am  
 13  10  11  1   
 14  10  12  1   
 15  11  13  1   
 16  11  25  1   
 17  11  26  1   
 18  12  14  1   
 19  12  27  1   
 20  12  28  1   
 21  13  15  1   
 22  13  16  1   
 23  13  17  1   
 24  14  16  1   
 25  14  29  1   
 26  14  30  1   
 27  15  18  ar  
 28  15  19  ar  
 29  16  20  1   
 30  16  31  1   
 31  17  21  1   
 32  17  32  1   
 33  17  33  1   
 34  20  34  1   
 35  21  22  1   
 36  21  35  1   
 37  21  36  1   
 38  22  37  1   
 39  22  38  1   
 40  22  39  1   
@<TRIPOS>SUBSTRUCTURE
  1 ****  11 GROUP 4 **** **** 0

# MOE 2024.06 (io_trps.svl 2023.06)
