@<TRIPOS>MOLECULE
NONAME
45 45 1 0 0 
SMALL
USER_CHARGES


@<TRIPOS>ATOM
  1 S        0.2440    -0.3550     1.1550 S.o2  1 <1>   1.3330 
  2 O        1.5130     0.3000     0.9450 O.2   1 <1>  -0.6500 
  3 O       -0.0890    -0.9300     2.4380 O.2   1 <1>  -0.6500 
  4 N       -0.9970     0.7160     0.7080 N.am  1 <1>  -0.8490 
  5 C        0.0690    -1.6720    -0.0550 C.3   1 <1>  -0.0550 
  6 C       -1.5390     1.4410     1.8640 C.3   1 <1>   0.1160 
  7 C       -0.5810     1.6840    -0.3160 C.3   1 <1>   0.1160 
  8 C       -1.2870    -2.4010     0.0330 C.3   1 <1>  -0.1600 
  9 C       -1.3810    -3.5430    -0.9780 C.3   1 <1>   0.3430 
 10 N       -2.6300    -4.3250    -0.7640 N.4   1 <1>  -0.9590 
 11 C       -2.5840    -5.6200    -1.5030 C.3   1 <1>   0.4860 
 12 C       -3.8730    -3.5540    -1.1020 C.3   1 <1>   0.2630 
 13 C       -3.7460    -6.4820    -1.0520 C.ar  1 <1>  -0.1440 
 14 C       -3.7420    -7.0490     0.2150 C.ar  1 <1>  -0.1500 
 15 C       -4.8250    -6.7130    -1.8960 C.ar  1 <1>  -0.1500 
 16 C       -4.8110    -7.8210     0.6280 C.ar  1 <1>   0.1020 
 17 C       -5.8920    -7.4900    -1.4750 C.ar  1 <1>  -0.1500 
 18 S       -4.7190    -8.5020     2.2910 S.3   1 <1>  -0.3320 
 19 C       -5.8910    -8.0470    -0.2080 C.ar  1 <1>  -0.1500 
 20 C       -6.2320    -9.5350     2.5300 C.3   1 <1>  -0.0100 
 21 H        0.8610    -2.3790     0.1050 H     1 <1>   0.0800 
 22 H        0.1940    -1.2580    -1.0370 H     1 <1>   0.0800 
 23 H       -1.9510     0.7470     2.5780 H     1 <1>   0.0800 
 24 H       -2.3250     2.1080     1.5530 H     1 <1>   0.0800 
 25 H       -0.7620     2.0100     2.3470 H     1 <1>   0.0800 
 26 H       -0.1930     1.1720    -1.1800 H     1 <1>   0.0800 
 27 H        0.1880     2.3350     0.0700 H     1 <1>   0.0800 
 28 H       -1.4210     2.2830    -0.6240 H     1 <1>   0.0800 
 29 H       -2.0690    -1.6830    -0.1410 H     1 <1>   0.0800 
 30 H       -1.3970    -2.7930     1.0300 H     1 <1>   0.0800 
 31 H       -0.5270    -4.1900    -0.8480 H     1 <1>   0.0800 
 32 H       -1.3560    -3.1500    -1.9820 H     1 <1>   0.0800 
 33 H       -2.6920    -4.5780     0.2340 H     1 <1>   0.4500 
 34 H       -1.6620    -6.1360    -1.2920 H     1 <1>   0.0800 
 35 H       -2.6440    -5.4470    -2.5660 H     1 <1>   0.0800 
 36 H       -3.8710    -3.2730    -2.1430 H     1 <1>   0.0800 
 37 H       -3.9380    -2.6610    -0.5030 H     1 <1>   0.0800 
 38 H       -4.7490    -4.1520    -0.9080 H     1 <1>   0.0800 
 39 H       -2.9220    -6.9100     0.8970 H     1 <1>   0.1500 
 40 H       -4.8510    -6.2960    -2.8890 H     1 <1>   0.1500 
 41 H       -6.7260    -7.6660    -2.1350 H     1 <1>   0.1500 
 42 H       -6.7250    -8.6460     0.1050 H     1 <1>   0.1500 
 43 H       -6.1770    -9.9680     3.5130 H     1 <1>   0.0800 
 44 H       -6.2340   -10.3020     1.7770 H     1 <1>   0.0800 
 45 H       -7.0910    -8.8950     2.4450 H     1 <1>   0.0800 
@<TRIPOS>BOND
  1   1   2  2   
  2   1   3  2   
  3   1   4  am  
  4   1   5  1   
  5   4   6  1   
  6   4   7  1   
  7   5   8  1   
  8   5  21  1   
  9   5  22  1   
 10   6  23  1   
 11   6  24  1   
 12   6  25  1   
 13   7  26  1   
 14   7  27  1   
 15   7  28  1   
 16   8   9  1   
 17   8  29  1   
 18   8  30  1   
 19   9  10  1   
 20   9  31  1   
 21   9  32  1   
 22  10  11  1   
 23  10  12  1   
 24  10  33  1   
 25  11  13  1   
 26  11  34  1   
 27  11  35  1   
 28  12  36  1   
 29  12  37  1   
 30  12  38  1   
 31  13  14  ar  
 32  13  15  ar  
 33  14  16  ar  
 34  14  39  1   
 35  15  17  ar  
 36  15  40  1   
 37  16  18  1   
 38  16  19  ar  
 39  17  19  ar  
 40  17  41  1   
 41  18  20  1   
 42  19  42  1   
 43  20  43  1   
 44  20  44  1   
 45  20  45  1   
@<TRIPOS>SUBSTRUCTURE
  1 ****  10 GROUP 4 **** **** 0

# MOE 2024.06 (io_trps.svl 2023.06)
