@<TRIPOS>MOLECULE
NONAME
35 36 1 0 0 
SMALL
USER_CHARGES


@<TRIPOS>ATOM
  1 O        3.9010    -0.5760     1.0230 O.2   1 <1>  -0.5700 
  2 C        2.7900    -0.7910     0.5740 C.2   1 <1>   0.5440 
  3 N        2.0300     0.2460     0.0890 N.am  1 <1>  -0.4940 
  4 C        2.2320    -2.1390     0.5570 C.ar  1 <1>   0.3960 
  5 C        2.2510     1.6210    -0.0310 C.2   1 <1>   0.2040 
  6 N        0.9940    -2.3330     0.0940 N.ar  1 <1>  -0.6200 
  7 C        2.9630    -3.2210     1.0140 C.ar  1 <1>  -0.1500 
  8 O        1.1920     2.3960    -0.0690 O.3   1 <1>  -0.0190 
  9 C        3.3350     2.4220    -0.1450 C.2   1 <1>  -0.1810 
 10 C        0.5480    -3.5720     0.1050 C.ar  1 <1>   0.4770 
 11 C        2.3950    -4.4680     0.9770 C.ar  1 <1>   0.1660 
 12 N        1.5030     3.6580    -0.1890 N.2   1 <1>  -0.4100 
 13 C        2.7850     3.7010    -0.2350 C.2   1 <1>   0.1080 
 14 C        4.8190     2.0930    -0.2030 C.3   1 <1>   0.0210 
 15 N        1.1800    -4.6530     0.5210 N.ar  1 <1>  -0.6200 
 16 C       -0.8500    -3.7950    -0.4180 C.3   1 <1>  -0.0970 
 17 C        3.1410    -5.6930     1.4620 C.3   1 <1>  -0.0970 
 18 C        3.5560     4.9960    -0.3780 C.3   1 <1>  -0.0590 
 19 C        5.4880     2.3220     1.1540 C.3   1 <1>  -0.2400 
 20 H        1.0780    -0.0450    -0.1450 H     1 <1>   0.3700 
 21 H        3.9590    -3.0760     1.3900 H     1 <1>   0.1500 
 22 H        5.2950     2.7040    -0.9490 H     1 <1>   0.0800 
 23 H        4.9530     1.0700    -0.5050 H     1 <1>   0.0800 
 24 H       -1.2890    -2.8690    -0.7420 H     1 <1>   0.0800 
 25 H       -1.4590    -4.2190     0.3580 H     1 <1>   0.0800 
 26 H       -0.8170    -4.4750    -1.2480 H     1 <1>   0.0800 
 27 H        4.1220    -5.4350     1.8150 H     1 <1>   0.0800 
 28 H        3.2340    -6.3990     0.6570 H     1 <1>   0.0800 
 29 H        2.5920    -6.1540     2.2630 H     1 <1>   0.0800 
 30 H        4.2360     4.9320    -1.2070 H     1 <1>   0.0800 
 31 H        4.1050     5.1950     0.5220 H     1 <1>   0.0800 
 32 H        2.8750     5.8100    -0.5540 H     1 <1>   0.0800 
 33 H        5.4080     3.3520     1.4500 H     1 <1>   0.0800 
 34 H        6.5280     2.0540     1.1020 H     1 <1>   0.0800 
 35 H        5.0150     1.7110     1.9030 H     1 <1>   0.0800 
@<TRIPOS>BOND
  1   1   2  2   
  2   2   3  am  
  3   2   4  1   
  4   3   5  1   
  5   3  20  1   
  6   4   6  ar  
  7   4   7  ar  
  8   5   8  1   
  9   5   9  2   
 10   6  10  ar  
 11   7  11  ar  
 12   7  21  1   
 13   8  12  1   
 14   9  13  1   
 15   9  14  1   
 16  10  15  ar  
 17  10  16  1   
 18  11  15  ar  
 19  11  17  1   
 20  12  13  2   
 21  13  18  1   
 22  14  19  1   
 23  14  22  1   
 24  14  23  1   
 25  16  24  1   
 26  16  25  1   
 27  16  26  1   
 28  17  27  1   
 29  17  28  1   
 30  17  29  1   
 31  18  30  1   
 32  18  31  1   
 33  18  32  1   
 34  19  33  1   
 35  19  34  1   
 36  19  35  1   
@<TRIPOS>SUBSTRUCTURE
  1 ****   2 GROUP 4 **** **** 0

# MOE 2024.06 (io_trps.svl 2023.06)
