@<TRIPOS>MOLECULE
NONAME
49 52 1 0 0 
SMALL
USER_CHARGES


@<TRIPOS>ATOM
  1 CL       0.1380     0.4620     0.3090 Cl    1 <1>  -0.1770 
  2 C        1.7020     1.2250     0.2060 C.ar  1 <1>   0.1770 
  3 C        2.8060     0.4780    -0.1170 C.ar  1 <1>  -0.1500 
  4 C        1.7970     2.5890     0.4570 C.ar  1 <1>  -0.1500 
  5 C        4.0740     1.0780    -0.2040 C.ar  1 <1>   0.0000 
  6 C        3.0270     3.2000     0.3780 C.ar  1 <1>  -0.1500 
  7 C        4.1720     2.4610     0.0500 C.ar  1 <1>   0.3610 
  8 C        5.2740     0.3770    -0.5320 C.ar  1 <1>  -0.1440 
  9 N        5.4120     3.0700    -0.0370 N.ar  1 <1>  -0.1790 
 10 C        6.4550     1.0520    -0.5950 C.ar  1 <1>  -0.1500 
 11 C        5.2310    -1.1230    -0.8020 C.3   1 <1>  -0.0970 
 12 C        6.5510     2.4480    -0.3510 C.ar  1 <1>   0.4610 
 13 N        7.7000     3.1580    -0.4270 N.pl3 1 <1>  -0.8380 
 14 C        7.9440     4.5490     0.1220 C.3   1 <1>   0.2090 
 15 C        8.9750     2.6630    -1.0770 C.3   1 <1>   0.2090 
 16 C        9.1310     4.5840     1.1120 C.3   1 <1>   0.2090 
 17 C       10.1560     2.6390    -0.0870 C.3   1 <1>   0.2090 
 18 N       10.3660     3.9790     0.5310 N.pl3 1 <1>  -0.8380 
 19 C       11.2890     4.8090    -0.0670 C.ar  1 <1>   0.4100 
 20 N       10.8080     5.6790    -0.9320 N.ar  1 <1>  -0.6200 
 21 C       12.6520     4.7190     0.2050 C.ar  1 <1>  -0.1430 
 22 C       11.7060     6.4400    -1.5220 C.ar  1 <1>   0.4700 
 23 C       13.4830     5.5650    -0.4970 C.ar  1 <1>   0.1670 
 24 C       13.1830     3.7270     1.2420 C.3   1 <1>  -0.0970 
 25 N       13.0150     6.4370    -1.3650 N.ar  1 <1>  -0.6200 
 26 C       14.9930     5.5690    -0.3330 C.3   1 <1>  -0.0970 
 27 H        2.6780    -0.5740    -0.3020 H     1 <1>   0.1500 
 28 H        0.9030     3.1370     0.7080 H     1 <1>   0.1500 
 29 H        3.0990     4.2560     0.5730 H     1 <1>   0.1500 
 30 H        5.4670     4.0720     0.0920 H     1 <1>   0.4570 
 31 H        7.3540     0.5130    -0.8220 H     1 <1>   0.1500 
 32 H        4.5900    -1.3340    -1.6400 H     1 <1>   0.0800 
 33 H        4.8610    -1.6490     0.0610 H     1 <1>   0.0800 
 34 H        6.2100    -1.5070    -1.0300 H     1 <1>   0.0800 
 35 H        7.0790     4.9300     0.6300 H     1 <1>   0.0800 
 36 H        8.1650     5.2170    -0.6940 H     1 <1>   0.0800 
 37 H        9.2350     3.3300    -1.8820 H     1 <1>   0.0800 
 38 H        8.8590     1.6900    -1.5120 H     1 <1>   0.0800 
 39 H        8.8690     4.0480     2.0070 H     1 <1>   0.0800 
 40 H        9.3330     5.6050     1.3880 H     1 <1>   0.0800 
 41 H       11.0500     2.3430    -0.6110 H     1 <1>   0.0800 
 42 H        9.9690     1.9150     0.6860 H     1 <1>   0.0800 
 43 H       11.3240     7.1580    -2.2290 H     1 <1>   0.1500 
 44 H       12.4390     3.5180     1.9890 H     1 <1>   0.0800 
 45 H       14.0400     4.1240     1.7540 H     1 <1>   0.0800 
 46 H       13.4560     2.8060     0.7610 H     1 <1>   0.0800 
 47 H       15.3670     4.5770    -0.1680 H     1 <1>   0.0800 
 48 H       15.2630     6.1980     0.4950 H     1 <1>   0.0800 
 49 H       15.4580     5.9550    -1.2220 H     1 <1>   0.0800 
@<TRIPOS>BOND
  1   1   2  1   
  2   2   3  ar  
  3   2   4  ar  
  4   3   5  ar  
  5   3  27  1   
  6   4   6  ar  
  7   4  28  1   
  8   5   7  ar  
  9   5   8  ar  
 10   6   7  ar  
 11   6  29  1   
 12   7   9  ar  
 13   8  10  ar  
 14   8  11  1   
 15   9  12  ar  
 16   9  30  1   
 17  10  12  ar  
 18  10  31  1   
 19  11  32  1   
 20  11  33  1   
 21  11  34  1   
 22  12  13  1   
 23  13  14  1   
 24  13  15  1   
 25  14  16  1   
 26  14  35  1   
 27  14  36  1   
 28  15  17  1   
 29  15  37  1   
 30  15  38  1   
 31  16  18  1   
 32  16  39  1   
 33  16  40  1   
 34  17  18  1   
 35  17  41  1   
 36  17  42  1   
 37  18  19  1   
 38  19  20  ar  
 39  19  21  ar  
 40  20  22  ar  
 41  21  23  ar  
 42  21  24  1   
 43  22  25  ar  
 44  22  43  1   
 45  23  25  ar  
 46  23  26  1   
 47  24  44  1   
 48  24  45  1   
 49  24  46  1   
 50  26  47  1   
 51  26  48  1   
 52  26  49  1   
@<TRIPOS>SUBSTRUCTURE
  1 ****  13 GROUP 4 **** **** 0

# MOE 2024.06 (io_trps.svl 2023.06)
