@<TRIPOS>MOLECULE
NONAME
40 42 1 0 0 
SMALL
USER_CHARGES


@<TRIPOS>ATOM
  1 F        1.7350     1.7820     0.3010 F     1 <1>  -0.3400 
  2 C        2.4540     0.7770     0.7800 C.3   1 <1>   0.8800 
  3 F        2.6920     1.0780     2.0510 F     1 <1>  -0.3400 
  4 O        3.6780     0.7570     0.0880 O.3   1 <1>  -0.3630 
  5 C        4.5010    -0.3240     0.1320 C.ar  1 <1>   0.0830 
  6 C        5.5940    -0.3400    -0.7330 C.ar  1 <1>  -0.1440 
  7 C        4.2850    -1.3990     0.9930 C.ar  1 <1>  -0.1500 
  8 C        6.4310    -1.4470    -0.7470 C.ar  1 <1>  -0.1500 
  9 C        5.8840     0.8230    -1.6870 C.3   1 <1>   0.2540 
 10 C        5.1350    -2.4900     0.9740 C.ar  1 <1>  -0.1500 
 11 C        6.2060    -2.5160     0.1010 C.ar  1 <1>  -0.1500 
 12 N        6.8100     1.8290    -1.1290 N.3   1 <1>  -0.8100 
 13 C        6.2170     2.5470     0.0290 C.3   1 <1>   0.1100 
 14 C        8.1640     1.2910    -0.8800 C.3   1 <1>   0.1100 
 15 C        6.9700     3.8200     0.5020 C.3   1 <1>   0.2200 
 16 C        9.2400     2.3670    -0.6220 C.3   1 <1>  -0.0190 
 17 N        7.8340     4.4080    -0.5550 N.am  1 <1>  -0.7300 
 18 C        7.7870     3.5670     1.7870 C.3   1 <1>   0.1200 
 19 C        8.8530     3.7410    -1.1370 C.2   1 <1>   0.5690 
 20 C        9.6690     2.4500     0.8520 C.3   1 <1>   0.1200 
 21 O        8.5810     2.4150     1.7270 O.3   1 <1>  -0.5600 
 22 O        9.4780     4.2450    -2.0380 O.2   1 <1>  -0.5700 
 23 H        1.9020    -0.1420     0.7020 H     1 <1>   0.0800 
 24 H        3.4730    -1.4160     1.6950 H     1 <1>   0.1500 
 25 H        7.2690    -1.4790    -1.4200 H     1 <1>   0.1500 
 26 H        4.9640     1.3100    -1.9610 H     1 <1>   0.0800 
 27 H        6.3060     0.4350    -2.5970 H     1 <1>   0.0800 
 28 H        4.9660    -3.3190     1.6390 H     1 <1>   0.1500 
 29 H        6.8660    -3.3670     0.0830 H     1 <1>   0.1500 
 30 H        5.2250     2.8580    -0.2470 H     1 <1>   0.0800 
 31 H        6.1110     1.8680     0.8580 H     1 <1>   0.0800 
 32 H        8.1340     0.5990    -0.0550 H     1 <1>   0.0800 
 33 H        8.4650     0.7410    -1.7550 H     1 <1>   0.0800 
 34 H        6.2280     4.5560     0.7560 H     1 <1>   0.0800 
 35 H       10.1180     2.0750    -1.1680 H     1 <1>   0.0800 
 36 H        7.5020     5.2410    -1.0390 H     1 <1>   0.3700 
 37 H        7.1060     3.4210     2.6070 H     1 <1>   0.0800 
 38 H        8.4110     4.4130     2.0160 H     1 <1>   0.0800 
 39 H       10.2450     3.3400     1.0410 H     1 <1>   0.0800 
 40 H       10.2780     1.5960     1.0900 H     1 <1>   0.0800 
@<TRIPOS>BOND
  1   1   2  1   
  2   2   3  1   
  3   2   4  1   
  4   2  23  1   
  5   4   5  1   
  6   5   6  ar  
  7   5   7  ar  
  8   6   8  ar  
  9   6   9  1   
 10   7  10  ar  
 11   7  24  1   
 12   8  11  ar  
 13   8  25  1   
 14   9  12  1   
 15   9  26  1   
 16   9  27  1   
 17  10  11  ar  
 18  10  28  1   
 19  11  29  1   
 20  12  13  1   
 21  12  14  1   
 22  13  15  1   
 23  13  30  1   
 24  13  31  1   
 25  14  16  1   
 26  14  32  1   
 27  14  33  1   
 28  15  17  1   
 29  15  18  1   
 30  15  34  1   
 31  16  19  1   
 32  16  20  1   
 33  16  35  1   
 34  17  19  am  
 35  17  36  1   
 36  18  21  1   
 37  18  37  1   
 38  18  38  1   
 39  19  22  2   
 40  20  21  1   
 41  20  39  1   
 42  20  40  1   
@<TRIPOS>SUBSTRUCTURE
  1 ****  13 GROUP 4 **** **** 0

# MOE 2024.06 (io_trps.svl 2023.06)
