@<TRIPOS>MOLECULE
NONAME
55 58 1 0 0 
SMALL
USER_CHARGES


@<TRIPOS>ATOM
  1 O       -2.3730    -3.7760     0.3580 O.2   1 <1>  -0.5700 
  2 C       -1.1770    -3.9340     0.3410 C.2   1 <1>   0.5690 
  3 N       -0.5680    -5.1300     0.6060 N.am  1 <1>  -0.6600 
  4 C       -0.2860    -2.7540     0.0140 C.3   1 <1>  -0.0990 
  5 C        0.9100    -5.2470     0.5900 C.3   1 <1>   0.1400 
  6 C       -1.3340    -6.3500     0.9790 C.3   1 <1>   0.0600 
  7 C        0.8070    -3.1710    -0.9870 C.3   1 <1>  -0.0800 
  8 C        1.4850    -4.5180    -0.6430 C.3   1 <1>  -0.0800 
  9 C        1.9310    -2.1340    -1.1270 C.3   1 <1>  -0.1600 
 10 C        2.9850    -4.2170    -0.5240 C.3   1 <1>  -0.1600 
 11 C        3.1830    -2.9660    -1.3790 C.3   1 <1>   0.4230 
 12 N        4.4430    -2.2200    -1.1060 N.4   1 <1>  -0.9590 
 13 C        4.6700    -1.8220     0.3170 C.3   1 <1>   0.4860 
 14 C        5.6310    -2.9520    -1.6500 C.3   1 <1>   0.2630 
 15 C        5.7690    -0.7800     0.3500 C.ar  1 <1>  -0.1440 
 16 C        7.0490    -1.1230     0.7600 C.ar  1 <1>  -0.1500 
 17 C        5.5120     0.5280    -0.0330 C.ar  1 <1>  -0.1500 
 18 C        8.0540    -0.1740     0.7680 C.ar  1 <1>  -0.1500 
 19 C        6.5250     1.4690    -0.0200 C.ar  1 <1>  -0.1500 
 20 C        7.8210     1.1420     0.3760 C.ar  1 <1>   0.0530 
 21 C        8.8800     2.1270     0.3810 C.2   1 <1>   0.0870 
 22 O       10.1390     1.7490     0.5660 O.3   1 <1>  -0.2800 
 23 C        8.8550     3.4780     0.2210 C.2   1 <1>  -0.1500 
 24 C       10.9130     2.8110     0.5280 C.2   1 <1>  -0.0400 
 25 C       10.1760     3.9200     0.3160 C.2   1 <1>  -0.1500 
 26 C       12.4030     2.6330     0.7150 C.3   1 <1>  -0.0600 
 27 H       -0.8840    -1.9610    -0.3970 H     1 <1>   0.0800 
 28 H        0.1440    -2.4090     0.9350 H     1 <1>   0.0800 
 29 H        1.2880    -4.8120     1.4990 H     1 <1>   0.0800 
 30 H        1.1980    -6.2850     0.5670 H     1 <1>   0.0800 
 31 H       -1.0420    -6.6790     1.9610 H     1 <1>   0.0800 
 32 H       -1.1440    -7.1330     0.2670 H     1 <1>   0.0800 
 33 H       -2.3920    -6.1450     0.9870 H     1 <1>   0.0800 
 34 H        0.3300    -3.2920    -1.9480 H     1 <1>   0.0800 
 35 H        1.3430    -5.1730    -1.4880 H     1 <1>   0.0800 
 36 H        2.0110    -1.5730    -0.2150 H     1 <1>   0.0800 
 37 H        1.7310    -1.4630    -1.9440 H     1 <1>   0.0800 
 38 H        3.5720    -5.0440    -0.8820 H     1 <1>   0.0800 
 39 H        3.2220    -4.0230     0.5060 H     1 <1>   0.0800 
 40 H        3.1660    -3.2680    -2.4150 H     1 <1>   0.0800 
 41 H        4.3870    -1.3320    -1.6230 H     1 <1>   0.4500 
 42 H        3.7760    -1.3970     0.7410 H     1 <1>   0.0800 
 43 H        4.9540    -2.6780     0.9060 H     1 <1>   0.0800 
 44 H        5.7810    -3.8760    -1.1160 H     1 <1>   0.0800 
 45 H        6.5210    -2.3490    -1.5530 H     1 <1>   0.0800 
 46 H        5.4880    -3.1760    -2.6950 H     1 <1>   0.0800 
 47 H        7.2820    -2.1250     1.0790 H     1 <1>   0.1500 
 48 H        4.5270     0.8330    -0.3410 H     1 <1>   0.1500 
 49 H        9.0430    -0.4530     1.0890 H     1 <1>   0.1500 
 50 H        6.3100     2.4790    -0.3230 H     1 <1>   0.1500 
 51 H        8.0070     4.1150     0.0550 H     1 <1>   0.1500 
 52 H       10.5040     4.9410     0.2330 H     1 <1>   0.1500 
 53 H       12.9010     3.5830     0.6600 H     1 <1>   0.0800 
 54 H       12.7900     1.9880    -0.0530 H     1 <1>   0.0800 
 55 H       12.5970     2.1890     1.6750 H     1 <1>   0.0800 
@<TRIPOS>BOND
  1   1   2  2   
  2   2   3  am  
  3   2   4  1   
  4   3   5  1   
  5   3   6  1   
  6   4   7  1   
  7   4  27  1   
  8   4  28  1   
  9   5   8  1   
 10   5  29  1   
 11   5  30  1   
 12   6  31  1   
 13   6  32  1   
 14   6  33  1   
 15   7   8  1   
 16   7   9  1   
 17   7  34  1   
 18   8  10  1   
 19   8  35  1   
 20   9  11  1   
 21   9  36  1   
 22   9  37  1   
 23  10  11  1   
 24  10  38  1   
 25  10  39  1   
 26  11  12  1   
 27  11  40  1   
 28  12  13  1   
 29  12  14  1   
 30  12  41  1   
 31  13  15  1   
 32  13  42  1   
 33  13  43  1   
 34  14  44  1   
 35  14  45  1   
 36  14  46  1   
 37  15  16  ar  
 38  15  17  ar  
 39  16  18  ar  
 40  16  47  1   
 41  17  19  ar  
 42  17  48  1   
 43  18  20  ar  
 44  18  49  1   
 45  19  20  ar  
 46  19  50  1   
 47  20  21  1   
 48  21  22  1   
 49  21  23  2   
 50  22  24  1   
 51  23  25  1   
 52  23  51  1   
 53  24  25  2   
 54  24  26  1   
 55  25  52  1   
 56  26  53  1   
 57  26  54  1   
 58  26  55  1   
@<TRIPOS>SUBSTRUCTURE
  1 ****  13 GROUP 4 **** **** 0

# MOE 2024.06 (io_trps.svl 2023.06)
