@<TRIPOS>MOLECULE
NONAME
46 47 1 0 0 
SMALL
USER_CHARGES


@<TRIPOS>ATOM
  1 O        1.3880     0.1530     0.7900 O.2   1 <1>  -0.5700 
  2 C        1.2540    -1.0280     0.5280 C.2   1 <1>   0.5440 
  3 N        1.6920    -1.4950    -0.6950 N.am  1 <1>  -0.6600 
  4 C        0.6470    -1.9010     1.5150 C.ar  1 <1>   0.0860 
  5 C        1.9590    -0.5700    -1.8300 C.3   1 <1>   0.1400 
  6 C        2.0910    -2.9080    -0.9600 C.3   1 <1>   0.1400 
  7 C       -0.2800    -2.8730     1.1920 C.ar  1 <1>  -0.1500 
  8 C        0.9490    -1.8130     2.8670 C.ar  1 <1>  -0.1500 
  9 C        1.2270    -1.0690    -3.0810 C.3   1 <1>  -0.1600 
 10 C        1.3580    -3.4310    -2.2000 C.3   1 <1>  -0.1600 
 11 C       -0.8110    -3.7170     2.1570 C.ar  1 <1>   0.4100 
 12 C        0.3580    -2.6760     3.7660 C.ar  1 <1>   0.1600 
 13 C        1.5920    -2.5230    -3.4150 C.3   1 <1>  -0.1600 
 14 N       -0.5030    -3.6260     3.4450 N.ar  1 <1>  -0.6200 
 15 N       -1.6840    -4.7230     1.7730 N.pl3 1 <1>  -0.8380 
 16 C       -1.1720    -5.7280     0.8040 C.3   1 <1>   0.2090 
 17 C       -2.6470    -5.2560     2.7770 C.3   1 <1>   0.1290 
 18 C       -1.9880    -5.6530    -0.4830 C.3   1 <1>  -0.0990 
 19 C       -1.3960    -6.5820    -1.5130 C.2   1 <1>   0.5690 
 20 O       -0.2670    -6.3850    -1.8890 O.2   1 <1>  -0.5700 
 21 N       -2.1510    -7.6090    -1.9810 N.am  1 <1>  -0.7300 
 22 C       -1.7070    -8.6010    -2.9930 C.3   1 <1>   0.0600 
 23 H        3.0190    -0.5320    -2.0110 H     1 <1>   0.0800 
 24 H        1.6230     0.4260    -1.5930 H     1 <1>   0.0800 
 25 H        1.8830    -3.5390    -0.1140 H     1 <1>   0.0800 
 26 H        3.1530    -2.9380    -1.1350 H     1 <1>   0.0800 
 27 H       -0.6000    -2.9810     0.1760 H     1 <1>   0.1500 
 28 H        1.6430    -1.0650     3.2040 H     1 <1>   0.1500 
 29 H        1.4740    -0.4340    -3.9130 H     1 <1>   0.0800 
 30 H        0.1670    -0.9910    -2.9140 H     1 <1>   0.0800 
 31 H        0.3050    -3.4920    -1.9900 H     1 <1>   0.0800 
 32 H        1.6990    -4.4270    -2.4210 H     1 <1>   0.0800 
 33 H        0.6080    -2.5850     4.8090 H     1 <1>   0.1500 
 34 H        2.6280    -2.5740    -3.7030 H     1 <1>   0.0800 
 35 H        0.9990    -2.8680    -4.2450 H     1 <1>   0.0800 
 36 H       -1.2360    -6.7160     1.2280 H     1 <1>   0.0800 
 37 H       -0.1340    -5.5320     0.5880 H     1 <1>   0.0800 
 38 H       -3.0410    -4.4470     3.3690 H     1 <1>   0.0800 
 39 H       -2.1470    -5.9500     3.4310 H     1 <1>   0.0800 
 40 H       -3.4630    -5.7510     2.2830 H     1 <1>   0.0800 
 41 H       -1.9570    -4.6540    -0.8730 H     1 <1>   0.0800 
 42 H       -3.0080    -5.9170    -0.2820 H     1 <1>   0.0800 
 43 H       -3.1100    -7.7210    -1.6450 H     1 <1>   0.3700 
 44 H       -0.6870    -8.4110    -3.2840 H     1 <1>   0.0800 
 45 H       -2.3330    -8.5360    -3.8660 H     1 <1>   0.0800 
 46 H       -1.7700    -9.5940    -2.5830 H     1 <1>   0.0800 
@<TRIPOS>BOND
  1   1   2  2   
  2   2   3  am  
  3   2   4  1   
  4   3   5  1   
  5   3   6  1   
  6   4   7  ar  
  7   4   8  ar  
  8   5   9  1   
  9   5  23  1   
 10   5  24  1   
 11   6  10  1   
 12   6  25  1   
 13   6  26  1   
 14   7  11  ar  
 15   7  27  1   
 16   8  12  ar  
 17   8  28  1   
 18   9  13  1   
 19   9  29  1   
 20   9  30  1   
 21  10  13  1   
 22  10  31  1   
 23  10  32  1   
 24  11  14  ar  
 25  11  15  1   
 26  12  14  ar  
 27  12  33  1   
 28  13  34  1   
 29  13  35  1   
 30  15  16  1   
 31  15  17  1   
 32  16  18  1   
 33  16  36  1   
 34  16  37  1   
 35  17  38  1   
 36  17  39  1   
 37  17  40  1   
 38  18  19  1   
 39  18  41  1   
 40  18  42  1   
 41  19  20  2   
 42  19  21  am  
 43  21  22  1   
 44  21  43  1   
 45  22  44  1   
 46  22  45  1   
 47  22  46  1   
@<TRIPOS>SUBSTRUCTURE
  1 ****   7 GROUP 4 **** **** 0

# MOE 2024.06 (io_trps.svl 2023.06)
