@<TRIPOS>MOLECULE
NONAME
45 47 1 0 0 
SMALL
USER_CHARGES


@<TRIPOS>ATOM
  1 O       -0.0700     2.1860    -1.3580 O.2   1 <1>  -0.5700 
  2 C       -0.9930     1.8990    -0.6100 C.2   1 <1>   0.5440 
  3 N       -0.8780     2.1300     0.7430 N.am  1 <1>  -0.4200 
  4 C       -2.2190     1.3290    -1.0960 C.ar  1 <1>   0.0860 
  5 C       -1.9300     1.8290     1.5740 C.2   1 <1>   0.4500 
  6 C        0.3650     2.7080     1.3080 C.3   1 <1>   0.1400 
  7 C       -3.2200     1.0580    -0.1550 C.ar  1 <1>   0.1790 
  8 C       -2.4590     1.0360    -2.4410 C.ar  1 <1>  -0.1500 
  9 N       -3.0400     1.3260     1.1890 N.2   1 <1>  -0.6290 
 10 C        0.3250     4.2350     1.1930 C.3   1 <1>  -0.1600 
 11 C       -4.4250     0.5070    -0.5780 C.ar  1 <1>  -0.1500 
 12 C       -3.6600     0.4900    -2.8460 C.ar  1 <1>  -0.1500 
 13 C        1.6520     4.8660     1.6430 C.3   1 <1>  -0.0990 
 14 C       -4.6480     0.2240    -1.9090 C.ar  1 <1>  -0.1500 
 15 C        1.6210     6.3760     1.5280 C.2   1 <1>   0.5690 
 16 O        1.5230     7.0380     2.5300 O.2   1 <1>  -0.5700 
 17 N        1.7040     6.9330     0.2930 N.am  1 <1>  -0.7300 
 18 C        1.6650     8.3830     0.0230 C.3   1 <1>   0.1400 
 19 C        3.0680     8.8520    -0.3550 C.3   1 <1>  -0.1600 
 20 C        3.1020    10.3750    -0.5360 C.3   1 <1>   0.0960 
 21 N        4.4440    10.8190    -0.9540 N.pl3 1 <1>   0.3140 
 22 N        4.7760    11.0070    -2.2350 N.2   1 <1>  -0.4180 
 23 C        5.4970    11.0840    -0.1780 C.2   1 <1>  -0.3020 
 24 N        6.0070    11.3850    -2.2860 N.2   1 <1>  -0.2270 
 25 C        6.4680    11.4380    -1.0330 C.2   1 <1>   0.0770 
 26 H       -1.7860     2.0400     2.6190 H     1 <1>   0.0600 
 27 H        1.2130     2.3200     0.7690 H     1 <1>   0.0800 
 28 H        0.4670     2.4170     2.3400 H     1 <1>   0.0800 
 29 H       -1.6900     1.2440    -3.1650 H     1 <1>   0.1500 
 30 H       -0.4750     4.6220     1.8010 H     1 <1>   0.0800 
 31 H        0.1370     4.5090     0.1690 H     1 <1>   0.0800 
 32 H       -5.1830     0.3050     0.1570 H     1 <1>   0.1500 
 33 H       -3.8340     0.2680    -3.8860 H     1 <1>   0.1500 
 34 H        2.4620     4.4920     1.0440 H     1 <1>   0.0800 
 35 H        1.8500     4.6080     2.6680 H     1 <1>   0.0800 
 36 H       -5.5850    -0.2030    -2.2240 H     1 <1>   0.1500 
 37 H        1.7870     6.3270    -0.5250 H     1 <1>   0.3700 
 38 H        1.3260     8.9050     0.9040 H     1 <1>   0.0800 
 39 H        0.9700     8.5800    -0.7760 H     1 <1>   0.0800 
 40 H        3.3670     8.3780    -1.2740 H     1 <1>   0.0800 
 41 H        3.7530     8.5760     0.4280 H     1 <1>   0.0800 
 42 H        2.8500    10.8690     0.3840 H     1 <1>   0.0800 
 43 H        2.4000    10.6750    -1.2930 H     1 <1>   0.0800 
 44 H        5.4920    11.0070     0.8920 H     1 <1>   0.1500 
 45 H        7.4810    11.7300    -0.8170 H     1 <1>   0.1500 
@<TRIPOS>BOND
  1   1   2  2   
  2   2   3  am  
  3   2   4  1   
  4   3   5  1   
  5   3   6  1   
  6   4   7  ar  
  7   4   8  ar  
  8   5   9  2   
  9   5  26  1   
 10   6  10  1   
 11   6  27  1   
 12   6  28  1   
 13   7   9  1   
 14   7  11  ar  
 15   8  12  ar  
 16   8  29  1   
 17  10  13  1   
 18  10  30  1   
 19  10  31  1   
 20  11  14  ar  
 21  11  32  1   
 22  12  14  ar  
 23  12  33  1   
 24  13  15  1   
 25  13  34  1   
 26  13  35  1   
 27  14  36  1   
 28  15  16  2   
 29  15  17  am  
 30  17  18  1   
 31  17  37  1   
 32  18  19  1   
 33  18  38  1   
 34  18  39  1   
 35  19  20  1   
 36  19  40  1   
 37  19  41  1   
 38  20  21  1   
 39  20  42  1   
 40  20  43  1   
 41  21  22  1   
 42  21  23  1   
 43  22  24  2   
 44  23  25  2   
 45  23  44  1   
 46  24  25  1   
 47  25  45  1   
@<TRIPOS>SUBSTRUCTURE
  1 ****  10 GROUP 4 **** **** 0

# MOE 2024.06 (io_trps.svl 2023.06)
