@<TRIPOS>MOLECULE
NONAME
47 49 1 0 0 
SMALL
USER_CHARGES


@<TRIPOS>ATOM
  1 O        2.7500    -0.5420    -1.8660 O.2   1 <1>  -0.5700 
  2 C        2.3010    -0.8660    -0.7870 C.2   1 <1>   0.5690 
  3 N        1.9180     0.1060     0.1090 N.am  1 <1>  -0.6600 
  4 C        2.2250    -2.3720    -0.5250 C.3   1 <1>   0.2370 
  5 C        1.8800     1.5390    -0.3090 C.3   1 <1>   0.3200 
  6 C        1.5890    -0.1000     1.5490 C.3   1 <1>   0.0600 
  7 N        0.8810    -2.7450    -0.0080 N.pl3 1 <1>   0.3140 
  8 C        3.4170    -2.9120     0.3060 C.3   1 <1>  -0.1600 
  9 C        3.2530     2.1660    -0.1500 C.2   1 <1>   0.0060 
 10 N        0.6170    -3.0900     1.2750 N.2   1 <1>  -0.7070 
 11 C       -0.2440    -2.7970    -0.7530 C.2   1 <1>  -0.3020 
 12 C        3.5250    -4.4450     0.2790 C.3   1 <1>  -0.2400 
 13 N        3.5480     3.1310     0.6530 N.2   1 <1>  -0.5650 
 14 N        4.3020     1.7180    -0.8810 N.pl3 1 <1>   0.0330 
 15 C       -0.6540    -3.3500     1.3030 C.2   1 <1>   0.1390 
 16 C       -1.2500    -3.1830     0.0600 C.2   1 <1>  -0.1500 
 17 C        4.8820     3.3370     0.4480 C.ar  1 <1>   0.2270 
 18 C        5.3680     2.4640    -0.5040 C.ar  1 <1>  -0.1520 
 19 C        5.7430     4.2540     1.0450 C.ar  1 <1>  -0.1500 
 20 C        6.7100     2.4790    -0.8810 C.ar  1 <1>  -0.1500 
 21 C        7.0750     4.2840     0.6850 C.ar  1 <1>  -0.1440 
 22 C        7.5620     3.3880    -0.2870 C.ar  1 <1>  -0.1440 
 23 C        7.9970     5.2940     1.3530 C.3   1 <1>  -0.0970 
 24 C        9.0280     3.4050    -0.6980 C.3   1 <1>  -0.0970 
 25 H        2.3000    -2.8370    -1.4900 H     1 <1>   0.0800 
 26 H        1.1680     2.0780     0.2910 H     1 <1>   0.0800 
 27 H        1.5700     1.6150    -1.3370 H     1 <1>   0.0800 
 28 H        2.0430    -0.9940     1.9310 H     1 <1>   0.0800 
 29 H        0.5220    -0.1740     1.6720 H     1 <1>   0.0800 
 30 H        1.9530     0.7290     2.1330 H     1 <1>   0.0800 
 31 H        3.3460    -2.5780     1.3250 H     1 <1>   0.0800 
 32 H        4.3260    -2.5040    -0.1020 H     1 <1>   0.0800 
 33 H       -0.2690    -2.5620    -1.8010 H     1 <1>   0.1500 
 34 H        2.6530    -4.8950     0.7210 H     1 <1>   0.0800 
 35 H        4.3860    -4.7610     0.8410 H     1 <1>   0.0800 
 36 H        3.6260    -4.8030    -0.7310 H     1 <1>   0.0800 
 37 H        4.2670     0.9390    -1.5500 H     1 <1>   0.2700 
 38 H       -1.1770    -3.6590     2.1930 H     1 <1>   0.1500 
 39 H       -2.2890    -3.3360    -0.1710 H     1 <1>   0.1500 
 40 H        5.3330     4.9190     1.7810 H     1 <1>   0.1500 
 41 H        7.0570     1.7850    -1.6250 H     1 <1>   0.1500 
 42 H        7.4580     5.8930     2.0640 H     1 <1>   0.0800 
 43 H        8.4220     5.9490     0.6140 H     1 <1>   0.0800 
 44 H        8.7880     4.7840     1.8720 H     1 <1>   0.0800 
 45 H        9.2260     2.6600    -1.4470 H     1 <1>   0.0800 
 46 H        9.6520     3.2010     0.1530 H     1 <1>   0.0800 
 47 H        9.2850     4.3660    -1.1030 H     1 <1>   0.0800 
@<TRIPOS>BOND
  1   1   2  2   
  2   2   3  am  
  3   2   4  1   
  4   3   5  1   
  5   3   6  1   
  6   4   7  1   
  7   4   8  1   
  8   4  25  1   
  9   5   9  1   
 10   5  26  1   
 11   5  27  1   
 12   6  28  1   
 13   6  29  1   
 14   6  30  1   
 15   7  10  1   
 16   7  11  1   
 17   8  12  1   
 18   8  31  1   
 19   8  32  1   
 20   9  13  2   
 21   9  14  1   
 22  10  15  2   
 23  11  16  2   
 24  11  33  1   
 25  12  34  1   
 26  12  35  1   
 27  12  36  1   
 28  13  17  1   
 29  14  18  1   
 30  14  37  1   
 31  15  16  1   
 32  15  38  1   
 33  16  39  1   
 34  17  18  ar  
 35  17  19  ar  
 36  18  20  ar  
 37  19  21  ar  
 38  19  40  1   
 39  20  22  ar  
 40  20  41  1   
 41  21  22  ar  
 42  21  23  1   
 43  22  24  1   
 44  23  42  1   
 45  23  43  1   
 46  23  44  1   
 47  24  45  1   
 48  24  46  1   
 49  24  47  1   
@<TRIPOS>SUBSTRUCTURE
  1 ****   3 GROUP 4 **** **** 0

# MOE 2024.06 (io_trps.svl 2023.06)
