@<TRIPOS>MOLECULE
NONAME
45 47 1 0 0 
SMALL
USER_CHARGES


@<TRIPOS>ATOM
  1 CL       0.4120    -0.5350     0.5280 Cl    1 <1>  -0.1770 
  2 C       -0.5890    -1.8950     0.0900 C.ar  1 <1>   0.1770 
  3 C       -1.9380    -1.8730     0.3860 C.ar  1 <1>  -0.1500 
  4 C       -0.0210    -2.9790    -0.5510 C.ar  1 <1>  -0.1500 
  5 C       -2.7260    -2.9540     0.0330 C.ar  1 <1>  -0.1500 
  6 C       -0.8200    -4.0540    -0.8970 C.ar  1 <1>  -0.1500 
  7 C       -2.1890    -4.0710    -0.6130 C.ar  1 <1>   0.0530 
  8 C       -3.0030    -5.2050    -0.9850 C.2   1 <1>   0.0870 
  9 O       -2.6150    -6.0120    -1.9450 O.3   1 <1>  -0.0190 
 10 C       -4.1890    -5.6830    -0.5330 C.2   1 <1>  -0.2330 
 11 N       -3.4610    -6.9850    -2.1650 N.2   1 <1>  -0.4100 
 12 C       -4.4220    -6.8050    -1.3270 C.2   1 <1>   0.3720 
 13 C       -5.0390    -5.2110     0.5060 C.2   1 <1>   1.0330 
 14 N       -5.5260    -7.6580    -1.2710 N.pl3 1 <1>  -0.8210 
 15 O       -5.8790    -4.3240     0.2720 O.co2 1 <1>  -0.9000 
 16 O       -4.9450    -5.6620     1.6600 O.co2 1 <1>  -0.9000 
 17 C       -6.8260    -6.9830    -1.5080 C.3   1 <1>   0.2090 
 18 C       -5.5730    -8.4840    -0.0400 C.3   1 <1>   0.2090 
 19 C       -7.8900    -8.0530    -1.7640 C.3   1 <1>  -0.1600 
 20 C       -6.6010    -9.6020    -0.2380 C.3   1 <1>  -0.1600 
 21 C       -7.9950    -9.0380    -0.5840 C.3   1 <1>  -0.0800 
 22 C       -8.9960   -10.1540    -0.9130 C.3   1 <1>   0.1200 
 23 O       -9.1250   -11.0000     0.1860 O.3   1 <1>  -0.5600 
 24 C       -9.9810   -12.0700    -0.0240 C.3   1 <1>   0.1200 
 25 C      -10.0080   -12.8920     1.2590 C.3   1 <1>  -0.2400 
 26 H       -2.3670    -1.0250     0.8860 H     1 <1>   0.1500 
 27 H        1.0310    -2.9770    -0.7730 H     1 <1>   0.1500 
 28 H       -3.7780    -2.9260     0.2630 H     1 <1>   0.1500 
 29 H       -0.3790    -4.9010    -1.3930 H     1 <1>   0.1500 
 30 H       -6.7420    -6.3270    -2.3570 H     1 <1>   0.0800 
 31 H       -7.1030    -6.3940    -0.6490 H     1 <1>   0.0800 
 32 H       -5.8500    -7.8750     0.8040 H     1 <1>   0.0800 
 33 H       -4.6000    -8.9040     0.1480 H     1 <1>   0.0800 
 34 H       -7.6270    -8.5800    -2.6650 H     1 <1>   0.0800 
 35 H       -8.8370    -7.5690    -1.9220 H     1 <1>   0.0800 
 36 H       -6.6590   -10.1840     0.6640 H     1 <1>   0.0800 
 37 H       -6.2570   -10.2450    -1.0270 H     1 <1>   0.0800 
 38 H       -8.3650    -8.4950     0.2700 H     1 <1>   0.0800 
 39 H       -8.6470   -10.7300    -1.7530 H     1 <1>   0.0800 
 40 H       -9.9620    -9.7340    -1.1340 H     1 <1>   0.0800 
 41 H       -9.6080   -12.6590    -0.8450 H     1 <1>   0.0800 
 42 H      -10.9620   -11.6910    -0.2540 H     1 <1>   0.0800 
 43 H       -9.0200   -13.2500     1.4860 H     1 <1>   0.0800 
 44 H      -10.6620   -13.7350     1.1390 H     1 <1>   0.0800 
 45 H      -10.3670   -12.2890     2.0740 H     1 <1>   0.0800 
@<TRIPOS>BOND
  1   1   2  1   
  2   2   3  ar  
  3   2   4  ar  
  4   3   5  ar  
  5   3  26  1   
  6   4   6  ar  
  7   4  27  1   
  8   5   7  ar  
  9   5  28  1   
 10   6   7  ar  
 11   6  29  1   
 12   7   8  1   
 13   8   9  1   
 14   8  10  2   
 15   9  11  1   
 16  10  12  1   
 17  10  13  1   
 18  11  12  2   
 19  12  14  1   
 20  13  15  ar  
 21  13  16  ar  
 22  14  17  1   
 23  14  18  1   
 24  17  19  1   
 25  17  30  1   
 26  17  31  1   
 27  18  20  1   
 28  18  32  1   
 29  18  33  1   
 30  19  21  1   
 31  19  34  1   
 32  19  35  1   
 33  20  21  1   
 34  20  36  1   
 35  20  37  1   
 36  21  22  1   
 37  21  38  1   
 38  22  23  1   
 39  22  39  1   
 40  22  40  1   
 41  23  24  1   
 42  24  25  1   
 43  24  41  1   
 44  24  42  1   
 45  25  43  1   
 46  25  44  1   
 47  25  45  1   
@<TRIPOS>SUBSTRUCTURE
  1 ****  10 GROUP 4 **** **** 0

# MOE 2024.06 (io_trps.svl 2023.06)
