@<TRIPOS>MOLECULE
NONAME
46 48 1 0 0 
SMALL
USER_CHARGES


@<TRIPOS>ATOM
  1 O       -0.0450     0.0110     0.0990 O.2   1 <1>  -0.5700 
  2 C        1.0130    -0.5550    -0.0960 C.2   1 <1>   0.5440 
  3 N        2.1930     0.1560    -0.1090 N.am  1 <1>  -0.4940 
  4 C        1.0520    -1.9910    -0.2870 C.ar  1 <1>   0.0860 
  5 C        2.4140     1.5550    -0.0280 C.2   1 <1>  -0.0880 
  6 C        1.9720    -2.5960    -1.1470 C.ar  1 <1>  -0.1500 
  7 C        0.1640    -2.8280     0.3920 C.ar  1 <1>  -0.1500 
  8 N        3.6380     2.1540     0.0300 N.pl3 1 <1>   0.3140 
  9 C        1.5040     2.5570     0.0120 C.2   1 <1>  -0.1500 
 10 C        2.0170    -3.9690    -1.2990 C.ar  1 <1>  -0.1500 
 11 C        0.2010    -4.2020     0.2440 C.ar  1 <1>  -0.1500 
 12 N        3.5210     3.5040     0.1100 N.2   1 <1>  -0.7070 
 13 C        4.9530     1.4470     0.0390 C.3   1 <1>   0.1760 
 14 C        2.2440     3.7270     0.0970 C.2   1 <1>   0.1390 
 15 C        1.1380    -4.7840    -0.6050 C.ar  1 <1>   0.0830 
 16 C        5.3730     1.0190     1.4450 C.3   1 <1>  -0.1600 
 17 C        6.1400     2.2760    -0.4580 C.3   1 <1>  -0.1600 
 18 O        1.2510    -6.1150    -0.8060 O.3   1 <1>  -0.3620 
 19 C        6.8980     0.8600     1.3880 C.3   1 <1>  -0.1600 
 20 C        7.3640     1.5480     0.0990 C.3   1 <1>  -0.1600 
 21 C        0.3920    -7.0370    -0.1750 C.3   1 <1>   0.1200 
 22 C        0.7840    -8.4440    -0.6290 C.3   1 <1>  -0.1600 
 23 C       -0.1090    -9.5090     0.0190 C.3   1 <1>  -0.2400 
 24 H        3.0250    -0.4300    -0.1340 H     1 <1>   0.3700 
 25 H        2.6550    -1.9900    -1.7140 H     1 <1>   0.1500 
 26 H       -0.5660    -2.3830     1.0480 H     1 <1>   0.1500 
 27 H        0.4320     2.4850    -0.0130 H     1 <1>   0.1500 
 28 H        2.7300    -4.4250    -1.9620 H     1 <1>   0.1500 
 29 H       -0.5020    -4.8000     0.7910 H     1 <1>   0.1500 
 30 H        4.8740     0.5760    -0.5850 H     1 <1>   0.0800 
 31 H        1.8140     4.7130     0.1480 H     1 <1>   0.1500 
 32 H        4.8880     0.1090     1.7500 H     1 <1>   0.0800 
 33 H        5.1290     1.8050     2.1410 H     1 <1>   0.0800 
 34 H        6.1060     3.2650    -0.0330 H     1 <1>   0.0800 
 35 H        6.1630     2.3460    -1.5310 H     1 <1>   0.0800 
 36 H        7.1720    -0.1810     1.3690 H     1 <1>   0.0800 
 37 H        7.3500     1.3200     2.2510 H     1 <1>   0.0800 
 38 H        8.1740     2.2330     0.2840 H     1 <1>   0.0800 
 39 H        7.6940     0.8040    -0.6070 H     1 <1>   0.0800 
 40 H       -0.6200    -6.8120    -0.4650 H     1 <1>   0.0800 
 41 H        0.5080    -6.9360     0.8900 H     1 <1>   0.0800 
 42 H        1.8090    -8.6290    -0.3590 H     1 <1>   0.0800 
 43 H        0.6920    -8.5080    -1.6990 H     1 <1>   0.0800 
 44 H       -0.0210    -9.4750     1.0910 H     1 <1>   0.0800 
 45 H        0.1860   -10.4870    -0.3170 H     1 <1>   0.0800 
 46 H       -1.1390    -9.3520    -0.2510 H     1 <1>   0.0800 
@<TRIPOS>BOND
  1   1   2  2   
  2   2   3  am  
  3   2   4  1   
  4   3   5  1   
  5   3  24  1   
  6   4   6  ar  
  7   4   7  ar  
  8   5   8  1   
  9   5   9  2   
 10   6  10  ar  
 11   6  25  1   
 12   7  11  ar  
 13   7  26  1   
 14   8  12  1   
 15   8  13  1   
 16   9  14  1   
 17   9  27  1   
 18  10  15  ar  
 19  10  28  1   
 20  11  15  ar  
 21  11  29  1   
 22  12  14  2   
 23  13  16  1   
 24  13  17  1   
 25  13  30  1   
 26  14  31  1   
 27  15  18  1   
 28  16  19  1   
 29  16  32  1   
 30  16  33  1   
 31  17  20  1   
 32  17  34  1   
 33  17  35  1   
 34  18  21  1   
 35  19  20  1   
 36  19  36  1   
 37  19  37  1   
 38  20  38  1   
 39  20  39  1   
 40  21  22  1   
 41  21  40  1   
 42  21  41  1   
 43  22  23  1   
 44  22  42  1   
 45  22  43  1   
 46  23  44  1   
 47  23  45  1   
 48  23  46  1   
@<TRIPOS>SUBSTRUCTURE
  1 ****   3 GROUP 4 **** **** 0

# MOE 2024.06 (io_trps.svl 2023.06)
