@<TRIPOS>MOLECULE
NONAME
44 45 1 0 0 
SMALL
USER_CHARGES


@<TRIPOS>ATOM
  1 O       -1.6320     0.9880    -1.7830 O.3   1 <1>  -0.0190 
  2 N       -2.6910     0.2400    -1.8370 N.2   1 <1>  -0.4100 
  3 C       -1.4490     1.1880    -0.5010 C.2   1 <1>   0.2980 
  4 C       -3.0720     0.0340    -0.6370 C.2   1 <1>   0.3350 
  5 N       -2.3000     0.6360     0.2670 N.2   1 <1>  -0.5650 
  6 C       -0.2820     2.0470    -0.0480 C.3   1 <1>   0.0200 
  7 C       -4.3010    -0.7930    -0.2370 C.3   1 <1>   0.3900 
  8 C        1.0300     1.2540     0.1120 C.3   1 <1>  -0.0800 
  9 N       -3.9930    -2.2040     0.1950 N.pl3 1 <1>  -0.8380 
 10 C        2.1180     2.1470     0.7240 C.3   1 <1>  -0.2400 
 11 C        1.5320     0.6800    -1.2210 C.3   1 <1>  -0.2400 
 12 C       -4.9900    -3.1560     0.1160 C.ar  1 <1>   0.4100 
 13 C       -2.9200    -2.3390     1.2190 C.3   1 <1>   0.1290 
 14 N       -6.2420    -2.7370     0.1500 N.ar  1 <1>  -0.6200 
 15 C       -4.6960    -4.4940     0.0080 C.ar  1 <1>  -0.1500 
 16 C       -7.1570    -3.6840     0.0900 C.ar  1 <1>   0.4700 
 17 C       -5.7340    -5.3910    -0.0520 C.ar  1 <1>   0.4100 
 18 N       -6.9900    -4.9880    -0.0060 N.ar  1 <1>  -0.6200 
 19 N       -5.4920    -6.7410    -0.1560 N.pl3 1 <1>  -0.8690 
 20 C       -6.5400    -7.7360    -0.5090 C.3   1 <1>   0.2090 
 21 C       -7.2420    -8.2340     0.7590 C.3   1 <1>   0.1200 
 22 O       -8.2620    -9.1150     0.4170 O.3   1 <1>  -0.6800 
 23 H       -0.5460     2.4810     0.9000 H     1 <1>   0.0800 
 24 H       -0.1470     2.8520    -0.7480 H     1 <1>   0.0800 
 25 H       -4.9650    -0.8240    -1.0830 H     1 <1>   0.0800 
 26 H       -4.8120    -0.2870     0.5620 H     1 <1>   0.0800 
 27 H        0.8480     0.4340     0.7890 H     1 <1>   0.0800 
 28 H        2.3350     2.9790     0.0790 H     1 <1>   0.0800 
 29 H        3.0230     1.5840     0.8730 H     1 <1>   0.0800 
 30 H        1.8000     2.5250     1.6800 H     1 <1>   0.0800 
 31 H        1.6780     1.4640    -1.9440 H     1 <1>   0.0800 
 32 H        0.8290    -0.0300    -1.6200 H     1 <1>   0.0800 
 33 H        2.4670     0.1690    -1.0780 H     1 <1>   0.0800 
 34 H       -1.9570    -2.2630     0.7450 H     1 <1>   0.0800 
 35 H       -2.9890    -3.2870     1.7230 H     1 <1>   0.0800 
 36 H       -3.0110    -1.5560     1.9520 H     1 <1>   0.0800 
 37 H       -3.6810    -4.8240    -0.0340 H     1 <1>   0.1500 
 38 H       -8.1790    -3.3470     0.1240 H     1 <1>   0.1500 
 39 H       -4.5370    -7.0260    -0.3790 H     1 <1>   0.4000 
 40 H       -6.0840    -8.5680    -1.0150 H     1 <1>   0.0800 
 41 H       -7.2600    -7.2810    -1.1680 H     1 <1>   0.0800 
 42 H       -7.6720    -7.4120     1.3030 H     1 <1>   0.0800 
 43 H       -6.5450    -8.7610     1.3870 H     1 <1>   0.0800 
 44 H       -9.0060    -8.6270     0.0110 H     1 <1>   0.4000 
@<TRIPOS>BOND
  1   1   2  1   
  2   1   3  1   
  3   2   4  2   
  4   3   5  2   
  5   3   6  1   
  6   4   5  1   
  7   4   7  1   
  8   6   8  1   
  9   6  23  1   
 10   6  24  1   
 11   7   9  1   
 12   7  25  1   
 13   7  26  1   
 14   8  10  1   
 15   8  11  1   
 16   8  27  1   
 17   9  12  1   
 18   9  13  1   
 19  10  28  1   
 20  10  29  1   
 21  10  30  1   
 22  11  31  1   
 23  11  32  1   
 24  11  33  1   
 25  12  14  ar  
 26  12  15  ar  
 27  13  34  1   
 28  13  35  1   
 29  13  36  1   
 30  14  16  ar  
 31  15  17  ar  
 32  15  37  1   
 33  16  18  ar  
 34  16  38  1   
 35  17  18  ar  
 36  17  19  1   
 37  19  20  1   
 38  19  39  1   
 39  20  21  1   
 40  20  40  1   
 41  20  41  1   
 42  21  22  1   
 43  21  42  1   
 44  21  43  1   
 45  22  44  1   
@<TRIPOS>SUBSTRUCTURE
  1 ****   9 GROUP 4 **** **** 0

# MOE 2024.06 (io_trps.svl 2023.06)
