@<TRIPOS>MOLECULE
NONAME
64 68 1 0 0 
SMALL
USER_CHARGES


@<TRIPOS>ATOM
  1 O        0.4660    -1.9800     2.3980 O.2   1 <1>  -0.5700 
  2 C        0.2060    -2.0990     1.2170 C.2   1 <1>   0.5440 
  3 N        1.0980    -1.8490     0.2150 N.am  1 <1>  -0.6600 
  4 C       -1.0470    -2.5070     0.6510 C.ar  1 <1>   0.0860 
  5 C        0.4780    -2.0850    -1.1140 C.3   1 <1>   0.2840 
  6 C        2.5030    -1.4110     0.3830 C.3   1 <1>   0.1400 
  7 C       -0.9290    -2.5140    -0.7270 C.ar  1 <1>  -0.1440 
  8 C       -2.2520    -2.8660     1.2410 C.ar  1 <1>  -0.1500 
  9 C        2.7000     0.0480    -0.0680 C.3   1 <1>  -0.0800 
 10 C       -1.9910    -2.8700    -1.5370 C.ar  1 <1>  -0.1500 
 11 C       -3.3230    -3.2240     0.4390 C.ar  1 <1>  -0.1500 
 12 C        4.1830     0.4400     0.0620 C.3   1 <1>  -0.1600 
 13 C        1.8180     1.0210     0.7400 C.3   1 <1>  -0.1600 
 14 C       -3.1930    -3.2270    -0.9440 C.ar  1 <1>  -0.1500 
 15 C        4.4190     1.8970    -0.3620 C.3   1 <1>  -0.1600 
 16 C        2.0580     2.4800     0.3260 C.3   1 <1>  -0.1600 
 17 C        3.5370     2.8580     0.4400 C.3   1 <1>   0.2200 
 18 N        3.7110     4.2120    -0.0970 N.am  1 <1>  -0.7300 
 19 C        3.9580     5.3400     0.6220 C.2   1 <1>   0.5690 
 20 O        4.1020     5.2780     1.8220 O.2   1 <1>  -0.5700 
 21 C        4.0000     6.7160    -0.1030 C.3   1 <1>   0.2040 
 22 C        4.9590     7.6770     0.6460 C.ar  1 <1>  -0.1430 
 23 C        2.5540     7.2570    -0.1940 C.3   1 <1>  -0.1600 
 24 C        4.5320     6.5980    -1.5620 C.3   1 <1>  -0.1600 
 25 C        4.5650     8.8970     1.1910 C.ar  1 <1>  -0.1500 
 26 C        6.2940     7.3070     0.7800 C.ar  1 <1>  -0.1500 
 27 C        1.6470     6.3850    -1.0860 C.3   1 <1>   0.1200 
 28 C        3.4380     6.3870    -2.6220 C.3   1 <1>   0.1200 
 29 C        5.4760     9.7190     1.8310 C.ar  1 <1>  -0.1500 
 30 C        7.2070     8.1260     1.4200 C.ar  1 <1>  -0.1500 
 31 O        2.3810     5.6850    -2.0540 O.3   1 <1>  -0.5600 
 32 C        6.7990     9.3370     1.9460 C.ar  1 <1>  -0.1500 
 33 H        0.9960    -2.8680    -1.6390 H     1 <1>   0.0800 
 34 H        0.4630    -1.1780    -1.6920 H     1 <1>   0.0800 
 35 H        3.1420    -2.0630    -0.1870 H     1 <1>   0.0800 
 36 H        2.7770    -1.5040     1.4210 H     1 <1>   0.0800 
 37 H       -2.3350    -2.8590     2.3140 H     1 <1>   0.1500 
 38 H        2.4310     0.1190    -1.1080 H     1 <1>   0.0800 
 39 H       -1.8930    -2.8730    -2.6080 H     1 <1>   0.1500 
 40 H       -4.2600    -3.5030     0.8900 H     1 <1>   0.1500 
 41 H        4.7870    -0.2080    -0.5490 H     1 <1>   0.0800 
 42 H        4.4980     0.3180     1.0850 H     1 <1>   0.0800 
 43 H        2.0290     0.9090     1.7900 H     1 <1>   0.0800 
 44 H        0.7780     0.7860     0.5940 H     1 <1>   0.0800 
 45 H       -4.0320    -3.5080    -1.5580 H     1 <1>   0.1500 
 46 H        4.2000     1.9990    -1.4100 H     1 <1>   0.0800 
 47 H        5.4520     2.1520    -0.2020 H     1 <1>   0.0800 
 48 H        1.4790     3.1280     0.9610 H     1 <1>   0.0800 
 49 H        1.7280     2.6150    -0.6900 H     1 <1>   0.0800 
 50 H        3.8330     2.8340     1.4760 H     1 <1>   0.0800 
 51 H        3.3600     4.3540    -1.0530 H     1 <1>   0.3700 
 52 H        2.5670     8.2460    -0.6160 H     1 <1>   0.0800 
 53 H        2.1220     7.3270     0.7880 H     1 <1>   0.0800 
 54 H        5.2520     5.8030    -1.6270 H     1 <1>   0.0800 
 55 H        5.0540     7.5000    -1.8290 H     1 <1>   0.0800 
 56 H        3.5480     9.2360     1.1370 H     1 <1>   0.1500 
 57 H        6.6350     6.3640     0.3900 H     1 <1>   0.1500 
 58 H        0.9120     6.9900    -1.5880 H     1 <1>   0.0800 
 59 H        1.1360     5.6500    -0.4880 H     1 <1>   0.0800 
 60 H        3.8150     5.8180    -3.4540 H     1 <1>   0.0800 
 61 H        3.0610     7.3280    -2.9870 H     1 <1>   0.0800 
 62 H        5.1530    10.6580     2.2460 H     1 <1>   0.1500 
 63 H        8.2330     7.8170     1.5130 H     1 <1>   0.1500 
 64 H        7.5060     9.9760     2.4450 H     1 <1>   0.1500 
@<TRIPOS>BOND
  1   1   2  2   
  2   2   3  am  
  3   2   4  1   
  4   3   5  1   
  5   3   6  1   
  6   4   7  ar  
  7   4   8  ar  
  8   5   7  1   
  9   5  33  1   
 10   5  34  1   
 11   6   9  1   
 12   6  35  1   
 13   6  36  1   
 14   7  10  ar  
 15   8  11  ar  
 16   8  37  1   
 17   9  12  1   
 18   9  13  1   
 19   9  38  1   
 20  10  14  ar  
 21  10  39  1   
 22  11  14  ar  
 23  11  40  1   
 24  12  15  1   
 25  12  41  1   
 26  12  42  1   
 27  13  16  1   
 28  13  43  1   
 29  13  44  1   
 30  14  45  1   
 31  15  17  1   
 32  15  46  1   
 33  15  47  1   
 34  16  17  1   
 35  16  48  1   
 36  16  49  1   
 37  17  18  1   
 38  17  50  1   
 39  18  19  am  
 40  18  51  1   
 41  19  20  2   
 42  19  21  1   
 43  21  22  1   
 44  21  23  1   
 45  21  24  1   
 46  22  25  ar  
 47  22  26  ar  
 48  23  27  1   
 49  23  52  1   
 50  23  53  1   
 51  24  28  1   
 52  24  54  1   
 53  24  55  1   
 54  25  29  ar  
 55  25  56  1   
 56  26  30  ar  
 57  26  57  1   
 58  27  31  1   
 59  27  58  1   
 60  27  59  1   
 61  28  31  1   
 62  28  60  1   
 63  28  61  1   
 64  29  32  ar  
 65  29  62  1   
 66  30  32  ar  
 67  30  63  1   
 68  32  64  1   
@<TRIPOS>SUBSTRUCTURE
  1 ****  16 GROUP 4 **** **** 0

# MOE 2024.06 (io_trps.svl 2023.06)
