@<TRIPOS>MOLECULE
NONAME
48 51 1 0 0 
SMALL
USER_CHARGES


@<TRIPOS>ATOM
  1 O        2.6060    -1.8550    -0.7880 O.2   1 <1>  -0.5700 
  2 C        1.6580    -2.5950    -0.5760 C.2   1 <1>   0.5440 
  3 N        0.5690    -2.4830    -1.4220 N.am  1 <1>  -0.6600 
  4 C        1.7440    -3.5600     0.5220 C.ar  1 <1>   0.3960 
  5 C       -0.6040    -3.3860    -1.4620 C.3   1 <1>   0.1400 
  6 C        0.4790    -1.4560    -2.4820 C.3   1 <1>   0.1400 
  7 N        0.6500    -3.9240     1.2110 N.ar  1 <1>  -0.6200 
  8 C        3.0010    -4.0890     0.8300 C.ar  1 <1>   0.1600 
  9 C       -1.3250    -3.0380    -2.7580 C.3   1 <1>  -0.1600 
 10 C       -0.9350    -1.5880    -3.0360 C.3   1 <1>  -0.1600 
 11 C        0.8730    -4.8170     2.1610 C.ar  1 <1>   0.4100 
 12 N        3.2530    -4.9870     1.7730 N.ar  1 <1>  -0.6200 
 13 N       -0.2340    -5.2350     2.8990 N.pl3 1 <1>  -0.8380 
 14 C        2.1550    -5.3310     2.4150 C.ar  1 <1>   0.1600 
 15 C       -1.6160    -5.0630     2.3320 C.3   1 <1>   0.2090 
 16 C       -0.1810    -5.0930     4.3820 C.3   1 <1>   0.1290 
 17 C       -1.8170    -5.8800     1.0490 C.3   1 <1>   0.2000 
 18 O       -3.1060    -5.5960     0.5350 O.3   1 <1>  -0.3630 
 19 C       -1.6650    -7.3910     1.2780 C.3   1 <1>   0.1200 
 20 C       -3.5510    -6.4070    -0.4570 C.ar  1 <1>   0.0830 
 21 O       -1.9360    -8.1010     0.0810 O.3   1 <1>  -0.3630 
 22 C       -2.9580    -7.6500    -0.6920 C.ar  1 <1>   0.0830 
 23 C       -4.6030    -5.9810    -1.2480 C.ar  1 <1>  -0.1500 
 24 C       -3.4130    -8.4460    -1.7290 C.ar  1 <1>  -0.1500 
 25 C       -5.0580    -6.7830    -2.2820 C.ar  1 <1>  -0.1500 
 26 C       -4.4620    -8.0120    -2.5230 C.ar  1 <1>  -0.1500 
 27 H       -1.2380    -3.1810    -0.6160 H     1 <1>   0.0800 
 28 H       -0.2980    -4.4180    -1.4510 H     1 <1>   0.0800 
 29 H        1.2090    -1.6740    -3.2430 H     1 <1>   0.0800 
 30 H        0.6600    -0.4740    -2.0780 H     1 <1>   0.0800 
 31 H        3.8440    -3.7470     0.2550 H     1 <1>   0.1500 
 32 H       -2.3880    -3.1710    -2.6700 H     1 <1>   0.0800 
 33 H       -0.9560    -3.6740    -3.5440 H     1 <1>   0.0800 
 34 H       -0.9790    -1.3440    -4.0830 H     1 <1>   0.0800 
 35 H       -1.5850    -0.9250    -2.4930 H     1 <1>   0.0800 
 36 H        2.2470    -6.0670     3.1910 H     1 <1>   0.1500 
 37 H       -1.7820    -4.0200     2.1170 H     1 <1>   0.0800 
 38 H       -2.3440    -5.3790     3.0580 H     1 <1>   0.0800 
 39 H        0.8300    -4.9440     4.7200 H     1 <1>   0.0800 
 40 H       -0.5750    -5.9800     4.8460 H     1 <1>   0.0800 
 41 H       -0.7680    -4.2440     4.6890 H     1 <1>   0.0800 
 42 H       -1.1070    -5.5680     0.3090 H     1 <1>   0.0800 
 43 H       -2.3520    -7.7300     2.0320 H     1 <1>   0.0800 
 44 H       -0.6620    -7.6290     1.5820 H     1 <1>   0.0800 
 45 H       -5.0580    -5.0260    -1.0540 H     1 <1>   0.1500 
 46 H       -2.9480    -9.3980    -1.9060 H     1 <1>   0.1500 
 47 H       -5.8760    -6.4520    -2.8980 H     1 <1>   0.1500 
 48 H       -4.8160    -8.6320    -3.3280 H     1 <1>   0.1500 
@<TRIPOS>BOND
  1   1   2  2   
  2   2   3  am  
  3   2   4  1   
  4   3   5  1   
  5   3   6  1   
  6   4   7  ar  
  7   4   8  ar  
  8   5   9  1   
  9   5  27  1   
 10   5  28  1   
 11   6  10  1   
 12   6  29  1   
 13   6  30  1   
 14   7  11  ar  
 15   8  12  ar  
 16   8  31  1   
 17   9  10  1   
 18   9  32  1   
 19   9  33  1   
 20  10  34  1   
 21  10  35  1   
 22  11  13  1   
 23  11  14  ar  
 24  12  14  ar  
 25  13  15  1   
 26  13  16  1   
 27  14  36  1   
 28  15  17  1   
 29  15  37  1   
 30  15  38  1   
 31  16  39  1   
 32  16  40  1   
 33  16  41  1   
 34  17  18  1   
 35  17  19  1   
 36  17  42  1   
 37  18  20  1   
 38  19  21  1   
 39  19  43  1   
 40  19  44  1   
 41  20  22  ar  
 42  20  23  ar  
 43  21  22  1   
 44  22  24  ar  
 45  23  25  ar  
 46  23  45  1   
 47  24  26  ar  
 48  24  46  1   
 49  25  26  ar  
 50  25  47  1   
 51  26  48  1   
@<TRIPOS>SUBSTRUCTURE
  1 ****  17 GROUP 4 **** **** 0

# MOE 2024.06 (io_trps.svl 2023.06)
