@<TRIPOS>MOLECULE
NONAME
51 53 1 0 0 
SMALL
USER_CHARGES


@<TRIPOS>ATOM
  1 O       -0.0950     0.9950     0.1310 O.2   1 <1>  -0.5700 
  2 C       -0.2480     2.1890     0.0290 C.2   1 <1>   0.5690 
  3 N       -1.1720     2.8790     0.7660 N.am  1 <1>  -0.6600 
  4 C        0.6160     2.9420    -0.9820 C.3   1 <1>   0.1810 
  5 C       -1.3680     4.3560     0.5860 C.3   1 <1>   0.3640 
  6 C       -1.9960     2.2300     1.8260 C.3   1 <1>   0.0600 
  7 O        0.7650     4.3000    -0.6510 O.3   1 <1>  -0.5600 
  8 C       -2.8490     4.6950     0.3540 C.ar  1 <1>  -0.1430 
  9 C       -0.4640     4.9980    -0.4990 C.3   1 <1>   0.2610 
 10 C       -3.6660     4.0910    -0.6090 C.ar  1 <1>  -0.1430 
 11 C       -3.3960     5.6790     1.1700 C.ar  1 <1>  -0.1500 
 12 C       -0.1890     6.4560    -0.1220 C.2   1 <1>   0.5690 
 13 C       -4.9940     4.4780    -0.7170 C.ar  1 <1>  -0.1500 
 14 C       -3.1870     3.0040    -1.5650 C.3   1 <1>  -0.0960 
 15 C       -4.7190     6.0580     1.0510 C.ar  1 <1>  -0.1500 
 16 O       -1.0120     7.3060    -0.3620 O.2   1 <1>  -0.5700 
 17 N        0.9920     6.7590     0.4810 N.am  1 <1>  -0.7300 
 18 C       -5.5220     5.4550     0.1060 C.ar  1 <1>  -0.1500 
 19 C        1.4660     8.1130     0.8370 C.3   1 <1>   0.1400 
 20 C        2.5630     8.5630    -0.1390 C.3   1 <1>  -0.0800 
 21 C        3.7770     7.6160    -0.1450 C.3   1 <1>  -0.1600 
 22 C        3.0330     9.9860     0.2050 C.3   1 <1>  -0.1600 
 23 C        4.9130     8.1850    -1.0010 C.3   1 <1>   0.1200 
 24 C        4.2160    10.4020    -0.6760 C.3   1 <1>   0.1200 
 25 O        5.2370     9.4620    -0.5480 O.3   1 <1>  -0.5600 
 26 H        0.1790     2.8710    -1.9610 H     1 <1>   0.0800 
 27 H        1.5960     2.5020    -1.0070 H     1 <1>   0.0800 
 28 H       -1.0760     4.8020     1.5210 H     1 <1>   0.0800 
 29 H       -1.8680     2.7490     2.7590 H     1 <1>   0.0800 
 30 H       -1.7030     1.2030     1.9620 H     1 <1>   0.0800 
 31 H       -3.0360     2.2550     1.5500 H     1 <1>   0.0800 
 32 H       -0.9660     4.9950    -1.4480 H     1 <1>   0.0800 
 33 H       -2.7910     6.1740     1.9100 H     1 <1>   0.1500 
 34 H       -5.6360     4.0200    -1.4480 H     1 <1>   0.1500 
 35 H       -3.9000     2.8440    -2.3530 H     1 <1>   0.0800 
 36 H       -3.0650     2.0760    -1.0360 H     1 <1>   0.0800 
 37 H       -2.2560     3.2740    -2.0220 H     1 <1>   0.0800 
 38 H       -5.1210     6.8250     1.6910 H     1 <1>   0.1500 
 39 H        1.6860     6.0070     0.5370 H     1 <1>   0.3700 
 40 H       -6.5530     5.7450     0.0080 H     1 <1>   0.1500 
 41 H        0.6410     8.8050     0.7990 H     1 <1>   0.0800 
 42 H        1.8480     8.1000     1.8440 H     1 <1>   0.0800 
 43 H        2.1380     8.5860    -1.1280 H     1 <1>   0.0800 
 44 H        3.4980     6.6550    -0.5380 H     1 <1>   0.0800 
 45 H        4.1420     7.4740     0.8570 H     1 <1>   0.0800 
 46 H        3.3440    10.0370     1.2340 H     1 <1>   0.0800 
 47 H        2.2260    10.6830     0.0670 H     1 <1>   0.0800 
 48 H        4.6290     8.2480    -2.0380 H     1 <1>   0.0800 
 49 H        5.7940     7.5730    -0.9150 H     1 <1>   0.0800 
 50 H        4.6050    11.3550    -0.3620 H     1 <1>   0.0800 
 51 H        3.9320    10.4640    -1.7130 H     1 <1>   0.0800 
@<TRIPOS>BOND
  1   1   2  2   
  2   2   3  am  
  3   2   4  1   
  4   3   5  1   
  5   3   6  1   
  6   4   7  1   
  7   4  26  1   
  8   4  27  1   
  9   5   8  1   
 10   5   9  1   
 11   5  28  1   
 12   6  29  1   
 13   6  30  1   
 14   6  31  1   
 15   7   9  1   
 16   8  10  ar  
 17   8  11  ar  
 18   9  12  1   
 19   9  32  1   
 20  10  13  ar  
 21  10  14  1   
 22  11  15  ar  
 23  11  33  1   
 24  12  16  2   
 25  12  17  am  
 26  13  18  ar  
 27  13  34  1   
 28  14  35  1   
 29  14  36  1   
 30  14  37  1   
 31  15  18  ar  
 32  15  38  1   
 33  17  19  1   
 34  17  39  1   
 35  18  40  1   
 36  19  20  1   
 37  19  41  1   
 38  19  42  1   
 39  20  21  1   
 40  20  22  1   
 41  20  43  1   
 42  21  23  1   
 43  21  44  1   
 44  21  45  1   
 45  22  24  1   
 46  22  46  1   
 47  22  47  1   
 48  23  25  1   
 49  23  48  1   
 50  23  49  1   
 51  24  25  1   
 52  24  50  1   
 53  24  51  1   
@<TRIPOS>SUBSTRUCTURE
  1 ****  12 GROUP 4 **** **** 0

# MOE 2024.06 (io_trps.svl 2023.06)
