@<TRIPOS>MOLECULE
NONAME
59 61 1 0 0 
SMALL
USER_CHARGES


@<TRIPOS>ATOM
  1 O       -1.3330     1.0560     0.5300 O.2   1 <1>  -0.5700 
  2 C       -0.9970     2.2050     0.4000 C.2   1 <1>   0.5690 
  3 N       -1.6000     3.1870     1.1020 N.am  1 <1>  -0.7300 
  4 C        0.1010     2.5770    -0.5970 C.3   1 <1>   0.1810 
  5 C       -1.2970     4.6290     0.9410 C.3   1 <1>   0.3640 
  6 O        0.6870     3.8290    -0.3080 O.3   1 <1>  -0.5600 
  7 C       -2.6080     5.3550     0.6480 C.ar  1 <1>  -0.1440 
  8 C       -0.2420     4.9020    -0.1680 C.3   1 <1>   0.2610 
  9 C       -2.9340     6.5080     1.3480 C.ar  1 <1>  -0.1500 
 10 C       -3.4900     4.8860    -0.3200 C.ar  1 <1>  -0.1500 
 11 C        0.5170     6.2010     0.1340 C.2   1 <1>   0.5690 
 12 C       -4.1150     7.1800     1.0890 C.ar  1 <1>  -0.1500 
 13 C       -4.6710     5.5580    -0.5810 C.ar  1 <1>  -0.1500 
 14 O       -0.0750     7.2430     0.2810 O.2   1 <1>  -0.5700 
 15 N        1.8750     6.1710     0.2230 N.am  1 <1>  -0.7300 
 16 C       -4.9850     6.7060     0.1240 C.ar  1 <1>  -0.1500 
 17 C        2.7260     7.3480     0.5600 C.3   1 <1>   0.1400 
 18 C        3.3110     8.0920    -0.6820 C.3   1 <1>   0.5030 
 19 N        3.9520     9.3950    -0.2980 N.4   1 <1>  -0.9590 
 20 C        2.2320     8.3970    -1.7350 C.3   1 <1>  -0.2400 
 21 C        4.3720     7.2150    -1.3640 C.3   1 <1>  -0.2400 
 22 C        5.1280     9.2570     0.6220 C.3   1 <1>   0.3430 
 23 C        2.9780    10.4030     0.2450 C.3   1 <1>   0.3430 
 24 C        5.8430    10.6000     0.7660 C.3   1 <1>  -0.1600 
 25 C        3.6550    11.7660     0.3830 C.3   1 <1>  -0.1600 
 26 C        4.8980    11.6930     1.2780 C.3   1 <1>  -0.0800 
 27 C        5.6110    13.0480     1.3230 C.3   1 <1>  -0.2400 
 28 H       -2.3760     2.9420     1.7200 H     1 <1>   0.3700 
 29 H       -0.3090     2.6090    -1.5890 H     1 <1>   0.0800 
 30 H        0.8770     1.8340    -0.5640 H     1 <1>   0.0800 
 31 H       -0.9050     4.9860     1.8780 H     1 <1>   0.0800 
 32 H       -0.7420     5.0230    -1.1120 H     1 <1>   0.0800 
 33 H       -2.2670     6.8990     2.0980 H     1 <1>   0.1500 
 34 H       -3.2660     3.9920    -0.8760 H     1 <1>   0.1500 
 35 H       -4.3560     8.0750     1.6360 H     1 <1>   0.1500 
 36 H       -5.3480     5.1870    -1.3310 H     1 <1>   0.1500 
 37 H        2.3220     5.2530     0.0980 H     1 <1>   0.3700 
 38 H       -5.9030     7.2300    -0.0790 H     1 <1>   0.1500 
 39 H        2.1240     8.0330     1.1300 H     1 <1>   0.0800 
 40 H        3.5260     7.0120     1.1950 H     1 <1>   0.0800 
 41 H        4.3110     9.7910    -1.1730 H     1 <1>   0.4500 
 42 H        1.8830     7.4840    -2.1840 H     1 <1>   0.0800 
 43 H        2.6190     9.0170    -2.5230 H     1 <1>   0.0800 
 44 H        1.3710     8.8670    -1.2970 H     1 <1>   0.0800 
 45 H        3.9060     6.3410    -1.7850 H     1 <1>   0.0800 
 46 H        5.1120     6.8640    -0.6690 H     1 <1>   0.0800 
 47 H        4.8540     7.7440    -2.1670 H     1 <1>   0.0800 
 48 H        4.7980     8.9220     1.5920 H     1 <1>   0.0800 
 49 H        5.8290     8.5370     0.2340 H     1 <1>   0.0800 
 50 H        2.1310    10.5060    -0.4120 H     1 <1>   0.0800 
 51 H        2.6170    10.0840     1.2100 H     1 <1>   0.0800 
 52 H        6.6600    10.4840     1.4580 H     1 <1>   0.0800 
 53 H        6.2640    10.8830    -0.1830 H     1 <1>   0.0800 
 54 H        3.9160    12.1330    -0.5940 H     1 <1>   0.0800 
 55 H        2.9500    12.4600     0.8080 H     1 <1>   0.0800 
 56 H        4.5890    11.4440     2.2810 H     1 <1>   0.0800 
 57 H        5.9410    13.3450     0.3420 H     1 <1>   0.0800 
 58 H        6.4700    12.9990     1.9700 H     1 <1>   0.0800 
 59 H        4.9500    13.8080     1.7040 H     1 <1>   0.0800 
@<TRIPOS>BOND
  1   1   2  2   
  2   2   3  am  
  3   2   4  1   
  4   3   5  1   
  5   3  28  1   
  6   4   6  1   
  7   4  29  1   
  8   4  30  1   
  9   5   7  1   
 10   5   8  1   
 11   5  31  1   
 12   6   8  1   
 13   7   9  ar  
 14   7  10  ar  
 15   8  11  1   
 16   8  32  1   
 17   9  12  ar  
 18   9  33  1   
 19  10  13  ar  
 20  10  34  1   
 21  11  14  2   
 22  11  15  am  
 23  12  16  ar  
 24  12  35  1   
 25  13  16  ar  
 26  13  36  1   
 27  15  17  1   
 28  15  37  1   
 29  16  38  1   
 30  17  18  1   
 31  17  39  1   
 32  17  40  1   
 33  18  19  1   
 34  18  20  1   
 35  18  21  1   
 36  19  22  1   
 37  19  23  1   
 38  19  41  1   
 39  20  42  1   
 40  20  43  1   
 41  20  44  1   
 42  21  45  1   
 43  21  46  1   
 44  21  47  1   
 45  22  24  1   
 46  22  48  1   
 47  22  49  1   
 48  23  25  1   
 49  23  50  1   
 50  23  51  1   
 51  24  26  1   
 52  24  52  1   
 53  24  53  1   
 54  25  26  1   
 55  25  54  1   
 56  25  55  1   
 57  26  27  1   
 58  26  56  1   
 59  27  57  1   
 60  27  58  1   
 61  27  59  1   
@<TRIPOS>SUBSTRUCTURE
  1 ****  11 GROUP 4 **** **** 0

# MOE 2024.06 (io_trps.svl 2023.06)
