@<TRIPOS>MOLECULE
NONAME
48 50 1 0 0 
SMALL
USER_CHARGES


@<TRIPOS>ATOM
  1 S        0.2940     0.0560     0.5600 S.o2  1 <1>   1.3330 
  2 O        1.5850     0.1250     1.2070 O.2   1 <1>  -0.6500 
  3 O       -0.9100     0.0780     1.3600 O.2   1 <1>  -0.6500 
  4 N        0.2690    -1.3330    -0.4150 N.am  1 <1>  -0.8490 
  5 C        0.1710     1.3850    -0.6340 C.3   1 <1>  -0.0550 
  6 C        1.5870    -1.6950    -0.9470 C.3   1 <1>   0.1160 
  7 C       -0.3250    -2.4840     0.2710 C.3   1 <1>   0.1160 
  8 C        0.0670     2.7750     0.0180 C.3   1 <1>  -0.0800 
  9 C       -0.1510     3.8830    -1.0070 C.3   1 <1>   0.2000 
 10 C        1.3240     3.2140     0.7750 C.3   1 <1>   0.1400 
 11 O       -1.4920     3.9590    -1.3470 O.3   1 <1>  -0.6800 
 12 C        0.3390     5.1590    -0.3280 C.3   1 <1>   0.1400 
 13 N        1.3510     4.6930     0.6530 N.am  1 <1>  -0.6600 
 14 C        2.4140     5.4500     1.0890 C.2   1 <1>   0.7160 
 15 O        3.3750     4.8790     1.5690 O.2   1 <1>  -0.5700 
 16 C        2.3960     6.8960     0.9680 C.2   1 <1>  -0.0860 
 17 C        3.5140     7.6680     0.4770 C.2   1 <1>  -0.1810 
 18 C        1.3510     7.7000     1.2900 C.2   1 <1>  -0.1100 
 19 C        3.2990     8.9920     0.4380 C.2   1 <1>  -0.1400 
 20 C        4.8450     7.0730     0.0400 C.3   1 <1>   0.0210 
 21 S        1.6900     9.3900     0.9930 S.3   1 <1>  -0.0800 
 22 C        4.2510    10.0800    -0.0060 C.3   1 <1>   0.0200 
 23 C        5.6710     8.0950    -0.7670 C.3   1 <1>  -0.1600 
 24 C        5.6710     9.4940    -0.1160 C.3   1 <1>  -0.1600 
 25 H        1.0200     1.3600    -1.2890 H     1 <1>   0.0800 
 26 H       -0.7070     1.2250    -1.2300 H     1 <1>   0.0800 
 27 H        1.4950    -2.5250    -1.6280 H     1 <1>   0.0800 
 28 H        2.2540    -1.9710    -0.1470 H     1 <1>   0.0800 
 29 H        2.0140    -0.8640    -1.4810 H     1 <1>   0.0800 
 30 H       -0.3400    -3.3410    -0.3800 H     1 <1>   0.0800 
 31 H       -1.3400    -2.2610     0.5550 H     1 <1>   0.0800 
 32 H        0.2370    -2.7220     1.1590 H     1 <1>   0.0800 
 33 H       -0.7460     2.7770     0.7240 H     1 <1>   0.0800 
 34 H        0.4180     3.7080    -1.9040 H     1 <1>   0.0800 
 35 H        2.2150     2.8080     0.3230 H     1 <1>   0.0800 
 36 H        1.2900     2.9190     1.8110 H     1 <1>   0.0800 
 37 H       -2.0470     4.0540    -0.5480 H     1 <1>   0.4000 
 38 H       -0.4640     5.6460     0.1970 H     1 <1>   0.0800 
 39 H        0.7800     5.8320    -1.0440 H     1 <1>   0.0800 
 40 H        0.3830     7.4600     1.6910 H     1 <1>   0.1500 
 41 H        5.3910     6.7750     0.9190 H     1 <1>   0.0800 
 42 H        4.6780     6.1960    -0.5610 H     1 <1>   0.0800 
 43 H        3.9290    10.4540    -0.9610 H     1 <1>   0.0800 
 44 H        4.2430    10.8900     0.7020 H     1 <1>   0.0800 
 45 H        6.6810     7.7370    -0.8630 H     1 <1>   0.0800 
 46 H        5.2540     8.1740    -1.7560 H     1 <1>   0.0800 
 47 H        6.2930    10.1650    -0.6830 H     1 <1>   0.0800 
 48 H        6.0890     9.4130     0.8730 H     1 <1>   0.0800 
@<TRIPOS>BOND
  1   1   2  2   
  2   1   3  2   
  3   1   4  am  
  4   1   5  1   
  5   4   6  1   
  6   4   7  1   
  7   5   8  1   
  8   5  25  1   
  9   5  26  1   
 10   6  27  1   
 11   6  28  1   
 12   6  29  1   
 13   7  30  1   
 14   7  31  1   
 15   7  32  1   
 16   8   9  1   
 17   8  10  1   
 18   8  33  1   
 19   9  11  1   
 20   9  12  1   
 21   9  34  1   
 22  10  13  1   
 23  10  35  1   
 24  10  36  1   
 25  11  37  1   
 26  12  13  1   
 27  12  38  1   
 28  12  39  1   
 29  13  14  am  
 30  14  15  2   
 31  14  16  1   
 32  16  17  1   
 33  16  18  2   
 34  17  19  2   
 35  17  20  1   
 36  18  21  1   
 37  18  40  1   
 38  19  21  1   
 39  19  22  1   
 40  20  23  1   
 41  20  41  1   
 42  20  42  1   
 43  22  24  1   
 44  22  43  1   
 45  22  44  1   
 46  23  24  1   
 47  23  45  1   
 48  23  46  1   
 49  24  47  1   
 50  24  48  1   
@<TRIPOS>SUBSTRUCTURE
  1 ****  13 GROUP 4 **** **** 0

# MOE 2024.06 (io_trps.svl 2023.06)
