@<TRIPOS>MOLECULE
NONAME
50 52 1 0 0 
SMALL
USER_CHARGES


@<TRIPOS>ATOM
  1 S       -0.3880    -0.1930    -0.0700 S.3   1 <1>  -0.0800 
  2 C        0.9540    -1.3050     0.1090 C.2   1 <1>   0.1980 
  3 C        0.6350     1.0910     0.5060 C.2   1 <1>  -0.1100 
  4 N        2.0240    -0.7710     0.5470 N.2   1 <1>  -0.5650 
  5 C        0.7200    -2.7530    -0.2570 C.3   1 <1>   0.0200 
  6 C        1.8490     0.5860     0.7720 C.2   1 <1>   0.0770 
  7 C       -0.0200    -3.4670     0.8730 C.3   1 <1>   0.1400 
  8 N       -0.1750    -4.9100     0.5580 N.am  1 <1>  -0.7300 
  9 C       -1.1960    -5.4340    -0.1840 C.2   1 <1>   0.5440 
 10 O       -2.0020    -4.6730    -0.6800 O.2   1 <1>  -0.5700 
 11 C       -1.3100    -6.8670    -0.3970 C.ar  1 <1>   0.0860 
 12 C       -0.8930    -7.7960     0.5580 C.ar  1 <1>  -0.1500 
 13 C       -1.8580    -7.3690    -1.5760 C.ar  1 <1>  -0.1500 
 14 C       -1.0200    -9.1570     0.3470 C.ar  1 <1>  -0.1500 
 15 C       -1.9880    -8.7280    -1.7970 C.ar  1 <1>  -0.1500 
 16 C       -1.5770    -9.6340    -0.8310 C.ar  1 <1>  -0.1430 
 17 C       -1.7490   -11.1250    -1.0570 C.3   1 <1>   0.4860 
 18 N       -2.8830   -11.6060    -0.2230 N.4   1 <1>  -0.9590 
 19 C       -2.8900   -13.0940    -0.1530 C.3   1 <1>   0.3430 
 20 C       -4.1720   -11.0050    -0.6780 C.3   1 <1>   0.3430 
 21 C       -3.4910   -13.5450     1.1770 C.3   1 <1>  -0.1600 
 22 C       -5.3200   -11.2800     0.2950 C.3   1 <1>  -0.1600 
 23 C       -5.0230   -13.6830     1.1880 C.3   1 <1>  -0.1600 
 24 C       -5.8040   -12.7360     0.2670 C.3   1 <1>  -0.1600 
 25 H        0.2180     2.0780     0.5820 H     1 <1>   0.1500 
 26 H        1.6720    -3.2240    -0.4200 H     1 <1>   0.0800 
 27 H        0.1450    -2.8030    -1.1640 H     1 <1>   0.0800 
 28 H        2.6920     1.1430     1.1430 H     1 <1>   0.1500 
 29 H       -0.9930    -3.0220     1.0030 H     1 <1>   0.0800 
 30 H        0.5260    -3.3580     1.7940 H     1 <1>   0.0800 
 31 H        0.5950    -5.5120     0.8530 H     1 <1>   0.3700 
 32 H       -0.4710    -7.4430     1.4830 H     1 <1>   0.1500 
 33 H       -2.1870    -6.6700    -2.3280 H     1 <1>   0.1500 
 34 H       -0.6790    -9.8350     1.1120 H     1 <1>   0.1500 
 35 H       -2.4140    -9.0620    -2.7280 H     1 <1>   0.1500 
 36 H       -0.8390   -11.6290    -0.7740 H     1 <1>   0.0800 
 37 H       -1.9400   -11.3230    -2.0990 H     1 <1>   0.0800 
 38 H       -2.7170   -11.2480     0.7240 H     1 <1>   0.4500 
 39 H       -1.8750   -13.4550    -0.1990 H     1 <1>   0.0800 
 40 H       -3.4360   -13.5180    -0.9810 H     1 <1>   0.0800 
 41 H       -4.4310   -11.3830    -1.6540 H     1 <1>   0.0800 
 42 H       -4.0560    -9.9360    -0.7590 H     1 <1>   0.0800 
 43 H       -3.1780   -12.8800     1.9630 H     1 <1>   0.0800 
 44 H       -3.0820   -14.5120     1.4160 H     1 <1>   0.0800 
 45 H       -6.1430   -10.6610    -0.0160 H     1 <1>   0.0800 
 46 H       -5.0620   -10.9730     1.2940 H     1 <1>   0.0800 
 47 H       -5.3660   -13.5450     2.2010 H     1 <1>   0.0800 
 48 H       -5.2840   -14.6930     0.9150 H     1 <1>   0.0800 
 49 H       -5.7840   -13.1090    -0.7440 H     1 <1>   0.0800 
 50 H       -6.8360   -12.7600     0.5800 H     1 <1>   0.0800 
@<TRIPOS>BOND
  1   1   2  1   
  2   1   3  1   
  3   2   4  2   
  4   2   5  1   
  5   3   6  2   
  6   3  25  1   
  7   4   6  1   
  8   5   7  1   
  9   5  26  1   
 10   5  27  1   
 11   6  28  1   
 12   7   8  1   
 13   7  29  1   
 14   7  30  1   
 15   8   9  am  
 16   8  31  1   
 17   9  10  2   
 18   9  11  1   
 19  11  12  ar  
 20  11  13  ar  
 21  12  14  ar  
 22  12  32  1   
 23  13  15  ar  
 24  13  33  1   
 25  14  16  ar  
 26  14  34  1   
 27  15  16  ar  
 28  15  35  1   
 29  16  17  1   
 30  17  18  1   
 31  17  36  1   
 32  17  37  1   
 33  18  19  1   
 34  18  20  1   
 35  18  38  1   
 36  19  21  1   
 37  19  39  1   
 38  19  40  1   
 39  20  22  1   
 40  20  41  1   
 41  20  42  1   
 42  21  23  1   
 43  21  43  1   
 44  21  44  1   
 45  22  24  1   
 46  22  45  1   
 47  22  46  1   
 48  23  24  1   
 49  23  47  1   
 50  23  48  1   
 51  24  49  1   
 52  24  50  1   
@<TRIPOS>SUBSTRUCTURE
  1 ****  11 GROUP 4 **** **** 0

# MOE 2024.06 (io_trps.svl 2023.06)
