@<TRIPOS>MOLECULE
NONAME
40 42 1 0 0 
SMALL
USER_CHARGES


@<TRIPOS>ATOM
  1 O       -2.0810     0.7590    -1.3030 O.2   1 <1>  -0.5700 
  2 C       -1.9440     0.6540    -0.1070 C.2   1 <1>   0.6300 
  3 N       -1.9100    -0.5530     0.5060 N.am  1 <1>  -0.7300 
  4 C       -1.8230     1.9040     0.7350 C.3   1 <1>   0.0000 
  5 C       -1.9630    -1.8630    -0.1810 C.3   1 <1>   0.2200 
  6 C       -0.3750     2.3450     0.7640 C.2   1 <1>   0.6300 
  7 C       -2.9160     2.9400     0.7070 C.3   1 <1>  -0.2000 
  8 C       -2.7150     2.1080     1.9330 C.3   1 <1>  -0.2000 
  9 C       -3.3290    -2.5180    -0.0260 C.3   1 <1>  -0.0800 
 10 C       -1.0900    -2.8530     0.5770 C.3   1 <1>   0.1200 
 11 O        0.3050     2.1250     1.7330 O.2   1 <1>  -0.5700 
 12 N        0.1440     2.9820    -0.3010 N.am  1 <1>  -0.8000 
 13 C       -3.2230    -3.2210     1.3320 C.3   1 <1>   0.1200 
 14 C       -4.5450    -1.5830    -0.1620 C.3   1 <1>  -0.0170 
 15 O       -1.8650    -3.2630     1.6620 O.3   1 <1>  -0.5600 
 16 C       -5.8440    -2.3710    -0.0960 C.ar  1 <1>  -0.1430 
 17 C       -6.5830    -2.4760     1.0650 C.ar  1 <1>  -0.1500 
 18 C       -6.3490    -3.0260    -1.2000 C.ar  1 <1>  -0.1500 
 19 C       -7.7540    -3.2150     1.0670 C.ar  1 <1>   0.1600 
 20 C       -7.5320    -3.7390    -1.0930 C.ar  1 <1>   0.1600 
 21 N       -8.2460    -3.8520     0.0160 N.ar  1 <1>  -0.6200 
 22 H       -1.7700    -0.6130     1.5190 H     1 <1>   0.3700 
 23 H       -1.6660    -1.7630    -1.2120 H     1 <1>   0.0800 
 24 H       -2.6450     3.9820     0.7410 H     1 <1>   0.1000 
 25 H       -3.7750     2.7580     0.0830 H     1 <1>   0.1000 
 26 H       -3.4520     1.3610     2.1730 H     1 <1>   0.1000 
 27 H       -2.2890     2.5640     2.8110 H     1 <1>   0.1000 
 28 H       -3.4110    -3.2840    -0.7760 H     1 <1>   0.0800 
 29 H       -0.1710    -2.4180     0.9290 H     1 <1>   0.0800 
 30 H       -0.8810    -3.7190    -0.0250 H     1 <1>   0.0800 
 31 H        1.1250     3.2590    -0.2980 H     1 <1>   0.3700 
 32 H       -0.3680     3.0910    -1.1790 H     1 <1>   0.3700 
 33 H       -3.6060    -4.2260     1.2920 H     1 <1>   0.0800 
 34 H       -3.7280    -2.6710     2.1070 H     1 <1>   0.0800 
 35 H       -4.4920    -1.0630    -1.1030 H     1 <1>   0.0800 
 36 H       -4.5400    -0.8410     0.6170 H     1 <1>   0.0800 
 37 H       -6.2610    -1.9910     1.9680 H     1 <1>   0.1500 
 38 H       -5.8350    -2.9890    -2.1430 H     1 <1>   0.1500 
 39 H       -8.3180    -3.2870     1.9810 H     1 <1>   0.1500 
 40 H       -7.9110    -4.2440    -1.9650 H     1 <1>   0.1500 
@<TRIPOS>BOND
  1   1   2  2   
  2   2   3  am  
  3   2   4  1   
  4   3   5  1   
  5   3  22  1   
  6   4   6  1   
  7   4   7  1   
  8   4   8  1   
  9   5   9  1   
 10   5  10  1   
 11   5  23  1   
 12   6  11  2   
 13   6  12  am  
 14   7   8  1   
 15   7  24  1   
 16   7  25  1   
 17   8  26  1   
 18   8  27  1   
 19   9  13  1   
 20   9  14  1   
 21   9  28  1   
 22  10  15  1   
 23  10  29  1   
 24  10  30  1   
 25  12  31  1   
 26  12  32  1   
 27  13  15  1   
 28  13  33  1   
 29  13  34  1   
 30  14  16  1   
 31  14  35  1   
 32  14  36  1   
 33  16  17  ar  
 34  16  18  ar  
 35  17  19  ar  
 36  17  37  1   
 37  18  20  ar  
 38  18  38  1   
 39  19  21  ar  
 40  19  39  1   
 41  20  21  ar  
 42  20  40  1   
@<TRIPOS>SUBSTRUCTURE
  1 ****  14 GROUP 4 **** **** 0

# MOE 2024.06 (io_trps.svl 2023.06)
