@<TRIPOS>MOLECULE
NONAME
41 42 1 0 0 
SMALL
USER_CHARGES


@<TRIPOS>ATOM
  1 CL      -0.9480    -1.3240    -0.0120 Cl    1 <1>  -0.1770 
  2 C       -1.8830     0.1450    -0.1770 C.ar  1 <1>   0.1770 
  3 C       -3.2290     0.1210    -0.5560 C.ar  1 <1>   0.0860 
  4 C       -1.2120     1.3270     0.0790 C.ar  1 <1>  -0.1500 
  5 C       -3.9840    -1.0900    -0.8190 C.2   1 <1>   0.5440 
  6 C       -3.8610     1.3620    -0.6810 C.ar  1 <1>  -0.1500 
  7 C       -1.8710     2.5370    -0.0450 C.ar  1 <1>  -0.1500 
  8 O       -4.8650    -1.0930    -1.6560 O.2   1 <1>  -0.5700 
  9 N       -3.7830    -2.2380    -0.1100 N.am  1 <1>  -0.7300 
 10 C       -3.1990     2.5500    -0.4290 C.ar  1 <1>  -0.1500 
 11 C       -4.5020    -3.5110    -0.3360 C.3   1 <1>   0.2200 
 12 C       -5.8010    -3.5050     0.4730 C.3   1 <1>  -0.0800 
 13 C       -3.7260    -4.6860     0.2550 C.3   1 <1>   0.1200 
 14 C       -5.6200    -4.6570     1.4680 C.3   1 <1>   0.1200 
 15 C       -7.0700    -3.5270    -0.4090 C.3   1 <1>  -0.0550 
 16 O       -4.2470    -4.8610     1.5330 O.3   1 <1>  -0.5600 
 17 S       -7.4110    -5.0290    -1.3390 S.o2  1 <1>   1.3330 
 18 O       -6.1620    -5.6330    -1.7480 O.2   1 <1>  -0.6500 
 19 O       -8.4260    -4.7500    -2.3290 O.2   1 <1>  -0.6500 
 20 N       -8.1260    -6.0500    -0.1820 N.am  1 <1>  -0.8490 
 21 C       -9.5620    -5.8080     0.0030 C.3   1 <1>   0.1160 
 22 C       -7.8990    -7.4680    -0.4770 C.3   1 <1>   0.1160 
 23 H       -0.1770     1.3000     0.3700 H     1 <1>   0.1500 
 24 H       -4.8950     1.3890    -0.9830 H     1 <1>   0.1500 
 25 H       -1.3540     3.4610     0.1520 H     1 <1>   0.1500 
 26 H       -3.0770    -2.2680     0.6300 H     1 <1>   0.3700 
 27 H       -3.7180     3.4880    -0.5330 H     1 <1>   0.1500 
 28 H       -4.6560    -3.6530    -1.3930 H     1 <1>   0.0800 
 29 H       -5.8440    -2.6010     1.0550 H     1 <1>   0.0800 
 30 H       -2.6670    -4.5070     0.3130 H     1 <1>   0.0800 
 31 H       -3.9180    -5.5850    -0.3060 H     1 <1>   0.0800 
 32 H       -6.0590    -5.5770     1.1310 H     1 <1>   0.0800 
 33 H       -5.9860    -4.4160     2.4500 H     1 <1>   0.0800 
 34 H       -6.9790    -2.7180    -1.1090 H     1 <1>   0.0800 
 35 H       -7.9170    -3.3040     0.2080 H     1 <1>   0.0800 
 36 H       -9.9370    -6.4120     0.8120 H     1 <1>   0.0800 
 37 H      -10.1040    -6.0510    -0.8960 H     1 <1>   0.0800 
 38 H       -9.7380    -4.7730     0.2420 H     1 <1>   0.0800 
 39 H       -8.3570    -8.0860     0.2760 H     1 <1>   0.0800 
 40 H       -6.8430    -7.6800    -0.4860 H     1 <1>   0.0800 
 41 H       -8.3100    -7.7200    -1.4410 H     1 <1>   0.0800 
@<TRIPOS>BOND
  1   1   2  1   
  2   2   3  ar  
  3   2   4  ar  
  4   3   5  1   
  5   3   6  ar  
  6   4   7  ar  
  7   4  23  1   
  8   5   8  2   
  9   5   9  am  
 10   6  10  ar  
 11   6  24  1   
 12   7  10  ar  
 13   7  25  1   
 14   9  11  1   
 15   9  26  1   
 16  10  27  1   
 17  11  12  1   
 18  11  13  1   
 19  11  28  1   
 20  12  14  1   
 21  12  15  1   
 22  12  29  1   
 23  13  16  1   
 24  13  30  1   
 25  13  31  1   
 26  14  16  1   
 27  14  32  1   
 28  14  33  1   
 29  15  17  1   
 30  15  34  1   
 31  15  35  1   
 32  17  18  2   
 33  17  19  2   
 34  17  20  am  
 35  20  21  1   
 36  20  22  1   
 37  21  36  1   
 38  21  37  1   
 39  21  38  1   
 40  22  39  1   
 41  22  40  1   
 42  22  41  1   
@<TRIPOS>SUBSTRUCTURE
  1 ****  11 GROUP 4 **** **** 0

# MOE 2024.06 (io_trps.svl 2023.06)
