@<TRIPOS>MOLECULE
NONAME
45 48 1 0 0 
SMALL
USER_CHARGES


@<TRIPOS>ATOM
  1 O       -1.7940    -0.5640    -2.5740 O.2   1 <1>  -0.5700 
  2 C       -1.9680    -0.9390    -1.4360 C.2   1 <1>   0.5690 
  3 N       -2.4240    -0.1020    -0.4530 N.am  1 <1>  -0.6600 
  4 C       -1.6040    -2.3770    -1.1050 C.3   1 <1>  -0.0190 
  5 C       -2.6400    -0.5920     0.9440 C.3   1 <1>   0.2200 
  6 C       -2.8940     1.2790    -0.7480 C.3   1 <1>   0.0600 
  7 C       -0.4470    -2.4280    -0.0970 C.3   1 <1>   0.1200 
  8 C       -2.8090    -3.2500    -0.6980 C.3   1 <1>   0.1100 
  9 C       -1.3050    -1.0120     1.5940 C.3   1 <1>   0.1200 
 10 C       -3.7220    -1.7000     1.0460 C.3   1 <1>   0.1100 
 11 O       -0.8880    -2.2940     1.2190 O.3   1 <1>  -0.5600 
 12 N       -3.9670    -2.4890    -0.1890 N.3   1 <1>  -0.8100 
 13 C       -5.2120    -3.2780    -0.1310 C.3   1 <1>   0.1100 
 14 C       -5.1600    -4.4330     0.8800 C.3   1 <1>   0.1400 
 15 N       -6.4640    -5.1260     0.9170 N.am  1 <1>  -0.4770 
 16 C       -7.4860    -4.8680     1.7870 C.2   1 <1>   0.7800 
 17 C       -6.9260    -6.1000     0.0570 C.ar  1 <1>   0.1170 
 18 O       -7.4780    -4.0490     2.6870 O.2   1 <1>  -0.5700 
 19 O       -8.5430    -5.6370     1.5180 O.3   1 <1>  -0.2320 
 20 C       -8.2110    -6.3970     0.4550 C.ar  1 <1>   0.0820 
 21 C       -6.3600    -6.7540    -1.0270 C.ar  1 <1>  -0.1500 
 22 C       -8.9790    -7.3440    -0.1960 C.ar  1 <1>  -0.1500 
 23 C       -7.1180    -7.7070    -1.6920 C.ar  1 <1>  -0.1500 
 24 C       -8.4170    -8.0000    -1.2800 C.ar  1 <1>  -0.1500 
 25 H       -1.2110    -2.8020    -2.0100 H     1 <1>   0.0800 
 26 H       -2.9930     0.2400     1.5270 H     1 <1>   0.0800 
 27 H       -2.3780     1.9820    -0.1190 H     1 <1>   0.0800 
 28 H       -3.9520     1.3440    -0.5690 H     1 <1>   0.0800 
 29 H       -2.7040     1.5340    -1.7760 H     1 <1>   0.0800 
 30 H        0.2850    -1.6660    -0.3050 H     1 <1>   0.0800 
 31 H        0.0370    -3.3870    -0.1610 H     1 <1>   0.0800 
 32 H       -2.4980    -3.9780     0.0300 H     1 <1>   0.0800 
 33 H       -3.1290    -3.7820    -1.5780 H     1 <1>   0.0800 
 34 H       -1.4330    -1.0370     2.6610 H     1 <1>   0.0800 
 35 H       -0.5270    -0.3040     1.3660 H     1 <1>   0.0800 
 36 H       -4.6430    -1.2120     1.3140 H     1 <1>   0.0800 
 37 H       -3.4710    -2.3610     1.8560 H     1 <1>   0.0800 
 38 H       -6.0240    -2.6190     0.1290 H     1 <1>   0.0800 
 39 H       -5.4150    -3.6730    -1.1120 H     1 <1>   0.0800 
 40 H       -4.9460    -4.0530     1.8630 H     1 <1>   0.0800 
 41 H       -4.3990    -5.1390     0.6050 H     1 <1>   0.0800 
 42 H       -5.3590    -6.5230    -1.3410 H     1 <1>   0.1500 
 43 H       -9.9800    -7.5560     0.1360 H     1 <1>   0.1500 
 44 H       -6.7010    -8.2290    -2.5370 H     1 <1>   0.1500 
 45 H       -8.9880    -8.7440    -1.8100 H     1 <1>   0.1500 
@<TRIPOS>BOND
  1   1   2  2   
  2   2   3  am  
  3   2   4  1   
  4   3   5  1   
  5   3   6  1   
  6   4   7  1   
  7   4   8  1   
  8   4  25  1   
  9   5   9  1   
 10   5  10  1   
 11   5  26  1   
 12   6  27  1   
 13   6  28  1   
 14   6  29  1   
 15   7  11  1   
 16   7  30  1   
 17   7  31  1   
 18   8  12  1   
 19   8  32  1   
 20   8  33  1   
 21   9  11  1   
 22   9  34  1   
 23   9  35  1   
 24  10  12  1   
 25  10  36  1   
 26  10  37  1   
 27  12  13  1   
 28  13  14  1   
 29  13  38  1   
 30  13  39  1   
 31  14  15  1   
 32  14  40  1   
 33  14  41  1   
 34  15  16  am  
 35  15  17  1   
 36  16  18  2   
 37  16  19  1   
 38  17  20  ar  
 39  17  21  ar  
 40  19  20  1   
 41  20  22  ar  
 42  21  23  ar  
 43  21  42  1   
 44  22  24  ar  
 45  22  43  1   
 46  23  24  ar  
 47  23  44  1   
 48  24  45  1   
@<TRIPOS>SUBSTRUCTURE
  1 ****  13 GROUP 4 **** **** 0

# MOE 2024.06 (io_trps.svl 2023.06)
