@<TRIPOS>MOLECULE
NONAME
53 55 1 0 0 
SMALL
USER_CHARGES


@<TRIPOS>ATOM
  1 F       -1.3210    -0.5960    -1.7660 F     1 <1>  -0.1900 
  2 C       -1.9380     0.2700    -1.0060 C.ar  1 <1>   0.1900 
  3 C       -2.7070    -0.1720     0.0600 C.ar  1 <1>  -0.1440 
  4 C       -1.7860     1.6110    -1.3020 C.ar  1 <1>  -0.1500 
  5 C       -3.3300     0.7840     0.8510 C.ar  1 <1>  -0.1500 
  6 C       -2.8630    -1.6550     0.3650 C.3   1 <1>   0.2540 
  7 C       -2.4200     2.5480    -0.5050 C.ar  1 <1>  -0.1500 
  8 C       -3.1930     2.1370     0.5720 C.ar  1 <1>  -0.1440 
  9 N       -3.8360    -2.2960    -0.5440 N.3   1 <1>  -0.8100 
 10 C       -3.8840     3.1670     1.4480 C.3   1 <1>  -0.0970 
 11 C       -3.9240    -3.7620    -0.3190 C.3   1 <1>   0.3330 
 12 C       -5.1760    -1.6810    -0.4450 C.3   1 <1>   0.1100 
 13 C       -2.5620    -4.4220    -0.5350 C.ar  1 <1>  -0.1430 
 14 C       -5.0020    -4.4060    -1.2370 C.3   1 <1>   0.2000 
 15 C       -6.1930    -2.3970    -1.3480 C.3   1 <1>   0.1200 
 16 C       -2.0550    -5.2990     0.4150 C.ar  1 <1>  -0.1500 
 17 C       -1.8230    -4.1680    -1.6830 C.ar  1 <1>  -0.1500 
 18 O       -6.2350    -3.7610    -1.0460 O.3   1 <1>  -0.5600 
 19 C       -5.2280    -5.9030    -0.9680 C.3   1 <1>   0.1200 
 20 C       -0.8360    -5.9240     0.2210 C.ar  1 <1>   0.0830 
 21 C       -0.5940    -4.7750    -1.8770 C.ar  1 <1>  -0.1500 
 22 O       -4.1890    -6.6760    -1.4830 O.3   1 <1>  -0.6800 
 23 O       -0.4320    -6.8040     1.1690 O.3   1 <1>  -0.3630 
 24 C       -0.0850    -5.6420    -0.9260 C.ar  1 <1>   0.0830 
 25 C       -0.3430    -8.1540     0.7700 C.3   1 <1>   0.0400 
 26 O        1.1380    -6.1780    -1.1550 O.3   1 <1>  -0.3630 
 27 C        2.1680    -5.7690    -0.2830 C.3   1 <1>   0.0400 
 28 H       -1.1820     1.9110    -2.1390 H     1 <1>   0.1500 
 29 H       -3.9280     0.4730     1.6890 H     1 <1>   0.1500 
 30 H       -3.1770    -1.7880     1.3860 H     1 <1>   0.0800 
 31 H       -1.8970    -2.1180     0.2580 H     1 <1>   0.0800 
 32 H       -2.3080     3.5950    -0.7250 H     1 <1>   0.1500 
 33 H       -4.0990     4.0570     0.8860 H     1 <1>   0.0800 
 34 H       -3.2490     3.4240     2.2760 H     1 <1>   0.0800 
 35 H       -4.8100     2.7760     1.8290 H     1 <1>   0.0800 
 36 H       -4.2280    -3.9320     0.7000 H     1 <1>   0.0800 
 37 H       -5.5260    -1.7140     0.5730 H     1 <1>   0.0800 
 38 H       -5.1240    -0.6500    -0.7500 H     1 <1>   0.0800 
 39 H       -4.7270    -4.2800    -2.2700 H     1 <1>   0.0800 
 40 H       -5.9280    -2.2760    -2.3840 H     1 <1>   0.0800 
 41 H       -7.1780    -1.9940    -1.1920 H     1 <1>   0.0800 
 42 H       -2.6040    -5.5160     1.3140 H     1 <1>   0.1500 
 43 H       -2.2030    -3.4840    -2.4240 H     1 <1>   0.1500 
 44 H       -6.1330    -6.2280    -1.4510 H     1 <1>   0.0800 
 45 H       -5.2990    -6.0930     0.0880 H     1 <1>   0.0800 
 46 H       -0.0220    -4.5700    -2.7640 H     1 <1>   0.1500 
 47 H       -3.3160    -6.3090    -1.2180 H     1 <1>   0.4000 
 48 H       -0.1300    -8.7490     1.6400 H     1 <1>   0.0800 
 49 H        0.4480    -8.2630     0.0500 H     1 <1>   0.0800 
 50 H       -1.2830    -8.4530     0.3400 H     1 <1>   0.0800 
 51 H        3.0930    -6.1910    -0.6330 H     1 <1>   0.0800 
 52 H        1.9560    -6.1230     0.7100 H     1 <1>   0.0800 
 53 H        2.2250    -4.6950    -0.2930 H     1 <1>   0.0800 
@<TRIPOS>BOND
  1   1   2  1   
  2   2   3  ar  
  3   2   4  ar  
  4   3   5  ar  
  5   3   6  1   
  6   4   7  ar  
  7   4  28  1   
  8   5   8  ar  
  9   5  29  1   
 10   6   9  1   
 11   6  30  1   
 12   6  31  1   
 13   7   8  ar  
 14   7  32  1   
 15   8  10  1   
 16   9  11  1   
 17   9  12  1   
 18  10  33  1   
 19  10  34  1   
 20  10  35  1   
 21  11  13  1   
 22  11  14  1   
 23  11  36  1   
 24  12  15  1   
 25  12  37  1   
 26  12  38  1   
 27  13  16  ar  
 28  13  17  ar  
 29  14  18  1   
 30  14  19  1   
 31  14  39  1   
 32  15  18  1   
 33  15  40  1   
 34  15  41  1   
 35  16  20  ar  
 36  16  42  1   
 37  17  21  ar  
 38  17  43  1   
 39  19  22  1   
 40  19  44  1   
 41  19  45  1   
 42  20  23  1   
 43  20  24  ar  
 44  21  24  ar  
 45  21  46  1   
 46  22  47  1   
 47  23  25  1   
 48  24  26  1   
 49  25  48  1   
 50  25  49  1   
 51  25  50  1   
 52  26  27  1   
 53  27  51  1   
 54  27  52  1   
 55  27  53  1   
@<TRIPOS>SUBSTRUCTURE
  1 ****   9 GROUP 4 **** **** 0

# MOE 2024.06 (io_trps.svl 2023.06)
