@<TRIPOS>MOLECULE
NONAME
50 52 1 0 0 
SMALL
USER_CHARGES


@<TRIPOS>ATOM
  1 CL       0.0470     0.7450    -0.0140 Cl    1 <1>  -0.1770 
  2 C        1.2380    -0.4530     0.4190 C.ar  1 <1>   0.1770 
  3 C        0.8150    -1.7040     0.8310 C.ar  1 <1>  -0.1500 
  4 C        2.5810    -0.1340     0.3440 C.ar  1 <1>  -0.1500 
  5 C        1.7570    -2.6660     1.1670 C.ar  1 <1>  -0.1440 
  6 C        3.5230    -1.0890     0.6840 C.ar  1 <1>  -0.1500 
  7 C        3.1100    -2.3560     1.0840 C.ar  1 <1>   0.0830 
  8 C        1.3310    -4.0480     1.6210 C.3   1 <1>   0.4870 
  9 O        4.0050    -3.3140     1.4180 O.3   1 <1>  -0.3630 
 10 N        1.6620    -5.0300     0.5590 N.4   1 <1>  -0.9590 
 11 C        5.0560    -3.6200     0.5270 C.3   1 <1>   0.2580 
 12 C        0.8510    -4.8100    -0.6770 C.3   1 <1>   0.3430 
 13 C        1.4010    -6.4250     1.0200 C.3   1 <1>   0.3430 
 14 C        4.7970    -5.0190     0.0030 C.2   1 <1>  -0.2880 
 15 C       -0.1860    -5.9380    -0.7000 C.3   1 <1>   0.2000 
 16 C        0.5650    -7.1060    -0.0720 C.3   1 <1>  -0.0800 
 17 C        4.5240    -5.3380    -1.2660 C.2   1 <1>  -0.3000 
 18 O       -1.2340    -5.5880     0.1460 O.3   1 <1>  -0.6800 
 19 C        1.4350    -7.8370    -1.1140 C.3   1 <1>   0.0210 
 20 C        2.3600    -8.8460    -0.4670 C.2   1 <1>   0.1080 
 21 N        3.4910    -8.5060     0.0700 N.2   1 <1>  -0.7070 
 22 C        2.1200   -10.2120    -0.3760 C.2   1 <1>  -0.1500 
 23 N        4.0180    -9.6680     0.5110 N.pl3 1 <1>   0.3000 
 24 C        3.2010   -10.7110     0.2570 C.2   1 <1>  -0.3320 
 25 C        3.5130   -12.1490     0.6350 C.3   1 <1>  -0.0600 
 26 H       -0.2410    -1.9040     0.8840 H     1 <1>   0.1500 
 27 H        2.8790     0.8510     0.0290 H     1 <1>   0.1500 
 28 H        4.5700    -0.8420     0.6460 H     1 <1>   0.1500 
 29 H        0.2710    -4.0650     1.8210 H     1 <1>   0.0800 
 30 H        1.8590    -4.2960     2.5270 H     1 <1>   0.0800 
 31 H        2.6700    -4.9170     0.3460 H     1 <1>   0.4500 
 32 H        5.0820    -2.9080    -0.2800 H     1 <1>   0.0800 
 33 H        5.9840    -3.5780     1.0710 H     1 <1>   0.0800 
 34 H        0.3730    -3.8440    -0.6900 H     1 <1>   0.0800 
 35 H        1.4900    -4.8970    -1.5390 H     1 <1>   0.0800 
 36 H        2.3200    -6.9470     1.2230 H     1 <1>   0.0800 
 37 H        0.8180    -6.4000     1.9260 H     1 <1>   0.0800 
 38 H        4.8690    -5.7650     0.7790 H     1 <1>   0.1500 
 39 H       -0.5770    -6.1300    -1.6850 H     1 <1>   0.0800 
 40 H       -0.1060    -7.8230     0.3680 H     1 <1>   0.0800 
 41 H        4.3660    -6.3520    -1.6000 H     1 <1>   0.1500 
 42 H        4.4550    -4.6320    -2.0770 H     1 <1>   0.1500 
 43 H       -1.9890    -6.2070     0.0500 H     1 <1>   0.4000 
 44 H        2.0420    -7.1420    -1.6660 H     1 <1>   0.0800 
 45 H        0.8040    -8.3480    -1.8200 H     1 <1>   0.0800 
 46 H        1.2560   -10.7380    -0.7430 H     1 <1>   0.1500 
 47 H        4.9350    -9.7220     0.9730 H     1 <1>   0.2700 
 48 H        2.7120   -12.7960     0.3240 H     1 <1>   0.0800 
 49 H        3.6320   -12.2390     1.7000 H     1 <1>   0.0800 
 50 H        4.4190   -12.4730     0.1520 H     1 <1>   0.0800 
@<TRIPOS>BOND
  1   1   2  1   
  2   2   3  ar  
  3   2   4  ar  
  4   3   5  ar  
  5   3  26  1   
  6   4   6  ar  
  7   4  27  1   
  8   5   7  ar  
  9   5   8  1   
 10   6   7  ar  
 11   6  28  1   
 12   7   9  1   
 13   8  10  1   
 14   8  29  1   
 15   8  30  1   
 16   9  11  1   
 17  10  12  1   
 18  10  13  1   
 19  10  31  1   
 20  11  14  1   
 21  11  32  1   
 22  11  33  1   
 23  12  15  1   
 24  12  34  1   
 25  12  35  1   
 26  13  16  1   
 27  13  36  1   
 28  13  37  1   
 29  14  17  2   
 30  14  38  1   
 31  15  16  1   
 32  15  18  1   
 33  15  39  1   
 34  16  19  1   
 35  16  40  1   
 36  17  41  1   
 37  17  42  1   
 38  18  43  1   
 39  19  20  1   
 40  19  44  1   
 41  19  45  1   
 42  20  21  2   
 43  20  22  1   
 44  21  23  1   
 45  22  24  2   
 46  22  46  1   
 47  23  24  1   
 48  23  47  1   
 49  24  25  1   
 50  25  48  1   
 51  25  49  1   
 52  25  50  1   
@<TRIPOS>SUBSTRUCTURE
  1 ****  10 GROUP 4 **** **** 0

# MOE 2024.06 (io_trps.svl 2023.06)
