@<TRIPOS>MOLECULE
NONAME
53 56 1 0 0 
SMALL
USER_CHARGES


@<TRIPOS>ATOM
  1 O        0.5550     1.7310     1.3160 O.2   1 <1>  -0.5700 
  2 C       -0.2200     2.2430     0.5410 C.2   1 <1>   0.5690 
  3 N       -1.5760     2.1890     0.7830 N.am  1 <1>  -0.6600 
  4 C        0.4210     2.9380    -0.6700 C.3   1 <1>  -0.0190 
  5 C       -2.6460     2.8730    -0.0230 C.3   1 <1>   0.1400 
  6 C       -2.0540     1.4540     1.9980 C.3   1 <1>   0.1400 
  7 C        0.4290     4.4750    -0.5610 C.3   1 <1>  -0.1600 
  8 C       -0.0850     2.4700    -2.0500 C.3   1 <1>  -0.1600 
  9 C       -3.7510     3.4640     0.8730 C.3   1 <1>   0.1440 
 10 C       -3.5440     1.1040     1.9070 C.3   1 <1>  -0.1600 
 11 C        1.0740     5.1030    -1.8000 C.3   1 <1>   0.1200 
 12 C        0.6060     3.2540    -3.1700 C.3   1 <1>   0.1200 
 13 C       -4.7180     4.2180    -0.0240 C.ar  1 <1>   0.1660 
 14 C       -4.4420     2.3380     1.6880 C.3   1 <1>  -0.1600 
 15 C       -3.1910     4.6010     1.7800 C.3   1 <1>  -0.1600 
 16 O        0.4400     4.6200    -2.9430 O.3   1 <1>  -0.5600 
 17 N       -5.5780     3.6670    -0.8440 N.ar  1 <1>  -0.6200 
 18 C       -4.5700     5.5670     0.0930 C.ar  1 <1>  -0.1440 
 19 C       -3.4890     5.9350     1.0750 C.3   1 <1>  -0.0170 
 20 C       -6.3210     4.5190    -1.5540 C.ar  1 <1>   0.7200 
 21 C       -5.3770     6.3670    -0.6750 C.ar  1 <1>   0.1600 
 22 N       -6.2580     5.8540    -1.5010 N.ar  1 <1>  -0.6200 
 23 N       -7.2370     3.9690    -2.4290 N.pl3 1 <1>  -0.8380 
 24 C       -7.6310     2.5350    -2.3650 C.3   1 <1>   0.1290 
 25 C       -7.8870     4.7730    -3.5010 C.3   1 <1>   0.1290 
 26 H        1.4580     2.6470    -0.6420 H     1 <1>   0.0800 
 27 H       -3.0890     2.1550    -0.6910 H     1 <1>   0.0800 
 28 H       -2.2370     3.6610    -0.6220 H     1 <1>   0.0800 
 29 H       -1.8770     2.0670     2.8650 H     1 <1>   0.0800 
 30 H       -1.4850     0.5470     2.1130 H     1 <1>   0.0800 
 31 H        0.9830     4.7670     0.3140 H     1 <1>   0.0800 
 32 H       -0.5620     4.8700    -0.4590 H     1 <1>   0.0800 
 33 H       -1.1420     2.6100    -2.1600 H     1 <1>   0.0800 
 34 H        0.1160     1.4210    -2.1700 H     1 <1>   0.0800 
 35 H       -3.8480     0.5910     2.8020 H     1 <1>   0.0800 
 36 H       -3.6740     0.4180     1.0880 H     1 <1>   0.0800 
 37 H        2.1230     4.8670    -1.8610 H     1 <1>   0.0800 
 38 H        0.9560     6.1730    -1.7860 H     1 <1>   0.0800 
 39 H        0.1610     3.0220    -4.1220 H     1 <1>   0.0800 
 40 H        1.6590     3.0350    -3.2130 H     1 <1>   0.0800 
 41 H       -5.3240     2.0040     1.1680 H     1 <1>   0.0800 
 42 H       -4.7770     2.7140     2.6370 H     1 <1>   0.0800 
 43 H       -2.1400     4.4940     1.9800 H     1 <1>   0.0800 
 44 H       -3.7070     4.6090     2.7220 H     1 <1>   0.0800 
 45 H       -2.6220     6.2880     0.5430 H     1 <1>   0.0800 
 46 H       -3.8220     6.6850     1.7710 H     1 <1>   0.0800 
 47 H       -5.2980     7.4390    -0.6150 H     1 <1>   0.1500 
 48 H       -7.5280     2.1590    -1.3620 H     1 <1>   0.0800 
 49 H       -7.0020     1.9600    -3.0210 H     1 <1>   0.0800 
 50 H       -8.6580     2.4200    -2.6640 H     1 <1>   0.0800 
 51 H       -7.2510     5.5880    -3.8010 H     1 <1>   0.0800 
 52 H       -8.8170     5.1710    -3.1360 H     1 <1>   0.0800 
 53 H       -8.0750     4.1570    -4.3620 H     1 <1>   0.0800 
@<TRIPOS>BOND
  1   1   2  2   
  2   2   3  am  
  3   2   4  1   
  4   3   5  1   
  5   3   6  1   
  6   4   7  1   
  7   4   8  1   
  8   4  26  1   
  9   5   9  1   
 10   5  27  1   
 11   5  28  1   
 12   6  10  1   
 13   6  29  1   
 14   6  30  1   
 15   7  11  1   
 16   7  31  1   
 17   7  32  1   
 18   8  12  1   
 19   8  33  1   
 20   8  34  1   
 21   9  13  1   
 22   9  14  1   
 23   9  15  1   
 24  10  14  1   
 25  10  35  1   
 26  10  36  1   
 27  11  16  1   
 28  11  37  1   
 29  11  38  1   
 30  12  16  1   
 31  12  39  1   
 32  12  40  1   
 33  13  17  ar  
 34  13  18  ar  
 35  14  41  1   
 36  14  42  1   
 37  15  19  1   
 38  15  43  1   
 39  15  44  1   
 40  17  20  ar  
 41  18  19  1   
 42  18  21  ar  
 43  19  45  1   
 44  19  46  1   
 45  20  22  ar  
 46  20  23  1   
 47  21  22  ar  
 48  21  47  1   
 49  23  24  1   
 50  23  25  1   
 51  24  48  1   
 52  24  49  1   
 53  24  50  1   
 54  25  51  1   
 55  25  52  1   
 56  25  53  1   
@<TRIPOS>SUBSTRUCTURE
  1 ****   5 GROUP 4 **** **** 0

# MOE 2024.06 (io_trps.svl 2023.06)
