@<TRIPOS>MOLECULE
NONAME
34 36 1 0 0 
SMALL
USER_CHARGES


@<TRIPOS>ATOM
  1 O        0.5050    -0.0930     0.4850 O.3   1 <1>  -0.6800 
  2 C        1.6170    -0.2170    -0.3390 C.3   1 <1>   0.2000 
  3 C        2.4400    -1.4420     0.0520 C.3   1 <1>  -0.0800 
  4 C        2.5830     0.9520    -0.1670 C.3   1 <1>   0.2090 
  5 C        3.8500    -1.1040    -0.4420 C.3   1 <1>   0.2090 
  6 C        1.8830    -2.7610    -0.5110 C.3   1 <1>  -0.0170 
  7 N        3.9250     0.3800    -0.4760 N.pl3 1 <1>  -0.8380 
  8 C        2.7290    -3.9570    -0.1020 C.ar  1 <1>   0.1660 
  9 C        5.0950     1.0650    -0.1570 C.ar  1 <1>   0.4100 
 10 N        3.8150    -4.1870    -0.8230 N.ar  1 <1>  -0.6200 
 11 C        2.3450    -4.7460     0.9820 C.ar  1 <1>   0.1600 
 12 N        4.9530     2.2430     0.4430 N.ar  1 <1>  -0.6200 
 13 C        6.3650     0.5400    -0.4660 C.ar  1 <1>   0.1600 
 14 C        4.4810    -5.2480    -0.3960 C.ar  1 <1>   0.1600 
 15 N        3.0090    -5.8060     1.4100 N.ar  1 <1>  -0.6200 
 16 C        6.1090     2.8230     0.7140 C.ar  1 <1>   0.1600 
 17 N        7.5220     1.1160    -0.1930 N.ar  1 <1>  -0.6200 
 18 C        4.0910    -6.0310     0.6840 C.ar  1 <1>   0.1600 
 19 C        7.3500     2.2820     0.4110 C.ar  1 <1>   0.1600 
 20 H       -0.1620    -0.7720     0.2750 H     1 <1>   0.4000 
 21 H        1.2910    -0.2640    -1.3640 H     1 <1>   0.0800 
 22 H        2.4860    -1.4980     1.1260 H     1 <1>   0.0800 
 23 H        2.5640     1.3030     0.8510 H     1 <1>   0.0800 
 24 H        2.3530     1.7570    -0.8430 H     1 <1>   0.0800 
 25 H        4.0050    -1.4820    -1.4380 H     1 <1>   0.0800 
 26 H        4.5940    -1.5210     0.2170 H     1 <1>   0.0800 
 27 H        1.8450    -2.7140    -1.5860 H     1 <1>   0.0800 
 28 H        0.8770    -2.9010    -0.1590 H     1 <1>   0.0800 
 29 H        1.4500    -4.4890     1.5200 H     1 <1>   0.1500 
 30 H        6.3990    -0.4050    -0.9720 H     1 <1>   0.1500 
 31 H        5.3790    -5.5120    -0.9260 H     1 <1>   0.1500 
 32 H        6.0700     3.7790     1.2030 H     1 <1>   0.1500 
 33 H        4.6990    -6.8750     0.9560 H     1 <1>   0.1500 
 34 H        8.2350     2.8310     0.6750 H     1 <1>   0.1500 
@<TRIPOS>BOND
  1   1   2  1   
  2   1  20  1   
  3   2   3  1   
  4   2   4  1   
  5   2  21  1   
  6   3   5  1   
  7   3   6  1   
  8   3  22  1   
  9   4   7  1   
 10   4  23  1   
 11   4  24  1   
 12   5   7  1   
 13   5  25  1   
 14   5  26  1   
 15   6   8  1   
 16   6  27  1   
 17   6  28  1   
 18   7   9  1   
 19   8  10  ar  
 20   8  11  ar  
 21   9  12  ar  
 22   9  13  ar  
 23  10  14  ar  
 24  11  15  ar  
 25  11  29  1   
 26  12  16  ar  
 27  13  17  ar  
 28  13  30  1   
 29  14  18  ar  
 30  14  31  1   
 31  15  18  ar  
 32  16  19  ar  
 33  16  32  1   
 34  17  19  ar  
 35  18  33  1   
 36  19  34  1   
@<TRIPOS>SUBSTRUCTURE
  1 ****   5 GROUP 4 **** **** 0

# MOE 2024.06 (io_trps.svl 2023.06)
