@<TRIPOS>MOLECULE
NONAME
45 47 1 0 0 
SMALL
USER_CHARGES


@<TRIPOS>ATOM
  1 O        0.8280    -0.1440     1.5350 O.2   1 <1>  -0.5700 
  2 C        1.6100    -0.7800     0.8520 C.2   1 <1>   0.6900 
  3 N        1.7240    -2.1540     1.0220 N.am  1 <1>  -0.4690 
  4 N        2.3790    -0.1420    -0.1020 N.am  1 <1>  -0.4200 
  5 C        2.5100    -2.9340     0.1540 C.2   1 <1>   0.1230 
  6 C        1.0930    -2.7750     2.2280 C.3   1 <1>   0.0600 
  7 C        3.2030    -0.8740    -0.9310 C.2   1 <1>   0.6160 
  8 C        2.2950     1.3400    -0.2570 C.3   1 <1>   0.0600 
  9 C        2.5300    -4.3850     0.2430 C.2   1 <1>   0.6160 
 10 C        3.2450    -2.2800    -0.7800 C.2   1 <1>  -0.1360 
 11 O        3.8650    -0.3230    -1.7920 O.2   1 <1>  -0.5700 
 12 O        3.5700    -4.9610     0.4970 O.2   1 <1>  -0.5700 
 13 N        1.3970    -5.1330     0.0230 N.am  1 <1>  -0.6600 
 14 C        0.1840    -4.6390    -0.6780 C.3   1 <1>   0.1400 
 15 C        1.3900    -6.6140     0.1070 C.3   1 <1>   0.1400 
 16 C       -0.4670    -5.8970    -1.2530 C.3   1 <1>   0.2000 
 17 C       -0.0090    -7.0370    -0.3460 C.3   1 <1>  -0.0800 
 18 O       -1.8480    -5.8050    -1.2510 O.3   1 <1>  -0.6800 
 19 C       -0.0420    -8.4080    -1.0370 C.3   1 <1>   0.0200 
 20 C        0.4960    -9.4890    -0.1200 C.2   1 <1>  -0.0400 
 21 O       -0.1130    -9.7530     1.0050 O.3   1 <1>  -0.0190 
 22 C        1.5590   -10.3010    -0.2140 C.2   1 <1>  -0.1500 
 23 N        0.4880   -10.6950     1.6710 N.2   1 <1>  -0.4100 
 24 C        1.4990   -11.0460     0.9600 C.2   1 <1>   0.1080 
 25 C        2.4840   -12.1230     1.3560 C.3   1 <1>  -0.0590 
 26 H        1.6390    -3.6470     2.5410 H     1 <1>   0.0800 
 27 H        0.0780    -3.0490     2.0050 H     1 <1>   0.0800 
 28 H        1.0900    -2.0760     3.0470 H     1 <1>   0.0800 
 29 H        3.2320     1.7360    -0.6090 H     1 <1>   0.0800 
 30 H        2.0660     1.8040     0.6860 H     1 <1>   0.0800 
 31 H        1.5220     1.5820    -0.9650 H     1 <1>   0.0800 
 32 H        3.8910    -2.8090    -1.4560 H     1 <1>   0.1500 
 33 H       -0.4680    -4.1630     0.0320 H     1 <1>   0.0800 
 34 H        0.4460    -3.9520    -1.4640 H     1 <1>   0.0800 
 35 H        2.1470    -7.0060    -0.5520 H     1 <1>   0.0800 
 36 H        1.5950    -6.9410     1.1130 H     1 <1>   0.0800 
 37 H       -0.1380    -6.0440    -2.2680 H     1 <1>   0.0800 
 38 H       -0.6300    -7.0670     0.5320 H     1 <1>   0.0800 
 39 H       -2.1920    -5.7680    -0.3370 H     1 <1>   0.4000 
 40 H        0.5470    -8.3820    -1.9370 H     1 <1>   0.0800 
 41 H       -1.0550    -8.6520    -1.3090 H     1 <1>   0.0800 
 42 H        2.3000   -10.3840    -0.9870 H     1 <1>   0.1500 
 43 H        2.4920   -12.9010     0.6150 H     1 <1>   0.0800 
 44 H        2.2040   -12.5470     2.3030 H     1 <1>   0.0800 
 45 H        3.4690   -11.7020     1.4400 H     1 <1>   0.0800 
@<TRIPOS>BOND
  1   1   2  2   
  2   2   3  am  
  3   2   4  am  
  4   3   5  1   
  5   3   6  1   
  6   4   7  am  
  7   4   8  1   
  8   5   9  1   
  9   5  10  2   
 10   6  26  1   
 11   6  27  1   
 12   6  28  1   
 13   7  10  1   
 14   7  11  2   
 15   8  29  1   
 16   8  30  1   
 17   8  31  1   
 18   9  12  2   
 19   9  13  am  
 20  10  32  1   
 21  13  14  1   
 22  13  15  1   
 23  14  16  1   
 24  14  33  1   
 25  14  34  1   
 26  15  17  1   
 27  15  35  1   
 28  15  36  1   
 29  16  17  1   
 30  16  18  1   
 31  16  37  1   
 32  17  19  1   
 33  17  38  1   
 34  18  39  1   
 35  19  20  1   
 36  19  40  1   
 37  19  41  1   
 38  20  21  1   
 39  20  22  2   
 40  21  23  1   
 41  22  24  1   
 42  22  42  1   
 43  23  24  2   
 44  24  25  1   
 45  25  43  1   
 46  25  44  1   
 47  25  45  1   
@<TRIPOS>SUBSTRUCTURE
  1 ****  13 GROUP 4 **** **** 0

# MOE 2024.06 (io_trps.svl 2023.06)
