@<TRIPOS>MOLECULE
NONAME
48 50 1 0 0 
SMALL
USER_CHARGES


@<TRIPOS>ATOM
  1 O       -0.6400     0.4060     0.6340 O.2   1 <1>  -0.5700 
  2 C       -1.6500     0.9600     0.2390 C.2   1 <1>   0.7160 
  3 N       -2.8060     0.2170     0.1480 N.am  1 <1>  -0.6600 
  4 C       -1.6200     2.3550    -0.1330 C.2   1 <1>  -0.0860 
  5 C       -4.0160     0.6180    -0.6140 C.3   1 <1>   0.1400 
  6 C       -2.8440    -1.2400     0.4380 C.3   1 <1>   0.1400 
  7 C       -0.6260     2.9920    -0.8850 C.2   1 <1>   0.1080 
  8 C       -2.4910     3.3690     0.1370 C.2   1 <1>  -0.3020 
  9 C       -5.0030    -0.5270    -0.3910 C.3   1 <1>   0.2000 
 10 C       -4.1030    -1.7600    -0.2640 C.3   1 <1>  -0.0800 
 11 N       -0.8630     4.2500    -1.0730 N.2   1 <1>  -0.7070 
 12 C        0.6120     2.3220    -1.4410 C.3   1 <1>  -0.0590 
 13 N       -2.0180     4.4860    -0.4320 N.pl3 1 <1>   0.3140 
 14 O       -5.6540    -0.3010     0.8130 O.3   1 <1>  -0.6800 
 15 C       -4.7440    -2.9780     0.4270 C.3   1 <1>  -0.0170 
 16 C       -2.6210     5.8320    -0.3890 C.3   1 <1>   0.0960 
 17 C       -3.7920    -4.1640     0.4290 C.ar  1 <1>  -0.1430 
 18 C       -2.2300     6.5660     0.9010 C.3   1 <1>  -0.1600 
 19 C       -3.6610    -4.9920    -0.6670 C.ar  1 <1>  -0.1500 
 20 C       -3.0070    -4.4720     1.5220 C.ar  1 <1>  -0.1500 
 21 C       -2.8520     7.9660     0.9590 C.3   1 <1>  -0.2400 
 22 C       -2.7750    -6.0550    -0.6210 C.ar  1 <1>   0.1600 
 23 C       -2.1510    -5.5600     1.4660 C.ar  1 <1>   0.1600 
 24 N       -2.0150    -6.3580     0.4190 N.ar  1 <1>  -0.6200 
 25 H       -4.4220     1.5530    -0.2740 H     1 <1>   0.0800 
 26 H       -3.7640     0.6910    -1.6580 H     1 <1>   0.0800 
 27 H       -1.9590    -1.7340     0.0700 H     1 <1>   0.0800 
 28 H       -2.9080    -1.3800     1.5040 H     1 <1>   0.0800 
 29 H       -3.4000     3.3440     0.7080 H     1 <1>   0.1500 
 30 H       -5.7410    -0.6100    -1.1700 H     1 <1>   0.0800 
 31 H       -3.8140    -2.0530    -1.2580 H     1 <1>   0.0800 
 32 H        0.3420     1.4270    -1.9690 H     1 <1>   0.0800 
 33 H        1.2760     2.0690    -0.6360 H     1 <1>   0.0800 
 34 H        1.1180     2.9880    -2.1160 H     1 <1>   0.0800 
 35 H       -4.9860    -0.0750     1.4920 H     1 <1>   0.4000 
 36 H       -5.6480    -3.2480    -0.0910 H     1 <1>   0.0800 
 37 H       -5.0160    -2.7360     1.4400 H     1 <1>   0.0800 
 38 H       -2.2740     6.3810    -1.2460 H     1 <1>   0.0800 
 39 H       -3.6880     5.7300    -0.4540 H     1 <1>   0.0800 
 40 H       -2.5590     5.9960     1.7540 H     1 <1>   0.0800 
 41 H       -1.1570     6.6530     0.9440 H     1 <1>   0.0800 
 42 H       -4.2390    -4.8210    -1.5570 H     1 <1>   0.1500 
 43 H       -3.0510    -3.8800     2.4180 H     1 <1>   0.1500 
 44 H       -3.9260     7.9050     0.9360 H     1 <1>   0.0800 
 45 H       -2.5180     8.5600     0.1260 H     1 <1>   0.0800 
 46 H       -2.5570     8.4600     1.8690 H     1 <1>   0.0800 
 47 H       -2.6870    -6.6910    -1.4850 H     1 <1>   0.1500 
 48 H       -1.5460    -5.7850     2.3270 H     1 <1>   0.1500 
@<TRIPOS>BOND
  1   1   2  2   
  2   2   3  am  
  3   2   4  1   
  4   3   5  1   
  5   3   6  1   
  6   4   7  1   
  7   4   8  2   
  8   5   9  1   
  9   5  25  1   
 10   5  26  1   
 11   6  10  1   
 12   6  27  1   
 13   6  28  1   
 14   7  11  2   
 15   7  12  1   
 16   8  13  1   
 17   8  29  1   
 18   9  10  1   
 19   9  14  1   
 20   9  30  1   
 21  10  15  1   
 22  10  31  1   
 23  11  13  1   
 24  12  32  1   
 25  12  33  1   
 26  12  34  1   
 27  13  16  1   
 28  14  35  1   
 29  15  17  1   
 30  15  36  1   
 31  15  37  1   
 32  16  18  1   
 33  16  38  1   
 34  16  39  1   
 35  17  19  ar  
 36  17  20  ar  
 37  18  21  1   
 38  18  40  1   
 39  18  41  1   
 40  19  22  ar  
 41  19  42  1   
 42  20  23  ar  
 43  20  43  1   
 44  21  44  1   
 45  21  45  1   
 46  21  46  1   
 47  22  24  ar  
 48  22  47  1   
 49  23  24  ar  
 50  23  48  1   
@<TRIPOS>SUBSTRUCTURE
  1 ****   3 GROUP 4 **** **** 0

# MOE 2024.06 (io_trps.svl 2023.06)
