@<TRIPOS>MOLECULE
NONAME
46 48 1 0 0 
SMALL
USER_CHARGES


@<TRIPOS>ATOM
  1 CL      -0.4590    -0.1010    -0.3010 Cl    1 <1>  -0.1770 
  2 C       -0.3570    -1.8320    -0.1070 C.ar  1 <1>   0.1770 
  3 C       -0.1490    -2.6280    -1.2170 C.ar  1 <1>  -0.1500 
  4 C       -0.4860    -2.3820     1.1550 C.ar  1 <1>  -0.1500 
  5 C       -0.0700    -4.0020    -1.0600 C.ar  1 <1>  -0.1500 
  6 C       -0.4060    -3.7560     1.3050 C.ar  1 <1>  -0.1500 
  7 C       -0.1980    -4.5700     0.2000 C.ar  1 <1>  -0.1430 
  8 C       -0.1160    -6.0790     0.3690 C.3   1 <1>  -0.0160 
  9 C       -1.5140    -6.7050     0.2620 C.3   1 <1>  -0.0990 
 10 C       -1.5080    -8.2220     0.3670 C.2   1 <1>   0.5690 
 11 O       -0.5320    -8.7800     0.8090 O.2   1 <1>  -0.5700 
 12 N       -2.6080    -8.9280    -0.0290 N.am  1 <1>  -0.6600 
 13 C       -3.9300    -8.3830    -0.4320 C.3   1 <1>   0.1400 
 14 C       -2.6590   -10.4130     0.0060 C.3   1 <1>   0.1400 
 15 C       -4.9090    -9.5160    -0.1250 C.3   1 <1>   0.2000 
 16 C       -4.0890   -10.7770    -0.4110 C.3   1 <1>  -0.0800 
 17 O       -5.2180    -9.4580     1.2260 O.3   1 <1>  -0.6800 
 18 C       -4.6120   -12.0740     0.2310 C.3   1 <1>   0.0210 
 19 C       -3.7110   -13.2450    -0.1100 C.2   1 <1>   0.1080 
 20 N       -3.4890   -13.6300    -1.3290 N.2   1 <1>  -0.7070 
 21 C       -3.0230   -14.0170     0.8190 C.2   1 <1>  -0.1500 
 22 N       -2.6440   -14.6710    -1.2070 N.pl3 1 <1>   0.3000 
 23 C       -2.3450   -14.9240     0.0840 C.2   1 <1>  -0.3320 
 24 C       -1.4170   -16.0330     0.5440 C.3   1 <1>  -0.0600 
 25 H       -0.0510    -2.1760    -2.1870 H     1 <1>   0.1500 
 26 H       -0.6460    -1.7420     2.0030 H     1 <1>   0.1500 
 27 H        0.0930    -4.6250    -1.9220 H     1 <1>   0.1500 
 28 H       -0.5050    -4.1900     2.2860 H     1 <1>   0.1500 
 29 H        0.5260    -6.4970    -0.3880 H     1 <1>   0.0800 
 30 H        0.3170    -6.3160     1.3250 H     1 <1>   0.0800 
 31 H       -1.9420    -6.4270    -0.6830 H     1 <1>   0.0800 
 32 H       -2.1370    -6.3130     1.0440 H     1 <1>   0.0800 
 33 H       -4.1850    -7.4850     0.1040 H     1 <1>   0.0800 
 34 H       -3.9190    -8.1860    -1.4890 H     1 <1>   0.0800 
 35 H       -1.9350   -10.8360    -0.6700 H     1 <1>   0.0800 
 36 H       -2.4470   -10.7510     1.0060 H     1 <1>   0.0800 
 37 H       -5.8220    -9.4570    -0.6930 H     1 <1>   0.0800 
 38 H       -4.0770   -10.9210    -1.4780 H     1 <1>   0.0800 
 39 H       -4.3820    -9.4000     1.7320 H     1 <1>   0.4000 
 40 H       -5.6010   -12.2830    -0.1340 H     1 <1>   0.0800 
 41 H       -4.6660   -11.9750     1.3000 H     1 <1>   0.0800 
 42 H       -3.0440   -13.8940     1.8870 H     1 <1>   0.1500 
 43 H       -2.2900   -15.1850    -2.0230 H     1 <1>   0.2700 
 44 H       -1.3410   -16.0290     1.6170 H     1 <1>   0.0800 
 45 H       -0.4340   -15.8900     0.1310 H     1 <1>   0.0800 
 46 H       -1.7950   -16.9890     0.2310 H     1 <1>   0.0800 
@<TRIPOS>BOND
  1   1   2  1   
  2   2   3  ar  
  3   2   4  ar  
  4   3   5  ar  
  5   3  25  1   
  6   4   6  ar  
  7   4  26  1   
  8   5   7  ar  
  9   5  27  1   
 10   6   7  ar  
 11   6  28  1   
 12   7   8  1   
 13   8   9  1   
 14   8  29  1   
 15   8  30  1   
 16   9  10  1   
 17   9  31  1   
 18   9  32  1   
 19  10  11  2   
 20  10  12  am  
 21  12  13  1   
 22  12  14  1   
 23  13  15  1   
 24  13  33  1   
 25  13  34  1   
 26  14  16  1   
 27  14  35  1   
 28  14  36  1   
 29  15  16  1   
 30  15  17  1   
 31  15  37  1   
 32  16  18  1   
 33  16  38  1   
 34  17  39  1   
 35  18  19  1   
 36  18  40  1   
 37  18  41  1   
 38  19  20  2   
 39  19  21  1   
 40  20  22  1   
 41  21  23  2   
 42  21  42  1   
 43  22  23  1   
 44  22  43  1   
 45  23  24  1   
 46  24  44  1   
 47  24  45  1   
 48  24  46  1   
@<TRIPOS>SUBSTRUCTURE
  1 ****  12 GROUP 4 **** **** 0

# MOE 2024.06 (io_trps.svl 2023.06)
