@<TRIPOS>MOLECULE
NONAME
45 47 1 0 0 
SMALL
USER_CHARGES


@<TRIPOS>ATOM
  1 CL       1.5010     3.3660     3.0690 Cl    1 <1>  -0.1770 
  2 C        0.8420     3.1490     1.4650 C.ar  1 <1>   0.1770 
  3 C        1.4960     2.3760     0.5120 C.ar  1 <1>  -0.1440 
  4 C       -0.3660     3.7650     1.1910 C.ar  1 <1>  -0.1500 
  5 C        0.8870     2.2150    -0.7280 C.ar  1 <1>  -0.1500 
  6 C        2.8440     1.7150     0.7990 C.3   1 <1>   0.3640 
  7 C       -0.9510     3.6050    -0.0510 C.ar  1 <1>  -0.1500 
  8 C       -0.3250     2.8260    -1.0080 C.ar  1 <1>  -0.1500 
  9 N        2.6810     0.2530     0.6140 N.am  1 <1>  -0.7300 
 10 C        3.9560     2.2720    -0.1310 C.3   1 <1>   0.2610 
 11 C        3.6020    -0.5320     0.0150 C.2   1 <1>   0.5690 
 12 O        5.0940     1.4230    -0.1380 O.3   1 <1>  -0.5600 
 13 C        4.3440     3.7080     0.2470 C.2   1 <1>   0.5690 
 14 O        3.4350    -1.7210    -0.0670 O.2   1 <1>  -0.5700 
 15 C        4.8520     0.1090    -0.5980 C.3   1 <1>   0.1810 
 16 O        4.2220     4.0570     1.4010 O.2   1 <1>  -0.5700 
 17 N        4.8100     4.5740    -0.7200 N.am  1 <1>  -0.5090 
 18 C        4.9560     6.0280    -0.4430 C.3   1 <1>   0.0540 
 19 C        5.3480     4.1330    -2.0360 C.3   1 <1>   0.0600 
 20 C        4.4300     6.9730    -1.4840 C.3   1 <1>  -0.2000 
 21 C        3.6890     6.7860    -0.1960 C.3   1 <1>  -0.2000 
 22 C        6.2150     6.3330     0.3950 C.3   1 <1>   0.2150 
 23 O        6.4440     7.7110     0.4800 O.3   1 <1>  -0.5600 
 24 C        7.4950     8.0540     1.3230 C.3   1 <1>   0.0400 
 25 H       -0.8410     4.3620     1.9490 H     1 <1>   0.1500 
 26 H        1.3470     1.6060    -1.4870 H     1 <1>   0.1500 
 27 H        3.1410     1.8800     1.8190 H     1 <1>   0.0800 
 28 H       -1.8920     4.0820    -0.2720 H     1 <1>   0.1500 
 29 H       -0.7830     2.6940    -1.9730 H     1 <1>   0.1500 
 30 H        1.8670    -0.1870     1.0480 H     1 <1>   0.3700 
 31 H        3.5750     2.2950    -1.1340 H     1 <1>   0.0800 
 32 H        4.7480     0.1380    -1.6670 H     1 <1>   0.0800 
 33 H        5.7120    -0.4860    -0.3510 H     1 <1>   0.0800 
 34 H        6.1690     4.7680    -2.3240 H     1 <1>   0.0800 
 35 H        4.5770     4.2010    -2.7830 H     1 <1>   0.0800 
 36 H        5.7100     3.1220    -1.9830 H     1 <1>   0.0800 
 37 H        4.9290     7.9140    -1.6380 H     1 <1>   0.1000 
 38 H        3.9720     6.5980    -2.3800 H     1 <1>   0.1000 
 39 H        2.7620     6.2410    -0.1850 H     1 <1>   0.1000 
 40 H        3.7030     7.5920     0.5170 H     1 <1>   0.1000 
 41 H        7.0770     5.8820    -0.0630 H     1 <1>   0.0800 
 42 H        6.0830     5.9440     1.3910 H     1 <1>   0.0800 
 43 H        7.5940     9.1250     1.3140 H     1 <1>   0.0800 
 44 H        8.4030     7.6020     0.9630 H     1 <1>   0.0800 
 45 H        7.2720     7.7190     2.3220 H     1 <1>   0.0800 
@<TRIPOS>BOND
  1   1   2  1   
  2   2   3  ar  
  3   2   4  ar  
  4   3   5  ar  
  5   3   6  1   
  6   4   7  ar  
  7   4  25  1   
  8   5   8  ar  
  9   5  26  1   
 10   6   9  1   
 11   6  10  1   
 12   6  27  1   
 13   7   8  ar  
 14   7  28  1   
 15   8  29  1   
 16   9  11  am  
 17   9  30  1   
 18  10  12  1   
 19  10  13  1   
 20  10  31  1   
 21  11  14  2   
 22  11  15  1   
 23  12  15  1   
 24  13  16  2   
 25  13  17  am  
 26  15  32  1   
 27  15  33  1   
 28  17  18  1   
 29  17  19  1   
 30  18  20  1   
 31  18  21  1   
 32  18  22  1   
 33  19  34  1   
 34  19  35  1   
 35  19  36  1   
 36  20  21  1   
 37  20  37  1   
 38  20  38  1   
 39  21  39  1   
 40  21  40  1   
 41  22  23  1   
 42  22  41  1   
 43  22  42  1   
 44  23  24  1   
 45  24  43  1   
 46  24  44  1   
 47  24  45  1   
@<TRIPOS>SUBSTRUCTURE
  1 ****  13 GROUP 4 **** **** 0

# MOE 2024.06 (io_trps.svl 2023.06)
