@<TRIPOS>MOLECULE
NONAME
50 53 1 0 0 
SMALL
USER_CHARGES


@<TRIPOS>ATOM
  1 S       -0.4520     0.2940     1.5020 S.o2  1 <1>   1.4470 
  2 O       -0.7520     1.7030     1.6410 O.2   1 <1>  -0.6500 
  3 O       -0.2020    -0.4980     2.6890 O.2   1 <1>  -0.6500 
  4 N       -1.7700    -0.4230     0.7110 N.am  1 <1>  -0.8490 
  5 C        0.9010     0.0870     0.3110 C.ar  1 <1>  -0.0090 
  6 C       -3.0340    -0.0650     1.3580 C.3   1 <1>   0.1960 
  7 C       -1.6290    -1.8780     0.6230 C.3   1 <1>   0.1960 
  8 C        0.7820     0.5610    -0.9900 C.ar  1 <1>  -0.1500 
  9 C        2.0840    -0.5550     0.6620 C.ar  1 <1>  -0.1500 
 10 C       -4.2120    -0.5810     0.5270 C.3   1 <1>  -0.1600 
 11 C       -2.7450    -2.4620    -0.2470 C.3   1 <1>  -0.1600 
 12 C        1.8010     0.3980    -1.9120 C.ar  1 <1>  -0.1500 
 13 C        3.1090    -0.7230    -0.2530 C.ar  1 <1>  -0.1500 
 14 C       -4.1330    -2.1010     0.3100 C.3   1 <1>  -0.0800 
 15 C        2.9670    -0.2460    -1.5430 C.ar  1 <1>  -0.1500 
 16 C       -5.2750    -2.5670    -0.6040 C.3   1 <1>   0.1400 
 17 N       -5.2580    -4.0420    -0.7520 N.am  1 <1>  -0.7300 
 18 C       -5.9900    -4.9140     0.0070 C.2   1 <1>   0.5440 
 19 O       -6.6980    -4.4630     0.8860 O.2   1 <1>  -0.5700 
 20 C       -5.9300    -6.3440    -0.2380 C.ar  1 <1>   0.0860 
 21 C       -7.0340    -7.1570     0.0460 C.ar  1 <1>  -0.1500 
 22 C       -4.7790    -6.9570    -0.7620 C.ar  1 <1>  -0.1500 
 23 C       -6.9600    -8.5100    -0.2080 C.ar  1 <1>   0.0820 
 24 C       -4.7180    -8.3200    -1.0130 C.ar  1 <1>  -0.1500 
 25 O       -7.8980    -9.4440    -0.0140 O.3   1 <1>  -0.3620 
 26 C       -5.8340    -9.0790    -0.7260 C.ar  1 <1>   0.0820 
 27 C       -7.3310   -10.6860    -0.4290 C.3   1 <1>   0.4000 
 28 O       -6.0110   -10.3920    -0.8800 O.3   1 <1>  -0.3620 
 29 H       -3.1140     1.0070     1.4370 H     1 <1>   0.0800 
 30 H       -3.0680    -0.4780     2.3530 H     1 <1>   0.0800 
 31 H       -1.6670    -2.3140     1.6090 H     1 <1>   0.0800 
 32 H       -0.6780    -2.1280     0.1820 H     1 <1>   0.0800 
 33 H       -0.1250     1.0650    -1.2820 H     1 <1>   0.1500 
 34 H        2.2050    -0.9290     1.6660 H     1 <1>   0.1500 
 35 H       -4.2090    -0.0710    -0.4210 H     1 <1>   0.0800 
 36 H       -5.1290    -0.3340     1.0320 H     1 <1>   0.0800 
 37 H       -2.6310    -3.5300    -0.2800 H     1 <1>   0.0800 
 38 H       -2.6360    -2.0830    -1.2480 H     1 <1>   0.0800 
 39 H        1.6870     0.7740    -2.9150 H     1 <1>   0.1500 
 40 H        4.0170    -1.2230     0.0400 H     1 <1>   0.1500 
 41 H       -4.2600    -2.5790     1.2680 H     1 <1>   0.0800 
 42 H        3.7630    -0.3740    -2.2570 H     1 <1>   0.1500 
 43 H       -5.1860    -2.1110    -1.5750 H     1 <1>   0.0800 
 44 H       -6.2190    -2.2650    -0.1810 H     1 <1>   0.0800 
 45 H       -4.7190    -4.4000    -1.5410 H     1 <1>   0.3700 
 46 H       -7.9330    -6.7330     0.4580 H     1 <1>   0.1500 
 47 H       -3.9110    -6.3570    -0.9700 H     1 <1>   0.1500 
 48 H       -3.8370    -8.7880    -1.4150 H     1 <1>   0.1500 
 49 H       -7.9080   -11.0930    -1.2410 H     1 <1>   0.0800 
 50 H       -7.2860   -11.3600     0.4070 H     1 <1>   0.0800 
@<TRIPOS>BOND
  1   1   2  2   
  2   1   3  2   
  3   1   4  am  
  4   1   5  1   
  5   4   6  1   
  6   4   7  1   
  7   5   8  ar  
  8   5   9  ar  
  9   6  10  1   
 10   6  29  1   
 11   6  30  1   
 12   7  11  1   
 13   7  31  1   
 14   7  32  1   
 15   8  12  ar  
 16   8  33  1   
 17   9  13  ar  
 18   9  34  1   
 19  10  14  1   
 20  10  35  1   
 21  10  36  1   
 22  11  14  1   
 23  11  37  1   
 24  11  38  1   
 25  12  15  ar  
 26  12  39  1   
 27  13  15  ar  
 28  13  40  1   
 29  14  16  1   
 30  14  41  1   
 31  15  42  1   
 32  16  17  1   
 33  16  43  1   
 34  16  44  1   
 35  17  18  am  
 36  17  45  1   
 37  18  19  2   
 38  18  20  1   
 39  20  21  ar  
 40  20  22  ar  
 41  21  23  ar  
 42  21  46  1   
 43  22  24  ar  
 44  22  47  1   
 45  23  25  1   
 46  23  26  ar  
 47  24  26  ar  
 48  24  48  1   
 49  25  27  1   
 50  26  28  1   
 51  27  28  1   
 52  27  49  1   
 53  27  50  1   
@<TRIPOS>SUBSTRUCTURE
  1 ****  11 GROUP 4 **** **** 0

# MOE 2024.06 (io_trps.svl 2023.06)
