@<TRIPOS>MOLECULE
NONAME
53 56 1 0 0 
SMALL
USER_CHARGES


@<TRIPOS>ATOM
  1 O        0.3640     0.6610     0.6910 O.2   1 <1>  -0.5700 
  2 C       -0.3750     1.4850     0.2050 C.2   1 <1>   0.5690 
  3 N       -1.7350     1.4200     0.4040 N.am  1 <1>  -0.6600 
  4 C        0.2210     2.6200    -0.6300 C.3   1 <1>   0.0440 
  5 C       -2.7360     2.4250    -0.0830 C.3   1 <1>   0.1400 
  6 C       -2.3540     0.2940     1.1630 C.3   1 <1>   0.1400 
  7 C        1.7340     2.5830    -0.8420 C.ar  1 <1>  -0.1440 
  8 C       -3.5370     3.0210     1.0910 C.3   1 <1>   0.1440 
  9 C       -3.1650     0.8360     2.3470 C.3   1 <1>  -0.1600 
 10 C        2.2630     2.4220    -2.1160 C.ar  1 <1>  -0.1500 
 11 C        2.5940     2.7260     0.2380 C.ar  1 <1>  -0.1500 
 12 C       -4.5490     3.9970     0.5240 C.ar  1 <1>   0.1660 
 13 C       -4.2000     1.8830     1.8970 C.3   1 <1>  -0.1600 
 14 C       -2.6580     3.9330     1.9920 C.3   1 <1>  -0.1600 
 15 C        3.6330     2.4090    -2.3080 C.ar  1 <1>  -0.1500 
 16 C        3.9660     2.7130     0.0520 C.ar  1 <1>  -0.1500 
 17 N       -5.6190     3.6660    -0.1530 N.ar  1 <1>  -0.6200 
 18 C       -4.2000     5.2880     0.7780 C.ar  1 <1>  -0.1440 
 19 C       -2.9090     5.3860     1.5500 C.3   1 <1>  -0.0170 
 20 C        4.4800     2.5560    -1.2240 C.ar  1 <1>   0.0820 
 21 C       -6.3680     4.6890    -0.5720 C.ar  1 <1>   0.7200 
 22 C       -5.0290     6.2750     0.3080 C.ar  1 <1>   0.1600 
 23 O        5.8070     2.5410    -1.4200 O.3   1 <1>  -0.5320 
 24 N       -6.1150     5.9860    -0.3690 N.ar  1 <1>  -0.6200 
 25 N       -7.5080     4.3760    -1.2870 N.pl3 1 <1>  -0.8380 
 26 C       -8.0960     3.0090    -1.2830 C.3   1 <1>   0.1290 
 27 C       -8.2680     5.4040    -2.0510 C.3   1 <1>   0.1290 
 28 H       -0.0200     3.5480    -0.1500 H     1 <1>   0.0800 
 29 H       -0.2630     2.6100    -1.5880 H     1 <1>   0.0800 
 30 H       -3.4180     1.9330    -0.7550 H     1 <1>   0.0800 
 31 H       -2.2670     3.2220    -0.6290 H     1 <1>   0.0800 
 32 H       -1.6000    -0.3840     1.5270 H     1 <1>   0.0800 
 33 H       -2.9990    -0.2570     0.5010 H     1 <1>   0.0800 
 34 H       -2.4870     1.2660     3.0630 H     1 <1>   0.0800 
 35 H       -3.6690     0.0190     2.8300 H     1 <1>   0.0800 
 36 H        1.6160     2.3030    -2.9670 H     1 <1>   0.1500 
 37 H        2.1950     2.8380     1.2310 H     1 <1>   0.1500 
 38 H       -4.9330     1.3990     1.2750 H     1 <1>   0.0800 
 39 H       -4.7190     2.2850     2.7500 H     1 <1>   0.0800 
 40 H       -1.6150     3.6780     1.9480 H     1 <1>   0.0800 
 41 H       -2.9790     3.8390     3.0150 H     1 <1>   0.0800 
 42 H        4.0510     2.2850    -3.2900 H     1 <1>   0.1500 
 43 H        4.6190     2.8210     0.8970 H     1 <1>   0.1500 
 44 H       -2.1230     5.7290     0.9010 H     1 <1>   0.0800 
 45 H       -3.0010     6.0450     2.3960 H     1 <1>   0.0800 
 46 H       -4.8000     7.3120     0.4860 H     1 <1>   0.1500 
 47 H        6.3100     2.6180    -0.5910 H     1 <1>   0.4500 
 48 H       -7.8300     2.4840    -0.3820 H     1 <1>   0.0800 
 49 H       -7.7290     2.4570    -2.1310 H     1 <1>   0.0800 
 50 H       -9.1690     3.0670    -1.3340 H     1 <1>   0.0800 
 51 H       -7.6080     6.1800    -2.3990 H     1 <1>   0.0800 
 52 H       -9.0170     5.8420    -1.4160 H     1 <1>   0.0800 
 53 H       -8.7410     4.9550    -2.9060 H     1 <1>   0.0800 
@<TRIPOS>BOND
  1   1   2  2   
  2   2   3  am  
  3   2   4  1   
  4   3   5  1   
  5   3   6  1   
  6   4   7  1   
  7   4  28  1   
  8   4  29  1   
  9   5   8  1   
 10   5  30  1   
 11   5  31  1   
 12   6   9  1   
 13   6  32  1   
 14   6  33  1   
 15   7  10  ar  
 16   7  11  ar  
 17   8  12  1   
 18   8  13  1   
 19   8  14  1   
 20   9  13  1   
 21   9  34  1   
 22   9  35  1   
 23  10  15  ar  
 24  10  36  1   
 25  11  16  ar  
 26  11  37  1   
 27  12  17  ar  
 28  12  18  ar  
 29  13  38  1   
 30  13  39  1   
 31  14  19  1   
 32  14  40  1   
 33  14  41  1   
 34  15  20  ar  
 35  15  42  1   
 36  16  20  ar  
 37  16  43  1   
 38  17  21  ar  
 39  18  19  1   
 40  18  22  ar  
 41  19  44  1   
 42  19  45  1   
 43  20  23  1   
 44  21  24  ar  
 45  21  25  1   
 46  22  24  ar  
 47  22  46  1   
 48  23  47  1   
 49  25  26  1   
 50  25  27  1   
 51  26  48  1   
 52  26  49  1   
 53  26  50  1   
 54  27  51  1   
 55  27  52  1   
 56  27  53  1   
@<TRIPOS>SUBSTRUCTURE
  1 ****   5 GROUP 4 **** **** 0

# MOE 2024.06 (io_trps.svl 2023.06)
