@<TRIPOS>MOLECULE
NONAME
53 55 1 0 0 
SMALL
USER_CHARGES


@<TRIPOS>ATOM
  1 O        0.2870     0.9080     1.4740 O.2   1 <1>  -0.5700 
  2 C       -0.0220     1.5980     0.5220 C.2   1 <1>   0.5440 
  3 N       -1.3450     1.6700     0.1930 N.am  1 <1>  -0.7300 
  4 C        0.9850     2.2930    -0.2630 C.ar  1 <1>   0.0860 
  5 C       -2.4650     1.0900     0.9790 C.3   1 <1>   0.2200 
  6 C        0.6960     3.4670    -0.9630 C.ar  1 <1>  -0.1500 
  7 C        2.2900     1.8040    -0.3450 C.ar  1 <1>  -0.1500 
  8 C       -2.6140    -0.4260     0.7290 C.3   1 <1>   0.2000 
  9 C       -3.7490     1.8440     0.6170 C.3   1 <1>  -0.1600 
 10 C        1.6590     4.1120    -1.7180 C.ar  1 <1>  -0.1500 
 11 C        3.2570     2.4450    -1.0980 C.ar  1 <1>  -0.1500 
 12 O       -1.5160    -1.1070     1.2370 O.3   1 <1>  -0.6800 
 13 C       -3.8760    -0.9800     1.4020 C.3   1 <1>   0.2090 
 14 C       -4.9580     1.2450     1.3380 C.3   1 <1>   0.2090 
 15 C        2.9420     3.6000    -1.7890 C.ar  1 <1>  -0.1500 
 16 N       -5.0890    -0.2020     0.9670 N.pl3 1 <1>  -0.8380 
 17 C       -6.1680    -0.7090     0.3140 C.ar  1 <1>   0.4100 
 18 N       -7.1050     0.1610    -0.0940 N.ar  1 <1>  -0.6200 
 19 C       -6.3460    -2.0760     0.0470 C.ar  1 <1>  -0.1500 
 20 C       -8.1500    -0.2780    -0.7240 C.ar  1 <1>   0.5270 
 21 C       -7.4540    -2.5080    -0.6200 C.ar  1 <1>   0.2180 
 22 N       -8.3530    -1.5800    -1.0010 N.ar  1 <1>  -0.1790 
 23 C       -9.1930     0.7250    -1.1710 C.3   1 <1>  -0.0970 
 24 C       -7.7100    -3.9750    -0.9420 C.3   1 <1>  -0.0170 
 25 C       -8.9010    -4.5350    -0.1490 C.3   1 <1>  -0.1600 
 26 C       -9.1270    -6.0170    -0.4650 C.3   1 <1>  -0.2400 
 27 H       -1.6040     2.0910    -0.6990 H     1 <1>   0.3700 
 28 H       -2.2690     1.2400     2.0280 H     1 <1>   0.0800 
 29 H       -0.2910     3.8890    -0.9110 H     1 <1>   0.1500 
 30 H        2.5450     0.9070     0.1920 H     1 <1>   0.1500 
 31 H       -2.6610    -0.6200    -0.3280 H     1 <1>   0.0800 
 32 H       -3.6500     2.8750     0.9040 H     1 <1>   0.0800 
 33 H       -3.9270     1.7950    -0.4420 H     1 <1>   0.0800 
 34 H        1.4140     5.0150    -2.2510 H     1 <1>   0.1500 
 35 H        4.2550     2.0450    -1.1460 H     1 <1>   0.1500 
 36 H       -0.7490    -0.4760     1.3080 H     1 <1>   0.4000 
 37 H       -3.7720    -0.8920     2.4700 H     1 <1>   0.0800 
 38 H       -3.9490    -2.0210     1.1630 H     1 <1>   0.0800 
 39 H       -5.8370     1.8110     1.0850 H     1 <1>   0.0800 
 40 H       -4.8240     1.3240     2.4050 H     1 <1>   0.0800 
 41 H        3.6930     4.1000    -2.3760 H     1 <1>   0.1500 
 42 H       -5.6170    -2.7890     0.3710 H     1 <1>   0.1500 
 43 H       -9.1990    -1.8560    -1.4990 H     1 <1>   0.4570 
 44 H       -8.9090     1.7150    -0.8580 H     1 <1>   0.0800 
 45 H      -10.1470     0.4960    -0.7330 H     1 <1>   0.0800 
 46 H       -9.2780     0.7240    -2.2420 H     1 <1>   0.0800 
 47 H       -7.8870    -4.0880    -1.9980 H     1 <1>   0.0800 
 48 H       -6.8320    -4.5500    -0.7030 H     1 <1>   0.0800 
 49 H       -8.7120    -4.4320     0.9080 H     1 <1>   0.0800 
 50 H       -9.8010    -3.9930    -0.3800 H     1 <1>   0.0800 
 51 H       -8.2580    -6.5990    -0.2100 H     1 <1>   0.0800 
 52 H       -9.3430    -6.1590    -1.5100 H     1 <1>   0.0800 
 53 H       -9.9600    -6.3920     0.1050 H     1 <1>   0.0800 
@<TRIPOS>BOND
  1   1   2  2   
  2   2   3  am  
  3   2   4  1   
  4   3   5  1   
  5   3  27  1   
  6   4   6  ar  
  7   4   7  ar  
  8   5   8  1   
  9   5   9  1   
 10   5  28  1   
 11   6  10  ar  
 12   6  29  1   
 13   7  11  ar  
 14   7  30  1   
 15   8  12  1   
 16   8  13  1   
 17   8  31  1   
 18   9  14  1   
 19   9  32  1   
 20   9  33  1   
 21  10  15  ar  
 22  10  34  1   
 23  11  15  ar  
 24  11  35  1   
 25  12  36  1   
 26  13  16  1   
 27  13  37  1   
 28  13  38  1   
 29  14  16  1   
 30  14  39  1   
 31  14  40  1   
 32  15  41  1   
 33  16  17  1   
 34  17  18  ar  
 35  17  19  ar  
 36  18  20  ar  
 37  19  21  ar  
 38  19  42  1   
 39  20  22  ar  
 40  20  23  1   
 41  21  22  ar  
 42  21  24  1   
 43  22  43  1   
 44  23  44  1   
 45  23  45  1   
 46  23  46  1   
 47  24  25  1   
 48  24  47  1   
 49  24  48  1   
 50  25  26  1   
 51  25  49  1   
 52  25  50  1   
 53  26  51  1   
 54  26  52  1   
 55  26  53  1   
@<TRIPOS>SUBSTRUCTURE
  1 ****   8 GROUP 4 **** **** 0

# MOE 2024.06 (io_trps.svl 2023.06)
