@<TRIPOS>MOLECULE
NONAME
50 52 1 0 0 
SMALL
USER_CHARGES


@<TRIPOS>ATOM
  1 O        2.7250     0.5830    -0.0730 O.2   1 <1>  -0.5700 
  2 C        2.6890    -0.6200    -0.1010 C.2   1 <1>   0.5690 
  3 N        1.7220    -1.2840     0.5640 N.am  1 <1>  -0.7300 
  4 C        3.7540    -1.3840    -0.8550 C.3   1 <1>  -0.0990 
  5 C        1.3790    -2.7130     0.4200 C.3   1 <1>   0.1400 
  6 C        3.3360    -2.8000    -1.3070 C.3   1 <1>  -0.0800 
  7 C        2.4960    -3.5330    -0.2490 C.3   1 <1>  -0.0800 
  8 C        4.5780    -3.6980    -1.4830 C.3   1 <1>  -0.1600 
  9 C        3.5430    -4.1130     0.7010 C.3   1 <1>  -0.1600 
 10 C        4.6140    -4.6310    -0.2570 C.3   1 <1>   0.2200 
 11 N        5.9340    -4.8350     0.4110 N.am  1 <1>  -0.6600 
 12 C        7.0150    -3.9800     0.3310 C.2   1 <1>   0.5440 
 13 C        6.1770    -6.2470     0.8190 C.3   1 <1>   0.0600 
 14 O        8.0930    -4.4420     0.0080 O.2   1 <1>  -0.5700 
 15 C        6.9140    -2.5700     0.6450 C.ar  1 <1>   0.0860 
 16 C        7.4270    -1.6040    -0.2190 C.ar  1 <1>  -0.1500 
 17 C        6.3170    -2.1290     1.8260 C.ar  1 <1>  -0.1500 
 18 C        7.3220    -0.2510     0.0490 C.ar  1 <1>   0.0820 
 19 C        6.1950    -0.7820     2.1100 C.ar  1 <1>  -0.1500 
 20 O        7.8600     0.5820    -0.8810 O.3   1 <1>  -0.3630 
 21 C        6.6760     0.1660     1.2210 C.ar  1 <1>   0.0820 
 22 C        8.4750     1.7870    -0.4780 C.3   1 <1>   0.3200 
 23 O        6.4920     1.4680     1.5240 O.3   1 <1>  -0.3630 
 24 C        9.4120     2.2240    -1.5540 C.1   1 <1>  -0.2000 
 25 C        5.2170     1.9920     1.2230 C.3   1 <1>   0.0400 
 26 C       10.1580     2.5730    -2.4120 C.1   1 <1>  -0.1770 
 27 H        1.0440    -0.6970     1.0550 H     1 <1>   0.3700 
 28 H        4.0610    -0.8070    -1.7080 H     1 <1>   0.0800 
 29 H        4.5890    -1.4430    -0.1920 H     1 <1>   0.0800 
 30 H        1.1510    -3.1270     1.3870 H     1 <1>   0.0800 
 31 H        0.4910    -2.7780    -0.1860 H     1 <1>   0.0800 
 32 H        2.7790    -2.7210    -2.2250 H     1 <1>   0.0800 
 33 H        2.0180    -4.3710    -0.7290 H     1 <1>   0.0800 
 34 H        5.4730    -3.1190    -1.6120 H     1 <1>   0.0800 
 35 H        4.4540    -4.3020    -2.3640 H     1 <1>   0.0800 
 36 H        3.1400    -4.9050     1.3060 H     1 <1>   0.0800 
 37 H        3.9330    -3.3350     1.3300 H     1 <1>   0.0800 
 38 H        4.2760    -5.5910    -0.6100 H     1 <1>   0.0800 
 39 H        5.3660    -6.6000     1.4300 H     1 <1>   0.0800 
 40 H        7.0910    -6.3190     1.3850 H     1 <1>   0.0800 
 41 H        6.2670    -6.8670    -0.0560 H     1 <1>   0.0800 
 42 H        7.9210    -1.9210    -1.1200 H     1 <1>   0.1500 
 43 H        5.9450    -2.8590     2.5240 H     1 <1>   0.1500 
 44 H        5.7240    -0.4580     3.0210 H     1 <1>   0.1500 
 45 H        7.7110     2.5280    -0.3310 H     1 <1>   0.0800 
 46 H        9.0090     1.6140     0.4400 H     1 <1>   0.0800 
 47 H        5.2040     3.0330     1.4920 H     1 <1>   0.0800 
 48 H        4.4720     1.4570     1.7850 H     1 <1>   0.0800 
 49 H        5.0340     1.8820     0.1680 H     1 <1>   0.0800 
 50 H       10.8310     2.8820    -3.1920 H     1 <1>   0.1770 
@<TRIPOS>BOND
  1   1   2  2   
  2   2   3  am  
  3   2   4  1   
  4   3   5  1   
  5   3  27  1   
  6   4   6  1   
  7   4  28  1   
  8   4  29  1   
  9   5   7  1   
 10   5  30  1   
 11   5  31  1   
 12   6   7  1   
 13   6   8  1   
 14   6  32  1   
 15   7   9  1   
 16   7  33  1   
 17   8  10  1   
 18   8  34  1   
 19   8  35  1   
 20   9  10  1   
 21   9  36  1   
 22   9  37  1   
 23  10  11  1   
 24  10  38  1   
 25  11  12  am  
 26  11  13  1   
 27  12  14  2   
 28  12  15  1   
 29  13  39  1   
 30  13  40  1   
 31  13  41  1   
 32  15  16  ar  
 33  15  17  ar  
 34  16  18  ar  
 35  16  42  1   
 36  17  19  ar  
 37  17  43  1   
 38  18  20  1   
 39  18  21  ar  
 40  19  21  ar  
 41  19  44  1   
 42  20  22  1   
 43  21  23  1   
 44  22  24  1   
 45  22  45  1   
 46  22  46  1   
 47  23  25  1   
 48  24  26  3   
 49  25  47  1   
 50  25  48  1   
 51  25  49  1   
 52  26  50  1   
@<TRIPOS>SUBSTRUCTURE
  1 ****  15 GROUP 4 **** **** 0

# MOE 2024.06 (io_trps.svl 2023.06)
