@<TRIPOS>MOLECULE
NONAME
46 47 1 0 0 
SMALL
USER_CHARGES


@<TRIPOS>ATOM
  1 O       -0.6110    -0.7210     0.0280 O.3   1 <1>  -0.3630 
  2 C       -1.9230    -1.0520    -0.0630 C.ar  1 <1>   0.0830 
  3 C       -0.0300    -0.3610     1.2600 C.3   1 <1>   0.1200 
  4 C       -2.3890    -1.4180    -1.3140 C.ar  1 <1>  -0.1500 
  5 C       -2.8040    -1.0430     1.0150 C.ar  1 <1>  -0.1500 
  6 C        1.4470    -0.0670     1.0170 C.3   1 <1>  -0.2400 
  7 C       -3.7150    -1.7720    -1.4950 C.ar  1 <1>  -0.1500 
  8 C       -4.1290    -1.3970     0.8310 C.ar  1 <1>  -0.1500 
  9 C       -4.5990    -1.7620    -0.4230 C.ar  1 <1>  -0.1430 
 10 C       -6.0650    -2.1520    -0.6040 C.3   1 <1>   0.4330 
 11 N       -6.1000    -3.5300    -1.1010 N.pl3 1 <1>  -0.8690 
 12 C       -6.8060    -1.2470    -1.5980 C.3   1 <1>  -0.1600 
 13 C       -6.9070    -4.4650    -0.5600 C.ar  1 <1>   0.7200 
 14 C       -6.8280     0.2290    -1.1720 C.3   1 <1>  -0.2400 
 15 N       -6.3870    -5.6740    -0.5530 N.ar  1 <1>  -0.6200 
 16 N       -8.0870    -4.0800    -0.1050 N.ar  1 <1>  -0.6200 
 17 C       -7.1470    -6.6080    -0.0400 C.ar  1 <1>   0.3930 
 18 C       -8.8280    -5.0320     0.4030 C.ar  1 <1>   0.3930 
 19 O       -6.6040    -7.8420    -0.0410 O.3   1 <1>  -0.3620 
 20 C       -8.4020    -6.3410     0.4620 C.ar  1 <1>  -0.1500 
 21 O      -10.0300    -4.6290     0.8610 O.3   1 <1>  -0.3630 
 22 C       -7.2740    -8.9820     0.4500 C.3   1 <1>   0.0400 
 23 C      -10.9910    -5.5150     1.3900 C.3   1 <1>   0.0400 
 24 H       -0.1480    -1.1830     1.9440 H     1 <1>   0.0800 
 25 H       -0.5360     0.5130     1.6330 H     1 <1>   0.0800 
 26 H       -1.7060    -1.4250    -2.1440 H     1 <1>   0.1500 
 27 H       -2.4790    -0.7670     1.9990 H     1 <1>   0.1500 
 28 H        1.9380    -0.9410     0.6280 H     1 <1>   0.0800 
 29 H        1.9210     0.2110     1.9410 H     1 <1>   0.0800 
 30 H        1.5520     0.7440     0.3190 H     1 <1>   0.0800 
 31 H       -4.0560    -2.0560    -2.4750 H     1 <1>   0.1500 
 32 H       -4.7980    -1.3880     1.6740 H     1 <1>   0.1500 
 33 H       -6.5630    -2.0990     0.3500 H     1 <1>   0.0800 
 34 H       -5.1650    -3.9040    -1.2420 H     1 <1>   0.4000 
 35 H       -7.8200    -1.5980    -1.6780 H     1 <1>   0.0800 
 36 H       -6.3500    -1.3300    -2.5680 H     1 <1>   0.0800 
 37 H       -7.2870     0.3330    -0.2050 H     1 <1>   0.0800 
 38 H       -7.3920     0.8070    -1.8830 H     1 <1>   0.0800 
 39 H       -5.8280     0.6270    -1.1270 H     1 <1>   0.0800 
 40 H       -9.0130    -7.1100     0.8790 H     1 <1>   0.1500 
 41 H       -6.6230    -9.8290     0.3230 H     1 <1>   0.0800 
 42 H       -8.1770    -9.1290    -0.1150 H     1 <1>   0.0800 
 43 H       -7.4860    -8.8400     1.4950 H     1 <1>   0.0800 
 44 H      -11.8600    -4.9410     1.6570 H     1 <1>   0.0800 
 45 H      -10.5860    -5.9900     2.2670 H     1 <1>   0.0800 
 46 H      -11.2500    -6.2400     0.6400 H     1 <1>   0.0800 
@<TRIPOS>BOND
  1   1   2  1   
  2   1   3  1   
  3   2   4  ar  
  4   2   5  ar  
  5   3   6  1   
  6   3  24  1   
  7   3  25  1   
  8   4   7  ar  
  9   4  26  1   
 10   5   8  ar  
 11   5  27  1   
 12   6  28  1   
 13   6  29  1   
 14   6  30  1   
 15   7   9  ar  
 16   7  31  1   
 17   8   9  ar  
 18   8  32  1   
 19   9  10  1   
 20  10  11  1   
 21  10  12  1   
 22  10  33  1   
 23  11  13  1   
 24  11  34  1   
 25  12  14  1   
 26  12  35  1   
 27  12  36  1   
 28  13  15  ar  
 29  13  16  ar  
 30  14  37  1   
 31  14  38  1   
 32  14  39  1   
 33  15  17  ar  
 34  16  18  ar  
 35  17  19  1   
 36  17  20  ar  
 37  18  20  ar  
 38  18  21  1   
 39  19  22  1   
 40  20  40  1   
 41  21  23  1   
 42  22  41  1   
 43  22  42  1   
 44  22  43  1   
 45  23  44  1   
 46  23  45  1   
 47  23  46  1   
@<TRIPOS>SUBSTRUCTURE
  1 ****  11 GROUP 4 **** **** 0

# MOE 2024.06 (io_trps.svl 2023.06)
