@<TRIPOS>MOLECULE
NONAME
51 52 1 0 0 
SMALL
USER_CHARGES


@<TRIPOS>ATOM
  1 CL      -1.9580     0.0320    -2.5240 Cl    1 <1>  -0.1770 
  2 C       -2.4030    -0.8530    -1.0770 C.ar  1 <1>   0.1770 
  3 C       -2.1610    -0.3990     0.2270 C.ar  1 <1>   0.0830 
  4 C       -3.0260    -2.0660    -1.2980 C.ar  1 <1>  -0.1500 
  5 O       -1.5650     0.7580     0.6140 O.3   1 <1>  -0.3630 
  6 C       -2.5690    -1.2090     1.2750 C.ar  1 <1>  -0.1500 
  7 C       -3.4330    -2.8880    -0.2480 C.ar  1 <1>   0.0860 
  8 C       -1.1030     1.7600    -0.2600 C.3   1 <1>   0.1200 
  9 C       -3.1920    -2.4230     1.0470 C.ar  1 <1>  -0.1500 
 10 C       -4.0760    -4.1630    -0.5100 C.2   1 <1>   0.5440 
 11 C       -0.5380     2.9040     0.5830 C.3   1 <1>  -0.1600 
 12 O       -4.6520    -4.3650    -1.5610 O.2   1 <1>  -0.5700 
 13 N       -4.0590    -5.1680     0.4140 N.am  1 <1>  -0.7300 
 14 C       -0.0120     4.0390    -0.3020 C.3   1 <1>  -0.2400 
 15 C       -4.6770    -6.5000     0.2180 C.3   1 <1>   0.2200 
 16 C       -6.1570    -6.4290     0.6010 C.3   1 <1>  -0.0800 
 17 C       -4.1070    -7.5020     1.2190 C.3   1 <1>   0.1200 
 18 C       -6.2580    -7.3170     1.8480 C.3   1 <1>   0.1200 
 19 C       -7.1120    -6.7490    -0.5720 C.3   1 <1>  -0.0550 
 20 O       -4.9550    -7.4260     2.3190 O.3   1 <1>  -0.5600 
 21 S       -7.1180    -8.4310    -1.2150 S.o2  1 <1>   1.3330 
 22 O       -5.7800    -8.9740    -1.1420 O.2   1 <1>  -0.6500 
 23 O       -7.8240    -8.4480    -2.4760 O.2   1 <1>  -0.6500 
 24 N       -8.0850    -9.2770    -0.1020 N.am  1 <1>  -0.8490 
 25 C       -9.5240    -9.1470    -0.3600 C.3   1 <1>   0.1160 
 26 C       -7.7250   -10.6960    -0.0190 C.3   1 <1>   0.1160 
 27 H       -3.2010    -2.3870    -2.3110 H     1 <1>   0.1500 
 28 H       -2.3940    -0.8740     2.2830 H     1 <1>   0.1500 
 29 H       -0.3350     1.3390    -0.8860 H     1 <1>   0.0800 
 30 H       -1.9320     2.1040    -0.8530 H     1 <1>   0.0800 
 31 H       -3.5000    -3.0110     1.8920 H     1 <1>   0.1500 
 32 H       -1.3120     3.2850     1.2260 H     1 <1>   0.0800 
 33 H        0.2650     2.5290     1.1940 H     1 <1>   0.0800 
 34 H       -3.6550    -5.0240     1.3400 H     1 <1>   0.3700 
 35 H       -0.8030     4.4400    -0.9110 H     1 <1>   0.0800 
 36 H        0.7750     3.6840    -0.9440 H     1 <1>   0.0800 
 37 H        0.3800     4.8310     0.3120 H     1 <1>   0.0800 
 38 H       -4.5090    -6.8300    -0.7940 H     1 <1>   0.0800 
 39 H       -6.3880    -5.4260     0.9170 H     1 <1>   0.0800 
 40 H       -3.0990    -7.2760     1.5170 H     1 <1>   0.0800 
 41 H       -4.1600    -8.5030     0.8280 H     1 <1>   0.0800 
 42 H       -6.5980    -8.3120     1.6300 H     1 <1>   0.0800 
 43 H       -6.8740    -6.8830     2.6160 H     1 <1>   0.0800 
 44 H       -6.8480    -6.0900    -1.3780 H     1 <1>   0.0800 
 45 H       -8.1100    -6.4900    -0.2800 H     1 <1>   0.0800 
 46 H      -10.0850    -9.6190     0.4280 H     1 <1>   0.0800 
 47 H       -9.7810    -9.6100    -1.2990 H     1 <1>   0.0800 
 48 H       -9.8040    -8.1090    -0.4010 H     1 <1>   0.0800 
 49 H       -8.3490   -11.2000     0.6980 H     1 <1>   0.0800 
 50 H       -6.7000   -10.7990     0.2980 H     1 <1>   0.0800 
 51 H       -7.8380   -11.1670    -0.9820 H     1 <1>   0.0800 
@<TRIPOS>BOND
  1   1   2  1   
  2   2   3  ar  
  3   2   4  ar  
  4   3   5  1   
  5   3   6  ar  
  6   4   7  ar  
  7   4  27  1   
  8   5   8  1   
  9   6   9  ar  
 10   6  28  1   
 11   7   9  ar  
 12   7  10  1   
 13   8  11  1   
 14   8  29  1   
 15   8  30  1   
 16   9  31  1   
 17  10  12  2   
 18  10  13  am  
 19  11  14  1   
 20  11  32  1   
 21  11  33  1   
 22  13  15  1   
 23  13  34  1   
 24  14  35  1   
 25  14  36  1   
 26  14  37  1   
 27  15  16  1   
 28  15  17  1   
 29  15  38  1   
 30  16  18  1   
 31  16  19  1   
 32  16  39  1   
 33  17  20  1   
 34  17  40  1   
 35  17  41  1   
 36  18  20  1   
 37  18  42  1   
 38  18  43  1   
 39  19  21  1   
 40  19  44  1   
 41  19  45  1   
 42  21  22  2   
 43  21  23  2   
 44  21  24  am  
 45  24  25  1   
 46  24  26  1   
 47  25  46  1   
 48  25  47  1   
 49  25  48  1   
 50  26  49  1   
 51  26  50  1   
 52  26  51  1   
@<TRIPOS>SUBSTRUCTURE
  1 ****  10 GROUP 4 **** **** 0

# MOE 2024.06 (io_trps.svl 2023.06)
