@<TRIPOS>MOLECULE
NONAME
53 54 1 0 0 
SMALL
USER_CHARGES


@<TRIPOS>ATOM
  1 S        0.4120     0.1920    -0.4270 S.o2  1 <1>   1.3330 
  2 O        0.4630     0.1040    -1.8670 O.2   1 <1>  -0.6500 
  3 O        1.6270     0.4780     0.3050 O.2   1 <1>  -0.6500 
  4 N       -0.3250    -1.1920     0.2120 N.am  1 <1>  -0.8490 
  5 C       -0.7150     1.5180    -0.0060 C.3   1 <1>  -0.0550 
  6 C       -1.3320    -1.7810    -0.6790 C.3   1 <1>   0.1160 
  7 C        0.6500    -2.2170     0.6000 C.3   1 <1>   0.1160 
  8 C       -0.2430     2.8800    -0.5670 C.3   1 <1>  -0.0800 
  9 C       -1.0790     4.0870    -0.1480 C.3   1 <1>   0.2000 
 10 C        1.1820     3.2690    -0.1610 C.3   1 <1>   0.3430 
 11 O       -1.3890     4.0030     1.2060 O.3   1 <1>  -0.6800 
 12 C       -0.1490     5.2830    -0.3830 C.3   1 <1>   0.3430 
 13 N        1.2540     4.7510    -0.2990 N.4   1 <1>  -0.9590 
 14 C        2.0770     5.4050     0.7530 C.3   1 <1>   0.4860 
 15 C        2.2840     6.8480     0.3410 C.ar  1 <1>  -0.1440 
 16 C        3.2340     7.2100    -0.6100 C.ar  1 <1>  -0.1440 
 17 C        1.4900     7.8240     0.9280 C.ar  1 <1>  -0.1500 
 18 C        3.3510     8.5420    -0.9750 C.ar  1 <1>  -0.1500 
 19 C        4.1650     6.1960    -1.2660 C.3   1 <1>  -0.0970 
 20 C        1.6090     9.1530     0.5630 C.ar  1 <1>  -0.1440 
 21 C        2.5430     9.5180    -0.3990 C.ar  1 <1>   0.0820 
 22 C        0.7250    10.2060     1.2180 C.3   1 <1>  -0.0970 
 23 O        2.6220    10.8330    -0.7320 O.3   1 <1>  -0.3620 
 24 C        3.5930    11.3230    -1.6290 C.3   1 <1>   0.0400 
 25 H       -1.6880     1.2970    -0.3990 H     1 <1>   0.0800 
 26 H       -0.8010     1.5610     1.0630 H     1 <1>   0.0800 
 27 H       -1.8220    -2.6060    -0.1890 H     1 <1>   0.0800 
 28 H       -0.8710    -2.1380    -1.5870 H     1 <1>   0.0800 
 29 H       -2.0780    -1.0490    -0.9350 H     1 <1>   0.0800 
 30 H        0.1470    -3.0680     1.0280 H     1 <1>   0.0800 
 31 H        1.3280    -1.8230     1.3390 H     1 <1>   0.0800 
 32 H        1.2210    -2.5380    -0.2560 H     1 <1>   0.0800 
 33 H       -0.2600     2.8170    -1.6430 H     1 <1>   0.0800 
 34 H       -2.0030     4.1760    -0.6960 H     1 <1>   0.0800 
 35 H        1.9160     2.7760    -0.7800 H     1 <1>   0.0800 
 36 H        1.3500     2.9840     0.8650 H     1 <1>   0.0800 
 37 H       -0.6070     3.8820     1.7760 H     1 <1>   0.4000 
 38 H       -0.3390     6.0610     0.3380 H     1 <1>   0.0800 
 39 H       -0.3200     5.6780    -1.3720 H     1 <1>   0.0800 
 40 H        1.7160     4.9900    -1.1870 H     1 <1>   0.4500 
 41 H        1.5780     5.3590     1.7070 H     1 <1>   0.0800 
 42 H        3.0330     4.9150     0.8410 H     1 <1>   0.0800 
 43 H        0.7680     7.5590     1.6800 H     1 <1>   0.1500 
 44 H        4.0800     8.8160    -1.7130 H     1 <1>   0.1500 
 45 H        4.9690     6.6960    -1.7780 H     1 <1>   0.0800 
 46 H        3.6330     5.6040    -1.9880 H     1 <1>   0.0800 
 47 H        4.6090     5.5510    -0.5300 H     1 <1>   0.0800 
 48 H        0.0610     9.7710     1.9420 H     1 <1>   0.0800 
 49 H        0.1380    10.7060     0.4680 H     1 <1>   0.0800 
 50 H        1.3390    10.9370     1.7140 H     1 <1>   0.0800 
 51 H        3.4740    12.3890    -1.7000 H     1 <1>   0.0800 
 52 H        3.4370    10.8750    -2.5940 H     1 <1>   0.0800 
 53 H        4.5710    11.0900    -1.2470 H     1 <1>   0.0800 
@<TRIPOS>BOND
  1   1   2  2   
  2   1   3  2   
  3   1   4  am  
  4   1   5  1   
  5   4   6  1   
  6   4   7  1   
  7   5   8  1   
  8   5  25  1   
  9   5  26  1   
 10   6  27  1   
 11   6  28  1   
 12   6  29  1   
 13   7  30  1   
 14   7  31  1   
 15   7  32  1   
 16   8   9  1   
 17   8  10  1   
 18   8  33  1   
 19   9  11  1   
 20   9  12  1   
 21   9  34  1   
 22  10  13  1   
 23  10  35  1   
 24  10  36  1   
 25  11  37  1   
 26  12  13  1   
 27  12  38  1   
 28  12  39  1   
 29  13  14  1   
 30  13  40  1   
 31  14  15  1   
 32  14  41  1   
 33  14  42  1   
 34  15  16  ar  
 35  15  17  ar  
 36  16  18  ar  
 37  16  19  1   
 38  17  20  ar  
 39  17  43  1   
 40  18  21  ar  
 41  18  44  1   
 42  19  45  1   
 43  19  46  1   
 44  19  47  1   
 45  20  21  ar  
 46  20  22  1   
 47  21  23  1   
 48  22  48  1   
 49  22  49  1   
 50  22  50  1   
 51  23  24  1   
 52  24  51  1   
 53  24  52  1   
 54  24  53  1   
@<TRIPOS>SUBSTRUCTURE
  1 ****  13 GROUP 4 **** **** 0

# MOE 2024.06 (io_trps.svl 2023.06)
