@<TRIPOS>MOLECULE
NONAME
39 40 1 0 0 
SMALL
USER_CHARGES


@<TRIPOS>ATOM
  1 S        0.2080     0.3510    -1.3240 S.o2  1 <1>   1.3330 
  2 O        0.5010    -0.8900    -2.0070 O.2   1 <1>  -0.6500 
  3 O       -0.7690     1.2600    -1.8780 O.2   1 <1>  -0.6500 
  4 N       -0.3020    -0.0330     0.2520 N.am  1 <1>  -0.8490 
  5 C        1.7550     1.2260    -1.0770 C.3   1 <1>  -0.0550 
  6 C       -1.1760    -1.2090     0.2760 C.3   1 <1>   0.1160 
  7 C       -0.9580     1.0860     0.9380 C.3   1 <1>   0.1160 
  8 C        2.9000     0.3500    -0.5230 C.3   1 <1>  -0.0800 
  9 C        4.2600     1.0290    -0.4890 C.3   1 <1>   0.2200 
 10 C        2.7190    -0.1180     0.9260 C.3   1 <1>   0.1200 
 11 N        4.1410     2.4270    -0.0100 N.am  1 <1>  -0.7300 
 12 C        4.9630     0.1990     0.5750 C.3   1 <1>   0.1200 
 13 O        3.9820    -0.0820     1.5260 O.3   1 <1>  -0.5600 
 14 C        4.2040     3.5590    -0.7750 C.2   1 <1>   0.5440 
 15 O        4.3040     3.4210    -1.9800 O.2   1 <1>  -0.5700 
 16 C        4.1350     4.8830    -0.1610 C.ar  1 <1>   0.3960 
 17 N        3.9180     4.9890     1.1630 N.ar  1 <1>  -0.6200 
 18 C        4.2960     6.0200    -0.9620 C.ar  1 <1>   0.1600 
 19 C        3.8830     6.2400     1.5860 C.ar  1 <1>   0.1600 
 20 N        4.2590     7.2740    -0.5370 N.ar  1 <1>  -0.6200 
 21 C        4.0480     7.3470     0.7640 C.ar  1 <1>   0.1600 
 22 H        2.0700     1.6200    -2.0240 H     1 <1>   0.0800 
 23 H        1.5880     2.0610    -0.4260 H     1 <1>   0.0800 
 24 H       -1.4720    -1.4340     1.2870 H     1 <1>   0.0800 
 25 H       -0.6550    -2.0650    -0.1190 H     1 <1>   0.0800 
 26 H       -2.0560    -1.0340    -0.3210 H     1 <1>   0.0800 
 27 H       -1.1820     0.8150     1.9560 H     1 <1>   0.0800 
 28 H       -1.8750     1.3510     0.4370 H     1 <1>   0.0800 
 29 H       -0.3120     1.9460     0.9510 H     1 <1>   0.0800 
 30 H        2.9870    -0.5280    -1.1400 H     1 <1>   0.0800 
 31 H        4.7690     0.9940    -1.4380 H     1 <1>   0.0800 
 32 H        2.3340    -1.1230     0.9770 H     1 <1>   0.0800 
 33 H        2.0800     0.5440     1.4830 H     1 <1>   0.0800 
 34 H        4.0380     2.5300     1.0070 H     1 <1>   0.3700 
 35 H        5.7830     0.7180     1.0380 H     1 <1>   0.0800 
 36 H        5.3040    -0.7370     0.1660 H     1 <1>   0.0800 
 37 H        4.4640     5.8740    -2.0160 H     1 <1>   0.1500 
 38 H        3.7160     6.4020     2.6370 H     1 <1>   0.1500 
 39 H        4.0040     8.3300     1.2010 H     1 <1>   0.1500 
@<TRIPOS>BOND
  1   1   2  2   
  2   1   3  2   
  3   1   4  am  
  4   1   5  1   
  5   4   6  1   
  6   4   7  1   
  7   5   8  1   
  8   5  22  1   
  9   5  23  1   
 10   6  24  1   
 11   6  25  1   
 12   6  26  1   
 13   7  27  1   
 14   7  28  1   
 15   7  29  1   
 16   8   9  1   
 17   8  10  1   
 18   8  30  1   
 19   9  11  1   
 20   9  12  1   
 21   9  31  1   
 22  10  13  1   
 23  10  32  1   
 24  10  33  1   
 25  11  14  am  
 26  11  34  1   
 27  12  13  1   
 28  12  35  1   
 29  12  36  1   
 30  14  15  2   
 31  14  16  1   
 32  16  17  ar  
 33  16  18  ar  
 34  17  19  ar  
 35  18  20  ar  
 36  18  37  1   
 37  19  21  ar  
 38  19  38  1   
 39  20  21  ar  
 40  21  39  1   
@<TRIPOS>SUBSTRUCTURE
  1 ****  11 GROUP 4 **** **** 0

# MOE 2024.06 (io_trps.svl 2023.06)
