@<TRIPOS>MOLECULE
NONAME
41 41 1 0 0 
SMALL
USER_CHARGES


@<TRIPOS>ATOM
  1 O       -1.6330    -0.0290     1.1590 O.2   1 <1>  -0.5700 
  2 C       -2.5100     0.7680     0.8860 C.2   1 <1>   0.5690 
  3 N       -3.8260     0.4900     1.1520 N.am  1 <1>  -0.6600 
  4 C       -2.0700     2.0930     0.2040 C.3   1 <1>   0.4840 
  5 C       -4.2080    -0.8170     1.7680 C.3   1 <1>   0.3200 
  6 C       -4.9770     1.3320     0.6940 C.3   1 <1>   0.1400 
  7 N       -0.8850     1.8650    -0.7240 N.4   1 <1>  -0.9590 
  8 C       -1.7600     3.1450     1.2920 C.3   1 <1>  -0.1600 
  9 C       -4.2010    -1.9150     0.7190 C.2   1 <1>   0.0060 
 10 C       -5.4090     1.0060    -0.7450 C.3   1 <1>   0.1200 
 11 C       -0.2170     3.0890    -1.2550 C.3   1 <1>   0.2630 
 12 C       -1.2990     0.9730    -1.8510 C.3   1 <1>   0.2630 
 13 C       -2.0940     4.5950     0.8920 C.3   1 <1>  -0.2400 
 14 N       -5.2560    -2.4000     0.1450 N.2   1 <1>  -0.5650 
 15 N       -3.0500    -2.4790     0.2970 N.pl3 1 <1>   0.0330 
 16 O       -4.3820     1.2700    -1.6510 O.3   1 <1>  -0.6800 
 17 C       -4.7650    -3.3340    -0.6930 C.2   1 <1>   0.0770 
 18 C       -3.4180    -3.3940    -0.6160 C.2   1 <1>  -0.3020 
 19 H       -2.9000     2.4520    -0.3770 H     1 <1>   0.0800 
 20 H       -5.1890    -0.7530     2.2050 H     1 <1>   0.0800 
 21 H       -3.5160    -1.0670     2.5530 H     1 <1>   0.0800 
 22 H       -4.7300     2.3770     0.7630 H     1 <1>   0.0800 
 23 H       -5.8170     1.1690     1.3470 H     1 <1>   0.0800 
 24 H       -0.2180     1.3260    -0.1450 H     1 <1>   0.4500 
 25 H       -0.7380     3.0600     1.6170 H     1 <1>   0.0800 
 26 H       -2.3710     2.9240     2.1510 H     1 <1>   0.0800 
 27 H       -6.2570     1.6100    -1.0200 H     1 <1>   0.0800 
 28 H       -5.6860    -0.0310    -0.8310 H     1 <1>   0.0800 
 29 H       -0.9210     3.6890    -1.8070 H     1 <1>   0.0800 
 30 H        0.5940     2.8160    -1.9100 H     1 <1>   0.0800 
 31 H        0.1850     3.6780    -0.4460 H     1 <1>   0.0800 
 32 H       -2.0330     1.4670    -2.4670 H     1 <1>   0.0800 
 33 H       -1.7330     0.0610    -1.4710 H     1 <1>   0.0800 
 34 H       -0.4480     0.7190    -2.4620 H     1 <1>   0.0800 
 35 H       -1.4720     4.9610     0.0980 H     1 <1>   0.0800 
 36 H       -1.9510     5.2430     1.7400 H     1 <1>   0.0800 
 37 H       -3.1230     4.6750     0.5860 H     1 <1>   0.0800 
 38 H       -2.1070    -2.2260     0.6190 H     1 <1>   0.2700 
 39 H       -4.6800     0.9950    -2.5450 H     1 <1>   0.4000 
 40 H       -5.4170    -3.9250    -1.3160 H     1 <1>   0.1500 
 41 H       -2.7240    -4.0250    -1.1430 H     1 <1>   0.1500 
@<TRIPOS>BOND
  1   1   2  2   
  2   2   3  am  
  3   2   4  1   
  4   3   5  1   
  5   3   6  1   
  6   4   7  1   
  7   4   8  1   
  8   4  19  1   
  9   5   9  1   
 10   5  20  1   
 11   5  21  1   
 12   6  10  1   
 13   6  22  1   
 14   6  23  1   
 15   7  11  1   
 16   7  12  1   
 17   7  24  1   
 18   8  13  1   
 19   8  25  1   
 20   8  26  1   
 21   9  14  2   
 22   9  15  1   
 23  10  16  1   
 24  10  27  1   
 25  10  28  1   
 26  11  29  1   
 27  11  30  1   
 28  11  31  1   
 29  12  32  1   
 30  12  33  1   
 31  12  34  1   
 32  13  35  1   
 33  13  36  1   
 34  13  37  1   
 35  14  17  1   
 36  15  18  1   
 37  15  38  1   
 38  16  39  1   
 39  17  18  2   
 40  17  40  1   
 41  18  41  1   
@<TRIPOS>SUBSTRUCTURE
  1 ****   2 GROUP 4 **** **** 0

# MOE 2024.06 (io_trps.svl 2023.06)
