@<TRIPOS>MOLECULE
NONAME
60 64 1 0 0 
SMALL
USER_CHARGES


@<TRIPOS>ATOM
  1 O        2.2010     1.4160     0.1520 O.3   1 <1>  -0.6800 
  2 C        1.1840     0.4550     0.0160 C.3   1 <1>   0.1200 
  3 C        1.7180    -1.0080     0.4090 C.3   1 <1>   0.0000 
  4 C        2.1920    -2.4860     0.8840 C.3   1 <1>   0.4230 
  5 C        1.6430    -0.5980     1.9720 C.3   1 <1>  -0.1600 
  6 C        1.8470    -1.3420    -1.1660 C.3   1 <1>  -0.1600 
  7 N        1.7500    -3.6820     0.0620 N.4   1 <1>  -0.9590 
  8 C        3.6900    -2.4980     1.3180 C.3   1 <1>   0.2090 
  9 C        3.0430    -0.4950     2.6210 C.3   1 <1>   0.2090 
 10 C        2.7880    -2.4290    -1.7330 C.3   1 <1>  -0.1600 
 11 C        2.4890    -3.8210    -1.2110 C.3   1 <1>   0.3430 
 12 C        1.7620    -4.9680     0.8300 C.3   1 <1>   0.2630 
 13 N        4.0730    -1.1170     1.7320 N.pl3 1 <1>  -0.8380 
 14 C        5.0710    -0.4400     1.1300 C.ar  1 <1>   0.4610 
 15 N        4.8840     0.8280     0.7630 N.ar  1 <1>  -0.1790 
 16 C        6.3130    -1.0340     0.8030 C.ar  1 <1>  -0.1500 
 17 C        5.8260     1.5990     0.1120 C.ar  1 <1>   0.3610 
 18 C        7.2910    -0.3460     0.1510 C.ar  1 <1>  -0.1440 
 19 C        7.0690     1.0170    -0.2190 C.ar  1 <1>   0.0000 
 20 C        5.5470     2.9280    -0.2260 C.ar  1 <1>  -0.1500 
 21 C        8.6190    -1.0190    -0.1740 C.3   1 <1>  -0.0970 
 22 C        8.0100     1.8150    -0.8950 C.ar  1 <1>  -0.1500 
 23 C        6.4920     3.6710    -0.8850 C.ar  1 <1>  -0.1440 
 24 C        7.7110     3.1150    -1.2150 C.ar  1 <1>  -0.1440 
 25 C        6.4080     5.1070    -1.3450 C.3   1 <1>  -0.0170 
 26 C        8.5840     4.1150    -1.9350 C.3   1 <1>  -0.0170 
 27 C        7.6080     5.2470    -2.2960 C.3   1 <1>  -0.1600 
 28 H        1.8400     2.2890    -0.1300 H     1 <1>   0.4000 
 29 H        0.3340     0.7700     0.6020 H     1 <1>   0.0800 
 30 H        0.7750     0.5830    -0.9760 H     1 <1>   0.0800 
 31 H        1.6950    -2.7000     1.8100 H     1 <1>   0.0800 
 32 H        1.0140    -1.2550     2.5520 H     1 <1>   0.0800 
 33 H        1.2000     0.3420     2.2610 H     1 <1>   0.0800 
 34 H        0.8590    -1.5450    -1.5530 H     1 <1>   0.0800 
 35 H        2.2340    -0.5000    -1.7250 H     1 <1>   0.0800 
 36 H        0.7730    -3.4880    -0.2000 H     1 <1>   0.4500 
 37 H        4.3230    -2.8250     0.5150 H     1 <1>   0.0800 
 38 H        3.8230    -3.1660     2.1520 H     1 <1>   0.0800 
 39 H        3.0430    -0.9960     3.5760 H     1 <1>   0.0800 
 40 H        3.2860     0.5380     2.8090 H     1 <1>   0.0800 
 41 H        3.8110    -2.1730    -1.5220 H     1 <1>   0.0800 
 42 H        2.7050    -2.4510    -2.8070 H     1 <1>   0.0800 
 43 H        3.4110    -4.3610    -1.0660 H     1 <1>   0.0800 
 44 H        1.8850    -4.3620    -1.9240 H     1 <1>   0.0800 
 45 H        2.7680    -5.2300     1.1160 H     1 <1>   0.0800 
 46 H        1.3600    -5.7670     0.2260 H     1 <1>   0.0800 
 47 H        1.1610    -4.8820     1.7200 H     1 <1>   0.0800 
 48 H        3.9250     1.1870     0.8240 H     1 <1>   0.4570 
 49 H        6.4680    -2.0520     1.1090 H     1 <1>   0.1500 
 50 H        4.6010     3.3710     0.0280 H     1 <1>   0.1500 
 51 H        8.6360    -2.0380     0.1720 H     1 <1>   0.0800 
 52 H        9.4280    -0.4940     0.3040 H     1 <1>   0.0800 
 53 H        8.7870    -1.0230    -1.2370 H     1 <1>   0.0800 
 54 H        8.9700     1.4150    -1.1680 H     1 <1>   0.1500 
 55 H        5.4810     5.3170    -1.8490 H     1 <1>   0.0800 
 56 H        6.5210     5.7630    -0.5000 H     1 <1>   0.0800 
 57 H        9.3470     4.4730    -1.2660 H     1 <1>   0.0800 
 58 H        9.0380     3.6900    -2.8130 H     1 <1>   0.0800 
 59 H        7.2680     5.1010    -3.3070 H     1 <1>   0.0800 
 60 H        8.0710     6.2150    -2.2190 H     1 <1>   0.0800 
@<TRIPOS>BOND
  1   1   2  1   
  2   1  28  1   
  3   2   3  1   
  4   2  29  1   
  5   2  30  1   
  6   3   4  1   
  7   3   5  1   
  8   3   6  1   
  9   4   7  1   
 10   4   8  1   
 11   4  31  1   
 12   5   9  1   
 13   5  32  1   
 14   5  33  1   
 15   6  10  1   
 16   6  34  1   
 17   6  35  1   
 18   7  11  1   
 19   7  12  1   
 20   7  36  1   
 21   8  13  1   
 22   8  37  1   
 23   8  38  1   
 24   9  13  1   
 25   9  39  1   
 26   9  40  1   
 27  10  11  1   
 28  10  41  1   
 29  10  42  1   
 30  11  43  1   
 31  11  44  1   
 32  12  45  1   
 33  12  46  1   
 34  12  47  1   
 35  13  14  1   
 36  14  15  ar  
 37  14  16  ar  
 38  15  17  ar  
 39  15  48  1   
 40  16  18  ar  
 41  16  49  1   
 42  17  19  ar  
 43  17  20  ar  
 44  18  19  ar  
 45  18  21  1   
 46  19  22  ar  
 47  20  23  ar  
 48  20  50  1   
 49  21  51  1   
 50  21  52  1   
 51  21  53  1   
 52  22  24  ar  
 53  22  54  1   
 54  23  24  ar  
 55  23  25  1   
 56  24  26  1   
 57  25  27  1   
 58  25  55  1   
 59  25  56  1   
 60  26  27  1   
 61  26  57  1   
 62  26  58  1   
 63  27  59  1   
 64  27  60  1   
@<TRIPOS>SUBSTRUCTURE
  1 ****  15 GROUP 4 **** **** 0

# MOE 2024.06 (io_trps.svl 2023.06)
