@<TRIPOS>MOLECULE
NONAME
59 62 1 0 0 
SMALL
USER_CHARGES


@<TRIPOS>ATOM
  1 O       -1.8390     0.6430     2.7040 O.2   1 <1>  -0.5700 
  2 C       -2.1270     1.1350     1.6370 C.2   1 <1>   0.5690 
  3 N       -2.8300     0.4130     0.7030 N.am  1 <1>  -0.6600 
  4 C       -1.7370     2.6040     1.3850 C.3   1 <1>   0.1710 
  5 C       -3.4760     0.9170    -0.5320 C.3   1 <1>   0.1400 
  6 C       -3.1470    -1.0260     0.8940 C.3   1 <1>   0.1400 
  7 N       -0.4130     2.8430     0.7380 N.3   1 <1>  -0.8100 
  8 C       -4.6000    -0.0820    -0.7980 C.3   1 <1>   0.2000 
  9 C       -4.0550    -1.4170    -0.2860 C.3   1 <1>  -0.0800 
 10 C       -0.1120     4.2850     0.6780 C.3   1 <1>   0.2530 
 11 C       -0.2850     2.1930    -0.5740 C.3   1 <1>   0.0300 
 12 O       -5.6850     0.2670    -0.0120 O.3   1 <1>  -0.6800 
 13 C       -3.2770    -2.1510    -1.3960 C.3   1 <1>  -0.0170 
 14 C        1.3130     4.5540     0.2080 C.ar  1 <1>  -0.1440 
 15 C       -2.8010    -3.5220    -0.9470 C.ar  1 <1>   0.1670 
 16 C        2.3840     3.9360     0.8340 C.ar  1 <1>  -0.1500 
 17 C        1.5570     5.4220    -0.8450 C.ar  1 <1>  -0.1500 
 18 N       -1.5560    -3.6410    -0.6030 N.ar  1 <1>  -0.6200 
 19 C       -3.7190    -4.5840    -0.9240 C.ar  1 <1>  -0.1500 
 20 C        3.6800     4.1820     0.4160 C.ar  1 <1>  -0.1500 
 21 C        2.8540     5.6680    -1.2640 C.ar  1 <1>  -0.1500 
 22 C       -1.1250    -4.8610    -0.1930 C.ar  1 <1>   0.3100 
 23 C       -3.3140    -5.8200    -0.5210 C.ar  1 <1>  -0.1500 
 24 C        3.9230     5.0510    -0.6350 C.ar  1 <1>  -0.1440 
 25 C       -1.9730    -5.9890    -0.1370 C.ar  1 <1>   0.0000 
 26 C        0.2160    -5.0140     0.1920 C.ar  1 <1>  -0.1500 
 27 C        5.3390     5.3300    -1.1040 C.3   1 <1>  -0.0970 
 28 C       -1.4460    -7.2210     0.2980 C.ar  1 <1>  -0.1500 
 29 C        0.7090    -6.2210     0.6130 C.ar  1 <1>  -0.1500 
 30 C       -0.1320    -7.3370     0.6650 C.ar  1 <1>  -0.1500 
 31 H       -1.7270     3.0810     2.3480 H     1 <1>   0.0800 
 32 H       -2.5050     3.0790     0.8060 H     1 <1>   0.0800 
 33 H       -3.8600     1.9150    -0.4200 H     1 <1>   0.0800 
 34 H       -2.7640     0.8880    -1.3380 H     1 <1>   0.0800 
 35 H       -2.2390    -1.6040     0.9290 H     1 <1>   0.0800 
 36 H       -3.6690    -1.1500     1.8280 H     1 <1>   0.0800 
 37 H       -4.9190    -0.1010    -1.8260 H     1 <1>   0.0800 
 38 H       -4.8550    -2.0550     0.0460 H     1 <1>   0.0800 
 39 H       -0.8130     4.7730     0.0240 H     1 <1>   0.0800 
 40 H       -0.2210     4.7090     1.6620 H     1 <1>   0.0800 
 41 H        0.7060     2.3410    -0.9680 H     1 <1>   0.0800 
 42 H       -1.0000     2.5980    -1.2690 H     1 <1>   0.0800 
 43 H       -0.4380     1.1320    -0.4770 H     1 <1>   0.0800 
 44 H       -5.3860     0.3490     0.9160 H     1 <1>   0.4000 
 45 H       -2.4260    -1.5660    -1.7000 H     1 <1>   0.0800 
 46 H       -3.9080    -2.2760    -2.2580 H     1 <1>   0.0800 
 47 H        2.2000     3.2540     1.6470 H     1 <1>   0.1500 
 48 H        0.7410     5.9110    -1.3460 H     1 <1>   0.1500 
 49 H       -4.7350    -4.4080    -1.2250 H     1 <1>   0.1500 
 50 H        4.4960     3.6910     0.9160 H     1 <1>   0.1500 
 51 H        3.0290     6.3440    -2.0820 H     1 <1>   0.1500 
 52 H       -3.9870    -6.6580    -0.4900 H     1 <1>   0.1500 
 53 H        0.8450    -4.1440     0.1460 H     1 <1>   0.1500 
 54 H        6.0530     4.7780    -0.5200 H     1 <1>   0.0800 
 55 H        5.5550     6.3790    -1.0080 H     1 <1>   0.0800 
 56 H        5.4450     5.0450    -2.1350 H     1 <1>   0.0800 
 57 H       -2.0990    -8.0750     0.3370 H     1 <1>   0.1500 
 58 H        1.7400    -6.3240     0.9050 H     1 <1>   0.1500 
 59 H        0.2680    -8.2790     0.9970 H     1 <1>   0.1500 
@<TRIPOS>BOND
  1   1   2  2   
  2   2   3  am  
  3   2   4  1   
  4   3   5  1   
  5   3   6  1   
  6   4   7  1   
  7   4  31  1   
  8   4  32  1   
  9   5   8  1   
 10   5  33  1   
 11   5  34  1   
 12   6   9  1   
 13   6  35  1   
 14   6  36  1   
 15   7  10  1   
 16   7  11  1   
 17   8   9  1   
 18   8  12  1   
 19   8  37  1   
 20   9  13  1   
 21   9  38  1   
 22  10  14  1   
 23  10  39  1   
 24  10  40  1   
 25  11  41  1   
 26  11  42  1   
 27  11  43  1   
 28  12  44  1   
 29  13  15  1   
 30  13  45  1   
 31  13  46  1   
 32  14  16  ar  
 33  14  17  ar  
 34  15  18  ar  
 35  15  19  ar  
 36  16  20  ar  
 37  16  47  1   
 38  17  21  ar  
 39  17  48  1   
 40  18  22  ar  
 41  19  23  ar  
 42  19  49  1   
 43  20  24  ar  
 44  20  50  1   
 45  21  24  ar  
 46  21  51  1   
 47  22  25  ar  
 48  22  26  ar  
 49  23  25  ar  
 50  23  52  1   
 51  24  27  1   
 52  25  28  ar  
 53  26  29  ar  
 54  26  53  1   
 55  27  54  1   
 56  27  55  1   
 57  27  56  1   
 58  28  30  ar  
 59  28  57  1   
 60  29  30  ar  
 61  29  58  1   
 62  30  59  1   
@<TRIPOS>SUBSTRUCTURE
  1 ****   3 GROUP 4 **** **** 0

# MOE 2024.06 (io_trps.svl 2023.06)
