@<TRIPOS>MOLECULE
NONAME
42 43 1 0 0 
SMALL
USER_CHARGES


@<TRIPOS>ATOM
  1 O        0.2410    -0.7450    -0.9320 O.2   1 <1>  -0.5700 
  2 C        0.5530    -1.5580    -0.0900 C.2   1 <1>   0.6900 
  3 N       -0.3270    -2.4530     0.3870 N.am  1 <1>  -0.7300 
  4 N        1.7970    -1.5700     0.3870 N.am  1 <1>  -0.8000 
  5 C       -1.6900    -2.6470    -0.1820 C.3   1 <1>   0.2010 
  6 C       -2.3500    -3.9640     0.2540 C.2   1 <1>   0.5690 
  7 O       -1.6880    -4.7380     0.9140 O.2   1 <1>  -0.5700 
  8 N       -3.6540    -4.2430    -0.0840 N.am  1 <1>  -0.6600 
  9 C       -4.3100    -5.5080     0.3670 C.3   1 <1>   0.1400 
 10 C       -4.5320    -3.3220    -0.8590 C.3   1 <1>   0.1400 
 11 C       -5.4840    -5.2450     1.3220 C.3   1 <1>   0.1400 
 12 C       -5.3980    -2.5180     0.1150 C.3   1 <1>  -0.1600 
 13 N       -6.6700    -4.6810     0.6000 N.am  1 <1>  -0.6600 
 14 C       -6.7310    -3.1900     0.4800 C.3   1 <1>   0.1400 
 15 C       -7.7340    -5.4420     0.1610 C.2   1 <1>   0.5770 
 16 O       -8.6830    -4.9270    -0.3850 O.2   1 <1>  -0.5700 
 17 C       -7.7630    -6.9600     0.3680 C.3   1 <1>   0.0530 
 18 C       -6.8140    -7.7720    -0.5550 C.3   1 <1>   0.0000 
 19 C       -8.9330    -7.7360    -0.3060 C.3   1 <1>   0.0000 
 20 C       -7.9130    -8.8650    -0.5950 C.3   1 <1>   0.0000 
 21 H        0.0060    -3.2600     0.9190 H     1 <1>   0.3700 
 22 H        2.4290    -0.8320     0.0830 H     1 <1>   0.3700 
 23 H        2.0500    -2.0870     1.2230 H     1 <1>   0.3700 
 24 H       -1.6200    -2.6360    -1.2550 H     1 <1>   0.0800 
 25 H       -2.3070    -1.8250     0.1270 H     1 <1>   0.0800 
 26 H       -3.5950    -6.1300     0.8770 H     1 <1>   0.0800 
 27 H       -4.6500    -6.0550    -0.4930 H     1 <1>   0.0800 
 28 H       -5.1500    -3.8840    -1.5390 H     1 <1>   0.0800 
 29 H       -3.9360    -2.6500    -1.4500 H     1 <1>   0.0800 
 30 H       -5.1710    -4.5700     2.1000 H     1 <1>   0.0800 
 31 H       -5.7510    -6.1690     1.8000 H     1 <1>   0.0800 
 32 H       -5.6350    -1.5730    -0.3410 H     1 <1>   0.0800 
 33 H       -4.8430    -2.2980     1.0090 H     1 <1>   0.0800 
 34 H       -7.4450    -2.9260    -0.2830 H     1 <1>   0.0800 
 35 H       -7.0950    -2.7810     1.4070 H     1 <1>   0.0800 
 36 H       -7.6640    -7.2440     1.4020 H     1 <1>   0.0000 
 37 H       -5.9070    -8.0940    -0.0760 H     1 <1>   0.0000 
 38 H       -6.6570    -7.3070    -1.5140 H     1 <1>   0.0000 
 39 H       -9.2970    -7.2850    -1.2140 H     1 <1>   0.0000 
 40 H       -9.7150    -8.0220     0.3740 H     1 <1>   0.0000 
 41 H       -7.8290    -9.5690     0.2150 H     1 <1>   0.0000 
 42 H       -8.0330    -9.3260    -1.5590 H     1 <1>   0.0000 
@<TRIPOS>BOND
  1   1   2  2   
  2   2   3  am  
  3   2   4  am  
  4   3   5  1   
  5   3  21  1   
  6   4  22  1   
  7   4  23  1   
  8   5   6  1   
  9   5  24  1   
 10   5  25  1   
 11   6   7  2   
 12   6   8  am  
 13   8   9  1   
 14   8  10  1   
 15   9  11  1   
 16   9  26  1   
 17   9  27  1   
 18  10  12  1   
 19  10  28  1   
 20  10  29  1   
 21  11  13  1   
 22  11  30  1   
 23  11  31  1   
 24  12  14  1   
 25  12  32  1   
 26  12  33  1   
 27  13  14  1   
 28  13  15  am  
 29  14  34  1   
 30  14  35  1   
 31  15  16  2   
 32  15  17  1   
 33  17  18  1   
 34  17  19  1   
 35  17  36  1   
 36  18  20  1   
 37  18  37  1   
 38  18  38  1   
 39  19  20  1   
 40  19  39  1   
 41  19  40  1   
 42  20  41  1   
 43  20  42  1   
@<TRIPOS>SUBSTRUCTURE
  1 ****   8 GROUP 4 **** **** 0

# MOE 2024.06 (io_trps.svl 2023.06)
