@<TRIPOS>MOLECULE
NONAME
50 52 1 0 0 
SMALL
USER_CHARGES


@<TRIPOS>ATOM
  1 F        1.4580    -0.0620     0.3720 F     1 <1>  -0.1900 
  2 C        2.0980     1.0040     0.7700 C.ar  1 <1>   0.1900 
  3 C        1.8750     2.1970     0.1080 C.ar  1 <1>  -0.1500 
  4 C        2.9700     0.8950     1.8330 C.ar  1 <1>  -0.1500 
  5 C        2.5450     3.3490     0.5170 C.ar  1 <1>  -0.1440 
  6 C        3.6440     2.0300     2.2420 C.ar  1 <1>  -0.1500 
  7 C        3.4320     3.2350     1.5880 C.ar  1 <1>  -0.1500 
  8 C        2.3640     4.7230    -0.1730 C.3   1 <1>   0.1440 
  9 C        1.1380     4.7350    -1.1210 C.3   1 <1>  -0.1600 
 10 C        2.1350     5.8100     0.9160 C.3   1 <1>  -0.1600 
 11 C        3.6760     4.9630    -0.9750 C.3   1 <1>   0.2090 
 12 C        0.7710     6.1250    -1.6700 C.3   1 <1>   0.1200 
 13 C        1.1340     6.9100     0.5270 C.3   1 <1>   0.1200 
 14 N        3.8590     6.3560    -1.4510 N.pl3 1 <1>  -0.8690 
 15 O        1.2170     7.1530    -0.8380 O.3   1 <1>  -0.5600 
 16 C        4.9910     7.0380    -1.1420 C.ar  1 <1>   0.4100 
 17 N        4.8080     8.1240    -0.4120 N.ar  1 <1>  -0.6200 
 18 C        6.2430     6.6020    -1.5630 C.ar  1 <1>  -0.1500 
 19 C        5.9010     8.7970    -0.0940 C.ar  1 <1>   0.1600 
 20 C        7.3680     7.3130    -1.2220 C.ar  1 <1>  -0.1500 
 21 C        7.2070     8.4690    -0.4590 C.ar  1 <1>   0.0860 
 22 C        8.3150     9.3020    -0.0520 C.2   1 <1>   0.5440 
 23 O        8.2170    10.0310     0.9170 O.2   1 <1>  -0.5700 
 24 N        9.4920     9.3030    -0.7510 N.am  1 <1>  -0.7300 
 25 C       10.6860    10.0970    -0.4040 C.3   1 <1>   0.1400 
 26 C       11.9280     9.2790    -0.7370 C.3   1 <1>  -0.2400 
 27 H        1.1830     2.1830    -0.7120 H     1 <1>   0.1500 
 28 H        3.1150    -0.0510     2.3220 H     1 <1>   0.1500 
 29 H        4.3340     1.9780     3.0670 H     1 <1>   0.1500 
 30 H        3.9780     4.0980     1.9320 H     1 <1>   0.1500 
 31 H        0.2820     4.3710    -0.5820 H     1 <1>   0.0800 
 32 H        1.2950     4.0740    -1.9550 H     1 <1>   0.0800 
 33 H        3.0700     6.2720     1.1790 H     1 <1>   0.0800 
 34 H        1.7530     5.3570     1.8130 H     1 <1>   0.0800 
 35 H        3.6990     4.3020    -1.8240 H     1 <1>   0.0800 
 36 H        4.5160     4.7080    -0.3530 H     1 <1>   0.0800 
 37 H       -0.2950     6.2210    -1.7840 H     1 <1>   0.0800 
 38 H        1.2340     6.2800    -2.6300 H     1 <1>   0.0800 
 39 H        1.3620     7.8270     1.0420 H     1 <1>   0.0800 
 40 H        0.1230     6.6200     0.7570 H     1 <1>   0.0800 
 41 H        3.0190     6.9220    -1.2300 H     1 <1>   0.4000 
 42 H        6.3050     5.7090    -2.1550 H     1 <1>   0.1500 
 43 H        5.7600     9.6830     0.5020 H     1 <1>   0.1500 
 44 H        8.3430     6.9820    -1.5320 H     1 <1>   0.1500 
 45 H        9.5400     8.8140    -1.6450 H     1 <1>   0.3700 
 46 H       10.6750    10.3390     0.6470 H     1 <1>   0.0800 
 47 H       10.6800    11.0160    -0.9660 H     1 <1>   0.0800 
 48 H       11.9320     8.3640    -0.1720 H     1 <1>   0.0800 
 49 H       12.8070     9.8410    -0.4780 H     1 <1>   0.0800 
 50 H       11.9630     9.0570    -1.7880 H     1 <1>   0.0800 
@<TRIPOS>BOND
  1   1   2  1   
  2   2   3  ar  
  3   2   4  ar  
  4   3   5  ar  
  5   3  27  1   
  6   4   6  ar  
  7   4  28  1   
  8   5   7  ar  
  9   5   8  1   
 10   6   7  ar  
 11   6  29  1   
 12   7  30  1   
 13   8   9  1   
 14   8  10  1   
 15   8  11  1   
 16   9  12  1   
 17   9  31  1   
 18   9  32  1   
 19  10  13  1   
 20  10  33  1   
 21  10  34  1   
 22  11  14  1   
 23  11  35  1   
 24  11  36  1   
 25  12  15  1   
 26  12  37  1   
 27  12  38  1   
 28  13  15  1   
 29  13  39  1   
 30  13  40  1   
 31  14  16  1   
 32  14  41  1   
 33  16  17  ar  
 34  16  18  ar  
 35  17  19  ar  
 36  18  20  ar  
 37  18  42  1   
 38  19  21  ar  
 39  19  43  1   
 40  20  21  ar  
 41  20  44  1   
 42  21  22  1   
 43  22  23  2   
 44  22  24  am  
 45  24  25  1   
 46  24  45  1   
 47  25  26  1   
 48  25  46  1   
 49  25  47  1   
 50  26  48  1   
 51  26  49  1   
 52  26  50  1   
@<TRIPOS>SUBSTRUCTURE
  1 ****  16 GROUP 4 **** **** 0

# MOE 2024.06 (io_trps.svl 2023.06)
