@<TRIPOS>MOLECULE
NONAME
51 54 1 0 0 
SMALL
USER_CHARGES


@<TRIPOS>ATOM
  1 O       -1.1950     0.2530     2.2730 O.2   1 <1>  -0.5700 
  2 C       -1.4930     0.8600     1.2620 C.2   1 <1>   0.5440 
  3 N       -2.0400     0.1600     0.2130 N.am  1 <1>  -0.6600 
  4 C       -1.3130     2.2930     1.2010 C.ar  1 <1>   0.0860 
  5 C       -2.8260     0.7630    -0.8960 C.3   1 <1>   0.1400 
  6 C       -2.2340    -1.3130     0.2300 C.3   1 <1>   0.1400 
  7 C       -0.5070     2.9220     0.2190 C.ar  1 <1>   0.0000 
  8 C       -1.9430     3.1110     2.1010 C.ar  1 <1>  -0.1500 
  9 C       -3.9020    -0.2790    -1.1940 C.3   1 <1>   0.2000 
 10 C       -3.1860    -1.6070    -0.9350 C.3   1 <1>  -0.0800 
 11 C       -0.4760     4.3360     0.1830 C.ar  1 <1>   0.3100 
 12 C        0.2720     2.2090    -0.7180 C.ar  1 <1>  -0.1500 
 13 C       -1.8360     4.4980     2.0050 C.ar  1 <1>   0.1660 
 14 O       -4.9220    -0.1140    -0.2690 O.3   1 <1>  -0.6800 
 15 C       -4.1000    -2.8230    -0.6990 C.3   1 <1>   0.0210 
 16 N       -1.1510     5.0960     1.0850 N.ar  1 <1>  -0.6200 
 17 C        0.2910     4.9780    -0.8180 C.ar  1 <1>  -0.1430 
 18 C        1.0110     2.8530    -1.6700 C.ar  1 <1>  -0.1500 
 19 C       -2.5520     5.3770     3.0090 C.3   1 <1>  -0.0970 
 20 C       -3.2790    -4.0720    -0.4470 C.2   1 <1>   0.1080 
 21 C        1.0150     4.2470    -1.7240 C.ar  1 <1>  -0.1500 
 22 C        0.3200     6.5010    -0.8920 C.3   1 <1>  -0.0970 
 23 N       -2.4430    -4.5530    -1.3140 N.2   1 <1>  -0.7070 
 24 C       -3.3170    -4.8270     0.7210 C.2   1 <1>  -0.1500 
 25 N       -1.9210    -5.6410    -0.7170 N.pl3 1 <1>   0.3000 
 26 C       -2.4340    -5.8260     0.5180 C.2   1 <1>  -0.3320 
 27 C       -2.0420    -6.9650     1.4420 C.3   1 <1>  -0.0600 
 28 H       -3.2560     1.7130    -0.6280 H     1 <1>   0.0800 
 29 H       -2.1870     0.8850    -1.7530 H     1 <1>   0.0800 
 30 H       -1.2940    -1.8240     0.1050 H     1 <1>   0.0800 
 31 H       -2.6710    -1.6040     1.1710 H     1 <1>   0.0800 
 32 H       -2.5350     2.6780     2.8870 H     1 <1>   0.1500 
 33 H       -4.3160    -0.1960    -2.1850 H     1 <1>   0.0800 
 34 H       -2.5750    -1.8190    -1.7950 H     1 <1>   0.0800 
 35 H        0.2890     1.1330    -0.6800 H     1 <1>   0.1500 
 36 H       -4.5220    -0.0710     0.6240 H     1 <1>   0.4000 
 37 H       -4.7160    -2.9840    -1.5650 H     1 <1>   0.0800 
 38 H       -4.7470    -2.6530     0.1420 H     1 <1>   0.0800 
 39 H        1.5990     2.2990    -2.3820 H     1 <1>   0.1500 
 40 H       -3.0500     4.7900     3.7580 H     1 <1>   0.0800 
 41 H       -3.2780     5.9840     2.5000 H     1 <1>   0.0800 
 42 H       -1.8400     6.0220     3.4900 H     1 <1>   0.0800 
 43 H        1.6020     4.7300    -2.4860 H     1 <1>   0.1500 
 44 H        0.9340     6.8430    -1.7050 H     1 <1>   0.0800 
 45 H        0.7130     6.9020     0.0260 H     1 <1>   0.0800 
 46 H       -0.6770     6.8790    -1.0310 H     1 <1>   0.0800 
 47 H       -3.9280    -4.6310     1.5840 H     1 <1>   0.1500 
 48 H       -1.2200    -6.2340    -1.1770 H     1 <1>   0.2700 
 49 H       -2.5870    -6.8940     2.3670 H     1 <1>   0.0800 
 50 H       -0.9900    -6.9210     1.6620 H     1 <1>   0.0800 
 51 H       -2.2670    -7.9110     0.9830 H     1 <1>   0.0800 
@<TRIPOS>BOND
  1   1   2  2   
  2   2   3  am  
  3   2   4  1   
  4   3   5  1   
  5   3   6  1   
  6   4   7  ar  
  7   4   8  ar  
  8   5   9  1   
  9   5  28  1   
 10   5  29  1   
 11   6  10  1   
 12   6  30  1   
 13   6  31  1   
 14   7  11  ar  
 15   7  12  ar  
 16   8  13  ar  
 17   8  32  1   
 18   9  10  1   
 19   9  14  1   
 20   9  33  1   
 21  10  15  1   
 22  10  34  1   
 23  11  16  ar  
 24  11  17  ar  
 25  12  18  ar  
 26  12  35  1   
 27  13  16  ar  
 28  13  19  1   
 29  14  36  1   
 30  15  20  1   
 31  15  37  1   
 32  15  38  1   
 33  17  21  ar  
 34  17  22  1   
 35  18  21  ar  
 36  18  39  1   
 37  19  40  1   
 38  19  41  1   
 39  19  42  1   
 40  20  23  2   
 41  20  24  1   
 42  21  43  1   
 43  22  44  1   
 44  22  45  1   
 45  22  46  1   
 46  23  25  1   
 47  24  26  2   
 48  24  47  1   
 49  25  26  1   
 50  25  48  1   
 51  26  27  1   
 52  27  49  1   
 53  27  50  1   
 54  27  51  1   
@<TRIPOS>SUBSTRUCTURE
  1 ****   3 GROUP 4 **** **** 0

# MOE 2024.06 (io_trps.svl 2023.06)
