@<TRIPOS>MOLECULE
NONAME
47 50 1 0 0 
SMALL
USER_CHARGES


@<TRIPOS>ATOM
  1 S        0.1810     1.9450     1.3990 S.3   1 <1>  -0.0800 
  2 C        0.7700     0.3170     1.1500 C.2   1 <1>   0.2280 
  3 C        1.7870     2.5370     1.0950 C.2   1 <1>  -0.1100 
  4 N        2.0110     0.2400     0.8720 N.2   1 <1>  -0.5650 
  5 C        2.5990     1.4980     0.8380 C.2   1 <1>   0.0460 
  6 C        4.0870     1.5650     0.5220 C.3   1 <1>   0.3210 
  7 N        4.4390     2.8740    -0.0810 N.am  1 <1>  -0.7300 
  8 C        5.2070     3.8220     0.5150 C.2   1 <1>   0.5690 
  9 O        5.7120     3.6100     1.5920 O.2   1 <1>  -0.5700 
 10 C        5.4860     5.1570    -0.2020 C.3   1 <1>   0.0610 
 11 C        5.4950     6.3400     0.8050 C.3   1 <1>   0.2200 
 12 C        4.3520     5.6150    -1.1740 C.3   1 <1>  -0.1600 
 13 C        6.8440     4.9680    -0.9460 C.3   1 <1>  -0.1600 
 14 N        5.1600     7.4650    -0.0670 N.am  1 <1>  -0.6600 
 15 C        4.2280     6.3610     1.6850 C.3   1 <1>  -0.1600 
 16 C        3.9070     6.9730    -0.6120 C.3   1 <1>   0.2200 
 17 C        7.4740     6.1890    -1.6380 C.3   1 <1>  -0.2400 
 18 C        5.7020     8.7320    -0.0200 C.2   1 <1>   0.5440 
 19 C        3.1220     6.7490     0.6840 C.3   1 <1>  -0.1600 
 20 O        6.7160     8.8740     0.6430 O.2   1 <1>  -0.5700 
 21 C        5.1570     9.8850    -0.7370 C.ar  1 <1>   0.3960 
 22 N        3.8330    10.0390    -0.9280 N.ar  1 <1>  -0.6200 
 23 C        6.0650    10.8370    -1.2160 C.ar  1 <1>   0.1600 
 24 C        3.5230    11.1390    -1.5890 C.ar  1 <1>   0.1600 
 25 N        5.7560    11.9370    -1.8870 N.ar  1 <1>  -0.6200 
 26 C        4.4520    12.0580    -2.0560 C.ar  1 <1>   0.1600 
 27 H        0.0570    -0.4830     1.2480 H     1 <1>   0.1500 
 28 H        1.9560     3.5960     1.1470 H     1 <1>   0.1500 
 29 H        4.3340     0.7860    -0.1770 H     1 <1>   0.0800 
 30 H        4.6490     1.3950     1.4240 H     1 <1>   0.0800 
 31 H        4.0410     3.0400    -1.0040 H     1 <1>   0.3700 
 32 H        6.4170     6.4580     1.3510 H     1 <1>   0.0800 
 33 H        3.5100     4.9510    -1.2160 H     1 <1>   0.0800 
 34 H        4.7170     5.7470    -2.1760 H     1 <1>   0.0800 
 35 H        7.5650     4.6010    -0.2340 H     1 <1>   0.0800 
 36 H        6.7180     4.1940    -1.6830 H     1 <1>   0.0800 
 37 H        4.0280     5.4330     2.1870 H     1 <1>   0.0800 
 38 H        4.3380     7.1280     2.4320 H     1 <1>   0.0800 
 39 H        3.4290     7.6130    -1.3320 H     1 <1>   0.0800 
 40 H        7.7670     6.9230    -0.9100 H     1 <1>   0.0800 
 41 H        6.7970     6.6440    -2.3370 H     1 <1>   0.0800 
 42 H        8.3570     5.8870    -2.1730 H     1 <1>   0.0800 
 43 H        2.6460     7.6670     0.9840 H     1 <1>   0.0800 
 44 H        2.3750     5.9840     0.5750 H     1 <1>   0.0800 
 45 H        7.1110    10.6670    -1.0270 H     1 <1>   0.1500 
 46 H        2.4790    11.3270    -1.7730 H     1 <1>   0.1500 
 47 H        4.1030    12.9260    -2.5870 H     1 <1>   0.1500 
@<TRIPOS>BOND
  1   1   2  1   
  2   1   3  1   
  3   2   4  2   
  4   2  27  1   
  5   3   5  2   
  6   3  28  1   
  7   4   5  1   
  8   5   6  1   
  9   6   7  1   
 10   6  29  1   
 11   6  30  1   
 12   7   8  am  
 13   7  31  1   
 14   8   9  2   
 15   8  10  1   
 16  10  11  1   
 17  10  12  1   
 18  10  13  1   
 19  11  14  1   
 20  11  15  1   
 21  11  32  1   
 22  12  16  1   
 23  12  33  1   
 24  12  34  1   
 25  13  17  1   
 26  13  35  1   
 27  13  36  1   
 28  14  16  1   
 29  14  18  am  
 30  15  19  1   
 31  15  37  1   
 32  15  38  1   
 33  16  19  1   
 34  16  39  1   
 35  17  40  1   
 36  17  41  1   
 37  17  42  1   
 38  18  20  2   
 39  18  21  1   
 40  19  43  1   
 41  19  44  1   
 42  21  22  ar  
 43  21  23  ar  
 44  22  24  ar  
 45  23  25  ar  
 46  23  45  1   
 47  24  26  ar  
 48  24  46  1   
 49  25  26  ar  
 50  26  47  1   
@<TRIPOS>SUBSTRUCTURE
  1 ****  16 GROUP 4 **** **** 0

# MOE 2024.06 (io_trps.svl 2023.06)
