@<TRIPOS>MOLECULE
NONAME
51 54 1 0 0 
SMALL
USER_CHARGES


@<TRIPOS>ATOM
  1 O       -0.3290     0.1360    -0.0420 O.2   1 <1>  -0.5700 
  2 C       -1.3590     0.7940     0.0060 C.2   1 <1>   0.7160 
  3 N       -2.5460     0.0840    -0.0830 N.am  1 <1>  -0.6600 
  4 C       -1.3040     2.2560     0.1400 C.2   1 <1>   0.2030 
  5 C       -3.9080     0.6680    -0.1120 C.3   1 <1>   0.1400 
  6 C       -2.6050    -1.3920    -0.2000 C.3   1 <1>   0.1400 
  7 N       -2.2770     3.0270     0.6050 N.2   1 <1>  -0.7070 
  8 C       -0.1980     3.0620    -0.2060 C.2   1 <1>  -0.1810 
  9 C       -4.8440    -0.5170    -0.3520 C.3   1 <1>   0.2000 
 10 C       -4.0630    -1.7520     0.0910 C.3   1 <1>  -0.0800 
 11 N       -1.8040     4.2760     0.5620 N.pl3 1 <1>   0.3000 
 12 C       -0.5530     4.3330     0.0730 C.2   1 <1>  -0.3320 
 13 C        1.1250     2.5730    -0.7780 C.3   1 <1>  -0.0590 
 14 O       -6.0120    -0.4070     0.3870 O.3   1 <1>  -0.6800 
 15 C       -4.5370    -3.0390    -0.6040 C.3   1 <1>  -0.0170 
 16 C        0.2000     5.6450    -0.0790 C.3   1 <1>   0.0200 
 17 C       -3.7190    -4.2380    -0.1570 C.ar  1 <1>   0.1670 
 18 C        0.5920     6.1970     1.2920 C.3   1 <1>  -0.2400 
 19 N       -2.6440    -4.5120    -0.8300 N.ar  1 <1>  -0.6200 
 20 C       -4.1490    -4.9770     0.9560 C.ar  1 <1>  -0.1500 
 21 C       -1.8950    -5.5680    -0.4230 C.ar  1 <1>   0.3100 
 22 C       -3.4200    -6.0440     1.3840 C.ar  1 <1>  -0.1500 
 23 C       -2.2450    -6.3700     0.6850 C.ar  1 <1>   0.0000 
 24 C       -0.7200    -5.8790    -1.1270 C.ar  1 <1>  -0.1500 
 25 C       -1.4110    -7.4470     1.0430 C.ar  1 <1>  -0.1500 
 26 C        0.0780    -6.9300    -0.7630 C.ar  1 <1>  -0.1500 
 27 C       -0.2720    -7.7230     0.3340 C.ar  1 <1>  -0.1500 
 28 H       -4.1130     1.1340     0.8370 H     1 <1>   0.0800 
 29 H       -3.9890     1.3920    -0.9040 H     1 <1>   0.0800 
 30 H       -2.3300    -1.6750    -1.2030 H     1 <1>   0.0800 
 31 H       -1.9330    -1.8650     0.4970 H     1 <1>   0.0800 
 32 H       -5.1040    -0.5710    -1.3960 H     1 <1>   0.0800 
 33 H       -4.1510    -1.8680     1.1570 H     1 <1>   0.0800 
 34 H       -2.3550     5.0840     0.8760 H     1 <1>   0.2700 
 35 H        0.9480     1.9900    -1.6640 H     1 <1>   0.0800 
 36 H        1.6270     1.9560    -0.0550 H     1 <1>   0.0800 
 37 H        1.7710     3.3910    -1.0320 H     1 <1>   0.0800 
 38 H       -5.8000    -0.2810     1.3320 H     1 <1>   0.4000 
 39 H       -4.4470    -2.9320    -1.6710 H     1 <1>   0.0800 
 40 H       -5.5750    -3.2060    -0.3810 H     1 <1>   0.0800 
 41 H        1.0890     5.4970    -0.6660 H     1 <1>   0.0800 
 42 H       -0.4160     6.3580    -0.6000 H     1 <1>   0.0800 
 43 H        1.2020     5.4800     1.8130 H     1 <1>   0.0800 
 44 H       -0.2820     6.4020     1.8840 H     1 <1>   0.0800 
 45 H        1.1530     7.1070     1.1770 H     1 <1>   0.0800 
 46 H       -5.0530    -4.6870     1.4610 H     1 <1>   0.1500 
 47 H       -3.7180    -6.6350     2.2310 H     1 <1>   0.1500 
 48 H       -0.4680    -5.2560    -1.9660 H     1 <1>   0.1500 
 49 H       -1.6850    -8.0520     1.8880 H     1 <1>   0.1500 
 50 H        0.9770    -7.1570    -1.3120 H     1 <1>   0.1500 
 51 H        0.3640    -8.5460     0.6100 H     1 <1>   0.1500 
@<TRIPOS>BOND
  1   1   2  2   
  2   2   3  am  
  3   2   4  1   
  4   3   5  1   
  5   3   6  1   
  6   4   7  2   
  7   4   8  1   
  8   5   9  1   
  9   5  28  1   
 10   5  29  1   
 11   6  10  1   
 12   6  30  1   
 13   6  31  1   
 14   7  11  1   
 15   8  12  2   
 16   8  13  1   
 17   9  10  1   
 18   9  14  1   
 19   9  32  1   
 20  10  15  1   
 21  10  33  1   
 22  11  12  1   
 23  11  34  1   
 24  12  16  1   
 25  13  35  1   
 26  13  36  1   
 27  13  37  1   
 28  14  38  1   
 29  15  17  1   
 30  15  39  1   
 31  15  40  1   
 32  16  18  1   
 33  16  41  1   
 34  16  42  1   
 35  17  19  ar  
 36  17  20  ar  
 37  18  43  1   
 38  18  44  1   
 39  18  45  1   
 40  19  21  ar  
 41  20  22  ar  
 42  20  46  1   
 43  21  23  ar  
 44  21  24  ar  
 45  22  23  ar  
 46  22  47  1   
 47  23  25  ar  
 48  24  26  ar  
 49  24  48  1   
 50  25  27  ar  
 51  25  49  1   
 52  26  27  ar  
 53  26  50  1   
 54  27  51  1   
@<TRIPOS>SUBSTRUCTURE
  1 ****   6 GROUP 4 **** **** 0

# MOE 2024.06 (io_trps.svl 2023.06)
