@<TRIPOS>MOLECULE
NONAME
41 42 1 0 0 
SMALL
USER_CHARGES


@<TRIPOS>ATOM
  1 O       -2.0870     0.7290    -1.7810 O.2   1 <1>  -0.5700 
  2 C       -1.8230     0.6870    -0.6010 C.2   1 <1>   0.5690 
  3 N       -1.8880    -0.4900     0.0740 N.am  1 <1>  -0.7300 
  4 C       -1.4180     1.9870     0.1400 C.3   1 <1>   0.0610 
  5 C       -2.2730    -1.7890    -0.5170 C.3   1 <1>   0.2200 
  6 C       -1.1920     1.7690     1.6520 C.3   1 <1>  -0.2400 
  7 C       -2.5220     3.0480    -0.0230 C.3   1 <1>  -0.2400 
  8 C       -0.1120     2.5400    -0.4610 C.3   1 <1>  -0.2400 
  9 C       -3.7060    -2.1040    -0.1290 C.3   1 <1>  -0.0800 
 10 C       -1.5090    -2.9120     0.1740 C.3   1 <1>   0.1200 
 11 C       -3.5350    -2.7330     1.2580 C.3   1 <1>   0.1200 
 12 C       -4.3650    -3.0690    -1.1330 C.3   1 <1>  -0.0170 
 13 O       -2.2200    -3.2050     1.3400 O.3   1 <1>  -0.5600 
 14 C       -5.8120    -3.3520    -0.7620 C.ar  1 <1>  -0.1440 
 15 C       -6.2080    -4.5520    -0.2050 C.ar  1 <1>  -0.1500 
 16 C       -6.8070    -2.4180    -0.9660 C.ar  1 <1>  -0.1500 
 17 C       -7.5400    -4.7500     0.1170 C.ar  1 <1>   0.1600 
 18 C       -8.1110    -2.7160    -0.6080 C.ar  1 <1>   0.1600 
 19 N       -8.5010    -3.8600    -0.0690 N.ar  1 <1>  -0.6200 
 20 H       -1.6930    -0.5160     1.0760 H     1 <1>   0.3700 
 21 H       -2.1100    -1.7780    -1.5820 H     1 <1>   0.0800 
 22 H       -0.9210     2.6950     2.1290 H     1 <1>   0.0800 
 23 H       -0.3970     1.0640     1.8200 H     1 <1>   0.0800 
 24 H       -2.0880     1.4030     2.1200 H     1 <1>   0.0800 
 25 H       -2.2540     3.9630     0.4760 H     1 <1>   0.0800 
 26 H       -3.4480     2.6890     0.3870 H     1 <1>   0.0800 
 27 H       -2.6790     3.2640    -1.0660 H     1 <1>   0.0800 
 28 H        0.1820     3.4510     0.0290 H     1 <1>   0.0800 
 29 H       -0.2430     2.7430    -1.5090 H     1 <1>   0.0800 
 30 H        0.6800     1.8200    -0.3560 H     1 <1>   0.0800 
 31 H       -4.2980    -1.2070    -0.0750 H     1 <1>   0.0800 
 32 H       -0.4990    -2.6360     0.4240 H     1 <1>   0.0800 
 33 H       -1.5030    -3.7990    -0.4360 H     1 <1>   0.0800 
 34 H       -4.2110    -3.5500     1.4390 H     1 <1>   0.0800 
 35 H       -3.6600    -1.9920     2.0280 H     1 <1>   0.0800 
 36 H       -3.8160    -3.9930    -1.1800 H     1 <1>   0.0800 
 37 H       -4.3430    -2.6280    -2.1150 H     1 <1>   0.0800 
 38 H       -5.4950    -5.3330    -0.0170 H     1 <1>   0.1500 
 39 H       -6.5810    -1.4600    -1.4000 H     1 <1>   0.1500 
 40 H       -7.8300    -5.6920     0.5510 H     1 <1>   0.1500 
 41 H       -8.8740    -1.9750    -0.7740 H     1 <1>   0.1500 
@<TRIPOS>BOND
  1   1   2  2   
  2   2   3  am  
  3   2   4  1   
  4   3   5  1   
  5   3  20  1   
  6   4   6  1   
  7   4   7  1   
  8   4   8  1   
  9   5   9  1   
 10   5  10  1   
 11   5  21  1   
 12   6  22  1   
 13   6  23  1   
 14   6  24  1   
 15   7  25  1   
 16   7  26  1   
 17   7  27  1   
 18   8  28  1   
 19   8  29  1   
 20   8  30  1   
 21   9  11  1   
 22   9  12  1   
 23   9  31  1   
 24  10  13  1   
 25  10  32  1   
 26  10  33  1   
 27  11  13  1   
 28  11  34  1   
 29  11  35  1   
 30  12  14  1   
 31  12  36  1   
 32  12  37  1   
 33  14  15  ar  
 34  14  16  ar  
 35  15  17  ar  
 36  15  38  1   
 37  16  18  ar  
 38  16  39  1   
 39  17  19  ar  
 40  17  40  1   
 41  18  19  ar  
 42  18  41  1   
@<TRIPOS>SUBSTRUCTURE
  1 ****   9 GROUP 4 **** **** 0

# MOE 2024.06 (io_trps.svl 2023.06)
