@<TRIPOS>MOLECULE
NONAME
57 60 1 0 0 
SMALL
USER_CHARGES


@<TRIPOS>ATOM
  1 O       -0.7020     1.6160     2.3030 O.3   1 <1>  -0.5600 
  2 C        0.3610     1.3160     1.4630 C.3   1 <1>   0.1200 
  3 C       -1.8920     1.3050     1.6360 C.3   1 <1>   0.1200 
  4 C       -0.1100     1.9120     0.1410 C.3   1 <1>   0.4230 
  5 C       -1.5480     1.3850     0.1370 C.3   1 <1>  -0.0800 
  6 N       -0.1160     3.4010     0.2880 N.4   1 <1>  -0.9060 
  7 C       -2.5870     2.1530    -0.7060 C.3   1 <1>  -0.0170 
  8 C        1.2020     4.0770     0.2940 C.3   1 <1>   0.4230 
  9 C       -3.9290     1.4440    -0.6620 C.ar  1 <1>  -0.1430 
 10 C        1.0190     5.4950     0.8350 C.3   1 <1>  -0.1600 
 11 C        1.7960     4.1150    -1.1180 C.3   1 <1>  -0.1600 
 12 C       -4.9610     1.8720     0.1510 C.ar  1 <1>  -0.1500 
 13 C       -4.1880     0.3310    -1.4370 C.ar  1 <1>  -0.1500 
 14 C        2.3340     6.2740     0.8000 C.3   1 <1>   0.3430 
 15 C        3.1050     4.9100    -1.1470 C.3   1 <1>   0.3430 
 16 C       -6.1610     1.1800     0.1560 C.ar  1 <1>   0.1600 
 17 C       -5.4240    -0.2880    -1.3580 C.ar  1 <1>   0.1600 
 18 N        2.8870     6.2720    -0.5880 N.4   1 <1>  -0.9590 
 19 N       -6.4140     0.1090    -0.5760 N.ar  1 <1>  -0.6200 
 20 C        4.1400     7.0890    -0.6590 C.3   1 <1>   0.4860 
 21 C        3.7810     8.5240    -0.3370 C.ar  1 <1>  -0.1430 
 22 C        3.1070     9.3030    -1.2680 C.ar  1 <1>  -0.1500 
 23 C        4.1150     9.0680     0.8960 C.ar  1 <1>  -0.1500 
 24 C        2.7530    10.6040    -0.9600 C.ar  1 <1>  -0.1500 
 25 C        3.7610    10.3700     1.2000 C.ar  1 <1>  -0.1500 
 26 C        3.0770    11.1370     0.2750 C.ar  1 <1>  -0.1500 
 27 H        1.2660     1.7460     1.8520 H     1 <1>   0.0800 
 28 H        0.4620     0.2440     1.4070 H     1 <1>   0.0800 
 29 H       -2.2020     0.3120     1.9200 H     1 <1>   0.0800 
 30 H       -2.6440     2.0150     1.9370 H     1 <1>   0.0800 
 31 H        0.4620     1.5820    -0.7110 H     1 <1>   0.0800 
 32 H       -1.5210     0.3720    -0.2290 H     1 <1>   0.0800 
 33 H       -0.7500     3.8190    -0.3990 H     1 <1>   0.4500 
 34 H       -0.5570     3.5270     1.2170 H     1 <1>   0.4500 
 35 H       -2.2620     2.2060    -1.7320 H     1 <1>   0.0800 
 36 H       -2.7190     3.1570    -0.3440 H     1 <1>   0.0800 
 37 H        1.8770     3.5460     0.9490 H     1 <1>   0.0800 
 38 H        0.2840     6.0330     0.2620 H     1 <1>   0.0800 
 39 H        0.6830     5.4530     1.8570 H     1 <1>   0.0800 
 40 H        2.0070     3.1160    -1.4550 H     1 <1>   0.0800 
 41 H        1.1040     4.5630    -1.8090 H     1 <1>   0.0800 
 42 H       -4.8570     2.7350     0.7830 H     1 <1>   0.1500 
 43 H       -3.4480    -0.0680    -2.1070 H     1 <1>   0.1500 
 44 H        3.0450     5.8270     1.4780 H     1 <1>   0.0800 
 45 H        2.1560     7.2880     1.1250 H     1 <1>   0.0800 
 46 H        3.4610     4.9810    -2.1640 H     1 <1>   0.0800 
 47 H        3.8570     4.3960    -0.5680 H     1 <1>   0.0800 
 48 H       -6.9570     1.5260     0.7950 H     1 <1>   0.1500 
 49 H       -5.6110    -1.1560    -1.9680 H     1 <1>   0.1500 
 50 H        2.2250     6.7920    -1.1830 H     1 <1>   0.4500 
 51 H        4.8740     6.7240     0.0420 H     1 <1>   0.0800 
 52 H        4.5620     7.0460    -1.6510 H     1 <1>   0.0800 
 53 H        2.8530     8.9210    -2.2420 H     1 <1>   0.1500 
 54 H        4.6560     8.4970     1.6320 H     1 <1>   0.1500 
 55 H        2.2300    11.2110    -1.6800 H     1 <1>   0.1500 
 56 H        4.0190    10.7950     2.1570 H     1 <1>   0.1500 
 57 H        2.8030    12.1520     0.5130 H     1 <1>   0.1500 
@<TRIPOS>BOND
  1   1   2  1   
  2   1   3  1   
  3   2   4  1   
  4   2  27  1   
  5   2  28  1   
  6   3   5  1   
  7   3  29  1   
  8   3  30  1   
  9   4   5  1   
 10   4   6  1   
 11   4  31  1   
 12   5   7  1   
 13   5  32  1   
 14   6   8  1   
 15   6  33  1   
 16   6  34  1   
 17   7   9  1   
 18   7  35  1   
 19   7  36  1   
 20   8  10  1   
 21   8  11  1   
 22   8  37  1   
 23   9  12  ar  
 24   9  13  ar  
 25  10  14  1   
 26  10  38  1   
 27  10  39  1   
 28  11  15  1   
 29  11  40  1   
 30  11  41  1   
 31  12  16  ar  
 32  12  42  1   
 33  13  17  ar  
 34  13  43  1   
 35  14  18  1   
 36  14  44  1   
 37  14  45  1   
 38  15  18  1   
 39  15  46  1   
 40  15  47  1   
 41  16  19  ar  
 42  16  48  1   
 43  17  19  ar  
 44  17  49  1   
 45  18  20  1   
 46  18  50  1   
 47  20  21  1   
 48  20  51  1   
 49  20  52  1   
 50  21  22  ar  
 51  21  23  ar  
 52  22  24  ar  
 53  22  53  1   
 54  23  25  ar  
 55  23  54  1   
 56  24  26  ar  
 57  24  55  1   
 58  25  26  ar  
 59  25  56  1   
 60  26  57  1   
@<TRIPOS>SUBSTRUCTURE
  1 ****   6 GROUP 4 **** **** 0

# MOE 2024.06 (io_trps.svl 2023.06)
