@<TRIPOS>MOLECULE
NONAME
43 45 1 0 0 
SMALL
USER_CHARGES


@<TRIPOS>ATOM
  1 CL       0.8930    -0.2540     3.2180 Cl    1 <1>  -0.1770 
  2 C        1.7150    -0.9990     1.8720 C.ar  1 <1>   0.1770 
  3 C        1.7730    -2.3740     1.7930 C.ar  1 <1>  -0.1500 
  4 C        2.2920    -0.2000     0.9050 C.ar  1 <1>  -0.1500 
  5 C        2.4160    -2.9960     0.7250 C.ar  1 <1>   0.0860 
  6 C        2.9400    -0.8000    -0.1600 C.ar  1 <1>  -0.1500 
  7 C        3.0050    -2.1830    -0.2550 C.ar  1 <1>  -0.1440 
  8 C        2.4430    -4.4450     0.6620 C.2   1 <1>   0.5440 
  9 C        3.7290    -2.8090    -1.4400 C.3   1 <1>  -0.0960 
 10 O        3.4930    -5.0480     0.7790 O.2   1 <1>  -0.5700 
 11 N        1.2860    -5.1610     0.4700 N.am  1 <1>  -0.6600 
 12 C       -0.0120    -4.5880     0.0380 C.3   1 <1>   0.1400 
 13 C        1.2580    -6.6430     0.4060 C.3   1 <1>   0.1400 
 14 C       -0.7760    -5.7710    -0.5530 C.3   1 <1>   0.2000 
 15 C       -0.2050    -7.0040     0.1430 C.3   1 <1>  -0.0800 
 16 O       -2.1370    -5.6700    -0.3170 O.3   1 <1>  -0.6800 
 17 C       -0.3830    -8.2970    -0.6670 C.3   1 <1>   0.0210 
 18 C        0.2760    -9.4690     0.0330 C.2   1 <1>   0.1080 
 19 N       -0.0970    -9.8900     1.2010 N.2   1 <1>  -0.7070 
 20 C        1.3410   -10.2050    -0.4760 C.2   1 <1>  -0.1500 
 21 N        0.7280   -10.9190     1.4710 N.pl3 1 <1>   0.3000 
 22 C        1.6100   -11.1280     0.4700 C.2   1 <1>  -0.3320 
 23 C        2.6700   -12.2130     0.4810 C.3   1 <1>  -0.0600 
 24 H        1.3200    -2.9700     2.5640 H     1 <1>   0.1500 
 25 H        2.2350     0.8700     0.9880 H     1 <1>   0.1500 
 26 H        3.3950    -0.1800    -0.9130 H     1 <1>   0.1500 
 27 H        4.0630    -2.0600    -2.1350 H     1 <1>   0.0800 
 28 H        3.0760    -3.4870    -1.9590 H     1 <1>   0.0800 
 29 H        4.5880    -3.3580    -1.0940 H     1 <1>   0.0800 
 30 H       -0.5260    -4.1920     0.8960 H     1 <1>   0.0800 
 31 H        0.1360    -3.8190    -0.7000 H     1 <1>   0.0800 
 32 H        1.8920    -6.9700    -0.4000 H     1 <1>   0.0800 
 33 H        1.6090    -7.0730     1.3290 H     1 <1>   0.0800 
 34 H       -0.6170    -5.8090    -1.6170 H     1 <1>   0.0800 
 35 H       -0.6750    -7.1260     1.1040 H     1 <1>   0.0800 
 36 H       -2.3280    -5.8200     0.6300 H     1 <1>   0.4000 
 37 H        0.0400    -8.1820    -1.6480 H     1 <1>   0.0800 
 38 H       -1.4320    -8.5090    -0.7770 H     1 <1>   0.0800 
 39 H        1.8270   -10.0490    -1.4220 H     1 <1>   0.1500 
 40 H        0.6650   -11.4560     2.3440 H     1 <1>   0.2700 
 41 H        3.2460   -12.1760    -0.4270 H     1 <1>   0.0800 
 42 H        2.2110   -13.1820     0.5560 H     1 <1>   0.0800 
 43 H        3.3360   -12.0740     1.3140 H     1 <1>   0.0800 
@<TRIPOS>BOND
  1   1   2  1   
  2   2   3  ar  
  3   2   4  ar  
  4   3   5  ar  
  5   3  24  1   
  6   4   6  ar  
  7   4  25  1   
  8   5   7  ar  
  9   5   8  1   
 10   6   7  ar  
 11   6  26  1   
 12   7   9  1   
 13   8  10  2   
 14   8  11  am  
 15   9  27  1   
 16   9  28  1   
 17   9  29  1   
 18  11  12  1   
 19  11  13  1   
 20  12  14  1   
 21  12  30  1   
 22  12  31  1   
 23  13  15  1   
 24  13  32  1   
 25  13  33  1   
 26  14  15  1   
 27  14  16  1   
 28  14  34  1   
 29  15  17  1   
 30  15  35  1   
 31  16  36  1   
 32  17  18  1   
 33  17  37  1   
 34  17  38  1   
 35  18  19  2   
 36  18  20  1   
 37  19  21  1   
 38  20  22  2   
 39  20  39  1   
 40  21  22  1   
 41  21  40  1   
 42  22  23  1   
 43  23  41  1   
 44  23  42  1   
 45  23  43  1   
@<TRIPOS>SUBSTRUCTURE
  1 ****  11 GROUP 4 **** **** 0

# MOE 2024.06 (io_trps.svl 2023.06)
