@<TRIPOS>MOLECULE
NONAME
51 53 1 0 0 
SMALL
USER_CHARGES


@<TRIPOS>ATOM
  1 O        1.9120     0.5530     0.2620 O.2   1 <1>  -0.5700 
  2 C        2.4060    -0.5710     0.3040 C.2   1 <1>   0.6160 
  3 N        1.6560    -1.6610    -0.1420 N.am  1 <1>  -0.4690 
  4 C        3.7340    -0.7860     0.7950 C.2   1 <1>   0.0290 
  5 C        2.1840    -2.9410    -0.0880 C.2   1 <1>  -0.0290 
  6 C        0.2640    -1.4040    -0.6270 C.3   1 <1>   0.1400 
  7 C        4.5220     0.3360     1.2290 C.2   1 <1>   0.6160 
  8 C        4.2180    -2.0670     0.8540 C.2   1 <1>  -0.1500 
  9 C        3.4380    -3.1440     0.4040 C.2   1 <1>  -0.1500 
 10 C        1.3680    -4.1320    -0.5740 C.3   1 <1>  -0.1020 
 11 C       -0.7120    -1.4220     0.5500 C.3   1 <1>  -0.2400 
 12 O        5.1770     0.2560     2.2520 O.2   1 <1>  -0.5700 
 13 N        4.6690     1.4900     0.4940 N.am  1 <1>  -0.6600 
 14 C        4.9440     2.7880     1.2140 C.3   1 <1>   0.2200 
 15 C        4.6830     1.4620    -0.9990 C.3   1 <1>   0.1400 
 16 C        4.1230     3.9550     0.6430 C.3   1 <1>   0.1200 
 17 C        6.4560     3.1110     1.2350 C.3   1 <1>   0.3430 
 18 C        5.4910     2.5990    -1.6540 C.3   1 <1>  -0.0800 
 19 O        4.7840     4.5660    -0.4230 O.3   1 <1>  -0.5600 
 20 N        7.2150     2.3000     0.2250 N.4   1 <1>  -0.9590 
 21 C        4.7110     3.9240    -1.6500 C.3   1 <1>   0.1200 
 22 C        6.9490     2.7750    -1.1700 C.3   1 <1>   0.3430 
 23 C        8.7020     2.4190     0.5210 C.3   1 <1>   0.2370 
 24 C        9.2690     3.8330     0.3690 C.2   1 <1>   0.9060 
 25 O        9.2220     4.5840     1.3470 O.co2 1 <1>  -0.9000 
 26 O        9.6280     4.1890    -0.7570 O.co2 1 <1>  -0.9000 
 27 H        0.2180    -0.4460    -1.1180 H     1 <1>   0.0800 
 28 H       -0.0250    -2.1390    -1.3560 H     1 <1>   0.0800 
 29 H        5.2000    -2.2700     1.2480 H     1 <1>   0.1500 
 30 H        3.8620    -4.1320     0.4630 H     1 <1>   0.1500 
 31 H        0.4420    -4.2000    -0.0340 H     1 <1>   0.0800 
 32 H        1.9060    -5.0510    -0.4230 H     1 <1>   0.0800 
 33 H        1.1620    -4.0390    -1.6250 H     1 <1>   0.0800 
 34 H       -0.4650    -0.6400     1.2460 H     1 <1>   0.0800 
 35 H       -0.6820    -2.3700     1.0560 H     1 <1>   0.0800 
 36 H       -1.7120    -1.2540     0.1940 H     1 <1>   0.0800 
 37 H        4.6240     2.6760     2.2350 H     1 <1>   0.0800 
 38 H        5.0930     0.5190    -1.3210 H     1 <1>   0.0800 
 39 H        3.6660     1.5060    -1.3540 H     1 <1>   0.0800 
 40 H        4.0150     4.7090     1.4030 H     1 <1>   0.0800 
 41 H        3.1390     3.6370     0.3390 H     1 <1>   0.0800 
 42 H        6.8320     2.8880     2.2200 H     1 <1>   0.0800 
 43 H        6.6180     4.1650     1.0650 H     1 <1>   0.0800 
 44 H        5.5620     2.3390    -2.6940 H     1 <1>   0.0800 
 45 H        6.8810     1.3350     0.3430 H     1 <1>   0.4500 
 46 H        3.6750     3.7780    -1.9050 H     1 <1>   0.0800 
 47 H        5.1420     4.5970    -2.3730 H     1 <1>   0.0800 
 48 H        7.2230     3.8160    -1.2500 H     1 <1>   0.0800 
 49 H        7.5960     2.2320    -1.8390 H     1 <1>   0.0800 
 50 H        8.8980     2.1060     1.5300 H     1 <1>   0.0800 
 51 H        9.2570     1.7850    -0.1450 H     1 <1>   0.0800 
@<TRIPOS>BOND
  1   1   2  2   
  2   2   3  am  
  3   2   4  1   
  4   3   5  1   
  5   3   6  1   
  6   4   7  1   
  7   4   8  2   
  8   5   9  2   
  9   5  10  1   
 10   6  11  1   
 11   6  27  1   
 12   6  28  1   
 13   7  12  2   
 14   7  13  am  
 15   8   9  1   
 16   8  29  1   
 17   9  30  1   
 18  10  31  1   
 19  10  32  1   
 20  10  33  1   
 21  11  34  1   
 22  11  35  1   
 23  11  36  1   
 24  13  14  1   
 25  13  15  1   
 26  14  16  1   
 27  14  17  1   
 28  14  37  1   
 29  15  18  1   
 30  15  38  1   
 31  15  39  1   
 32  16  19  1   
 33  16  40  1   
 34  16  41  1   
 35  17  20  1   
 36  17  42  1   
 37  17  43  1   
 38  18  21  1   
 39  18  22  1   
 40  18  44  1   
 41  19  21  1   
 42  20  22  1   
 43  20  23  1   
 44  20  45  1   
 45  21  46  1   
 46  21  47  1   
 47  22  48  1   
 48  22  49  1   
 49  23  24  1   
 50  23  50  1   
 51  23  51  1   
 52  24  25  ar  
 53  24  26  ar  
@<TRIPOS>SUBSTRUCTURE
  1 ****  13 GROUP 4 **** **** 0

# MOE 2024.06 (io_trps.svl 2023.06)
