@<TRIPOS>MOLECULE
NONAME
46 48 1 0 0 
SMALL
USER_CHARGES


@<TRIPOS>ATOM
  1 O       -2.0580    -3.4140    -3.0220 O.2   1 <1>  -0.5700 
  2 C       -2.7480    -3.1610    -2.0500 C.2   1 <1>   0.6900 
  3 N       -3.6590    -3.9780    -1.4920 N.am  1 <1>  -0.5390 
  4 N       -2.7120    -2.0130    -1.3410 N.am  1 <1>  -0.5390 
  5 C       -4.2220    -3.3430    -0.3730 C.2   1 <1>   0.1230 
  6 C       -3.6100    -2.1330    -0.3000 C.2   1 <1>  -0.0410 
  7 C       -5.2160    -3.9740     0.4720 C.2   1 <1>   0.6160 
  8 O       -5.1760    -5.1860     0.6130 O.2   1 <1>  -0.5700 
  9 N       -6.2080    -3.2740     1.1340 N.am  1 <1>  -0.6600 
 10 C       -6.9640    -3.9150     2.2540 C.3   1 <1>   0.1400 
 11 C       -6.7290    -1.9420     0.7140 C.3   1 <1>   0.1400 
 12 C       -8.1180    -4.8130     1.7730 C.3   1 <1>   0.1400 
 13 C       -8.0450    -2.0520    -0.0650 C.3   1 <1>  -0.1600 
 14 N       -8.9300    -4.2440     0.6450 N.am  1 <1>  -0.6600 
 15 C       -9.1740    -2.7760     0.6770 C.3   1 <1>   0.1400 
 16 C       -9.4890    -5.0260    -0.3500 C.2   1 <1>   0.5440 
 17 O      -10.3430    -4.5440    -1.0710 O.2   1 <1>  -0.5700 
 18 C       -9.1080    -6.4080    -0.5620 C.ar  1 <1>   0.0860 
 19 C       -7.8020    -6.8000    -0.8080 C.ar  1 <1>  -0.1500 
 20 C      -10.0340    -7.4390    -0.5460 C.ar  1 <1>  -0.1500 
 21 C       -7.4890    -8.1350    -0.9780 C.ar  1 <1>   0.1670 
 22 C       -9.6300    -8.7470    -0.7380 C.ar  1 <1>   0.1670 
 23 N       -8.3780    -9.1120    -0.9450 N.ar  1 <1>  -0.6200 
 24 C       -6.0530    -8.5500    -1.2160 C.3   1 <1>  -0.0970 
 25 C      -10.6470    -9.8690    -0.7180 C.3   1 <1>  -0.0970 
 26 H       -3.8090    -4.9440    -1.7780 H     1 <1>   0.3700 
 27 H       -2.0640    -1.2600    -1.5760 H     1 <1>   0.3700 
 28 H       -3.7450    -1.3550     0.4320 H     1 <1>   0.1500 
 29 H       -7.3540    -3.1540     2.9070 H     1 <1>   0.0800 
 30 H       -6.2870    -4.5130     2.8400 H     1 <1>   0.0800 
 31 H       -6.0180    -1.4360     0.0910 H     1 <1>   0.0800 
 32 H       -6.8790    -1.3340     1.5900 H     1 <1>   0.0800 
 33 H       -8.7740    -5.0030     2.6040 H     1 <1>   0.0800 
 34 H       -7.6940    -5.7580     1.4920 H     1 <1>   0.0800 
 35 H       -7.8730    -2.5330    -1.0120 H     1 <1>   0.0800 
 36 H       -8.3810    -1.0530    -0.2790 H     1 <1>   0.0800 
 37 H      -10.1100    -2.5540     0.1920 H     1 <1>   0.0800 
 38 H       -9.2520    -2.4310     1.6920 H     1 <1>   0.0800 
 39 H       -7.0360    -6.0510    -0.8600 H     1 <1>   0.1500 
 40 H      -11.0690    -7.2010    -0.3840 H     1 <1>   0.1500 
 41 H       -5.3900    -7.7080    -1.1420 H     1 <1>   0.0800 
 42 H       -5.9630    -8.9870    -2.1930 H     1 <1>   0.0800 
 43 H       -5.7660    -9.2800    -0.4810 H     1 <1>   0.0800 
 44 H      -11.6380    -9.4920    -0.5470 H     1 <1>   0.0800 
 45 H      -10.3970   -10.5640     0.0630 H     1 <1>   0.0800 
 46 H      -10.6280   -10.3850    -1.6600 H     1 <1>   0.0800 
@<TRIPOS>BOND
  1   1   2  2   
  2   2   3  am  
  3   2   4  am  
  4   3   5  1   
  5   3  26  1   
  6   4   6  1   
  7   4  27  1   
  8   5   6  2   
  9   5   7  1   
 10   6  28  1   
 11   7   8  2   
 12   7   9  am  
 13   9  10  1   
 14   9  11  1   
 15  10  12  1   
 16  10  29  1   
 17  10  30  1   
 18  11  13  1   
 19  11  31  1   
 20  11  32  1   
 21  12  14  1   
 22  12  33  1   
 23  12  34  1   
 24  13  15  1   
 25  13  35  1   
 26  13  36  1   
 27  14  15  1   
 28  14  16  am  
 29  15  37  1   
 30  15  38  1   
 31  16  17  2   
 32  16  18  1   
 33  18  19  ar  
 34  18  20  ar  
 35  19  21  ar  
 36  19  39  1   
 37  20  22  ar  
 38  20  40  1   
 39  21  23  ar  
 40  21  24  1   
 41  22  23  ar  
 42  22  25  1   
 43  24  41  1   
 44  24  42  1   
 45  24  43  1   
 46  25  44  1   
 47  25  45  1   
 48  25  46  1   
@<TRIPOS>SUBSTRUCTURE
  1 ****   8 GROUP 4 **** **** 0

# MOE 2024.06 (io_trps.svl 2023.06)
