@<TRIPOS>MOLECULE
NONAME
40 41 1 0 0 
SMALL
USER_CHARGES


@<TRIPOS>ATOM
  1 S       -0.2410     0.0930     0.1170 S.o2  1 <1>   1.3330 
  2 O       -0.2640    -0.6860     1.3350 O.2   1 <1>  -0.6500 
  3 O       -0.8030     1.4240     0.1120 O.2   1 <1>  -0.6500 
  4 N       -1.0090    -0.8160    -1.0940 N.am  1 <1>  -0.8490 
  5 C        1.4400     0.2130    -0.4970 C.3   1 <1>  -0.0550 
  6 C       -2.4310    -0.4810    -1.2220 C.3   1 <1>   0.1160 
  7 C       -0.8510    -2.2640    -0.9240 C.3   1 <1>   0.1160 
  8 C        2.3680     1.0650     0.3940 C.3   1 <1>  -0.0800 
  9 C        3.6990     1.3240    -0.2920 C.3   1 <1>   0.2200 
 10 C        2.8050     0.3090     1.6540 C.3   1 <1>   0.1200 
 11 N        4.3290     2.5240     0.3020 N.am  1 <1>  -0.7300 
 12 C        4.4970     0.0850     0.0990 C.3   1 <1>   0.1200 
 13 O        4.0280    -0.2990     1.3570 O.3   1 <1>  -0.5600 
 14 C        4.6360     3.6780    -0.3540 C.2   1 <1>   0.7150 
 15 O        4.3410     3.7610    -1.5300 O.2   1 <1>  -0.5700 
 16 C        5.2970     4.7570     0.3390 C.2   1 <1>  -0.0450 
 17 S        5.6940     4.5450     2.0350 S.3   1 <1>  -0.0800 
 18 C        5.7270     5.9960    -0.0100 C.2   1 <1>   0.0460 
 19 C        6.3900     6.1400     2.0730 C.2   1 <1>   0.2280 
 20 N        6.3360     6.7590     0.9650 N.2   1 <1>  -0.5650 
 21 C        5.6200     6.6620    -1.3690 C.3   1 <1>  -0.0590 
 22 H        1.8510    -0.7710    -0.6080 H     1 <1>   0.0800 
 23 H        1.3990     0.6610    -1.4710 H     1 <1>   0.0800 
 24 H       -2.8820    -1.0630    -2.0080 H     1 <1>   0.0800 
 25 H       -2.5440     0.5610    -1.4710 H     1 <1>   0.0800 
 26 H       -2.9460    -0.6740    -0.2960 H     1 <1>   0.0800 
 27 H       -1.2750    -2.7840    -1.7670 H     1 <1>   0.0800 
 28 H       -1.3450    -2.5940    -0.0240 H     1 <1>   0.0800 
 29 H        0.1920    -2.5200    -0.8570 H     1 <1>   0.0800 
 30 H        1.8690     1.9880     0.6380 H     1 <1>   0.0800 
 31 H        3.6140     1.4290    -1.3610 H     1 <1>   0.0800 
 32 H        2.1090    -0.4490     1.9700 H     1 <1>   0.0800 
 33 H        2.9730     0.9930     2.4680 H     1 <1>   0.0800 
 34 H        4.6140     2.4230     1.2780 H     1 <1>   0.3700 
 35 H        5.5560     0.2720     0.1480 H     1 <1>   0.0800 
 36 H        4.3020    -0.7240    -0.5820 H     1 <1>   0.0800 
 37 H        6.8040     6.4790     3.0060 H     1 <1>   0.1500 
 38 H        5.1480     6.0270    -2.0930 H     1 <1>   0.0800 
 39 H        6.6030     6.9130    -1.7230 H     1 <1>   0.0800 
 40 H        5.0460     7.5660    -1.2800 H     1 <1>   0.0800 
@<TRIPOS>BOND
  1   1   2  2   
  2   1   3  2   
  3   1   4  am  
  4   1   5  1   
  5   4   6  1   
  6   4   7  1   
  7   5   8  1   
  8   5  22  1   
  9   5  23  1   
 10   6  24  1   
 11   6  25  1   
 12   6  26  1   
 13   7  27  1   
 14   7  28  1   
 15   7  29  1   
 16   8   9  1   
 17   8  10  1   
 18   8  30  1   
 19   9  11  1   
 20   9  12  1   
 21   9  31  1   
 22  10  13  1   
 23  10  32  1   
 24  10  33  1   
 25  11  14  am  
 26  11  34  1   
 27  12  13  1   
 28  12  35  1   
 29  12  36  1   
 30  14  15  2   
 31  14  16  1   
 32  16  17  1   
 33  16  18  2   
 34  17  19  1   
 35  18  20  1   
 36  18  21  1   
 37  19  20  2   
 38  19  37  1   
 39  21  38  1   
 40  21  39  1   
 41  21  40  1   
@<TRIPOS>SUBSTRUCTURE
  1 ****   9 GROUP 4 **** **** 0

# MOE 2024.06 (io_trps.svl 2023.06)
