@<TRIPOS>MOLECULE
NONAME
14 13 1 0 0 
SMALL
USER_CHARGES


@<TRIPOS>ATOM
  1 N       -7.4500     0.7530    -0.0010 N.4   1 <1>  -0.8530 
  2 C       -5.9740     0.8530     0.0000 C.3   1 <1>   0.3430 
  3 C       -5.3780    -0.5530    -0.0020 C.3   1 <1>  -0.1600 
  4 C       -3.8460    -0.5000    -0.0010 C.3   1 <1>  -0.2400 
  5 H       -7.8840     1.6840     0.0000 H     1 <1>   0.4500 
  6 H       -7.7780     0.2450     0.8270 H     1 <1>   0.4500 
  7 H       -7.7770     0.2490    -0.8330 H     1 <1>   0.4500 
  8 H       -5.6380     1.3860     0.8770 H     1 <1>   0.0800 
  9 H       -5.6370     1.3900    -0.8730 H     1 <1>   0.0800 
 10 H       -5.6990    -1.0890    -0.8800 H     1 <1>   0.0800 
 11 H       -5.7010    -1.0930     0.8720 H     1 <1>   0.0800 
 12 H       -3.4770     0.0090    -0.8750 H     1 <1>   0.0800 
 13 H       -3.4440    -1.4990    -0.0030 H     1 <1>   0.0800 
 14 H       -3.4780     0.0050     0.8760 H     1 <1>   0.0800 
@<TRIPOS>BOND
  1   1   2  1   
  2   1   5  1   
  3   1   6  1   
  4   1   7  1   
  5   2   3  1   
  6   2   8  1   
  7   2   9  1   
  8   3   4  1   
  9   3  10  1   
 10   3  11  1   
 11   4  12  1   
 12   4  13  1   
 13   4  14  1   
@<TRIPOS>SUBSTRUCTURE
  1 ****   3 GROUP 4 **** **** 0

# MOE 2024.06 (io_trps.svl 2023.06)
