@<TRIPOS>MOLECULE
NONAME
51 54 1 0 0 
SMALL
USER_CHARGES


@<TRIPOS>ATOM
  1 O       -1.6450    -1.2960    -2.8700 O.2   1 <1>  -0.5700 
  2 C       -2.0900    -1.3640    -1.7480 C.2   1 <1>   0.5690 
  3 N       -2.1450    -0.2790    -0.9230 N.am  1 <1>  -0.6600 
  4 C       -2.5910    -2.7070    -1.2720 C.3   1 <1>  -0.0190 
  5 C       -2.7580    -0.3530     0.4340 C.3   1 <1>   0.2200 
  6 C       -1.6460     1.0610    -1.3450 C.3   1 <1>   0.0600 
  7 C       -1.7640    -3.2100    -0.0750 C.3   1 <1>   0.1200 
  8 C       -4.1260    -2.7110    -1.1340 C.3   1 <1>   0.1400 
  9 C       -1.9600    -1.2990     1.3680 C.3   1 <1>   0.1200 
 10 C       -4.2780    -0.6240     0.3420 C.3   1 <1>   0.1400 
 11 O       -2.1540    -2.6710     1.1510 O.3   1 <1>  -0.5600 
 12 N       -4.6630    -2.0540     0.1010 N.am  1 <1>  -0.6600 
 13 C       -5.4010    -2.7440     1.0460 C.2   1 <1>   0.5440 
 14 O       -5.9550    -2.1310     1.9390 O.2   1 <1>  -0.5700 
 15 C       -5.5430    -4.1840     0.9950 C.ar  1 <1>   0.0860 
 16 C       -6.6560    -4.7750     0.4050 C.ar  1 <1>  -0.1500 
 17 C       -4.5630    -5.0210     1.5230 C.ar  1 <1>  -0.1500 
 18 C       -6.8040    -6.1530     0.3230 C.ar  1 <1>   0.0000 
 19 C       -4.6880    -6.3960     1.4520 C.ar  1 <1>  -0.1500 
 20 C       -7.9710    -6.7380    -0.2980 C.ar  1 <1>   0.0000 
 21 C       -5.8010    -6.9560     0.8530 C.ar  1 <1>  -0.1500 
 22 C       -9.2050    -6.8070     0.3530 C.ar  1 <1>  -0.1440 
 23 C       -7.8710    -7.2530    -1.5870 C.ar  1 <1>  -0.1500 
 24 C      -10.2970    -7.3730    -0.2860 C.ar  1 <1>  -0.1500 
 25 C       -9.3680    -6.2660     1.7670 C.3   1 <1>  -0.0970 
 26 C       -8.9610    -7.8180    -2.2200 C.ar  1 <1>  -0.1500 
 27 C      -10.1790    -7.8790    -1.5690 C.ar  1 <1>  -0.1500 
 28 H       -2.3730    -3.3870    -2.0760 H     1 <1>   0.0800 
 29 H       -2.6640     0.6270     0.8670 H     1 <1>   0.0800 
 30 H       -0.8900     1.4010    -0.6590 H     1 <1>   0.0800 
 31 H       -2.4590     1.7650    -1.3590 H     1 <1>   0.0800 
 32 H       -1.2150     1.0170    -2.3310 H     1 <1>   0.0800 
 33 H       -0.7170    -3.0020    -0.2210 H     1 <1>   0.0800 
 34 H       -1.8850    -4.2750     0.0100 H     1 <1>   0.0800 
 35 H       -4.4570    -3.7320    -1.1790 H     1 <1>   0.0800 
 36 H       -4.5500    -2.2140    -1.9900 H     1 <1>   0.0800 
 37 H       -2.2700    -1.1140     2.3810 H     1 <1>   0.0800 
 38 H       -0.9070    -1.0890     1.2980 H     1 <1>   0.0800 
 39 H       -4.6970    -0.0150    -0.4390 H     1 <1>   0.0800 
 40 H       -4.7140    -0.2860     1.2650 H     1 <1>   0.0800 
 41 H       -7.4260    -4.1420     0.0010 H     1 <1>   0.1500 
 42 H       -3.7010    -4.5780     1.9920 H     1 <1>   0.1500 
 43 H       -3.9210    -7.0280     1.8650 H     1 <1>   0.1500 
 44 H       -5.9030    -8.0260     0.7980 H     1 <1>   0.1500 
 45 H       -6.9250    -7.2060    -2.0960 H     1 <1>   0.1500 
 46 H      -11.2490    -7.4260     0.2110 H     1 <1>   0.1500 
 47 H      -10.3330    -6.5150     2.1690 H     1 <1>   0.0800 
 48 H       -9.2650    -5.1960     1.7650 H     1 <1>   0.0800 
 49 H       -8.6150    -6.6840     2.4120 H     1 <1>   0.0800 
 50 H       -8.8640    -8.2100    -3.2180 H     1 <1>   0.1500 
 51 H      -11.0320    -8.3170    -2.0570 H     1 <1>   0.1500 
@<TRIPOS>BOND
  1   1   2  2   
  2   2   3  am  
  3   2   4  1   
  4   3   5  1   
  5   3   6  1   
  6   4   7  1   
  7   4   8  1   
  8   4  28  1   
  9   5   9  1   
 10   5  10  1   
 11   5  29  1   
 12   6  30  1   
 13   6  31  1   
 14   6  32  1   
 15   7  11  1   
 16   7  33  1   
 17   7  34  1   
 18   8  12  1   
 19   8  35  1   
 20   8  36  1   
 21   9  11  1   
 22   9  37  1   
 23   9  38  1   
 24  10  12  1   
 25  10  39  1   
 26  10  40  1   
 27  12  13  am  
 28  13  14  2   
 29  13  15  1   
 30  15  16  ar  
 31  15  17  ar  
 32  16  18  ar  
 33  16  41  1   
 34  17  19  ar  
 35  17  42  1   
 36  18  20  1   
 37  18  21  ar  
 38  19  21  ar  
 39  19  43  1   
 40  20  22  ar  
 41  20  23  ar  
 42  21  44  1   
 43  22  24  ar  
 44  22  25  1   
 45  23  26  ar  
 46  23  45  1   
 47  24  27  ar  
 48  24  46  1   
 49  25  47  1   
 50  25  48  1   
 51  25  49  1   
 52  26  27  ar  
 53  26  50  1   
 54  27  51  1   
@<TRIPOS>SUBSTRUCTURE
  1 ****  15 GROUP 4 **** **** 0

# MOE 2024.06 (io_trps.svl 2023.06)
