@<TRIPOS>MOLECULE
NONAME
45 48 1 0 0 
SMALL
USER_CHARGES


@<TRIPOS>ATOM
  1 S        0.7130    -1.2780    -2.3830 S.3   1 <1>  -0.0800 
  2 C       -0.2890    -1.1650    -0.9380 C.2   1 <1>   0.3250 
  3 C       -0.7000    -1.2870    -3.3770 C.2   1 <1>  -0.1100 
  4 N       -1.5470    -1.1400    -1.2380 N.2   1 <1>  -0.5650 
  5 C        0.3700    -1.1100     0.3640 C.ar  1 <1>   0.6730 
  6 C       -1.8100    -1.2010    -2.6140 C.2   1 <1>   0.1410 
  7 N       -0.3990    -0.9140     1.4480 N.ar  1 <1>  -0.6200 
  8 N        1.7050    -1.2530     0.4110 N.ar  1 <1>  -0.6200 
  9 C       -3.1700    -1.2030    -3.1550 C.2   1 <1>   0.7160 
 10 C        0.1990    -0.8670     2.6130 C.ar  1 <1>   0.1600 
 11 C        2.2770    -1.2010     1.5890 C.ar  1 <1>   0.1600 
 12 O       -3.3630    -1.7450    -4.2310 O.2   1 <1>  -0.5700 
 13 N       -4.2540    -0.6200    -2.5220 N.am  1 <1>  -0.6600 
 14 C        1.5570    -1.0070     2.7400 C.ar  1 <1>  -0.1500 
 15 C       -4.1610     0.4290    -1.4710 C.3   1 <1>   0.1400 
 16 C       -5.6530    -1.0410    -2.8030 C.3   1 <1>   0.1400 
 17 C       -4.7310    -0.1300    -0.1670 C.3   1 <1>  -0.1600 
 18 C       -6.2640    -1.6060    -1.5170 C.3   1 <1>  -0.1600 
 19 C       -6.1780    -0.6110    -0.3540 C.3   1 <1>   0.4180 
 20 O       -6.9900     0.4810    -0.7170 O.3   1 <1>  -0.5600 
 21 C       -6.7060    -1.2640     0.9210 C.2   1 <1>  -0.2880 
 22 C       -7.4340     1.3230     0.3090 C.3   1 <1>   0.1200 
 23 C       -7.6910    -0.7610     1.6690 C.2   1 <1>  -0.2760 
 24 C       -8.3370     0.5570     1.2850 C.3   1 <1>  -0.0220 
 25 C       -8.2470    -1.4230     2.9170 C.3   1 <1>  -0.1020 
 26 H       -0.5810    -1.3600    -4.4430 H     1 <1>   0.1500 
 27 H       -0.4110    -0.7120     3.4880 H     1 <1>   0.1500 
 28 H        3.3480    -1.3160     1.6370 H     1 <1>   0.1500 
 29 H        2.0370    -0.9660     3.7000 H     1 <1>   0.1500 
 30 H       -4.7380     1.2840    -1.7800 H     1 <1>   0.0800 
 31 H       -3.1470     0.7560    -1.3310 H     1 <1>   0.0800 
 32 H       -5.6810    -1.7900    -3.5760 H     1 <1>   0.0800 
 33 H       -6.2200    -0.1890    -3.1390 H     1 <1>   0.0800 
 34 H       -4.6780     0.6090     0.6080 H     1 <1>   0.0800 
 35 H       -4.1180    -0.9570     0.1450 H     1 <1>   0.0800 
 36 H       -5.7390    -2.5070    -1.2580 H     1 <1>   0.0800 
 37 H       -7.2930    -1.8650    -1.6840 H     1 <1>   0.0800 
 38 H       -6.2020    -2.1840     1.1530 H     1 <1>   0.1500 
 39 H       -7.9770     2.1350    -0.1420 H     1 <1>   0.0800 
 40 H       -6.5780     1.7230     0.8230 H     1 <1>   0.0800 
 41 H       -9.2930     0.3740     0.8280 H     1 <1>   0.0800 
 42 H       -8.4910     1.1650     2.1570 H     1 <1>   0.0800 
 43 H       -9.2970    -1.6210     2.7930 H     1 <1>   0.0800 
 44 H       -8.1100    -0.7840     3.7710 H     1 <1>   0.0800 
 45 H       -7.7450    -2.3560     3.1040 H     1 <1>   0.0800 
@<TRIPOS>BOND
  1   1   2  1   
  2   1   3  1   
  3   2   4  2   
  4   2   5  1   
  5   3   6  2   
  6   3  26  1   
  7   4   6  1   
  8   5   7  ar  
  9   5   8  ar  
 10   6   9  1   
 11   7  10  ar  
 12   8  11  ar  
 13   9  12  2   
 14   9  13  am  
 15  10  14  ar  
 16  10  27  1   
 17  11  14  ar  
 18  11  28  1   
 19  13  15  1   
 20  13  16  1   
 21  14  29  1   
 22  15  17  1   
 23  15  30  1   
 24  15  31  1   
 25  16  18  1   
 26  16  32  1   
 27  16  33  1   
 28  17  19  1   
 29  17  34  1   
 30  17  35  1   
 31  18  19  1   
 32  18  36  1   
 33  18  37  1   
 34  19  20  1   
 35  19  21  1   
 36  20  22  1   
 37  21  23  2   
 38  21  38  1   
 39  22  24  1   
 40  22  39  1   
 41  22  40  1   
 42  23  24  1   
 43  23  25  1   
 44  24  41  1   
 45  24  42  1   
 46  25  43  1   
 47  25  44  1   
 48  25  45  1   
@<TRIPOS>SUBSTRUCTURE
  1 ****  17 GROUP 4 **** **** 0

# MOE 2024.06 (io_trps.svl 2023.06)
