@<TRIPOS>MOLECULE
NONAME
53 57 1 0 0 
SMALL
USER_CHARGES


@<TRIPOS>ATOM
  1 O        0.3470     0.9900     1.4960 O.2   1 <1>  -0.5700 
  2 C       -0.2140     2.0110     1.1270 C.2   1 <1>   0.7160 
  3 N       -1.5690     2.1450     1.3700 N.am  1 <1>  -0.6600 
  4 C        0.5240     3.0260     0.4480 C.2   1 <1>  -0.0860 
  5 C       -2.4630     2.8990     0.4320 C.3   1 <1>   0.1400 
  6 C       -2.2850     1.1670     2.2400 C.3   1 <1>   0.1400 
  7 C        1.3830     2.9220    -0.6140 C.2   1 <1>  -0.0680 
  8 C        0.5310     4.4030     0.7140 C.2   1 <1>   0.1390 
  9 C       -3.6000     3.6210     1.1800 C.3   1 <1>   0.1440 
 10 C       -3.4240     1.8560     3.0030 C.3   1 <1>  -0.1600 
 11 N        1.8070     4.1580    -0.9140 N.pl3 1 <1>   0.6010 
 12 N        1.9560     2.0110    -1.4770 N.pl3 1 <1>  -0.5530 
 13 N        1.2780     5.0990    -0.0910 N.2   1 <1>  -0.7070 
 14 C       -4.4790     4.3010     0.1490 C.ar  1 <1>   0.1660 
 15 C       -4.3720     2.6120     2.0550 C.3   1 <1>  -0.1600 
 16 C       -3.0790     4.8260     2.0060 C.3   1 <1>  -0.1600 
 17 C        2.6730     4.0550    -1.9860 C.2   1 <1>  -0.1810 
 18 C        2.7660     2.7510    -2.3240 C.2   1 <1>  -0.0500 
 19 C        1.8400     0.5400    -1.3800 C.3   1 <1>   0.1290 
 20 N       -5.3400     3.6990    -0.6330 N.ar  1 <1>  -0.6200 
 21 C       -4.2510     5.6440     0.1090 C.ar  1 <1>  -0.1430 
 22 C       -3.1970     6.0650     1.1020 C.3   1 <1>  -0.0170 
 23 C       -6.0040     4.4980    -1.4720 C.ar  1 <1>   0.7200 
 24 C       -4.9750     6.3850    -0.7900 C.ar  1 <1>   0.1600 
 25 N       -5.8560     5.8230    -1.5830 N.ar  1 <1>  -0.6200 
 26 N       -6.9300     3.8990    -2.3050 N.pl3 1 <1>  -0.8380 
 27 C       -7.9370     4.6910    -3.0640 C.3   1 <1>   0.1290 
 28 C       -6.9960     2.4230    -2.4860 C.3   1 <1>   0.1290 
 29 H       -2.8980     2.1970    -0.2600 H     1 <1>   0.0800 
 30 H       -1.9050     3.6130    -0.1470 H     1 <1>   0.0800 
 31 H       -1.6010     0.7260     2.9460 H     1 <1>   0.0800 
 32 H       -2.6820     0.3790     1.6230 H     1 <1>   0.0800 
 33 H       -0.0270     4.8500     1.5170 H     1 <1>   0.1500 
 34 H       -3.0010     2.5340     3.7230 H     1 <1>   0.0800 
 35 H       -3.9800     1.1130     3.5470 H     1 <1>   0.0800 
 36 H       -4.8620     1.8990     1.4140 H     1 <1>   0.0800 
 37 H       -5.1380     3.1170     2.6170 H     1 <1>   0.0800 
 38 H       -2.0810     4.6780     2.3750 H     1 <1>   0.0800 
 39 H       -3.7250     4.9770     2.8530 H     1 <1>   0.0800 
 40 H        3.1360     4.9310    -2.3930 H     1 <1>   0.1500 
 41 H        3.3500     2.2880    -3.1030 H     1 <1>   0.1500 
 42 H        0.8050     0.2570    -1.4480 H     1 <1>   0.0800 
 43 H        2.2310     0.2120    -0.4330 H     1 <1>   0.0800 
 44 H        2.3920     0.0730    -2.1760 H     1 <1>   0.0800 
 45 H       -2.2700     6.2540     0.5880 H     1 <1>   0.0800 
 46 H       -3.4940     6.9360     1.6580 H     1 <1>   0.0800 
 47 H       -4.8300     7.4490    -0.8610 H     1 <1>   0.1500 
 48 H       -8.1820     5.5960    -2.5350 H     1 <1>   0.0800 
 49 H       -8.8400     4.1200    -3.1900 H     1 <1>   0.0800 
 50 H       -7.5380     4.9470    -4.0290 H     1 <1>   0.0800 
 51 H       -6.0220     1.9830    -2.3580 H     1 <1>   0.0800 
 52 H       -7.3460     2.1860    -3.4760 H     1 <1>   0.0800 
 53 H       -7.6690     2.0020    -1.7600 H     1 <1>   0.0800 
@<TRIPOS>BOND
  1   1   2  2   
  2   2   3  am  
  3   2   4  1   
  4   3   5  1   
  5   3   6  1   
  6   4   7  2   
  7   4   8  1   
  8   5   9  1   
  9   5  29  1   
 10   5  30  1   
 11   6  10  1   
 12   6  31  1   
 13   6  32  1   
 14   7  11  1   
 15   7  12  1   
 16   8  13  2   
 17   8  33  1   
 18   9  14  1   
 19   9  15  1   
 20   9  16  1   
 21  10  15  1   
 22  10  34  1   
 23  10  35  1   
 24  11  13  1   
 25  11  17  1   
 26  12  18  1   
 27  12  19  1   
 28  14  20  ar  
 29  14  21  ar  
 30  15  36  1   
 31  15  37  1   
 32  16  22  1   
 33  16  38  1   
 34  16  39  1   
 35  17  18  2   
 36  17  40  1   
 37  18  41  1   
 38  19  42  1   
 39  19  43  1   
 40  19  44  1   
 41  20  23  ar  
 42  21  22  1   
 43  21  24  ar  
 44  22  45  1   
 45  22  46  1   
 46  23  25  ar  
 47  23  26  1   
 48  24  25  ar  
 49  24  47  1   
 50  26  27  1   
 51  26  28  1   
 52  27  48  1   
 53  27  49  1   
 54  27  50  1   
 55  28  51  1   
 56  28  52  1   
 57  28  53  1   
@<TRIPOS>SUBSTRUCTURE
  1 ****   5 GROUP 4 **** **** 0

# MOE 2024.06 (io_trps.svl 2023.06)
