@<TRIPOS>MOLECULE
NONAME
38 39 1 0 0 
SMALL
USER_CHARGES


@<TRIPOS>ATOM
  1 S       -0.1650    -0.1340     0.1990 S.3   1 <1>  -0.2860 
  2 C       -0.1940     1.5260    -0.4560 C.2   1 <1>   0.5340 
  3 C       -1.3110    -1.0410    -0.9430 C.3   1 <1>   0.1310 
  4 O        0.5340     2.4330     0.1010 O.3   1 <1>  -0.2800 
  5 N       -0.8830     1.9400    -1.4480 N.2   1 <1>  -0.3380 
  6 C       -1.5480    -2.4590    -0.4450 C.2   1 <1>   0.5690 
  7 C        0.2640     3.4780    -0.6140 C.2   1 <1>   0.2980 
  8 N       -0.5770     3.2370    -1.5510 N.2   1 <1>  -0.3380 
  9 O       -0.8900    -3.3380    -0.9550 O.2   1 <1>  -0.5700 
 10 N       -2.4840    -2.7330     0.5240 N.am  1 <1>  -0.6600 
 11 C        0.9270     4.7970    -0.2920 C.3   1 <1>  -0.0600 
 12 C       -2.7230    -4.1510     0.9450 C.3   1 <1>   0.1400 
 13 C       -3.2260    -1.6960     1.2920 C.3   1 <1>   0.1400 
 14 C       -3.4400    -4.9890    -0.1310 C.3   1 <1>   0.2000 
 15 C       -4.5910    -1.4440     0.6590 C.3   1 <1>  -0.2400 
 16 O       -4.7720    -4.6090    -0.2660 O.3   1 <1>  -0.5600 
 17 C       -3.5200    -6.4730     0.2030 C.3   1 <1>  -0.1600 
 18 C       -5.4910    -5.6260    -0.8840 C.3   1 <1>   0.1200 
 19 C       -4.7720    -6.9260    -0.5320 C.3   1 <1>  -0.1600 
 20 H       -0.8430    -1.0590    -1.9100 H     1 <1>   0.0800 
 21 H       -2.2300    -0.4880    -0.9970 H     1 <1>   0.0800 
 22 H        0.6740     5.0940     0.7090 H     1 <1>   0.0800 
 23 H        0.5920     5.5530    -0.9790 H     1 <1>   0.0800 
 24 H        1.9930     4.6950    -0.3730 H     1 <1>   0.0800 
 25 H       -3.2940    -4.1850     1.8550 H     1 <1>   0.0800 
 26 H       -1.7660    -4.6040     1.1430 H     1 <1>   0.0800 
 27 H       -2.6670    -0.7780     1.3150 H     1 <1>   0.0800 
 28 H       -3.3500    -2.0180     2.3120 H     1 <1>   0.0800 
 29 H       -2.9620    -4.8600    -1.0870 H     1 <1>   0.0800 
 30 H       -4.4890    -1.1980    -0.3820 H     1 <1>   0.0800 
 31 H       -5.0790    -0.6290     1.1600 H     1 <1>   0.0800 
 32 H       -5.2120    -2.3160     0.7560 H     1 <1>   0.0800 
 33 H       -3.6460    -6.6030     1.2640 H     1 <1>   0.0800 
 34 H       -2.6370    -6.9970    -0.1180 H     1 <1>   0.0800 
 35 H       -5.4770    -5.4460    -1.9460 H     1 <1>   0.0800 
 36 H       -6.5020    -5.6030    -0.5170 H     1 <1>   0.0800 
 37 H       -5.3880    -7.5520     0.0890 H     1 <1>   0.0800 
 38 H       -4.5240    -7.4590    -1.4330 H     1 <1>   0.0800 
@<TRIPOS>BOND
  1   1   2  1   
  2   1   3  1   
  3   2   4  1   
  4   2   5  2   
  5   3   6  1   
  6   3  20  1   
  7   3  21  1   
  8   4   7  1   
  9   5   8  1   
 10   6   9  2   
 11   6  10  am  
 12   7   8  2   
 13   7  11  1   
 14  10  12  1   
 15  10  13  1   
 16  11  22  1   
 17  11  23  1   
 18  11  24  1   
 19  12  14  1   
 20  12  25  1   
 21  12  26  1   
 22  13  15  1   
 23  13  27  1   
 24  13  28  1   
 25  14  16  1   
 26  14  17  1   
 27  14  29  1   
 28  15  30  1   
 29  15  31  1   
 30  15  32  1   
 31  16  18  1   
 32  17  19  1   
 33  17  33  1   
 34  17  34  1   
 35  18  19  1   
 36  18  35  1   
 37  18  36  1   
 38  19  37  1   
 39  19  38  1   
@<TRIPOS>SUBSTRUCTURE
  1 ****   3 GROUP 4 **** **** 0

# MOE 2024.06 (io_trps.svl 2023.06)
