@<TRIPOS>MOLECULE
NONAME
61 64 1 0 0 
SMALL
USER_CHARGES


@<TRIPOS>ATOM
  1 S       -0.4840    -0.7010     0.6190 S.o2  1 <1>   1.3330 
  2 O        0.1660    -0.4690     1.8870 O.2   1 <1>  -0.6500 
  3 O       -1.5080    -1.7070     0.4880 O.2   1 <1>  -0.6500 
  4 N        0.6930    -1.2110    -0.4580 N.am  1 <1>  -0.9140 
  5 C       -1.0320     0.8430    -0.0750 C.3   1 <1>  -0.1350 
  6 C        1.7930    -1.9650     0.1340 C.3   1 <1>   0.1960 
  7 C        1.3430    -3.3130     0.7320 C.3   1 <1>  -0.0800 
  8 C        0.9110    -4.3040    -0.3600 C.3   1 <1>   0.2000 
  9 C        2.4550    -4.1310     1.4330 C.3   1 <1>  -0.0800 
 10 O        2.1200    -4.9080    -0.6370 O.3   1 <1>  -0.5600 
 11 C        0.1190    -5.4770     0.2340 C.3   1 <1>  -0.1600 
 12 C        2.4380    -5.4110     0.6110 C.3   1 <1>   0.2800 
 13 C        3.9190    -3.6560     1.3600 C.3   1 <1>   0.3430 
 14 C        1.2250    -6.2900     0.9150 C.3   1 <1>  -0.1600 
 15 C        3.8600    -5.9550     0.6640 C.3   1 <1>   0.3430 
 16 N        4.7260    -4.7380     0.7100 N.4   1 <1>  -0.9590 
 17 C        5.1740    -4.3720    -0.6550 C.3   1 <1>   0.4810 
 18 C        6.6040    -3.8700    -0.5260 C.2   1 <1>  -0.2760 
 19 C        7.6210    -4.6530    -0.1090 C.2   1 <1>  -0.2760 
 20 C        6.8010    -2.4060    -0.9770 C.3   1 <1>   0.1380 
 21 C        9.0650    -4.1660    -0.0030 C.3   1 <1>  -0.0220 
 22 C        7.5340    -6.1250     0.2910 C.3   1 <1>  -0.1020 
 23 C        8.1910    -1.8820    -0.5530 C.3   1 <1>  -0.1600 
 24 C        6.6710    -2.3540    -2.5070 C.3   1 <1>  -0.2400 
 25 C        5.7700    -1.4400    -0.3730 C.3   1 <1>  -0.2400 
 26 C        9.3110    -2.8910    -0.8070 C.3   1 <1>  -0.1600 
 27 H        0.1880    -1.8130    -1.1060 H     1 <1>   0.4200 
 28 H       -0.2180     1.5400    -0.1100 H     1 <1>   0.0800 
 29 H       -1.8150     1.2590     0.5280 H     1 <1>   0.0800 
 30 H       -1.4040     0.6930    -1.0690 H     1 <1>   0.0800 
 31 H        2.5210    -2.1460    -0.6380 H     1 <1>   0.0800 
 32 H        2.2590    -1.3600     0.8950 H     1 <1>   0.0800 
 33 H        0.5400    -3.1520     1.4290 H     1 <1>   0.0800 
 34 H        0.4710    -3.8710    -1.2420 H     1 <1>   0.0800 
 35 H        2.2000    -4.3280     2.4600 H     1 <1>   0.0800 
 36 H       -0.6400    -5.1410     0.9200 H     1 <1>   0.0800 
 37 H       -0.3470    -6.0430    -0.5540 H     1 <1>   0.0800 
 38 H        4.2860    -3.4740     2.3580 H     1 <1>   0.0800 
 39 H        4.0000    -2.7430     0.8010 H     1 <1>   0.0800 
 40 H        1.3300    -7.2560     0.4520 H     1 <1>   0.0800 
 41 H        1.0590    -6.4100     1.9710 H     1 <1>   0.0800 
 42 H        4.0700    -6.5820    -0.1850 H     1 <1>   0.0800 
 43 H        3.9840    -6.5230     1.5710 H     1 <1>   0.0800 
 44 H        5.6090    -4.9010     1.2160 H     1 <1>   0.4500 
 45 H        5.1750    -5.2420    -1.2900 H     1 <1>   0.0800 
 46 H        4.5200    -3.6380    -1.0950 H     1 <1>   0.0800 
 47 H        9.2990    -3.9890     1.0330 H     1 <1>   0.0800 
 48 H        9.7450    -4.9180    -0.3670 H     1 <1>   0.0800 
 49 H        8.2480    -6.6990    -0.2750 H     1 <1>   0.0800 
 50 H        6.5730    -6.5580     0.0990 H     1 <1>   0.0800 
 51 H        7.7680    -6.2410     1.3350 H     1 <1>   0.0800 
 52 H        8.4150    -0.9650    -1.0710 H     1 <1>   0.0800 
 53 H        8.1830    -1.6590     0.5000 H     1 <1>   0.0800 
 54 H        6.8920    -1.3670    -2.8730 H     1 <1>   0.0800 
 55 H        5.6770    -2.6100    -2.8240 H     1 <1>   0.0800 
 56 H        7.3540    -3.0440    -2.9690 H     1 <1>   0.0800 
 57 H        6.0230    -0.4260    -0.6330 H     1 <1>   0.0800 
 58 H        5.7710    -1.5120     0.6990 H     1 <1>   0.0800 
 59 H        4.7840    -1.6220    -0.7520 H     1 <1>   0.0800 
 60 H        9.3620    -3.1300    -1.8540 H     1 <1>   0.0800 
 61 H       10.2590    -2.4660    -0.5230 H     1 <1>   0.0800 
@<TRIPOS>BOND
  1   1   2  2   
  2   1   3  2   
  3   1   4  am  
  4   1   5  1   
  5   4   6  1   
  6   4  27  1   
  7   5  28  1   
  8   5  29  1   
  9   5  30  1   
 10   6   7  1   
 11   6  31  1   
 12   6  32  1   
 13   7   8  1   
 14   7   9  1   
 15   7  33  1   
 16   8  10  1   
 17   8  11  1   
 18   8  34  1   
 19   9  12  1   
 20   9  13  1   
 21   9  35  1   
 22  10  12  1   
 23  11  14  1   
 24  11  36  1   
 25  11  37  1   
 26  12  14  1   
 27  12  15  1   
 28  13  16  1   
 29  13  38  1   
 30  13  39  1   
 31  14  40  1   
 32  14  41  1   
 33  15  16  1   
 34  15  42  1   
 35  15  43  1   
 36  16  17  1   
 37  16  44  1   
 38  17  18  1   
 39  17  45  1   
 40  17  46  1   
 41  18  19  2   
 42  18  20  1   
 43  19  21  1   
 44  19  22  1   
 45  20  23  1   
 46  20  24  1   
 47  20  25  1   
 48  21  26  1   
 49  21  47  1   
 50  21  48  1   
 51  22  49  1   
 52  22  50  1   
 53  22  51  1   
 54  23  26  1   
 55  23  52  1   
 56  23  53  1   
 57  24  54  1   
 58  24  55  1   
 59  24  56  1   
 60  25  57  1   
 61  25  58  1   
 62  25  59  1   
 63  26  60  1   
 64  26  61  1   
@<TRIPOS>SUBSTRUCTURE
  1 ****  13 GROUP 4 **** **** 0

# MOE 2024.06 (io_trps.svl 2023.06)
