@<TRIPOS>MOLECULE
NONAME
51 54 1 0 0 
SMALL
USER_CHARGES


@<TRIPOS>ATOM
  1 O       -3.2030     0.9750    -2.2100 O.2   1 <1>  -0.5700 
  2 C       -2.4790     0.7480    -1.2550 C.2   1 <1>   0.7160 
  3 N       -2.3210    -0.5610    -0.8870 N.am  1 <1>  -0.7300 
  4 C       -1.8050     1.7980    -0.5020 C.2   1 <1>   0.2030 
  5 C       -2.9770    -1.7210    -1.5310 C.3   1 <1>   0.2200 
  6 N       -2.2520     3.0190    -0.2700 N.2   1 <1>  -0.7070 
  7 C       -0.5550     1.6290     0.1100 C.2   1 <1>  -0.1500 
  8 C       -4.2090    -2.1650    -0.7510 C.3   1 <1>  -0.0800 
  9 C       -2.0850    -2.9420    -1.3600 C.3   1 <1>   0.1200 
 10 N       -1.3110     3.6270     0.4650 N.pl3 1 <1>   0.3140 
 11 C       -0.2760     2.8000     0.7100 C.2   1 <1>  -0.3020 
 12 C       -3.6270    -3.0910     0.3240 C.3   1 <1>   0.1200 
 13 C       -5.1050    -1.0400    -0.1940 C.3   1 <1>  -0.0160 
 14 O       -2.3060    -3.3630    -0.0490 O.3   1 <1>  -0.5600 
 15 C       -1.4580     5.0420     0.9080 C.3   1 <1>   0.1760 
 16 C       -6.3590    -1.6160     0.4570 C.ar  1 <1>  -0.1430 
 17 C       -0.3590     5.9200     0.2940 C.3   1 <1>  -0.2400 
 18 C       -1.4490     5.1400     2.4400 C.3   1 <1>  -0.2400 
 19 C       -7.4620    -2.0770    -0.3000 C.ar  1 <1>   0.0000 
 20 C       -6.4430    -1.7080     1.8160 C.ar  1 <1>  -0.1500 
 21 C       -8.5600    -2.6250     0.4070 C.ar  1 <1>   0.3100 
 22 C       -7.5420    -2.0230    -1.7110 C.ar  1 <1>  -0.1500 
 23 C       -7.5820    -2.2580     2.4160 C.ar  1 <1>   0.1600 
 24 N       -8.6040    -2.7090     1.7610 N.ar  1 <1>  -0.6200 
 25 C       -9.6610    -3.1070    -0.3180 C.ar  1 <1>  -0.1500 
 26 C       -8.6330    -2.4990    -2.3870 C.ar  1 <1>  -0.1500 
 27 C       -9.7060    -3.0510    -1.6840 C.ar  1 <1>  -0.1500 
 28 H       -1.8380    -0.7840    -0.0150 H     1 <1>   0.3700 
 29 H       -3.1910    -1.5130    -2.5670 H     1 <1>   0.0800 
 30 H        0.0430     0.7360     0.0840 H     1 <1>   0.1500 
 31 H       -4.8020    -2.7780    -1.4060 H     1 <1>   0.0800 
 32 H       -1.0420    -2.7230    -1.5030 H     1 <1>   0.0800 
 33 H       -2.3890    -3.7360    -2.0200 H     1 <1>   0.0800 
 34 H        0.5840     3.0930     1.2840 H     1 <1>   0.1500 
 35 H       -4.1710    -4.0180     0.3860 H     1 <1>   0.0800 
 36 H       -3.6010    -2.6190     1.2900 H     1 <1>   0.0800 
 37 H       -5.3800    -0.3590    -0.9800 H     1 <1>   0.0800 
 38 H       -4.5610    -0.4660     0.5350 H     1 <1>   0.0800 
 39 H       -2.4120     5.3870     0.5480 H     1 <1>   0.0800 
 40 H        0.6130     5.6170     0.6410 H     1 <1>   0.0800 
 41 H       -0.5150     6.9480     0.5660 H     1 <1>   0.0800 
 42 H       -0.3900     5.8460    -0.7790 H     1 <1>   0.0800 
 43 H       -0.5040     4.8200     2.8390 H     1 <1>   0.0800 
 44 H       -2.2330     4.5280     2.8500 H     1 <1>   0.0800 
 45 H       -1.6220     6.1570     2.7430 H     1 <1>   0.0800 
 46 H       -5.6490    -1.3690     2.4550 H     1 <1>   0.1500 
 47 H       -6.7320    -1.5950    -2.2710 H     1 <1>   0.1500 
 48 H       -7.6070    -2.3120     3.4910 H     1 <1>   0.1500 
 49 H      -10.4770    -3.5240     0.2440 H     1 <1>   0.1500 
 50 H       -8.6800    -2.4530    -3.4620 H     1 <1>   0.1500 
 51 H      -10.5570    -3.4240    -2.2270 H     1 <1>   0.1500 
@<TRIPOS>BOND
  1   1   2  2   
  2   2   3  am  
  3   2   4  1   
  4   3   5  1   
  5   3  28  1   
  6   4   6  2   
  7   4   7  1   
  8   5   8  1   
  9   5   9  1   
 10   5  29  1   
 11   6  10  1   
 12   7  11  2   
 13   7  30  1   
 14   8  12  1   
 15   8  13  1   
 16   8  31  1   
 17   9  14  1   
 18   9  32  1   
 19   9  33  1   
 20  10  11  1   
 21  10  15  1   
 22  11  34  1   
 23  12  14  1   
 24  12  35  1   
 25  12  36  1   
 26  13  16  1   
 27  13  37  1   
 28  13  38  1   
 29  15  17  1   
 30  15  18  1   
 31  15  39  1   
 32  16  19  ar  
 33  16  20  ar  
 34  17  40  1   
 35  17  41  1   
 36  17  42  1   
 37  18  43  1   
 38  18  44  1   
 39  18  45  1   
 40  19  21  ar  
 41  19  22  ar  
 42  20  23  ar  
 43  20  46  1   
 44  21  24  ar  
 45  21  25  ar  
 46  22  26  ar  
 47  22  47  1   
 48  23  24  ar  
 49  23  48  1   
 50  25  27  ar  
 51  25  49  1   
 52  26  27  ar  
 53  26  50  1   
 54  27  51  1   
@<TRIPOS>SUBSTRUCTURE
  1 ****  13 GROUP 4 **** **** 0

# MOE 2024.06 (io_trps.svl 2023.06)
