@<TRIPOS>MOLECULE
NONAME
45 48 1 0 0 
SMALL
USER_CHARGES


@<TRIPOS>ATOM
  1 S       -0.2660    -0.9300     1.2890 S.o2  1 <1>   1.5000 
  2 O        0.8060    -1.8900     1.4460 O.2   1 <1>  -0.6500 
  3 O       -1.2210    -0.7700     2.3640 O.2   1 <1>  -0.6500 
  4 N       -1.1230    -1.3910    -0.1030 N.am  1 <1>  -0.8490 
  5 C        0.4460     0.6640     0.8090 C.2   1 <1>  -0.0220 
  6 C       -2.3130    -0.5800    -0.3690 C.3   1 <1>   0.1960 
  7 C       -1.5990    -2.7710    -0.0490 C.3   1 <1>   0.1960 
  8 S       -0.2170     2.1290     1.5320 S.3   1 <1>  -0.0800 
  9 C        1.4240     1.0010    -0.0580 C.2   1 <1>  -0.1500 
 10 C       -3.4780    -1.2820     0.3280 C.3   1 <1>  -0.0800 
 11 C       -3.0120    -2.7320     0.5420 C.3   1 <1>  -0.0800 
 12 C        0.8770     3.1520     0.6210 C.2   1 <1>  -0.1100 
 13 C        1.6720     2.4070    -0.1660 C.2   1 <1>  -0.1500 
 14 C       -4.8450    -1.0970    -0.3640 C.3   1 <1>   0.4240 
 15 C       -3.9440    -3.8060    -0.0500 C.3   1 <1>  -0.1600 
 16 O       -4.7340    -1.4760    -1.6890 O.3   1 <1>  -0.6800 
 17 C       -5.3120     0.3730    -0.2850 C.ar  1 <1>  -0.1430 
 18 C       -5.8610    -2.0650     0.2650 C.3   1 <1>  -0.1600 
 19 C       -5.4290    -3.5530     0.2790 C.3   1 <1>  -0.1600 
 20 C       -5.5510     0.9590     0.9550 C.ar  1 <1>  -0.1500 
 21 C       -5.4990     1.1590    -1.4210 C.ar  1 <1>  -0.1500 
 22 C       -5.9590     2.2780     1.0590 C.ar  1 <1>  -0.1500 
 23 C       -5.9090     2.4770    -1.3200 C.ar  1 <1>  -0.1500 
 24 C       -6.1390     3.0390    -0.0800 C.ar  1 <1>  -0.1500 
 25 H       -2.2040     0.4360    -0.0270 H     1 <1>   0.0800 
 26 H       -2.4710    -0.5570    -1.4340 H     1 <1>   0.0800 
 27 H       -1.6360    -3.1460    -1.0580 H     1 <1>   0.0800 
 28 H       -0.9430    -3.4070     0.5220 H     1 <1>   0.0800 
 29 H        1.9910     0.2950    -0.6410 H     1 <1>   0.1500 
 30 H       -3.5620    -0.8460     1.3060 H     1 <1>   0.0800 
 31 H       -2.9350    -2.9050     1.6030 H     1 <1>   0.0800 
 32 H        0.8070     4.2150     0.7730 H     1 <1>   0.1500 
 33 H        2.4330     2.7850    -0.8270 H     1 <1>   0.1500 
 34 H       -3.8220    -3.8410    -1.1180 H     1 <1>   0.0800 
 35 H       -3.6570    -4.7750     0.3230 H     1 <1>   0.0800 
 36 H       -4.6750    -2.4470    -1.7100 H     1 <1>   0.4000 
 37 H       -6.0180    -1.7650     1.2850 H     1 <1>   0.0800 
 38 H       -6.8090    -1.9570    -0.2330 H     1 <1>   0.0800 
 39 H       -5.6380    -3.9530     1.2580 H     1 <1>   0.0800 
 40 H       -6.0350    -4.1060    -0.4180 H     1 <1>   0.0800 
 41 H       -5.4200     0.3970     1.8620 H     1 <1>   0.1500 
 42 H       -5.3290     0.7540    -2.4030 H     1 <1>   0.1500 
 43 H       -6.1360     2.7110     2.0280 H     1 <1>   0.1500 
 44 H       -6.0480     3.0640    -2.2110 H     1 <1>   0.1500 
 45 H       -6.4570     4.0640    -0.0010 H     1 <1>   0.1500 
@<TRIPOS>BOND
  1   1   2  2   
  2   1   3  2   
  3   1   4  am  
  4   1   5  1   
  5   4   6  1   
  6   4   7  1   
  7   5   8  1   
  8   5   9  2   
  9   6  10  1   
 10   6  25  1   
 11   6  26  1   
 12   7  11  1   
 13   7  27  1   
 14   7  28  1   
 15   8  12  1   
 16   9  13  1   
 17   9  29  1   
 18  10  11  1   
 19  10  14  1   
 20  10  30  1   
 21  11  15  1   
 22  11  31  1   
 23  12  13  2   
 24  12  32  1   
 25  13  33  1   
 26  14  16  1   
 27  14  17  1   
 28  14  18  1   
 29  15  19  1   
 30  15  34  1   
 31  15  35  1   
 32  16  36  1   
 33  17  20  ar  
 34  17  21  ar  
 35  18  19  1   
 36  18  37  1   
 37  18  38  1   
 38  19  39  1   
 39  19  40  1   
 40  20  22  ar  
 41  20  41  1   
 42  21  23  ar  
 43  21  42  1   
 44  22  24  ar  
 45  22  43  1   
 46  23  24  ar  
 47  23  44  1   
 48  24  45  1   
@<TRIPOS>SUBSTRUCTURE
  1 ****   6 GROUP 4 **** **** 0

# MOE 2024.06 (io_trps.svl 2023.06)
