@<TRIPOS>MOLECULE
NONAME
40 41 1 0 0 
SMALL
USER_CHARGES


@<TRIPOS>ATOM
  1 N       -0.2060    -0.2340    -0.0820 N.ar  1 <1>  -0.6200 
  2 C        1.0090     0.2340     0.1740 C.ar  1 <1>   0.7710 
  3 C       -0.3370    -1.5250    -0.2800 C.ar  1 <1>   0.4100 
  4 N        2.0800    -0.5780     0.2470 N.ar  1 <1>  -0.1790 
  5 N        1.1850     1.5720     0.3740 N.pl3 1 <1>  -0.8380 
  6 N       -1.5910    -1.9460    -0.5130 N.pl3 1 <1>  -0.8690 
  7 C        0.7590    -2.4050    -0.2320 C.ar  1 <1>  -0.1500 
  8 C        1.9880    -1.9130     0.0440 C.ar  1 <1>   0.2170 
  9 C        0.0080     2.5000     0.4580 C.3   1 <1>   0.1290 
 10 C        2.4870     2.3070     0.4570 C.3   1 <1>   0.1290 
 11 C       -2.0520    -3.3400    -0.7460 C.3   1 <1>   0.2090 
 12 C        3.2380    -2.7780     0.1380 C.3   1 <1>  -0.0170 
 13 C       -2.1560    -4.1020     0.5820 C.3   1 <1>   0.0200 
 14 C        4.2720    -2.4200    -0.9370 C.3   1 <1>  -0.2400 
 15 C       -1.6060    -5.5090     0.4340 C.2   1 <1>   0.0060 
 16 N       -0.3550    -5.7600     0.2170 N.2   1 <1>  -0.5650 
 17 N       -2.3730    -6.6190     0.5200 N.pl3 1 <1>   0.0330 
 18 C       -0.3010    -7.1050     0.1550 C.2   1 <1>   0.0770 
 19 C       -1.5240    -7.6460     0.3380 C.2   1 <1>  -0.3020 
 20 H        2.9550    -0.1300     0.4770 H     1 <1>   0.4570 
 21 H       -2.3200    -1.2250    -0.5270 H     1 <1>   0.4000 
 22 H        0.6060    -3.4510    -0.4090 H     1 <1>   0.1500 
 23 H       -0.8750     1.9850     0.8000 H     1 <1>   0.0800 
 24 H       -0.1940     2.9220    -0.5110 H     1 <1>   0.0800 
 25 H        0.2090     3.2980     1.1520 H     1 <1>   0.0800 
 26 H        3.2990     1.7340     0.0490 H     1 <1>   0.0800 
 27 H        2.7020     2.5540     1.4840 H     1 <1>   0.0800 
 28 H        2.4220     3.2250    -0.1060 H     1 <1>   0.0800 
 29 H       -1.3550    -3.8340    -1.4040 H     1 <1>   0.0800 
 30 H       -3.0080    -3.3290    -1.2410 H     1 <1>   0.0800 
 31 H        2.9610    -3.8130     0.0190 H     1 <1>   0.0800 
 32 H        3.6770    -2.6770     1.1160 H     1 <1>   0.0800 
 33 H       -3.1810    -4.1290     0.9040 H     1 <1>   0.0800 
 34 H       -1.5800    -3.6050     1.3410 H     1 <1>   0.0800 
 35 H        3.8430    -2.5210    -1.9200 H     1 <1>   0.0800 
 36 H        5.1120    -3.0910    -0.8710 H     1 <1>   0.0800 
 37 H        4.6370    -1.4160    -0.8180 H     1 <1>   0.0800 
 38 H       -3.3810    -6.6720     0.6930 H     1 <1>   0.2700 
 39 H        0.6280    -7.6230    -0.0190 H     1 <1>   0.1500 
 40 H       -1.8260    -8.6770     0.3490 H     1 <1>   0.1500 
@<TRIPOS>BOND
  1   1   2  ar  
  2   1   3  ar  
  3   2   4  ar  
  4   2   5  1   
  5   3   6  1   
  6   3   7  ar  
  7   4   8  ar  
  8   4  20  1   
  9   5   9  1   
 10   5  10  1   
 11   6  11  1   
 12   6  21  1   
 13   7   8  ar  
 14   7  22  1   
 15   8  12  1   
 16   9  23  1   
 17   9  24  1   
 18   9  25  1   
 19  10  26  1   
 20  10  27  1   
 21  10  28  1   
 22  11  13  1   
 23  11  29  1   
 24  11  30  1   
 25  12  14  1   
 26  12  31  1   
 27  12  32  1   
 28  13  15  1   
 29  13  33  1   
 30  13  34  1   
 31  14  35  1   
 32  14  36  1   
 33  14  37  1   
 34  15  16  2   
 35  15  17  1   
 36  16  18  1   
 37  17  19  1   
 38  17  38  1   
 39  18  19  2   
 40  18  39  1   
 41  19  40  1   
@<TRIPOS>SUBSTRUCTURE
  1 ****   7 GROUP 4 **** **** 0

# MOE 2024.06 (io_trps.svl 2023.06)
