@<TRIPOS>MOLECULE
NONAME
49 51 1 0 0 
SMALL
USER_CHARGES


@<TRIPOS>ATOM
  1 CL      -0.1400     0.5300    -1.0970 Cl    1 <1>  -0.1770 
  2 C       -0.0280     2.2120    -0.6550 C.ar  1 <1>   0.1770 
  3 C       -0.0470     3.1930    -1.6310 C.ar  1 <1>   0.1600 
  4 C        0.0780     2.5670     0.6690 C.ar  1 <1>  -0.1500 
  5 N        0.0370     4.4910    -1.3840 N.ar  1 <1>  -0.6200 
  6 C        0.1600     3.9180     0.9330 C.ar  1 <1>  -0.1500 
  7 C        0.1400     4.8700    -0.0930 C.ar  1 <1>   0.3960 
  8 C        0.2230     6.2880     0.2790 C.2   1 <1>   0.5440 
  9 O       -0.3920     6.6550     1.2670 O.2   1 <1>  -0.5700 
 10 N        1.0040     7.2320    -0.3810 N.am  1 <1>  -0.6600 
 11 C        2.0410     6.8800    -1.3990 C.3   1 <1>   0.1400 
 12 C        1.0200     8.6660     0.0370 C.3   1 <1>   0.1400 
 13 C        3.2970     6.3060    -0.7280 C.3   1 <1>   0.1400 
 14 C        2.3920     9.1210     0.5610 C.3   1 <1>  -0.1600 
 15 N        4.0500     7.3380     0.0580 N.am  1 <1>  -0.6600 
 16 C        3.2730     8.0080     1.1480 C.3   1 <1>   0.1400 
 17 C        5.3610     7.6390    -0.2530 C.2   1 <1>   0.5690 
 18 O        5.9420     7.0190    -1.1170 O.2   1 <1>  -0.5700 
 19 C        6.1580     8.7200     0.5060 C.3   1 <1>   0.2610 
 20 O        5.4700     9.9630     0.5470 O.3   1 <1>  -0.2170 
 21 C        7.5280     9.1010    -0.0710 C.3   1 <1>  -0.0990 
 22 N        6.2630    10.9850     0.2940 N.2   1 <1>  -0.5130 
 23 C        7.4050    10.5940    -0.0510 C.2   1 <1>   0.3280 
 24 C        8.6090    11.4540    -0.4470 C.3   1 <1>  -0.0190 
 25 C        9.7080    11.4010     0.6240 C.3   1 <1>  -0.2400 
 26 C        8.2170    12.9180    -0.7070 C.3   1 <1>  -0.2400 
 27 H       -0.1350     2.8850    -2.6580 H     1 <1>   0.1500 
 28 H        0.0920     1.8240     1.4470 H     1 <1>   0.1500 
 29 H        0.2350     4.2570     1.9520 H     1 <1>   0.1500 
 30 H        2.3120     7.7530    -1.9670 H     1 <1>   0.0800 
 31 H        1.6480     6.1680    -2.0990 H     1 <1>   0.0800 
 32 H        0.2870     8.8330     0.8080 H     1 <1>   0.0800 
 33 H        0.7340     9.2780    -0.8000 H     1 <1>   0.0800 
 34 H        3.9230     5.8980    -1.5010 H     1 <1>   0.0800 
 35 H        3.0240     5.4920    -0.0800 H     1 <1>   0.0800 
 36 H        2.2160     9.8540     1.3270 H     1 <1>   0.0800 
 37 H        2.9250     9.6260    -0.2240 H     1 <1>   0.0800 
 38 H        2.6690     7.2860     1.6710 H     1 <1>   0.0800 
 39 H        3.9450     8.4360     1.8690 H     1 <1>   0.0800 
 40 H        6.2790     8.4050     1.5250 H     1 <1>   0.0800 
 41 H        7.6670     8.7590    -1.0800 H     1 <1>   0.0800 
 42 H        8.3210     8.7430     0.5550 H     1 <1>   0.0800 
 43 H        9.0060    11.0560    -1.3650 H     1 <1>   0.0800 
 44 H        9.3290    11.7640     1.5640 H     1 <1>   0.0800 
 45 H       10.5440    12.0130     0.3330 H     1 <1>   0.0800 
 46 H       10.0620    10.3950     0.7600 H     1 <1>   0.0800 
 47 H        7.8260    13.3670     0.1890 H     1 <1>   0.0800 
 48 H        7.4580    12.9660    -1.4680 H     1 <1>   0.0800 
 49 H        9.0680    13.4860    -1.0370 H     1 <1>   0.0800 
@<TRIPOS>BOND
  1   1   2  1   
  2   2   3  ar  
  3   2   4  ar  
  4   3   5  ar  
  5   3  27  1   
  6   4   6  ar  
  7   4  28  1   
  8   5   7  ar  
  9   6   7  ar  
 10   6  29  1   
 11   7   8  1   
 12   8   9  2   
 13   8  10  am  
 14  10  11  1   
 15  10  12  1   
 16  11  13  1   
 17  11  30  1   
 18  11  31  1   
 19  12  14  1   
 20  12  32  1   
 21  12  33  1   
 22  13  15  1   
 23  13  34  1   
 24  13  35  1   
 25  14  16  1   
 26  14  36  1   
 27  14  37  1   
 28  15  16  1   
 29  15  17  am  
 30  16  38  1   
 31  16  39  1   
 32  17  18  2   
 33  17  19  1   
 34  19  20  1   
 35  19  21  1   
 36  19  40  1   
 37  20  22  1   
 38  21  23  1   
 39  21  41  1   
 40  21  42  1   
 41  22  23  2   
 42  23  24  1   
 43  24  25  1   
 44  24  26  1   
 45  24  43  1   
 46  25  44  1   
 47  25  45  1   
 48  25  46  1   
 49  26  47  1   
 50  26  48  1   
 51  26  49  1   
@<TRIPOS>SUBSTRUCTURE
  1 ****  15 GROUP 4 **** **** 0

# MOE 2024.06 (io_trps.svl 2023.06)
