@<TRIPOS>MOLECULE
NONAME
43 45 1 0 0 
SMALL
USER_CHARGES


@<TRIPOS>ATOM
  1 CL      -0.2430    -0.4390     1.2680 Cl    1 <1>  -0.1770 
  2 C       -1.4350     0.7640     0.8510 C.ar  1 <1>   0.1770 
  3 C       -1.2180     2.0800     1.2030 C.ar  1 <1>  -0.1500 
  4 C       -2.5740     0.3780     0.1710 C.ar  1 <1>  -0.1500 
  5 C       -2.1540     3.0550     0.8690 C.ar  1 <1>   0.0860 
  6 C       -3.5200     1.3320    -0.1660 C.ar  1 <1>  -0.1440 
  7 C       -1.9230     4.4430     1.2080 C.2   1 <1>   0.5440 
  8 C       -3.3040     2.6550     0.1880 C.ar  1 <1>  -0.1500 
  9 C       -4.7830     0.9240    -0.9040 C.3   1 <1>  -0.0960 
 10 O       -2.1180     4.8140     2.3490 O.2   1 <1>  -0.5700 
 11 N       -1.4530     5.3580     0.2800 N.am  1 <1>  -0.6600 
 12 C       -1.1540     6.7560     0.7310 C.3   1 <1>   0.1400 
 13 C       -0.9170     4.9250    -1.0500 C.3   1 <1>   0.1400 
 14 C        0.3460     7.0020     1.0470 C.3   1 <1>   0.4230 
 15 C        0.5700     5.2720    -1.2860 C.3   1 <1>  -0.0800 
 16 N        1.1410     7.4640    -0.1510 N.4   1 <1>  -0.9590 
 17 C        1.0710     5.8130     1.7370 C.3   1 <1>   0.1200 
 18 C        1.5770     4.6000    -0.3250 C.3   1 <1>   0.1200 
 19 C        0.7800     6.7810    -1.4290 C.3   1 <1>   0.3430 
 20 C        1.0780     8.9500    -0.3120 C.3   1 <1>   0.2630 
 21 O        1.1500     4.6150     1.0010 O.3   1 <1>  -0.5600 
 22 H       -0.3250     2.3560     1.7340 H     1 <1>   0.1500 
 23 H       -2.7120    -0.6570    -0.0850 H     1 <1>   0.1500 
 24 H       -4.0380     3.4030    -0.0600 H     1 <1>   0.1500 
 25 H       -5.2100     1.7640    -1.4220 H     1 <1>   0.0800 
 26 H       -5.5070     0.5450    -0.2050 H     1 <1>   0.0800 
 27 H       -4.5630     0.1570    -1.6260 H     1 <1>   0.0800 
 28 H       -1.5030     7.4540    -0.0080 H     1 <1>   0.0800 
 29 H       -1.7130     6.9690     1.6250 H     1 <1>   0.0800 
 30 H       -1.0280     3.8610    -1.1660 H     1 <1>   0.0800 
 31 H       -1.5190     5.3810    -1.8180 H     1 <1>   0.0800 
 32 H        0.3650     7.8050     1.7640 H     1 <1>   0.0800 
 33 H        0.7940     4.8750    -2.2600 H     1 <1>   0.0800 
 34 H        2.1140     7.2030     0.0580 H     1 <1>   0.4500 
 35 H        0.5440     5.5720     2.6440 H     1 <1>   0.0800 
 36 H        2.0710     6.0960     2.0110 H     1 <1>   0.0800 
 37 H        2.5560     5.0420    -0.3830 H     1 <1>   0.0800 
 38 H        1.6700     3.5600    -0.5920 H     1 <1>   0.0800 
 39 H       -0.1200     7.2160    -1.8330 H     1 <1>   0.0800 
 40 H        1.5700     6.9520    -2.1440 H     1 <1>   0.0800 
 41 H        0.0680     9.2630    -0.5230 H     1 <1>   0.0800 
 42 H        1.7130     9.2660    -1.1240 H     1 <1>   0.0800 
 43 H        1.4090     9.4400     0.5900 H     1 <1>   0.0800 
@<TRIPOS>BOND
  1   1   2  1   
  2   2   3  ar  
  3   2   4  ar  
  4   3   5  ar  
  5   3  22  1   
  6   4   6  ar  
  7   4  23  1   
  8   5   7  1   
  9   5   8  ar  
 10   6   8  ar  
 11   6   9  1   
 12   7  10  2   
 13   7  11  am  
 14   8  24  1   
 15   9  25  1   
 16   9  26  1   
 17   9  27  1   
 18  11  12  1   
 19  11  13  1   
 20  12  14  1   
 21  12  28  1   
 22  12  29  1   
 23  13  15  1   
 24  13  30  1   
 25  13  31  1   
 26  14  16  1   
 27  14  17  1   
 28  14  32  1   
 29  15  18  1   
 30  15  19  1   
 31  15  33  1   
 32  16  19  1   
 33  16  20  1   
 34  16  34  1   
 35  17  21  1   
 36  17  35  1   
 37  17  36  1   
 38  18  21  1   
 39  18  37  1   
 40  18  38  1   
 41  19  39  1   
 42  19  40  1   
 43  20  41  1   
 44  20  42  1   
 45  20  43  1   
@<TRIPOS>SUBSTRUCTURE
  1 ****  11 GROUP 4 **** **** 0

# MOE 2024.06 (io_trps.svl 2023.06)
