@<TRIPOS>MOLECULE
NONAME
47 49 1 0 0 
SMALL
USER_CHARGES


@<TRIPOS>ATOM
  1 O       -1.7950    -2.9790     2.5060 O.3   1 <1>  -0.5600 
  2 C       -2.4210    -4.2050     2.2440 C.3   1 <1>   0.1200 
  3 C       -1.9270    -2.0370     1.4740 C.3   1 <1>   0.1200 
  4 C       -1.7930    -4.8890     1.0100 C.3   1 <1>   0.3430 
  5 C       -1.5020    -2.6210     0.1060 C.3   1 <1>   0.3430 
  6 N       -0.8700    -3.9720     0.2560 N.4   1 <1>  -0.9590 
  7 C       -0.4190    -4.5420    -1.0630 C.3   1 <1>   0.3430 
  8 C        0.5370    -5.7590    -0.9680 C.3   1 <1>   0.2090 
  9 N       -0.0500    -6.9850    -0.3190 N.pl3 1 <1>  -0.8380 
 10 C       -1.3090    -7.4340    -0.7120 C.ar  1 <1>   0.4100 
 11 C        0.9620    -8.0290     0.0280 C.3   1 <1>   0.2090 
 12 N       -1.6670    -7.1800    -1.9550 N.ar  1 <1>  -0.3100 
 13 C       -2.1740    -8.0840     0.2100 C.ar  1 <1>   0.0000 
 14 C        1.6270    -8.5830    -1.2310 C.3   1 <1>  -0.2400 
 15 N       -2.8450    -7.5730    -2.4130 N.ar  1 <1>  -0.3100 
 16 C       -3.4120    -8.5170    -0.2890 C.ar  1 <1>   0.0000 
 17 C       -1.8950    -8.2890     1.5810 C.ar  1 <1>  -0.1500 
 18 C       -3.6710    -8.2230    -1.6420 C.ar  1 <1>   0.1670 
 19 C       -4.3030    -9.1830     0.5840 C.ar  1 <1>  -0.1500 
 20 C       -2.7790    -8.9240     2.4090 C.ar  1 <1>  -0.1500 
 21 C       -4.9800    -8.6580    -2.2810 C.3   1 <1>  -0.0970 
 22 C       -3.9970    -9.3820     1.9010 C.ar  1 <1>  -0.1500 
 23 H       -3.4720    -4.0310     2.0900 H     1 <1>   0.0800 
 24 H       -2.3070    -4.8310     3.1120 H     1 <1>   0.0800 
 25 H       -1.3080    -1.1940     1.7250 H     1 <1>   0.0800 
 26 H       -2.9510    -1.7040     1.4420 H     1 <1>   0.0800 
 27 H       -2.5800    -5.2430     0.3640 H     1 <1>   0.0800 
 28 H       -1.2430    -5.7510     1.3450 H     1 <1>   0.0800 
 29 H       -0.8180    -1.9380    -0.3710 H     1 <1>   0.0800 
 30 H       -2.3740    -2.6980    -0.5240 H     1 <1>   0.0800 
 31 H       -0.0620    -3.8440     0.8810 H     1 <1>   0.4500 
 32 H        0.0980    -3.7720    -1.6110 H     1 <1>   0.0800 
 33 H       -1.2780    -4.8220    -1.6490 H     1 <1>   0.0800 
 34 H        1.4250    -5.4630    -0.4360 H     1 <1>   0.0800 
 35 H        0.8340    -6.0160    -1.9700 H     1 <1>   0.0800 
 36 H        0.4870    -8.8480     0.5410 H     1 <1>   0.0800 
 37 H        1.7050    -7.6140     0.6880 H     1 <1>   0.0800 
 38 H        0.8830    -8.9430    -1.9190 H     1 <1>   0.0800 
 39 H        2.2640    -9.4060    -0.9640 H     1 <1>   0.0800 
 40 H        2.2340    -7.8390    -1.7120 H     1 <1>   0.0800 
 41 H       -0.9630    -7.9390     1.9850 H     1 <1>   0.1500 
 42 H       -5.2440    -9.5410     0.2080 H     1 <1>   0.1500 
 43 H       -2.5540    -9.0830     3.4500 H     1 <1>   0.1500 
 44 H       -5.0120    -8.3670    -3.3160 H     1 <1>   0.0800 
 45 H       -5.8090    -8.2010    -1.7740 H     1 <1>   0.0800 
 46 H       -5.0750    -9.7280    -2.2300 H     1 <1>   0.0800 
 47 H       -4.6820    -9.8900     2.5600 H     1 <1>   0.1500 
@<TRIPOS>BOND
  1   1   2  1   
  2   1   3  1   
  3   2   4  1   
  4   2  23  1   
  5   2  24  1   
  6   3   5  1   
  7   3  25  1   
  8   3  26  1   
  9   4   6  1   
 10   4  27  1   
 11   4  28  1   
 12   5   6  1   
 13   5  29  1   
 14   5  30  1   
 15   6   7  1   
 16   6  31  1   
 17   7   8  1   
 18   7  32  1   
 19   7  33  1   
 20   8   9  1   
 21   8  34  1   
 22   8  35  1   
 23   9  10  1   
 24   9  11  1   
 25  10  12  ar  
 26  10  13  ar  
 27  11  14  1   
 28  11  36  1   
 29  11  37  1   
 30  12  15  ar  
 31  13  16  ar  
 32  13  17  ar  
 33  14  38  1   
 34  14  39  1   
 35  14  40  1   
 36  15  18  ar  
 37  16  18  ar  
 38  16  19  ar  
 39  17  20  ar  
 40  17  41  1   
 41  18  21  1   
 42  19  22  ar  
 43  19  42  1   
 44  20  22  ar  
 45  20  43  1   
 46  21  44  1   
 47  21  45  1   
 48  21  46  1   
 49  22  47  1   
@<TRIPOS>SUBSTRUCTURE
  1 ****  10 GROUP 4 **** **** 0

# MOE 2024.06 (io_trps.svl 2023.06)
