@<TRIPOS>MOLECULE
NONAME
61 64 1 0 0 
SMALL
USER_CHARGES


@<TRIPOS>ATOM
  1 O       -0.6440    -0.5270    -1.3870 O.2   1 <1>  -0.5700 
  2 C       -0.8910    -1.5720    -0.8300 C.2   1 <1>   0.5690 
  3 N        0.0200    -2.1680     0.0100 N.am  1 <1>  -0.6600 
  4 C       -2.2450    -2.2080    -1.1340 C.3   1 <1>   0.1810 
  5 C        1.3160    -1.5080     0.3500 C.3   1 <1>   0.1400 
  6 C       -0.1810    -3.4630     0.7290 C.3   1 <1>   0.1400 
  7 O       -2.9940    -2.4360     0.0520 O.3   1 <1>  -0.3620 
  8 C        2.4800    -2.5080     0.2570 C.3   1 <1>   0.1200 
  9 C        1.0720    -4.3490     0.6220 C.3   1 <1>   0.1200 
 10 C       -4.2460    -2.9470     0.0130 C.ar  1 <1>   0.0820 
 11 O        2.2150    -3.6490     1.0240 O.3   1 <1>  -0.5600 
 12 C       -4.9110    -3.2880    -1.1610 C.ar  1 <1>  -0.1500 
 13 C       -4.8790    -3.1270     1.2300 C.ar  1 <1>  -0.1500 
 14 C       -6.1980    -3.7940    -1.1050 C.ar  1 <1>  -0.1500 
 15 C       -6.1640    -3.6340     1.2870 C.ar  1 <1>  -0.1500 
 16 C       -6.8350    -3.9620     0.1170 C.ar  1 <1>  -0.1430 
 17 C       -8.2560    -4.4850     0.1760 C.3   1 <1>   0.4860 
 18 N       -9.1610    -3.3490     0.4920 N.4   1 <1>  -0.9590 
 19 C      -10.5380    -3.8430     0.8540 C.3   1 <1>   0.3430 
 20 C       -9.1250    -2.3090    -0.5860 C.3   1 <1>   0.3430 
 21 C      -11.5630    -3.7110    -0.2930 C.3   1 <1>   0.0000 
 22 C      -10.3710    -1.4260    -0.5230 C.3   1 <1>  -0.1600 
 23 C      -12.9420    -4.2380     0.1490 C.3   1 <1>   0.2000 
 24 C      -11.6720    -2.2260    -0.7360 C.3   1 <1>  -0.1600 
 25 C      -11.2300    -4.6220    -1.4970 C.3   1 <1>  -0.1600 
 26 O      -12.7630    -5.3860     0.9060 O.3   1 <1>  -0.6800 
 27 C      -13.6610    -4.6220    -1.1410 C.3   1 <1>  -0.1600 
 28 C      -12.5670    -4.9920    -2.1500 C.3   1 <1>  -0.1600 
 29 H       -2.0980    -3.1470    -1.6330 H     1 <1>   0.0800 
 30 H       -2.8090    -1.5440    -1.7630 H     1 <1>   0.0800 
 31 H        1.5070    -0.6820    -0.3140 H     1 <1>   0.0800 
 32 H        1.2620    -1.1190     1.3510 H     1 <1>   0.0800 
 33 H       -0.3820    -3.2610     1.7670 H     1 <1>   0.0800 
 34 H       -1.0200    -4.0020     0.3290 H     1 <1>   0.0800 
 35 H        3.3830    -2.0610     0.6330 H     1 <1>   0.0800 
 36 H        2.6400    -2.8060    -0.7640 H     1 <1>   0.0800 
 37 H        1.2130    -4.6850    -0.3900 H     1 <1>   0.0800 
 38 H        0.9740    -5.2090     1.2610 H     1 <1>   0.0800 
 39 H       -4.4450    -3.1680    -2.1220 H     1 <1>   0.1500 
 40 H       -4.3540    -2.8660     2.1330 H     1 <1>   0.1500 
 41 H       -6.6930    -4.0540    -2.0260 H     1 <1>   0.1500 
 42 H       -6.6240    -3.7690     2.2510 H     1 <1>   0.1500 
 43 H       -8.3260    -5.2410     0.9420 H     1 <1>   0.0800 
 44 H       -8.5290    -4.9290    -0.7670 H     1 <1>   0.0800 
 45 H       -8.7650    -2.9090     1.3320 H     1 <1>   0.4500 
 46 H      -10.4900    -4.8710     1.1740 H     1 <1>   0.0800 
 47 H      -10.9080    -3.2670     1.6860 H     1 <1>   0.0800 
 48 H       -8.2360    -1.7060    -0.4830 H     1 <1>   0.0800 
 49 H       -9.0900    -2.7870    -1.5520 H     1 <1>   0.0800 
 50 H      -10.3950    -0.9320     0.4330 H     1 <1>   0.0800 
 51 H      -10.3010    -0.6580    -1.2740 H     1 <1>   0.0800 
 52 H      -13.5040    -3.5320     0.7400 H     1 <1>   0.0800 
 53 H      -11.9560    -2.1770    -1.7740 H     1 <1>   0.0800 
 54 H      -12.4520    -1.7290    -0.1830 H     1 <1>   0.0800 
 55 H      -10.5680    -4.1630    -2.2090 H     1 <1>   0.0800 
 56 H      -10.7770    -5.5330    -1.1430 H     1 <1>   0.0800 
 57 H      -13.6220    -5.8400     1.0320 H     1 <1>   0.4000 
 58 H      -14.3710    -5.4190    -0.9980 H     1 <1>   0.0800 
 59 H      -14.1920    -3.7610    -1.5100 H     1 <1>   0.0800 
 60 H      -12.5960    -6.0460    -2.3720 H     1 <1>   0.0800 
 61 H      -12.7110    -4.4440    -3.0660 H     1 <1>   0.0800 
@<TRIPOS>BOND
  1   1   2  2   
  2   2   3  am  
  3   2   4  1   
  4   3   5  1   
  5   3   6  1   
  6   4   7  1   
  7   4  29  1   
  8   4  30  1   
  9   5   8  1   
 10   5  31  1   
 11   5  32  1   
 12   6   9  1   
 13   6  33  1   
 14   6  34  1   
 15   7  10  1   
 16   8  11  1   
 17   8  35  1   
 18   8  36  1   
 19   9  11  1   
 20   9  37  1   
 21   9  38  1   
 22  10  12  ar  
 23  10  13  ar  
 24  12  14  ar  
 25  12  39  1   
 26  13  15  ar  
 27  13  40  1   
 28  14  16  ar  
 29  14  41  1   
 30  15  16  ar  
 31  15  42  1   
 32  16  17  1   
 33  17  18  1   
 34  17  43  1   
 35  17  44  1   
 36  18  19  1   
 37  18  20  1   
 38  18  45  1   
 39  19  21  1   
 40  19  46  1   
 41  19  47  1   
 42  20  22  1   
 43  20  48  1   
 44  20  49  1   
 45  21  23  1   
 46  21  24  1   
 47  21  25  1   
 48  22  24  1   
 49  22  50  1   
 50  22  51  1   
 51  23  26  1   
 52  23  27  1   
 53  23  52  1   
 54  24  53  1   
 55  24  54  1   
 56  25  28  1   
 57  25  55  1   
 58  25  56  1   
 59  26  57  1   
 60  27  28  1   
 61  27  58  1   
 62  27  59  1   
 63  28  60  1   
 64  28  61  1   
@<TRIPOS>SUBSTRUCTURE
  1 ****  14 GROUP 4 **** **** 0

# MOE 2024.06 (io_trps.svl 2023.06)
