@<TRIPOS>MOLECULE
NONAME
48 51 1 0 0 
SMALL
USER_CHARGES


@<TRIPOS>ATOM
  1 O       -1.8310     0.4210    -2.0570 O.2   1 <1>  -0.5700 
  2 C       -1.7550     0.5890    -0.8660 C.2   1 <1>   0.5690 
  3 N       -1.7660    -0.4480     0.0040 N.am  1 <1>  -0.7300 
  4 C       -1.6490     1.9950    -0.3220 C.3   1 <1>  -0.0990 
  5 C       -1.8320    -1.8780    -0.3790 C.3   1 <1>   0.2200 
  6 C       -0.2080     2.5080    -0.4000 C.3   1 <1>  -0.0170 
  7 C       -3.2130    -2.4610    -0.1070 C.3   1 <1>  -0.0800 
  8 C       -0.9930    -2.6850     0.6010 C.3   1 <1>   0.1200 
  9 C       -0.1080     3.9040     0.1930 C.ar  1 <1>  -0.1440 
 10 C       -3.1420    -2.8440     1.3760 C.3   1 <1>   0.1200 
 11 C       -4.4080    -1.5620    -0.4750 C.3   1 <1>  -0.0170 
 12 O       -1.7910    -2.8050     1.7390 O.3   1 <1>  -0.5600 
 13 C       -0.3540     5.0150    -0.6080 C.ar  1 <1>  -0.1500 
 14 C        0.2250     4.0740     1.5360 C.ar  1 <1>  -0.1500 
 15 C       -5.7240    -2.2890    -0.2460 C.ar  1 <1>  -0.1440 
 16 C       -0.2570     6.2680    -0.0350 C.ar  1 <1>   0.0820 
 17 C        0.3180     5.3420     2.0960 C.ar  1 <1>  -0.1500 
 18 C       -6.2270    -3.1850    -1.1680 C.ar  1 <1>  -0.1500 
 19 C       -6.4810    -2.0960     0.8920 C.ar  1 <1>  -0.1500 
 20 O       -0.4490     7.4610    -0.6100 O.3   1 <1>  -0.3630 
 21 C        0.0690     6.4280     1.2800 C.ar  1 <1>   0.0820 
 22 C       -7.4260    -3.8290    -0.9120 C.ar  1 <1>   0.1600 
 23 C       -7.6680    -2.7920     1.0500 C.ar  1 <1>   0.1600 
 24 C       -0.2270     8.4410     0.4020 C.3   1 <1>   0.4000 
 25 O        0.0990     7.7270     1.5930 O.3   1 <1>  -0.3630 
 26 N       -8.1580    -3.6560     0.1760 N.ar  1 <1>  -0.6200 
 27 H       -1.7240    -0.2940     1.0140 H     1 <1>   0.3700 
 28 H       -2.2900     2.6360    -0.9010 H     1 <1>   0.0800 
 29 H       -1.9900     2.0170     0.6960 H     1 <1>   0.0800 
 30 H       -1.5160    -2.0140    -1.4000 H     1 <1>   0.0800 
 31 H        0.1120     2.5270    -1.4290 H     1 <1>   0.0800 
 32 H        0.4470     1.8400     0.1310 H     1 <1>   0.0800 
 33 H       -3.2980    -3.3750    -0.6690 H     1 <1>   0.0800 
 34 H       -0.0650    -2.2050     0.8540 H     1 <1>   0.0800 
 35 H       -0.8050    -3.6740     0.2220 H     1 <1>   0.0800 
 36 H       -3.5230    -3.8360     1.5500 H     1 <1>   0.0800 
 37 H       -3.6650    -2.1390     1.9970 H     1 <1>   0.0800 
 38 H       -4.3340    -1.2770    -1.5110 H     1 <1>   0.0800 
 39 H       -4.3950    -0.6590     0.1080 H     1 <1>   0.0800 
 40 H       -0.6140     4.9200    -1.6470 H     1 <1>   0.1500 
 41 H        0.4160     3.2150     2.1560 H     1 <1>   0.1500 
 42 H        0.5740     5.4890     3.1290 H     1 <1>   0.1500 
 43 H       -5.6990    -3.3860    -2.0820 H     1 <1>   0.1500 
 44 H       -6.1630    -1.4110     1.6560 H     1 <1>   0.1500 
 45 H       -7.8030    -4.5240    -1.6430 H     1 <1>   0.1500 
 46 H       -8.2460    -2.6280     1.9440 H     1 <1>   0.1500 
 47 H        0.5990     9.0690     0.1210 H     1 <1>   0.0800 
 48 H       -1.1260     9.0100     0.5570 H     1 <1>   0.0800 
@<TRIPOS>BOND
  1   1   2  2   
  2   2   3  am  
  3   2   4  1   
  4   3   5  1   
  5   3  27  1   
  6   4   6  1   
  7   4  28  1   
  8   4  29  1   
  9   5   7  1   
 10   5   8  1   
 11   5  30  1   
 12   6   9  1   
 13   6  31  1   
 14   6  32  1   
 15   7  10  1   
 16   7  11  1   
 17   7  33  1   
 18   8  12  1   
 19   8  34  1   
 20   8  35  1   
 21   9  13  ar  
 22   9  14  ar  
 23  10  12  1   
 24  10  36  1   
 25  10  37  1   
 26  11  15  1   
 27  11  38  1   
 28  11  39  1   
 29  13  16  ar  
 30  13  40  1   
 31  14  17  ar  
 32  14  41  1   
 33  15  18  ar  
 34  15  19  ar  
 35  16  20  1   
 36  16  21  ar  
 37  17  21  ar  
 38  17  42  1   
 39  18  22  ar  
 40  18  43  1   
 41  19  23  ar  
 42  19  44  1   
 43  20  24  1   
 44  21  25  1   
 45  22  26  ar  
 46  22  45  1   
 47  23  26  ar  
 48  23  46  1   
 49  24  25  1   
 50  24  47  1   
 51  24  48  1   
@<TRIPOS>SUBSTRUCTURE
  1 ****   4 GROUP 4 **** **** 0

# MOE 2024.06 (io_trps.svl 2023.06)
