@<TRIPOS>MOLECULE
NONAME
43 44 1 0 0 
SMALL
USER_CHARGES


@<TRIPOS>ATOM
  1 CL       0.1750    -0.2320     0.9000 Cl    1 <1>  -0.1230 
  2 C        1.9060     0.0550     0.8520 C.2   1 <1>   0.1230 
  3 C        2.8370    -0.4410     1.7510 C.2   1 <1>   0.1390 
  4 C        2.5920     0.7860    -0.0440 C.2   1 <1>  -0.3020 
  5 N        4.0390    -0.0480     1.4440 N.2   1 <1>  -0.7070 
  6 N        3.8860     0.7090     0.3340 N.pl3 1 <1>   0.3140 
  7 C        5.0380     1.3500    -0.3290 C.3   1 <1>   0.0960 
  8 C        5.2980     2.7400     0.2650 C.3   1 <1>  -0.1600 
  9 C        6.5350     3.3750    -0.3660 C.3   1 <1>   0.1400 
 10 N        6.7030     4.7390     0.1750 N.am  1 <1>  -0.7300 
 11 C        6.5850     5.8830    -0.5510 C.2   1 <1>   0.5690 
 12 O        6.3030     5.8590    -1.7250 O.2   1 <1>  -0.5700 
 13 C        6.8180     7.2180     0.1600 C.3   1 <1>  -0.0190 
 14 C        6.2320     8.4250    -0.6020 C.3   1 <1>  -0.1600 
 15 C        8.3230     7.4360     0.4480 C.3   1 <1>  -0.1600 
 16 C        6.3420     9.7380     0.2020 C.3   1 <1>   0.2000 
 17 C        8.7020     8.9080     0.7100 C.3   1 <1>  -0.1600 
 18 O        6.5390    10.8010    -0.6980 O.3   1 <1>  -0.5600 
 19 C        7.5090     9.7170     1.2250 C.3   1 <1>   0.2000 
 20 C        5.4010    11.2150    -1.3880 C.3   1 <1>   0.0400 
 21 O        7.9350    11.0090     1.4550 O.3   1 <1>  -0.6800 
 22 H        2.5990    -1.0680     2.5930 H     1 <1>   0.1500 
 23 H        2.2430     1.3360    -0.8970 H     1 <1>   0.1500 
 24 H        5.8960     0.7180    -0.1860 H     1 <1>   0.0800 
 25 H        4.8330     1.4220    -1.3820 H     1 <1>   0.0800 
 26 H        4.4450     3.3690     0.0790 H     1 <1>   0.0800 
 27 H        5.4480     2.6470     1.3270 H     1 <1>   0.0800 
 28 H        6.4200     3.4200    -1.4380 H     1 <1>   0.0800 
 29 H        7.4140     2.7940    -0.1440 H     1 <1>   0.0800 
 30 H        6.9440     4.7960     1.1650 H     1 <1>   0.3700 
 31 H        6.3000     7.1580     1.1010 H     1 <1>   0.0800 
 32 H        5.1980     8.2360    -0.8320 H     1 <1>   0.0800 
 33 H        6.7680     8.5270    -1.5310 H     1 <1>   0.0800 
 34 H        8.6020     6.8390     1.2990 H     1 <1>   0.0800 
 35 H        8.9020     7.0860    -0.3910 H     1 <1>   0.0800 
 36 H        5.4320     9.9160     0.7490 H     1 <1>   0.0800 
 37 H        9.0360     9.3500    -0.2140 H     1 <1>   0.0800 
 38 H        9.5110     8.9540     1.4180 H     1 <1>   0.0800 
 39 H        7.1780     9.3080     2.1640 H     1 <1>   0.0800 
 40 H        5.6740    12.0470    -2.0130 H     1 <1>   0.0800 
 41 H        4.6490    11.5250    -0.6830 H     1 <1>   0.0800 
 42 H        5.0380    10.4100    -2.0030 H     1 <1>   0.0800 
 43 H        7.7760    11.4940     0.6130 H     1 <1>   0.4000 
@<TRIPOS>BOND
  1   1   2  1   
  2   2   3  1   
  3   2   4  2   
  4   3   5  2   
  5   3  22  1   
  6   4   6  1   
  7   4  23  1   
  8   5   6  1   
  9   6   7  1   
 10   7   8  1   
 11   7  24  1   
 12   7  25  1   
 13   8   9  1   
 14   8  26  1   
 15   8  27  1   
 16   9  10  1   
 17   9  28  1   
 18   9  29  1   
 19  10  11  am  
 20  10  30  1   
 21  11  12  2   
 22  11  13  1   
 23  13  14  1   
 24  13  15  1   
 25  13  31  1   
 26  14  16  1   
 27  14  32  1   
 28  14  33  1   
 29  15  17  1   
 30  15  34  1   
 31  15  35  1   
 32  16  18  1   
 33  16  19  1   
 34  16  36  1   
 35  17  19  1   
 36  17  37  1   
 37  17  38  1   
 38  18  20  1   
 39  19  21  1   
 40  19  39  1   
 41  20  40  1   
 42  20  41  1   
 43  20  42  1   
 44  21  43  1   
@<TRIPOS>SUBSTRUCTURE
  1 ****  10 GROUP 4 **** **** 0

# MOE 2024.06 (io_trps.svl 2023.06)
