@<TRIPOS>MOLECULE
NONAME
44 46 1 0 0 
SMALL
USER_CHARGES


@<TRIPOS>ATOM
  1 O       -0.0770     0.3260     2.8130 O.2   1 <1>  -0.5700 
  2 C        0.6380    -0.2790     2.0550 C.2   1 <1>   0.5690 
  3 N        1.4870     0.3090     1.1600 N.am  1 <1>  -0.4940 
  4 C        0.6030    -1.7960     2.0990 C.3   1 <1>  -0.0990 
  5 C        1.8030     1.6640     0.8860 C.2   1 <1>  -0.0880 
  6 C        0.0280    -2.4040     0.8080 C.3   1 <1>  -0.1600 
  7 N        1.0220     2.7700     1.0470 N.pl3 1 <1>   0.3140 
  8 C        2.9740     2.1060     0.3730 C.2   1 <1>  -0.1810 
  9 C       -0.0330    -3.9370     0.8850 C.3   1 <1>   0.0960 
 10 N        1.6610     3.8870     0.6530 N.2   1 <1>  -0.7070 
 11 C       -0.3780     2.8630     1.4820 C.3   1 <1>   0.0160 
 12 C        2.8360     3.4930     0.2400 C.2   1 <1>   0.2350 
 13 C        4.2130     1.2960     0.0270 C.3   1 <1>  -0.0590 
 14 N       -0.4300    -4.5060    -0.4170 N.pl3 1 <1>   0.3140 
 15 C        3.8420     4.4000    -0.2720 C.ar  1 <1>   0.0540 
 16 N        0.3960    -4.5590    -1.4520 N.2   1 <1>  -0.7070 
 17 C       -1.6040    -5.0310    -0.7790 C.2   1 <1>   0.0360 
 18 C        4.4490     4.1990    -1.5100 C.ar  1 <1>  -0.1500 
 19 C        4.2330     5.5140     0.4670 C.ar  1 <1>  -0.1500 
 20 C       -0.3370    -5.1120    -2.3630 C.2   1 <1>   0.3660 
 21 N       -1.5880    -5.4260    -2.0000 N.2   1 <1>  -0.5650 
 22 C        5.4220     5.0610    -1.9820 C.ar  1 <1>  -0.1500 
 23 C        5.2040     6.3820     0.0020 C.ar  1 <1>  -0.1500 
 24 C        5.8040     6.1540    -1.2240 C.ar  1 <1>  -0.1500 
 25 H        2.0570    -0.3480     0.6300 H     1 <1>   0.3700 
 26 H        0.0000    -2.0960     2.9390 H     1 <1>   0.0800 
 27 H        1.6020    -2.1570     2.2680 H     1 <1>   0.0800 
 28 H        0.6470    -2.1190    -0.0260 H     1 <1>   0.0800 
 29 H       -0.9620    -2.0140     0.6420 H     1 <1>   0.0800 
 30 H       -0.7380    -4.2490     1.6340 H     1 <1>   0.0800 
 31 H        0.9340    -4.3350     1.1330 H     1 <1>   0.0800 
 32 H       -0.9350     2.0440     1.0700 H     1 <1>   0.0800 
 33 H       -0.7940     3.7910     1.1370 H     1 <1>   0.0800 
 34 H       -0.4140     2.8300     2.5540 H     1 <1>   0.0800 
 35 H        4.2040     0.3490     0.5340 H     1 <1>   0.0800 
 36 H        5.0960     1.8310     0.3300 H     1 <1>   0.0800 
 37 H        4.2570     1.1240    -1.0330 H     1 <1>   0.0800 
 38 H       -2.4470    -5.1050    -0.1160 H     1 <1>   0.1500 
 39 H        4.1460     3.3590    -2.1080 H     1 <1>   0.1500 
 40 H        3.7580     5.6910     1.4170 H     1 <1>   0.1500 
 41 H        0.0150    -5.3190    -3.3610 H     1 <1>   0.1500 
 42 H        5.8800     4.8870    -2.9400 H     1 <1>   0.1500 
 43 H        5.4910     7.2340     0.5930 H     1 <1>   0.1500 
 44 H        6.5600     6.8280    -1.5880 H     1 <1>   0.1500 
@<TRIPOS>BOND
  1   1   2  2   
  2   2   3  am  
  3   2   4  1   
  4   3   5  1   
  5   3  25  1   
  6   4   6  1   
  7   4  26  1   
  8   4  27  1   
  9   5   7  1   
 10   5   8  2   
 11   6   9  1   
 12   6  28  1   
 13   6  29  1   
 14   7  10  1   
 15   7  11  1   
 16   8  12  1   
 17   8  13  1   
 18   9  14  1   
 19   9  30  1   
 20   9  31  1   
 21  10  12  2   
 22  11  32  1   
 23  11  33  1   
 24  11  34  1   
 25  12  15  1   
 26  13  35  1   
 27  13  36  1   
 28  13  37  1   
 29  14  16  1   
 30  14  17  1   
 31  15  18  ar  
 32  15  19  ar  
 33  16  20  2   
 34  17  21  2   
 35  17  38  1   
 36  18  22  ar  
 37  18  39  1   
 38  19  23  ar  
 39  19  40  1   
 40  20  21  1   
 41  20  41  1   
 42  22  24  ar  
 43  22  42  1   
 44  23  24  ar  
 45  23  43  1   
 46  24  44  1   
@<TRIPOS>SUBSTRUCTURE
  1 ****   3 GROUP 4 **** **** 0

# MOE 2024.06 (io_trps.svl 2023.06)
