@<TRIPOS>MOLECULE
NONAME
45 47 1 0 0 
SMALL
USER_CHARGES


@<TRIPOS>ATOM
  1 O       -0.0970    -1.2890    -0.4010 O.2   1 <1>  -0.5700 
  2 C        0.6600    -0.4090    -0.0200 C.2   1 <1>   0.5440 
  3 N        0.1160     0.7510     0.4580 N.am  1 <1>  -0.7300 
  4 C        2.0940    -0.5670    -0.0580 C.ar  1 <1>   0.0860 
  5 C       -1.3220     1.1290     0.4410 C.3   1 <1>   0.0600 
  6 C        2.7490    -1.6900     0.4920 C.ar  1 <1>   0.4100 
  7 C        2.8810     0.4020    -0.6670 C.ar  1 <1>  -0.1500 
  8 N        4.0610    -1.8870     0.4180 N.ar  1 <1>  -0.6200 
  9 N        2.0890    -2.7080     1.1520 N.pl3 1 <1>  -0.8380 
 10 C        4.2410     0.2050    -0.7180 C.ar  1 <1>  -0.1500 
 11 C        4.7730    -0.9470    -0.1690 C.ar  1 <1>   0.1600 
 12 C        2.1840    -4.1100     0.6430 C.3   1 <1>   0.2090 
 13 C        1.1920    -2.5050     2.3360 C.3   1 <1>   0.2090 
 14 C        0.7790    -4.6770     0.3120 C.3   1 <1>   0.3430 
 15 C       -0.1040    -3.3500     2.2170 C.3   1 <1>   0.3430 
 16 N       -0.3350    -3.7780     0.7950 N.4   1 <1>  -0.9590 
 17 C       -1.7160    -4.2730     0.5290 C.3   1 <1>   0.3430 
 18 C       -2.0950    -4.1280    -0.9490 C.3   1 <1>   0.0960 
 19 N       -3.4570    -4.6460    -1.1470 N.pl3 1 <1>   0.3140 
 20 N       -3.9750    -5.5920    -0.3760 N.2   1 <1>  -0.7070 
 21 C       -4.3600    -4.3000    -2.0680 C.2   1 <1>   0.0360 
 22 C       -5.1540    -5.7510    -0.8870 C.2   1 <1>   0.3660 
 23 N       -5.4450    -4.9730    -1.9360 N.2   1 <1>  -0.5650 
 24 H        0.7510     1.4860     0.7870 H     1 <1>   0.3700 
 25 H       -1.9190     0.3390     0.0200 H     1 <1>   0.0800 
 26 H       -1.4560     2.0160    -0.1560 H     1 <1>   0.0800 
 27 H       -1.6600     1.3270     1.4430 H     1 <1>   0.0800 
 28 H        2.4380     1.2830    -1.1020 H     1 <1>   0.1500 
 29 H        4.8890     0.9290    -1.1810 H     1 <1>   0.1500 
 30 H        5.8390    -1.1000    -0.2190 H     1 <1>   0.1500 
 31 H        2.6570    -4.7240     1.3900 H     1 <1>   0.0800 
 32 H        2.8020    -4.1450    -0.2390 H     1 <1>   0.0800 
 33 H        0.9340    -1.4640     2.4260 H     1 <1>   0.0800 
 34 H        1.7190    -2.7800     3.2330 H     1 <1>   0.0800 
 35 H        0.6850    -5.6540     0.7550 H     1 <1>   0.0800 
 36 H        0.7070    -4.7950    -0.7560 H     1 <1>   0.0800 
 37 H       -0.9340    -2.7630     2.5710 H     1 <1>   0.0800 
 38 H       -0.0190    -4.2190     2.8480 H     1 <1>   0.0800 
 39 H       -0.1940    -2.8860     0.2660 H     1 <1>   0.4500 
 40 H       -2.4200    -3.7030     1.1120 H     1 <1>   0.0800 
 41 H       -1.7960    -5.3080     0.8230 H     1 <1>   0.0800 
 42 H       -1.4300    -4.6980    -1.5700 H     1 <1>   0.0800 
 43 H       -2.0730    -3.0940    -1.2410 H     1 <1>   0.0800 
 44 H       -4.1870    -3.5500    -2.8190 H     1 <1>   0.1500 
 45 H       -5.8780    -6.4580    -0.5110 H     1 <1>   0.1500 
@<TRIPOS>BOND
  1   1   2  2   
  2   2   3  am  
  3   2   4  1   
  4   3   5  1   
  5   3  24  1   
  6   4   6  ar  
  7   4   7  ar  
  8   5  25  1   
  9   5  26  1   
 10   5  27  1   
 11   6   8  ar  
 12   6   9  1   
 13   7  10  ar  
 14   7  28  1   
 15   8  11  ar  
 16   9  12  1   
 17   9  13  1   
 18  10  11  ar  
 19  10  29  1   
 20  11  30  1   
 21  12  14  1   
 22  12  31  1   
 23  12  32  1   
 24  13  15  1   
 25  13  33  1   
 26  13  34  1   
 27  14  16  1   
 28  14  35  1   
 29  14  36  1   
 30  15  16  1   
 31  15  37  1   
 32  15  38  1   
 33  16  17  1   
 34  16  39  1   
 35  17  18  1   
 36  17  40  1   
 37  17  41  1   
 38  18  19  1   
 39  18  42  1   
 40  18  43  1   
 41  19  20  1   
 42  19  21  1   
 43  20  22  2   
 44  21  23  2   
 45  21  44  1   
 46  22  23  1   
 47  22  45  1   
@<TRIPOS>SUBSTRUCTURE
  1 ****   1 GROUP 4 **** **** 0

# MOE 2024.06 (io_trps.svl 2023.06)
