@<TRIPOS>MOLECULE
NONAME
40 41 1 0 0 
SMALL
USER_CHARGES


@<TRIPOS>ATOM
  1 S        0.6110    -0.1770     0.4180 S.o2  1 <1>   1.3330 
  2 O        0.2570    -0.1460     1.8190 O.2   1 <1>  -0.6500 
  3 O        2.0020    -0.1470     0.0280 O.2   1 <1>  -0.6500 
  4 N       -0.1000    -1.5480    -0.2860 N.am  1 <1>  -0.8490 
  5 C       -0.2450     1.1740    -0.3890 C.3   1 <1>  -0.0550 
  6 C       -0.1120    -2.6980     0.6230 C.3   1 <1>   0.1160 
  7 C        0.5100    -1.9300    -1.5650 C.3   1 <1>   0.1160 
  8 C        0.1500     2.5560     0.1580 C.3   1 <1>  -0.0800 
  9 C       -0.6550     3.6820    -0.4890 C.3   1 <1>   0.2000 
 10 C        1.6100     2.9450    -0.0920 C.3   1 <1>   0.2090 
 11 O       -1.8800     3.8140     0.1480 O.3   1 <1>  -0.6800 
 12 C        0.2070     4.9370    -0.3530 C.3   1 <1>   0.2090 
 13 N        1.5870     4.4210    -0.2020 N.pl3 1 <1>  -0.8220 
 14 C        2.7170     5.1930    -0.0410 C.2   1 <1>   0.4620 
 15 S        2.5840     6.9240    -0.0960 S.3   1 <1>  -0.0800 
 16 N        3.9280     4.8060     0.1550 N.2   1 <1>  -0.3380 
 17 C        4.2940     6.9910     0.1680 C.2   1 <1>   0.1980 
 18 N        4.8190     5.8370     0.2730 N.2   1 <1>  -0.3380 
 19 C        4.9300     8.3700     0.2390 C.3   1 <1>   0.0200 
 20 C        6.4450     8.3200     0.4770 C.3   1 <1>  -0.2400 
 21 H       -0.0540     1.1390    -1.4430 H     1 <1>   0.0800 
 22 H       -1.3000     1.0410    -0.2430 H     1 <1>   0.0800 
 23 H       -0.5830    -3.5430     0.1510 H     1 <1>   0.0800 
 24 H       -0.6690    -2.4590     1.5140 H     1 <1>   0.0800 
 25 H        0.8940    -2.9640     0.9050 H     1 <1>   0.0800 
 26 H       -0.0380    -2.7450    -2.0070 H     1 <1>   0.0800 
 27 H        1.5340    -2.2340    -1.4190 H     1 <1>   0.0800 
 28 H        0.4910    -1.0990    -2.2490 H     1 <1>   0.0800 
 29 H       -0.0030     2.5760     1.2240 H     1 <1>   0.0800 
 30 H       -0.8360     3.4850    -1.5320 H     1 <1>   0.0800 
 31 H        1.9730     2.5310    -1.0180 H     1 <1>   0.0800 
 32 H        2.2510     2.6270     0.7150 H     1 <1>   0.0800 
 33 H       -1.7540     3.9350     1.1100 H     1 <1>   0.4000 
 34 H       -0.0620     5.4980     0.5260 H     1 <1>   0.0800 
 35 H        0.1290     5.5540    -1.2310 H     1 <1>   0.0800 
 36 H        4.7340     8.8850    -0.6840 H     1 <1>   0.0800 
 37 H        4.4650     8.9220     1.0350 H     1 <1>   0.0800 
 38 H        6.9280     7.7820    -0.3200 H     1 <1>   0.0800 
 39 H        6.6580     7.8180     1.4050 H     1 <1>   0.0800 
 40 H        6.8500     9.3150     0.5190 H     1 <1>   0.0800 
@<TRIPOS>BOND
  1   1   2  2   
  2   1   3  2   
  3   1   4  am  
  4   1   5  1   
  5   4   6  1   
  6   4   7  1   
  7   5   8  1   
  8   5  21  1   
  9   5  22  1   
 10   6  23  1   
 11   6  24  1   
 12   6  25  1   
 13   7  26  1   
 14   7  27  1   
 15   7  28  1   
 16   8   9  1   
 17   8  10  1   
 18   8  29  1   
 19   9  11  1   
 20   9  12  1   
 21   9  30  1   
 22  10  13  1   
 23  10  31  1   
 24  10  32  1   
 25  11  33  1   
 26  12  13  1   
 27  12  34  1   
 28  12  35  1   
 29  13  14  1   
 30  14  15  1   
 31  14  16  2   
 32  15  17  1   
 33  16  18  1   
 34  17  18  2   
 35  17  19  1   
 36  19  20  1   
 37  19  36  1   
 38  19  37  1   
 39  20  38  1   
 40  20  39  1   
 41  20  40  1   
@<TRIPOS>SUBSTRUCTURE
  1 ****  10 GROUP 4 **** **** 0

# MOE 2024.06 (io_trps.svl 2023.06)
