@<TRIPOS>MOLECULE
NONAME
52 55 1 0 0 
SMALL
USER_CHARGES


@<TRIPOS>ATOM
  1 O       -0.2540     0.7780    -1.7510 O.2   1 <1>  -0.5700 
  2 C       -0.7570     1.3140    -0.7800 C.2   1 <1>   0.5440 
  3 N       -1.7060     0.6350    -0.0510 N.am  1 <1>  -0.6600 
  4 C       -0.2820     2.6260    -0.4000 C.ar  1 <1>   0.0860 
  5 C       -2.2310    -0.7050    -0.4880 C.3   1 <1>   0.1400 
  6 C       -2.2480     1.1000     1.2620 C.3   1 <1>   0.1400 
  7 C        1.0050     2.8280     0.1380 C.ar  1 <1>   0.0170 
  8 C       -1.1200     3.7240    -0.5820 C.ar  1 <1>  -0.1500 
  9 C       -3.6690    -0.6360    -1.0250 C.3   1 <1>   0.1400 
 10 C       -3.5360     1.9250     1.1220 C.3   1 <1>  -0.1600 
 11 C        1.9510     1.7460     0.3270 C.cat 1 <1>   0.7830 
 12 C        1.3750     4.1300     0.4900 C.ar  1 <1>  -0.1500 
 13 C       -0.7330     4.9980    -0.2230 C.ar  1 <1>  -0.1500 
 14 N       -4.6030     0.0160    -0.0540 N.am  1 <1>  -0.6600 
 15 C       -4.4820     1.4950    -0.0040 C.3   1 <1>   0.1400 
 16 N        2.1220     0.6760    -0.4450 N.pl3 1 <1>  -0.7000 
 17 N        2.8390     1.6590     1.3210 N.pl3 1 <1>  -0.7000 
 18 C        0.5210     5.2010     0.3190 C.ar  1 <1>  -0.1500 
 19 C       -5.5450    -0.6440     0.7050 C.2   1 <1>   0.5690 
 20 C        3.1300    -0.1010     0.0530 C.2   1 <1>   0.2000 
 21 C        3.5820     0.5160     1.1640 C.2   1 <1>   0.2000 
 22 O       -6.2720    -0.0200     1.4490 O.2   1 <1>  -0.5700 
 23 C       -5.6720    -2.1890     0.6550 C.3   1 <1>   0.2610 
 24 O       -6.1210    -2.6250    -0.5990 O.3   1 <1>  -0.5600 
 25 C       -6.6920    -2.8040     1.6150 C.3   1 <1>  -0.1600 
 26 C       -7.5120    -2.5950    -0.6360 C.3   1 <1>   0.1200 
 27 C       -7.9780    -2.8220     0.8010 C.3   1 <1>  -0.1600 
 28 H       -1.6040    -1.1200    -1.2570 H     1 <1>   0.0800 
 29 H       -2.2010    -1.3880     0.3420 H     1 <1>   0.0800 
 30 H       -2.4640     0.2370     1.8690 H     1 <1>   0.0800 
 31 H       -1.5090     1.6780     1.7890 H     1 <1>   0.0800 
 32 H       -2.0930     3.5740    -1.0200 H     1 <1>   0.1500 
 33 H       -3.9970    -1.6300    -1.2630 H     1 <1>   0.0800 
 34 H       -3.6720    -0.0830    -1.9480 H     1 <1>   0.0800 
 35 H       -3.2900     2.9610     0.9870 H     1 <1>   0.0800 
 36 H       -4.0740     1.8650     2.0520 H     1 <1>   0.0800 
 37 H        2.3530     4.3290     0.8950 H     1 <1>   0.1500 
 38 H       -1.4000     5.8330    -0.3690 H     1 <1>   0.1500 
 39 H       -4.1100     1.8560    -0.9480 H     1 <1>   0.0800 
 40 H       -5.4530     1.9360     0.1510 H     1 <1>   0.0800 
 41 H        1.5120     0.4800    -1.2640 H     1 <1>   0.4500 
 42 H        2.9370     2.3380     2.0810 H     1 <1>   0.4500 
 43 H        0.8270     6.1970     0.5970 H     1 <1>   0.1500 
 44 H        3.4540    -1.0250    -0.4020 H     1 <1>   0.1500 
 45 H        4.3700     0.2140     1.8370 H     1 <1>   0.1500 
 46 H       -4.7020    -2.6160     0.8280 H     1 <1>   0.0800 
 47 H       -6.3890    -3.8100     1.8450 H     1 <1>   0.0800 
 48 H       -6.7880    -2.2520     2.5340 H     1 <1>   0.0800 
 49 H       -7.8170    -1.6250    -0.9930 H     1 <1>   0.0800 
 50 H       -7.8580    -3.3630    -1.3060 H     1 <1>   0.0800 
 51 H       -8.6340    -2.0230     1.0980 H     1 <1>   0.0800 
 52 H       -8.4960    -3.7590     0.8990 H     1 <1>   0.0800 
@<TRIPOS>BOND
  1   1   2  2   
  2   2   3  am  
  3   2   4  1   
  4   3   5  1   
  5   3   6  1   
  6   4   7  ar  
  7   4   8  ar  
  8   5   9  1   
  9   5  28  1   
 10   5  29  1   
 11   6  10  1   
 12   6  30  1   
 13   6  31  1   
 14   7  11  1   
 15   7  12  ar  
 16   8  13  ar  
 17   8  32  1   
 18   9  14  1   
 19   9  33  1   
 20   9  34  1   
 21  10  15  1   
 22  10  35  1   
 23  10  36  1   
 24  11  16  ar  
 25  11  17  ar  
 26  12  18  ar  
 27  12  37  1   
 28  13  18  ar  
 29  13  38  1   
 30  14  15  1   
 31  14  19  am  
 32  15  39  1   
 33  15  40  1   
 34  16  20  1   
 35  16  41  1   
 36  17  21  1   
 37  17  42  1   
 38  18  43  1   
 39  19  22  2   
 40  19  23  1   
 41  20  21  2   
 42  20  44  1   
 43  21  45  1   
 44  23  24  1   
 45  23  25  1   
 46  23  46  1   
 47  24  26  1   
 48  25  27  1   
 49  25  47  1   
 50  25  48  1   
 51  26  27  1   
 52  26  49  1   
 53  26  50  1   
 54  27  51  1   
 55  27  52  1   
@<TRIPOS>SUBSTRUCTURE
  1 ****   3 GROUP 4 **** **** 0

# MOE 2024.06 (io_trps.svl 2023.06)
