@<TRIPOS>MOLECULE
NONAME
37 39 1 0 0 
SMALL
USER_CHARGES


@<TRIPOS>ATOM
  1 CL       1.3520     1.5370     0.0000 Cl    1 <1>  -0.1770 
  2 C        2.0530    -0.0320     0.3590 C.ar  1 <1>   0.1770 
  3 C        1.5230    -1.1460    -0.2840 C.ar  1 <1>   0.0830 
  4 C        3.0950    -0.1510     1.2680 C.ar  1 <1>  -0.1440 
  5 O        0.5190    -1.0160    -1.1710 O.3   1 <1>  -0.5320 
  6 C        2.0240    -2.4080    -0.0160 C.ar  1 <1>  -0.1500 
  7 C        3.5800    -1.4290     1.5210 C.ar  1 <1>   0.1770 
  8 C        3.6720     1.0810     1.9510 C.3   1 <1>   0.2540 
  9 C        3.0580    -2.5490     0.8930 C.ar  1 <1>  -0.1500 
 10 CL       4.8900    -1.6800     2.6550 Cl    1 <1>  -0.1770 
 11 N        4.5040     1.8460     1.0100 N.3   1 <1>  -0.8100 
 12 C        4.6680     3.2490     1.4710 C.3   1 <1>   0.1100 
 13 C        5.7770     1.1500     0.7070 C.3   1 <1>   0.1100 
 14 C        5.3160     4.2320     0.4580 C.3   1 <1>   0.2200 
 15 C        6.5890     1.7670    -0.4510 C.3   1 <1>  -0.0190 
 16 N        5.2120     3.7650    -0.9490 N.am  1 <1>  -0.7300 
 17 C        6.7860     4.5410     0.8130 C.3   1 <1>   0.1200 
 18 C        5.7450     2.6070    -1.3900 C.2   1 <1>   0.5690 
 19 C        7.8210     2.5540     0.0260 C.3   1 <1>   0.1200 
 20 O        7.5330     3.3940     1.1040 O.3   1 <1>  -0.5600 
 21 O        5.5800     2.2540    -2.5320 O.2   1 <1>  -0.5700 
 22 H        0.2870    -0.0770    -1.3220 H     1 <1>   0.4500 
 23 H        1.6060    -3.2640    -0.5170 H     1 <1>   0.1500 
 24 H        4.2500     0.8220     2.8220 H     1 <1>   0.0800 
 25 H        2.8510     1.6910     2.2850 H     1 <1>   0.0800 
 26 H        3.4620    -3.5200     1.1150 H     1 <1>   0.1500 
 27 H        3.6920     3.6410     1.6940 H     1 <1>   0.0800 
 28 H        5.2270     3.2610     2.3910 H     1 <1>   0.0800 
 29 H        6.3830     1.0950     1.5960 H     1 <1>   0.0800 
 30 H        5.5470     0.1410     0.4140 H     1 <1>   0.0800 
 31 H        4.7860     5.1650     0.5250 H     1 <1>   0.0800 
 32 H        6.9720     0.9510    -1.0360 H     1 <1>   0.0800 
 33 H        4.5150     4.2000    -1.5520 H     1 <1>   0.3700 
 34 H        6.8090     5.1500     1.6990 H     1 <1>   0.0800 
 35 H        7.2680     5.0860     0.0190 H     1 <1>   0.0800 
 36 H        8.2440     3.1370    -0.7740 H     1 <1>   0.0800 
 37 H        8.5690     1.8610     0.3700 H     1 <1>   0.0800 
@<TRIPOS>BOND
  1   1   2  1   
  2   2   3  ar  
  3   2   4  ar  
  4   3   5  1   
  5   3   6  ar  
  6   4   7  ar  
  7   4   8  1   
  8   5  22  1   
  9   6   9  ar  
 10   6  23  1   
 11   7   9  ar  
 12   7  10  1   
 13   8  11  1   
 14   8  24  1   
 15   8  25  1   
 16   9  26  1   
 17  11  12  1   
 18  11  13  1   
 19  12  14  1   
 20  12  27  1   
 21  12  28  1   
 22  13  15  1   
 23  13  29  1   
 24  13  30  1   
 25  14  16  1   
 26  14  17  1   
 27  14  31  1   
 28  15  18  1   
 29  15  19  1   
 30  15  32  1   
 31  16  18  am  
 32  16  33  1   
 33  17  20  1   
 34  17  34  1   
 35  17  35  1   
 36  18  21  2   
 37  19  20  1   
 38  19  36  1   
 39  19  37  1   
@<TRIPOS>SUBSTRUCTURE
  1 ****  11 GROUP 4 **** **** 0

# MOE 2024.06 (io_trps.svl 2023.06)
