@<TRIPOS>MOLECULE
NONAME
48 49 1 0 0 
SMALL
USER_CHARGES


@<TRIPOS>ATOM
  1 S        0.4340     0.1450    -1.4570 S.o2  1 <1>   1.3330 
  2 O        0.8270    -1.1990    -1.8190 O.2   1 <1>  -0.6500 
  3 O       -0.4220     0.9040    -2.3390 O.2   1 <1>  -0.6500 
  4 N       -0.3420     0.0700     0.0540 N.am  1 <1>  -0.8490 
  5 C        1.9240     1.0890    -1.1230 C.3   1 <1>  -0.0550 
  6 C       -1.1920    -1.1190     0.1790 C.3   1 <1>   0.1160 
  7 C       -1.1260     1.2710     0.3630 C.3   1 <1>   0.1160 
  8 C        2.9520     0.3560    -0.2340 C.3   1 <1>  -0.0800 
  9 C        4.2960     1.0560    -0.0980 C.3   1 <1>   0.2200 
 10 C        2.5290     0.1480     1.2260 C.3   1 <1>   0.1200 
 11 N        4.1200     2.5120     0.1240 N.am  1 <1>  -0.7300 
 12 C        4.8010     0.4280     1.1920 C.3   1 <1>   0.1200 
 13 O        3.6740     0.3390     2.0080 O.3   1 <1>  -0.5600 
 14 C        4.3070     3.4860    -0.8160 C.2   1 <1>   0.5440 
 15 O        4.4770     3.1300    -1.9660 O.2   1 <1>  -0.5700 
 16 C        4.2820     4.8890    -0.4660 C.ar  1 <1>   0.0860 
 17 C        4.1550     5.8640    -1.4550 C.ar  1 <1>   0.1600 
 18 C        4.3860     5.3500     0.8450 C.ar  1 <1>  -0.1500 
 19 N        4.1110     7.1710    -1.2640 N.ar  1 <1>  -0.6200 
 20 C        4.3450     6.7060     1.0610 C.ar  1 <1>  -0.1500 
 21 C        4.2000     7.5910    -0.0060 C.ar  1 <1>   0.4100 
 22 N        4.1460     8.9530     0.2160 N.pl3 1 <1>  -0.8380 
 23 C        3.2380     9.5230     1.2450 C.3   1 <1>   0.1290 
 24 C        4.5520     9.9010    -0.8590 C.3   1 <1>   0.1290 
 25 H        2.3970     1.3080    -2.0610 H     1 <1>   0.0800 
 26 H        1.6580     2.0260    -0.6770 H     1 <1>   0.0800 
 27 H       -1.6610    -1.1440     1.1480 H     1 <1>   0.0800 
 28 H       -0.5970    -2.0110     0.0720 H     1 <1>   0.0800 
 29 H       -1.9520    -1.1180    -0.5850 H     1 <1>   0.0800 
 30 H       -1.5200     1.2080     1.3640 H     1 <1>   0.0800 
 31 H       -1.9460     1.3760    -0.3290 H     1 <1>   0.0800 
 32 H       -0.5060     2.1480     0.2970 H     1 <1>   0.0800 
 33 H        3.1330    -0.6170    -0.6600 H     1 <1>   0.0800 
 34 H        4.9520     0.8700    -0.9320 H     1 <1>   0.0800 
 35 H        2.1480    -0.8450     1.3940 H     1 <1>   0.0800 
 36 H        1.7990     0.8740     1.5390 H     1 <1>   0.0800 
 37 H        3.8650     2.7490     1.0850 H     1 <1>   0.3700 
 38 H        5.5590     1.0170     1.6770 H     1 <1>   0.0800 
 39 H        5.1650    -0.5700     1.0170 H     1 <1>   0.0800 
 40 H        4.0850     5.5320    -2.4770 H     1 <1>   0.1500 
 41 H        4.5060     4.6710     1.6690 H     1 <1>   0.1500 
 42 H        4.4350     7.1070     2.0520 H     1 <1>   0.1500 
 43 H        3.8100    10.0980     1.9530 H     1 <1>   0.0800 
 44 H        2.7150     8.7410     1.7660 H     1 <1>   0.0800 
 45 H        2.5110    10.1630     0.7760 H     1 <1>   0.0800 
 46 H        4.8980    10.8230    -0.4260 H     1 <1>   0.0800 
 47 H        3.7140    10.0970    -1.5050 H     1 <1>   0.0800 
 48 H        5.3490     9.4750    -1.4440 H     1 <1>   0.0800 
@<TRIPOS>BOND
  1   1   2  2   
  2   1   3  2   
  3   1   4  am  
  4   1   5  1   
  5   4   6  1   
  6   4   7  1   
  7   5   8  1   
  8   5  25  1   
  9   5  26  1   
 10   6  27  1   
 11   6  28  1   
 12   6  29  1   
 13   7  30  1   
 14   7  31  1   
 15   7  32  1   
 16   8   9  1   
 17   8  10  1   
 18   8  33  1   
 19   9  11  1   
 20   9  12  1   
 21   9  34  1   
 22  10  13  1   
 23  10  35  1   
 24  10  36  1   
 25  11  14  am  
 26  11  37  1   
 27  12  13  1   
 28  12  38  1   
 29  12  39  1   
 30  14  15  2   
 31  14  16  1   
 32  16  17  ar  
 33  16  18  ar  
 34  17  19  ar  
 35  17  40  1   
 36  18  20  ar  
 37  18  41  1   
 38  19  21  ar  
 39  20  21  ar  
 40  20  42  1   
 41  21  22  1   
 42  22  23  1   
 43  22  24  1   
 44  23  43  1   
 45  23  44  1   
 46  23  45  1   
 47  24  46  1   
 48  24  47  1   
 49  24  48  1   
@<TRIPOS>SUBSTRUCTURE
  1 ****  11 GROUP 4 **** **** 0

# MOE 2024.06 (io_trps.svl 2023.06)
