@<TRIPOS>MOLECULE
NONAME
47 48 1 0 0 
SMALL
USER_CHARGES


@<TRIPOS>ATOM
  1 CL       1.2190     0.7740     3.4040 Cl    1 <1>  -0.1770 
  2 C        2.0830     0.0650     2.0630 C.ar  1 <1>   0.1770 
  3 C        3.4520     0.2250     1.9770 C.ar  1 <1>  -0.1500 
  4 C        1.3840    -0.6430     1.1050 C.ar  1 <1>  -0.1500 
  5 C        4.1450    -0.3290     0.9110 C.ar  1 <1>  -0.1440 
  6 C        2.0690    -1.1990     0.0380 C.ar  1 <1>  -0.1500 
  7 C        3.4520    -1.0430    -0.0660 C.ar  1 <1>   0.0830 
  8 C        5.6530    -0.1270     0.8370 C.3   1 <1>   0.2840 
  9 O        4.1700    -1.5590    -1.1000 O.3   1 <1>  -0.3620 
 10 N        5.9400     1.2550     0.3570 N.am  1 <1>  -0.6600 
 11 C        3.5660    -2.3370    -2.1100 C.3   1 <1>   0.0400 
 12 C        6.2820     2.2360     1.2620 C.2   1 <1>   0.5690 
 13 C        5.6840     1.4260    -1.1020 C.3   1 <1>   0.0600 
 14 O        6.4810     1.9650     2.4240 O.2   1 <1>  -0.5700 
 15 C        6.4070     3.7200     0.8910 C.3   1 <1>  -0.0190 
 16 C        5.0890     4.3340     0.3690 C.3   1 <1>  -0.1600 
 17 C        7.6300     4.0320    -0.0060 C.3   1 <1>  -0.1600 
 18 C        5.1860     5.8630     0.1900 C.3   1 <1>   0.2000 
 19 C        7.4350     5.2780    -0.8900 C.3   1 <1>  -0.1600 
 20 O        4.3080     6.2330    -0.8460 O.3   1 <1>  -0.5600 
 21 C        6.6210     6.3460    -0.1540 C.3   1 <1>   0.2000 
 22 C        2.9670     6.3380    -0.4790 C.3   1 <1>   0.0400 
 23 O        6.5450     7.4570    -0.9680 O.3   1 <1>  -0.6800 
 24 H        3.9710     0.7840     2.7370 H     1 <1>   0.1500 
 25 H        0.3190    -0.7540     1.1980 H     1 <1>   0.1500 
 26 H        1.5090    -1.7440    -0.6970 H     1 <1>   0.1500 
 27 H        6.1100    -0.8400     0.1740 H     1 <1>   0.0800 
 28 H        6.0800    -0.2880     1.8120 H     1 <1>   0.0800 
 29 H        4.3330    -2.6470    -2.7970 H     1 <1>   0.0800 
 30 H        2.8360    -1.7370    -2.6240 H     1 <1>   0.0800 
 31 H        3.1090    -3.2010    -1.6600 H     1 <1>   0.0800 
 32 H        6.1360     0.6160    -1.6480 H     1 <1>   0.0800 
 33 H        6.0870     2.3470    -1.4760 H     1 <1>   0.0800 
 34 H        4.6230     1.4120    -1.2840 H     1 <1>   0.0800 
 35 H        6.5960     4.2270     1.8230 H     1 <1>   0.0800 
 36 H        4.2990     4.1080     1.0630 H     1 <1>   0.0800 
 37 H        4.8350     3.8960    -0.5770 H     1 <1>   0.0800 
 38 H        8.4800     4.1880     0.6360 H     1 <1>   0.0800 
 39 H        7.8760     3.1950    -0.6340 H     1 <1>   0.0800 
 40 H        4.8830     6.3610     1.0960 H     1 <1>   0.0800 
 41 H        6.9090     5.0000    -1.7870 H     1 <1>   0.0800 
 42 H        8.3950     5.6760    -1.1680 H     1 <1>   0.0800 
 43 H        7.1430     6.6310     0.7430 H     1 <1>   0.0800 
 44 H        2.4060     6.6410    -1.3450 H     1 <1>   0.0800 
 45 H        2.8670     7.0800     0.2940 H     1 <1>   0.0800 
 46 H        2.6100     5.3820    -0.1360 H     1 <1>   0.0800 
 47 H        5.6830     7.3790    -1.4400 H     1 <1>   0.4000 
@<TRIPOS>BOND
  1   1   2  1   
  2   2   3  ar  
  3   2   4  ar  
  4   3   5  ar  
  5   3  24  1   
  6   4   6  ar  
  7   4  25  1   
  8   5   7  ar  
  9   5   8  1   
 10   6   7  ar  
 11   6  26  1   
 12   7   9  1   
 13   8  10  1   
 14   8  27  1   
 15   8  28  1   
 16   9  11  1   
 17  10  12  am  
 18  10  13  1   
 19  11  29  1   
 20  11  30  1   
 21  11  31  1   
 22  12  14  2   
 23  12  15  1   
 24  13  32  1   
 25  13  33  1   
 26  13  34  1   
 27  15  16  1   
 28  15  17  1   
 29  15  35  1   
 30  16  18  1   
 31  16  36  1   
 32  16  37  1   
 33  17  19  1   
 34  17  38  1   
 35  17  39  1   
 36  18  20  1   
 37  18  21  1   
 38  18  40  1   
 39  19  21  1   
 40  19  41  1   
 41  19  42  1   
 42  20  22  1   
 43  21  23  1   
 44  21  43  1   
 45  22  44  1   
 46  22  45  1   
 47  22  46  1   
 48  23  47  1   
@<TRIPOS>SUBSTRUCTURE
  1 ****  10 GROUP 4 **** **** 0

# MOE 2024.06 (io_trps.svl 2023.06)
