@<TRIPOS>MOLECULE
NONAME
40 41 1 0 0 
SMALL
USER_CHARGES


@<TRIPOS>ATOM
  1 O       -0.6970    -0.0250    -1.0360 O.2   1 <1>  -0.5700 
  2 C       -1.5290     0.5890    -0.3960 C.2   1 <1>   0.7160 
  3 N       -2.7250    -0.0320    -0.0980 N.am  1 <1>  -0.6600 
  4 C       -1.2390     1.9350     0.0360 C.2   1 <1>  -0.0860 
  5 C       -3.1830    -1.2170    -0.8880 C.3   1 <1>   0.1400 
  6 C       -3.5060     0.2570     1.1360 C.3   1 <1>   0.1400 
  7 C       -2.1350     3.0060     0.0790 C.2   1 <1>   0.1390 
  8 C       -0.0730     2.4930     0.4670 C.2   1 <1>  -0.3020 
  9 C       -4.6890    -1.1170    -1.1940 C.3   1 <1>   0.2000 
 10 C       -4.9940     0.3890     0.7850 C.3   1 <1>  -0.1600 
 11 N       -1.5990     4.1030     0.5110 N.2   1 <1>  -0.7070 
 12 N       -0.3130     3.7820     0.7450 N.pl3 1 <1>   0.3000 
 13 O       -5.0930    -2.2670    -1.8660 O.3   1 <1>  -0.6800 
 14 C       -5.5630    -0.8670     0.0710 C.3   1 <1>   0.0000 
 15 C       -5.4870    -2.1070     1.0080 C.3   1 <1>   0.1200 
 16 C       -7.0580    -0.6400    -0.3060 C.3   1 <1>  -0.1600 
 17 O       -6.1810    -1.9040     2.1930 O.3   1 <1>  -0.6800 
 18 C       -7.3580     0.4690    -1.3340 C.3   1 <1>  -0.1600 
 19 C       -8.8660     0.5950    -1.5660 C.3   1 <1>  -0.2400 
 20 H       -2.6490    -1.2610    -1.8220 H     1 <1>   0.0800 
 21 H       -2.9640    -2.1100    -0.3320 H     1 <1>   0.0800 
 22 H       -3.3550    -0.5430     1.8400 H     1 <1>   0.0800 
 23 H       -3.1640     1.1610     1.6070 H     1 <1>   0.0800 
 24 H       -3.1680     2.9330    -0.2190 H     1 <1>   0.1500 
 25 H        0.8900     2.0260     0.5750 H     1 <1>   0.1500 
 26 H       -4.8120    -0.3020    -1.8840 H     1 <1>   0.0800 
 27 H       -5.5520     0.5980     1.6790 H     1 <1>   0.0800 
 28 H       -5.0950     1.2500     0.1510 H     1 <1>   0.0800 
 29 H        0.3690     4.4720     1.0850 H     1 <1>   0.2700 
 30 H       -5.0250    -3.0540    -1.2950 H     1 <1>   0.4000 
 31 H       -4.4730    -2.3530     1.2680 H     1 <1>   0.0800 
 32 H       -5.9290    -2.9650     0.5320 H     1 <1>   0.0800 
 33 H       -7.4550    -1.5620    -0.6950 H     1 <1>   0.0800 
 34 H       -7.6120    -0.4220     0.5910 H     1 <1>   0.0800 
 35 H       -5.8710    -1.0990     2.6490 H     1 <1>   0.4000 
 36 H       -6.9860     1.4180    -0.9930 H     1 <1>   0.0800 
 37 H       -6.8910     0.2390    -2.2760 H     1 <1>   0.0800 
 38 H       -9.3690     0.8500    -0.6500 H     1 <1>   0.0800 
 39 H       -9.2690    -0.3310    -1.9370 H     1 <1>   0.0800 
 40 H       -9.0630     1.3670    -2.2900 H     1 <1>   0.0800 
@<TRIPOS>BOND
  1   1   2  2   
  2   2   3  am  
  3   2   4  1   
  4   3   5  1   
  5   3   6  1   
  6   4   7  1   
  7   4   8  2   
  8   5   9  1   
  9   5  20  1   
 10   5  21  1   
 11   6  10  1   
 12   6  22  1   
 13   6  23  1   
 14   7  11  2   
 15   7  24  1   
 16   8  12  1   
 17   8  25  1   
 18   9  13  1   
 19   9  14  1   
 20   9  26  1   
 21  10  14  1   
 22  10  27  1   
 23  10  28  1   
 24  11  12  1   
 25  12  29  1   
 26  13  30  1   
 27  14  15  1   
 28  14  16  1   
 29  15  17  1   
 30  15  31  1   
 31  15  32  1   
 32  16  18  1   
 33  16  33  1   
 34  16  34  1   
 35  17  35  1   
 36  18  19  1   
 37  18  36  1   
 38  18  37  1   
 39  19  38  1   
 40  19  39  1   
 41  19  40  1   
@<TRIPOS>SUBSTRUCTURE
  1 ****   3 GROUP 4 **** **** 0

# MOE 2024.06 (io_trps.svl 2023.06)
