@<TRIPOS>MOLECULE
NONAME
55 57 1 0 0 
SMALL
USER_CHARGES


@<TRIPOS>ATOM
  1 O        0.1570     1.2110     0.0270 O.2   1 <1>  -0.5700 
  2 C        1.0590     0.4290    -0.1560 C.2   1 <1>   0.5690 
  3 N        1.6900     0.3640    -1.3850 N.am  1 <1>  -0.6600 
  4 C        1.5300    -0.3670     1.0680 C.3   1 <1>   0.2610 
  5 C        2.4420    -0.8090    -1.9360 C.3   1 <1>   0.1400 
  6 C        1.7450     1.5800    -2.2340 C.3   1 <1>   0.1400 
  7 O        2.9510    -0.3460     1.1220 O.3   1 <1>  -0.2170 
  8 C        1.1780    -1.8520     1.1150 C.3   1 <1>  -0.0990 
  9 C        3.9600    -0.5650    -2.0760 C.3   1 <1>   0.3430 
 10 C        2.8940     2.4700    -1.7400 C.3   1 <1>  -0.1600 
 11 N        3.4660    -1.5580     1.1450 N.2   1 <1>  -0.5130 
 12 C        2.5620    -2.4340     1.1700 C.2   1 <1>   0.3280 
 13 N        4.4390     0.5500    -1.2050 N.4   1 <1>  -0.9590 
 14 C        4.3040     1.8800    -1.8700 C.3   1 <1>   0.3430 
 15 C        2.7350    -3.9550     1.2180 C.3   1 <1>  -0.0190 
 16 C        5.8330     0.2850    -0.7400 C.3   1 <1>   0.3430 
 17 C        2.3050    -4.5170     2.5810 C.3   1 <1>  -0.2400 
 18 C        4.1800    -4.3870     0.9190 C.3   1 <1>  -0.2400 
 19 C        6.1290     0.9720     0.5950 C.3   1 <1>   0.0200 
 20 C        7.6100     0.8480     0.8930 C.2   1 <1>   0.0060 
 21 N        8.4960     0.7440    -0.0440 N.2   1 <1>  -0.5650 
 22 N        8.1340     0.8420     2.1440 N.pl3 1 <1>   0.0480 
 23 C        9.6620     0.6640     0.6230 C.2   1 <1>   0.0770 
 24 C        9.4590     0.7210     1.9560 C.2   1 <1>  -0.3020 
 25 C        7.4480     0.9380     3.4460 C.3   1 <1>   0.0160 
 26 H        1.1770     0.1210     1.9580 H     1 <1>   0.0800 
 27 H        2.0410    -1.0600    -2.9030 H     1 <1>   0.0800 
 28 H        2.2890    -1.6710    -1.3190 H     1 <1>   0.0800 
 29 H        0.8140     2.1190    -2.1570 H     1 <1>   0.0800 
 30 H        1.8820     1.3140    -3.2680 H     1 <1>   0.0800 
 31 H        0.6350    -2.1680     0.2430 H     1 <1>   0.0800 
 32 H        0.6150    -2.0800     2.0010 H     1 <1>   0.0800 
 33 H        4.1970    -0.3500    -3.1040 H     1 <1>   0.0800 
 34 H        4.4670    -1.4790    -1.8110 H     1 <1>   0.0800 
 35 H        2.7140     2.7460    -0.7160 H     1 <1>   0.0800 
 36 H        2.8690     3.3830    -2.3080 H     1 <1>   0.0800 
 37 H        3.8250     0.5180    -0.3700 H     1 <1>   0.4500 
 38 H        4.9990     2.5740    -1.4260 H     1 <1>   0.0800 
 39 H        4.5630     1.7880    -2.9130 H     1 <1>   0.0800 
 40 H        2.1020    -4.3850     0.4600 H     1 <1>   0.0800 
 41 H        6.5380     0.6240    -1.4830 H     1 <1>   0.0800 
 42 H        5.9830    -0.7730    -0.6040 H     1 <1>   0.0800 
 43 H        2.9000    -4.0880     3.3690 H     1 <1>   0.0800 
 44 H        2.4320    -5.5860     2.6030 H     1 <1>   0.0800 
 45 H        1.2690    -4.3020     2.7760 H     1 <1>   0.0800 
 46 H        4.8520    -3.9960     1.6640 H     1 <1>   0.0800 
 47 H        4.4890    -4.0240    -0.0450 H     1 <1>   0.0800 
 48 H        4.2590    -5.4600     0.9180 H     1 <1>   0.0800 
 49 H        5.5600     0.4960     1.3720 H     1 <1>   0.0800 
 50 H        5.8800     2.0150     0.5530 H     1 <1>   0.0800 
 51 H       10.6020     0.5670     0.1030 H     1 <1>   0.1500 
 52 H       10.1740     0.6840     2.7570 H     1 <1>   0.1500 
 53 H        6.8280     1.8150     3.4610 H     1 <1>   0.0800 
 54 H        8.1770     1.0060     4.2330 H     1 <1>   0.0800 
 55 H        6.8440     0.0620     3.5970 H     1 <1>   0.0800 
@<TRIPOS>BOND
  1   1   2  2   
  2   2   3  am  
  3   2   4  1   
  4   3   5  1   
  5   3   6  1   
  6   4   7  1   
  7   4   8  1   
  8   4  26  1   
  9   5   9  1   
 10   5  27  1   
 11   5  28  1   
 12   6  10  1   
 13   6  29  1   
 14   6  30  1   
 15   7  11  1   
 16   8  12  1   
 17   8  31  1   
 18   8  32  1   
 19   9  13  1   
 20   9  33  1   
 21   9  34  1   
 22  10  14  1   
 23  10  35  1   
 24  10  36  1   
 25  11  12  2   
 26  12  15  1   
 27  13  14  1   
 28  13  16  1   
 29  13  37  1   
 30  14  38  1   
 31  14  39  1   
 32  15  17  1   
 33  15  18  1   
 34  15  40  1   
 35  16  19  1   
 36  16  41  1   
 37  16  42  1   
 38  17  43  1   
 39  17  44  1   
 40  17  45  1   
 41  18  46  1   
 42  18  47  1   
 43  18  48  1   
 44  19  20  1   
 45  19  49  1   
 46  19  50  1   
 47  20  21  2   
 48  20  22  1   
 49  21  23  1   
 50  22  24  1   
 51  22  25  1   
 52  23  24  2   
 53  23  51  1   
 54  24  52  1   
 55  25  53  1   
 56  25  54  1   
 57  25  55  1   
@<TRIPOS>SUBSTRUCTURE
  1 ****   7 GROUP 4 **** **** 0

# MOE 2024.06 (io_trps.svl 2023.06)
