@<TRIPOS>MOLECULE
NONAME
38 40 1 0 0 
SMALL
USER_CHARGES


@<TRIPOS>ATOM
  1 O        3.4060    -0.5480    -1.1010 O.2   1 <1>  -0.5700 
  2 C        2.5300    -0.8780    -0.3260 C.2   1 <1>   0.5440 
  3 N        1.9910     0.0890     0.4790 N.am  1 <1>  -0.4930 
  4 C        2.1020    -2.2660    -0.2650 C.ar  1 <1>   0.0860 
  5 C        2.2420     1.4620     0.6340 C.2   1 <1>   0.3520 
  6 C        0.9020    -2.7010     0.3390 C.ar  1 <1>   0.3920 
  7 C        2.9120    -3.2510    -0.8310 C.ar  1 <1>  -0.1500 
  8 N        1.4360     2.1700     1.3240 N.2   1 <1>  -0.4100 
  9 C        3.2760     2.2990     0.1760 C.2   1 <1>   0.3520 
 10 O        0.0800    -1.7780     0.8890 O.3   1 <1>  -0.3630 
 11 N        0.4940    -3.9690     0.4180 N.ar  1 <1>  -0.6200 
 12 C        2.4880    -4.5550    -0.7530 C.ar  1 <1>  -0.1430 
 13 O        1.9460     3.3630     1.2820 O.3   1 <1>   0.2420 
 14 N        3.0470     3.4800     0.6070 N.2   1 <1>  -0.4100 
 15 N        4.3860     1.9440    -0.6120 N.am  1 <1>  -0.4930 
 16 C       -1.1590    -2.1250     1.4840 C.3   1 <1>   0.0400 
 17 C        1.3020    -4.8470    -0.1340 C.ar  1 <1>   0.1670 
 18 C        3.1680    -5.7980    -1.2720 C.3   1 <1>  -0.0170 
 19 C        5.5060     2.6100    -0.9840 C.2   1 <1>   0.5690 
 20 C        1.0230    -6.3270    -0.1580 C.3   1 <1>  -0.0170 
 21 C        2.0940    -6.8890    -1.1140 C.3   1 <1>  -0.1600 
 22 O        6.3190     2.0690    -1.6890 O.2   1 <1>  -0.5700 
 23 C        5.7850     4.0270    -0.5360 C.3   1 <1>  -0.1790 
 24 H        1.1750    -0.2200     1.0150 H     1 <1>   0.3700 
 25 H        3.8410    -3.0010    -1.3140 H     1 <1>   0.1500 
 26 H        4.3360     0.9890    -0.9940 H     1 <1>   0.3700 
 27 H       -1.6320    -1.2270     1.8380 H     1 <1>   0.0800 
 28 H       -0.9760    -2.7950     2.3060 H     1 <1>   0.0800 
 29 H       -1.7790    -2.6020     0.7450 H     1 <1>   0.0800 
 30 H        4.0280    -6.0200    -0.6640 H     1 <1>   0.0800 
 31 H        3.4670    -5.6850    -2.3000 H     1 <1>   0.0800 
 32 H        0.0290    -6.5260    -0.5160 H     1 <1>   0.0800 
 33 H        1.1410    -6.7260     0.8340 H     1 <1>   0.0800 
 34 H        2.5120    -7.8090    -0.7440 H     1 <1>   0.0800 
 35 H        1.6410    -7.0740    -2.0730 H     1 <1>   0.0800 
 36 H        5.7820     4.0790     0.5360 H     1 <1>   0.0800 
 37 H        5.0360     4.6870    -0.9310 H     1 <1>   0.0800 
 38 H        6.7470     4.3400    -0.8960 H     1 <1>   0.0800 
@<TRIPOS>BOND
  1   1   2  2   
  2   2   3  am  
  3   2   4  1   
  4   3   5  1   
  5   3  24  1   
  6   4   6  ar  
  7   4   7  ar  
  8   5   8  2   
  9   5   9  1   
 10   6  10  1   
 11   6  11  ar  
 12   7  12  ar  
 13   7  25  1   
 14   8  13  1   
 15   9  14  2   
 16   9  15  1   
 17  10  16  1   
 18  11  17  ar  
 19  12  17  ar  
 20  12  18  1   
 21  13  14  1   
 22  15  19  am  
 23  15  26  1   
 24  16  27  1   
 25  16  28  1   
 26  16  29  1   
 27  17  20  1   
 28  18  21  1   
 29  18  30  1   
 30  18  31  1   
 31  19  22  2   
 32  19  23  1   
 33  20  21  1   
 34  20  32  1   
 35  20  33  1   
 36  21  34  1   
 37  21  35  1   
 38  23  36  1   
 39  23  37  1   
 40  23  38  1   
@<TRIPOS>SUBSTRUCTURE
  1 ****   2 GROUP 4 **** **** 0

# MOE 2024.06 (io_trps.svl 2023.06)
