@<TRIPOS>MOLECULE
NONAME
50 53 1 0 0 
SMALL
USER_CHARGES


@<TRIPOS>ATOM
  1 F       -3.4220     2.4780    -1.4050 F     1 <1>  -0.1900 
  2 C       -3.8120     1.8280    -0.3370 C.ar  1 <1>   0.1900 
  3 C       -3.4960     2.2990     0.9250 C.ar  1 <1>   0.1900 
  4 C       -4.5460     0.6670    -0.4960 C.ar  1 <1>  -0.1500 
  5 F       -2.8010     3.4000     1.0690 F     1 <1>  -0.1900 
  6 C       -3.9080     1.6190     2.0560 C.ar  1 <1>  -0.1500 
  7 C       -4.9670    -0.0250     0.6330 C.ar  1 <1>  -0.1440 
  8 C       -4.6460     0.4540     1.9000 C.ar  1 <1>  -0.1500 
  9 C       -5.7810    -1.3010     0.4850 C.3   1 <1>  -0.0160 
 10 C       -7.2830    -0.9830     0.5040 C.3   1 <1>  -0.0990 
 11 C       -8.1770    -2.2050     0.3420 C.2   1 <1>   0.5690 
 12 O       -7.6530    -3.2880     0.2160 O.2   1 <1>  -0.5700 
 13 N       -9.5410    -2.0690     0.3410 N.am  1 <1>  -0.6600 
 14 C      -10.2860    -0.7780     0.4860 C.3   1 <1>   0.1400 
 15 C      -10.4040    -3.2840     0.2060 C.3   1 <1>   0.1400 
 16 C      -11.2070    -0.5220    -0.7290 C.3   1 <1>   0.1440 
 17 C      -11.8560    -2.9350    -0.1660 C.3   1 <1>  -0.1600 
 18 C      -12.2000     0.5530    -0.3180 C.ar  1 <1>   0.1670 
 19 C      -11.9000    -1.8210    -1.2230 C.3   1 <1>  -0.1600 
 20 C      -10.4410     0.1750    -1.8840 C.3   1 <1>  -0.1600 
 21 N      -13.2330     0.3750     0.4760 N.ar  1 <1>  -0.6200 
 22 C      -11.8840     1.7630    -0.8590 C.ar  1 <1>  -0.1430 
 23 C      -10.6430     1.6900    -1.7120 C.3   1 <1>  -0.0170 
 24 C      -13.9510     1.4680     0.6960 C.ar  1 <1>   0.4770 
 25 C      -12.6960     2.8300    -0.5630 C.ar  1 <1>   0.1600 
 26 N      -13.7440     2.6900     0.2220 N.ar  1 <1>  -0.6200 
 27 C      -15.1550     1.3050     1.5920 C.3   1 <1>  -0.0970 
 28 H       -4.7790     0.3170    -1.4860 H     1 <1>   0.1500 
 29 H       -3.6560     1.9930     3.0320 H     1 <1>   0.1500 
 30 H       -4.9710    -0.0840     2.7750 H     1 <1>   0.1500 
 31 H       -5.5430    -1.9810     1.2850 H     1 <1>   0.0800 
 32 H       -5.5260    -1.7910    -0.4400 H     1 <1>   0.0800 
 33 H       -7.4980    -0.2960    -0.2920 H     1 <1>   0.0800 
 34 H       -7.5230    -0.5100     1.4380 H     1 <1>   0.0800 
 35 H       -9.6230     0.0550     0.6210 H     1 <1>   0.0800 
 36 H      -10.8910    -0.8450     1.3750 H     1 <1>   0.0800 
 37 H      -10.3850    -3.8370     1.1300 H     1 <1>   0.0800 
 38 H       -9.9890    -3.9140    -0.5620 H     1 <1>   0.0800 
 39 H      -12.3900    -2.6220     0.7150 H     1 <1>   0.0800 
 40 H      -12.3460    -3.8170    -0.5400 H     1 <1>   0.0800 
 41 H      -11.3970    -2.1920    -2.0990 H     1 <1>   0.0800 
 42 H      -12.9200    -1.6140    -1.4980 H     1 <1>   0.0800 
 43 H      -10.8830    -0.1030    -2.8260 H     1 <1>   0.0800 
 44 H       -9.4010    -0.0980    -1.9090 H     1 <1>   0.0800 
 45 H      -10.7800     2.1830    -2.6590 H     1 <1>   0.0800 
 46 H       -9.8140     2.1300    -1.1850 H     1 <1>   0.0800 
 47 H      -12.4890     3.8050    -0.9680 H     1 <1>   0.1500 
 48 H      -15.0480     0.4300     2.2060 H     1 <1>   0.0800 
 49 H      -16.0350     1.2060     0.9860 H     1 <1>   0.0800 
 50 H      -15.2570     2.1650     2.2260 H     1 <1>   0.0800 
@<TRIPOS>BOND
  1   1   2  1   
  2   2   3  ar  
  3   2   4  ar  
  4   3   5  1   
  5   3   6  ar  
  6   4   7  ar  
  7   4  28  1   
  8   6   8  ar  
  9   6  29  1   
 10   7   8  ar  
 11   7   9  1   
 12   8  30  1   
 13   9  10  1   
 14   9  31  1   
 15   9  32  1   
 16  10  11  1   
 17  10  33  1   
 18  10  34  1   
 19  11  12  2   
 20  11  13  am  
 21  13  14  1   
 22  13  15  1   
 23  14  16  1   
 24  14  35  1   
 25  14  36  1   
 26  15  17  1   
 27  15  37  1   
 28  15  38  1   
 29  16  18  1   
 30  16  19  1   
 31  16  20  1   
 32  17  19  1   
 33  17  39  1   
 34  17  40  1   
 35  18  21  ar  
 36  18  22  ar  
 37  19  41  1   
 38  19  42  1   
 39  20  23  1   
 40  20  43  1   
 41  20  44  1   
 42  21  24  ar  
 43  22  23  1   
 44  22  25  ar  
 45  23  45  1   
 46  23  46  1   
 47  24  26  ar  
 48  24  27  1   
 49  25  26  ar  
 50  25  47  1   
 51  27  48  1   
 52  27  49  1   
 53  27  50  1   
@<TRIPOS>SUBSTRUCTURE
  1 ****  14 GROUP 4 **** **** 0

# MOE 2024.06 (io_trps.svl 2023.06)
