@<TRIPOS>MOLECULE
NONAME
51 54 1 0 0 
SMALL
USER_CHARGES


@<TRIPOS>ATOM
  1 O       -0.4590     0.0180    -0.1530 O.2   1 <1>  -0.5700 
  2 C       -1.4900     0.5900     0.1520 C.2   1 <1>   0.7160 
  3 N       -2.6650    -0.1290     0.1550 N.am  1 <1>  -0.6600 
  4 C       -1.4620     1.9940     0.4780 C.2   1 <1>  -0.0860 
  5 C       -4.0020     0.4700    -0.0910 C.3   1 <1>   0.1400 
  6 C       -2.6860    -1.5830    -0.1410 C.3   1 <1>   0.1400 
  7 C       -2.2560     2.6560     1.4160 C.2   1 <1>   0.1390 
  8 C       -0.6770     2.9930    -0.0120 C.2   1 <1>  -0.3020 
  9 C       -4.8030    -0.6280    -0.7900 C.3   1 <1>   0.2000 
 10 C       -4.1580    -1.9410    -0.3520 C.3   1 <1>  -0.0800 
 11 N       -2.0120     3.9250     1.4870 N.2   1 <1>  -0.7070 
 12 N       -1.0210     4.1380     0.6000 N.pl3 1 <1>   0.3140 
 13 O       -6.1370    -0.6070    -0.4150 O.3   1 <1>  -0.6800 
 14 C       -4.3710    -3.0790    -1.3640 C.3   1 <1>  -0.0170 
 15 C       -0.4330     5.4900     0.3960 C.3   1 <1>   0.1760 
 16 C       -3.7260    -4.3720    -0.8760 C.ar  1 <1>  -0.1430 
 17 C       -0.6430     5.9630    -1.0500 C.3   1 <1>  -0.2400 
 18 C        1.0580     5.4940     0.7640 C.3   1 <1>  -0.2400 
 19 C       -4.3230    -5.1910     0.1120 C.ar  1 <1>   0.0000 
 20 C       -2.5260    -4.7730    -1.3860 C.ar  1 <1>  -0.1500 
 21 C       -3.6230    -6.3550     0.5130 C.ar  1 <1>   0.3100 
 22 C       -5.5710    -4.9250     0.7240 C.ar  1 <1>  -0.1500 
 23 C       -1.9210    -5.9480    -0.9240 C.ar  1 <1>   0.1600 
 24 N       -2.4270    -6.7180    -0.0150 N.ar  1 <1>  -0.6200 
 25 C       -4.1840    -7.1790     1.5010 C.ar  1 <1>  -0.1500 
 26 C       -6.0910    -5.7510     1.6830 C.ar  1 <1>  -0.1500 
 27 C       -5.3900    -6.8910     2.0810 C.ar  1 <1>  -0.1500 
 28 H       -4.4530     0.7250     0.8520 H     1 <1>   0.0800 
 29 H       -3.9250     1.3430    -0.7160 H     1 <1>   0.0800 
 30 H       -2.1140    -1.7680    -1.0350 H     1 <1>   0.0800 
 31 H       -2.2570    -2.1430     0.6730 H     1 <1>   0.0800 
 32 H       -2.9950     2.1680     2.0280 H     1 <1>   0.1500 
 33 H        0.0970     2.9250    -0.7540 H     1 <1>   0.1500 
 34 H       -4.7450    -0.4980    -1.8570 H     1 <1>   0.0800 
 35 H       -4.5510    -2.2270     0.6070 H     1 <1>   0.0800 
 36 H       -6.2260    -0.7300     0.5490 H     1 <1>   0.4000 
 37 H       -3.9450    -2.7980    -2.3110 H     1 <1>   0.0800 
 38 H       -5.4230    -3.2330    -1.5320 H     1 <1>   0.0800 
 39 H       -0.9510     6.1630     1.0560 H     1 <1>   0.0800 
 40 H       -0.1270     5.3200    -1.7410 H     1 <1>   0.0800 
 41 H       -0.2670     6.9630    -1.1670 H     1 <1>   0.0800 
 42 H       -1.6930     5.9660    -1.2840 H     1 <1>   0.0800 
 43 H        1.6150     4.8420     0.1160 H     1 <1>   0.0800 
 44 H        1.1830     5.1710     1.7830 H     1 <1>   0.0800 
 45 H        1.4560     6.4890     0.6740 H     1 <1>   0.0800 
 46 H       -2.0130    -4.2060    -2.1410 H     1 <1>   0.1500 
 47 H       -6.1300    -4.0570     0.4300 H     1 <1>   0.1500 
 48 H       -0.9730    -6.2270    -1.3530 H     1 <1>   0.1500 
 49 H       -3.6270    -8.0520     1.7890 H     1 <1>   0.1500 
 50 H       -7.0420    -5.5380     2.1410 H     1 <1>   0.1500 
 51 H       -5.8070    -7.5330     2.8370 H     1 <1>   0.1500 
@<TRIPOS>BOND
  1   1   2  2   
  2   2   3  am  
  3   2   4  1   
  4   3   5  1   
  5   3   6  1   
  6   4   7  1   
  7   4   8  2   
  8   5   9  1   
  9   5  28  1   
 10   5  29  1   
 11   6  10  1   
 12   6  30  1   
 13   6  31  1   
 14   7  11  2   
 15   7  32  1   
 16   8  12  1   
 17   8  33  1   
 18   9  10  1   
 19   9  13  1   
 20   9  34  1   
 21  10  14  1   
 22  10  35  1   
 23  11  12  1   
 24  12  15  1   
 25  13  36  1   
 26  14  16  1   
 27  14  37  1   
 28  14  38  1   
 29  15  17  1   
 30  15  18  1   
 31  15  39  1   
 32  16  19  ar  
 33  16  20  ar  
 34  17  40  1   
 35  17  41  1   
 36  17  42  1   
 37  18  43  1   
 38  18  44  1   
 39  18  45  1   
 40  19  21  ar  
 41  19  22  ar  
 42  20  23  ar  
 43  20  46  1   
 44  21  24  ar  
 45  21  25  ar  
 46  22  26  ar  
 47  22  47  1   
 48  23  24  ar  
 49  23  48  1   
 50  25  27  ar  
 51  25  49  1   
 52  26  27  ar  
 53  26  50  1   
 54  27  51  1   
@<TRIPOS>SUBSTRUCTURE
  1 ****   6 GROUP 4 **** **** 0

# MOE 2024.06 (io_trps.svl 2023.06)
