@<TRIPOS>MOLECULE
NONAME
49 53 1 0 0 
SMALL
USER_CHARGES


@<TRIPOS>ATOM
  1 O        2.6760    -0.5920    -0.7100 O.3   1 <1>  -0.5600 
  2 C        2.7160    -1.2450     0.5460 C.3   1 <1>   0.4600 
  3 C        1.4550    -0.5950    -1.4200 C.3   1 <1>   0.1200 
  4 C        1.8930    -2.5240     0.4900 C.2   1 <1>  -0.3320 
  5 C        2.2070    -0.2730     1.6150 C.3   1 <1>  -0.1600 
  6 C        4.1950    -1.5580     0.8090 C.3   1 <1>  -0.1600 
  7 C        1.0390    -2.0240    -1.8030 C.3   1 <1>   0.0210 
  8 N        1.7800    -3.4830     1.4630 N.pl3 1 <1>   0.0330 
  9 C        1.1410    -2.8840    -0.5700 C.2   1 <1>  -0.1810 
 10 C        3.0020     1.0380     1.6450 C.3   1 <1>   0.3430 
 11 C        5.0280    -0.3300     1.1970 C.3   1 <1>   0.3430 
 12 C        0.9450    -4.4670     0.9950 C.ar  1 <1>  -0.1520 
 13 C        0.5270    -4.1210    -0.2870 C.ar  1 <1>   0.0000 
 14 N        4.2820     0.9150     0.8800 N.4   1 <1>  -0.9590 
 15 C        0.5120    -5.6530     1.5930 C.ar  1 <1>  -0.1500 
 16 C       -0.3350    -4.9690    -0.9870 C.ar  1 <1>  -0.1500 
 17 C        5.1150     2.1440     0.9080 C.3   1 <1>   0.4860 
 18 C       -0.3380    -6.4790     0.8930 C.ar  1 <1>  -0.1500 
 19 C       -0.7610    -6.1370    -0.3970 C.ar  1 <1>  -0.1500 
 20 C        4.3070     3.2880     0.3250 C.ar  1 <1>  -0.1440 
 21 C        3.8480     4.3300     1.1090 C.ar  1 <1>  -0.1500 
 22 C        3.9820     3.3420    -1.0180 C.ar  1 <1>  -0.1500 
 23 C        3.0960     5.3390     0.5310 C.ar  1 <1>   0.1600 
 24 C        3.2230     4.3980    -1.4950 C.ar  1 <1>   0.1600 
 25 N        2.7690     5.3890    -0.7480 N.ar  1 <1>  -0.6200 
 26 H        1.5830     0.0010    -2.3070 H     1 <1>   0.0800 
 27 H        0.6970    -0.1430    -0.8050 H     1 <1>   0.0800 
 28 H        2.2840    -0.7440     2.5770 H     1 <1>   0.0800 
 29 H        1.1640    -0.0660     1.4610 H     1 <1>   0.0800 
 30 H        4.6110    -2.0250    -0.0660 H     1 <1>   0.0800 
 31 H        4.2790    -2.2730     1.6060 H     1 <1>   0.0800 
 32 H        1.6850    -2.4080    -2.5720 H     1 <1>   0.0800 
 33 H        0.0290    -2.0220    -2.1710 H     1 <1>   0.0800 
 34 H        2.2250    -3.5060     2.3850 H     1 <1>   0.2700 
 35 H        3.2020     1.3160     2.6670 H     1 <1>   0.0800 
 36 H        2.4020     1.8160     1.1990 H     1 <1>   0.0800 
 37 H        5.9620    -0.3530     0.6590 H     1 <1>   0.0800 
 38 H        5.2440    -0.3590     2.2530 H     1 <1>   0.0800 
 39 H        3.9600     0.7820    -0.0990 H     1 <1>   0.4500 
 40 H        0.8400    -5.9110     2.5840 H     1 <1>   0.1500 
 41 H       -0.6510    -4.6970    -1.9770 H     1 <1>   0.1500 
 42 H        6.0060     2.0020     0.3170 H     1 <1>   0.0800 
 43 H        5.4070     2.3750     1.9190 H     1 <1>   0.0800 
 44 H       -0.6860    -7.3980     1.3310 H     1 <1>   0.1500 
 45 H       -1.4240    -6.8010    -0.9230 H     1 <1>   0.1500 
 46 H        4.0620     4.3800     2.1620 H     1 <1>   0.1500 
 47 H        4.3050     2.5830    -1.7080 H     1 <1>   0.1500 
 48 H        2.7430     6.1480     1.1510 H     1 <1>   0.1500 
 49 H        2.9760     4.4320    -2.5430 H     1 <1>   0.1500 
@<TRIPOS>BOND
  1   1   2  1   
  2   1   3  1   
  3   2   4  1   
  4   2   5  1   
  5   2   6  1   
  6   3   7  1   
  7   3  26  1   
  8   3  27  1   
  9   4   8  1   
 10   4   9  2   
 11   5  10  1   
 12   5  28  1   
 13   5  29  1   
 14   6  11  1   
 15   6  30  1   
 16   6  31  1   
 17   7   9  1   
 18   7  32  1   
 19   7  33  1   
 20   8  12  1   
 21   8  34  1   
 22   9  13  1   
 23  10  14  1   
 24  10  35  1   
 25  10  36  1   
 26  11  14  1   
 27  11  37  1   
 28  11  38  1   
 29  12  13  ar  
 30  12  15  ar  
 31  13  16  ar  
 32  14  17  1   
 33  14  39  1   
 34  15  18  ar  
 35  15  40  1   
 36  16  19  ar  
 37  16  41  1   
 38  17  20  1   
 39  17  42  1   
 40  17  43  1   
 41  18  19  ar  
 42  18  44  1   
 43  19  45  1   
 44  20  21  ar  
 45  20  22  ar  
 46  21  23  ar  
 47  21  46  1   
 48  22  24  ar  
 49  22  47  1   
 50  23  25  ar  
 51  23  48  1   
 52  24  25  ar  
 53  24  49  1   
@<TRIPOS>SUBSTRUCTURE
  1 ****   2 GROUP 4 **** **** 0

# MOE 2024.06 (io_trps.svl 2023.06)
