@<TRIPOS>MOLECULE
NONAME
44 46 1 0 0 
SMALL
USER_CHARGES


@<TRIPOS>ATOM
  1 O       -1.3170    -0.2820     2.5420 O.2   1 <1>  -0.5700 
  2 C       -1.5890     0.4690     1.6370 C.2   1 <1>   0.5690 
  3 N       -2.0670     0.0310     0.4320 N.am  1 <1>  -0.6600 
  4 C       -1.3320     1.9410     1.8700 C.3   1 <1>  -0.0990 
  5 C       -2.1150    -1.4470     0.1580 C.3   1 <1>   0.3640 
  6 C       -2.5760     0.9540    -0.6370 C.3   1 <1>   0.1400 
  7 C        0.0100     2.3200     1.2340 C.3   1 <1>   0.0960 
  8 C       -0.7480    -1.9450    -0.3300 C.ar  1 <1>  -0.1440 
  9 C       -3.2320    -1.8940    -0.8360 C.3   1 <1>   0.2000 
 10 C       -3.1330     0.2170    -1.8600 C.3   1 <1>   0.1200 
 11 N       -0.0280     3.7040     0.7360 N.pl3 1 <1>   0.3140 
 12 C        0.0660    -1.2090    -1.1840 C.ar  1 <1>  -0.1500 
 13 C       -0.3080    -3.1910     0.0970 C.ar  1 <1>  -0.1500 
 14 O       -3.9370    -0.8340    -1.4340 O.3   1 <1>  -0.5600 
 15 C       -4.2760    -2.7910    -0.1580 C.3   1 <1>   0.1200 
 16 N       -0.6730     4.0240    -0.4040 N.2   1 <1>  -0.7070 
 17 C        0.5260     4.7920     1.3060 C.2   1 <1>  -0.3020 
 18 C        1.2850    -1.7110    -1.6060 C.ar  1 <1>  -0.1500 
 19 C        0.9100    -3.6950    -0.3240 C.ar  1 <1>  -0.1500 
 20 O       -3.6990    -3.9940     0.2440 O.3   1 <1>  -0.6800 
 21 C       -0.5080     5.3060    -0.5290 C.2   1 <1>   0.1390 
 22 C        0.2350     5.8450     0.5140 C.2   1 <1>  -0.1500 
 23 C        1.7070    -2.9560    -1.1780 C.ar  1 <1>  -0.1500 
 24 H       -2.1390     2.5190     1.4610 H     1 <1>   0.0800 
 25 H       -1.2950     2.1300     2.9270 H     1 <1>   0.0800 
 26 H       -2.3050    -1.9440     1.0940 H     1 <1>   0.0800 
 27 H       -3.3650     1.5600    -0.2260 H     1 <1>   0.0800 
 28 H       -1.7890     1.6140    -0.9570 H     1 <1>   0.0800 
 29 H        0.2210     1.6830     0.3940 H     1 <1>   0.0800 
 30 H        0.8080     2.2130     1.9460 H     1 <1>   0.0800 
 31 H       -2.7850    -2.4520    -1.6400 H     1 <1>   0.0800 
 32 H       -2.3460    -0.1710    -2.4820 H     1 <1>   0.0800 
 33 H       -3.7400     0.8830    -2.4470 H     1 <1>   0.0800 
 34 H       -0.2340    -0.2370    -1.5260 H     1 <1>   0.1500 
 35 H       -0.9160    -3.7770     0.7660 H     1 <1>   0.1500 
 36 H       -5.0790    -3.0160    -0.8370 H     1 <1>   0.0800 
 37 H       -4.6700    -2.3030     0.7170 H     1 <1>   0.0800 
 38 H        1.0840     4.7570     2.2240 H     1 <1>   0.1500 
 39 H        1.9060    -1.1320    -2.2670 H     1 <1>   0.1500 
 40 H        1.2360    -4.6620     0.0170 H     1 <1>   0.1500 
 41 H       -3.5050    -4.5610    -0.5280 H     1 <1>   0.4000 
 42 H       -0.9060     5.8790    -1.3500 H     1 <1>   0.1500 
 43 H        0.5040     6.8790     0.6350 H     1 <1>   0.1500 
 44 H        2.6550    -3.3470    -1.5040 H     1 <1>   0.1500 
@<TRIPOS>BOND
  1   1   2  2   
  2   2   3  am  
  3   2   4  1   
  4   3   5  1   
  5   3   6  1   
  6   4   7  1   
  7   4  24  1   
  8   4  25  1   
  9   5   8  1   
 10   5   9  1   
 11   5  26  1   
 12   6  10  1   
 13   6  27  1   
 14   6  28  1   
 15   7  11  1   
 16   7  29  1   
 17   7  30  1   
 18   8  12  ar  
 19   8  13  ar  
 20   9  14  1   
 21   9  15  1   
 22   9  31  1   
 23  10  14  1   
 24  10  32  1   
 25  10  33  1   
 26  11  16  1   
 27  11  17  1   
 28  12  18  ar  
 29  12  34  1   
 30  13  19  ar  
 31  13  35  1   
 32  15  20  1   
 33  15  36  1   
 34  15  37  1   
 35  16  21  2   
 36  17  22  2   
 37  17  38  1   
 38  18  23  ar  
 39  18  39  1   
 40  19  23  ar  
 41  19  40  1   
 42  20  41  1   
 43  21  22  1   
 44  21  42  1   
 45  22  43  1   
 46  23  44  1   
@<TRIPOS>SUBSTRUCTURE
  1 ****   3 GROUP 4 **** **** 0

# MOE 2024.06 (io_trps.svl 2023.06)
