@<TRIPOS>MOLECULE
NONAME
56 58 1 0 0 
SMALL
USER_CHARGES


@<TRIPOS>ATOM
  1 CL       1.1790     1.2500    -2.4080 Cl    1 <1>  -0.1770 
  2 C        1.8510    -0.1710    -1.6520 C.ar  1 <1>   0.1770 
  3 C        2.8070    -0.0260    -0.6690 C.ar  1 <1>  -0.1500 
  4 C        1.4030    -1.4140    -2.0500 C.ar  1 <1>  -0.1500 
  5 C        3.3440    -1.1560    -0.0580 C.ar  1 <1>   0.0830 
  6 C        1.9300    -2.5500    -1.4540 C.ar  1 <1>  -0.1440 
  7 O        4.2550    -1.0490     0.9490 O.3   1 <1>  -0.3620 
  8 C        2.9130    -2.4300    -0.4730 C.ar  1 <1>   0.0830 
  9 C        1.4260    -3.9190    -1.8720 C.3   1 <1>   0.4870 
 10 C        4.7480     0.1990     1.3940 C.3   1 <1>   0.0400 
 11 O        3.3900    -3.6050     0.0430 O.3   1 <1>  -0.3630 
 12 N        0.8650    -4.5910    -0.6680 N.4   1 <1>  -0.9590 
 13 C        4.7700    -3.7410     0.3350 C.3   1 <1>   0.0400 
 14 C        0.6550    -6.0640    -0.8830 C.3   1 <1>   0.3430 
 15 C       -0.3650    -3.8930    -0.1910 C.3   1 <1>   0.3430 
 16 C        0.0670    -6.7960     0.3660 C.3   1 <1>   0.4230 
 17 C       -0.8620    -4.5560     1.0970 C.3   1 <1>  -0.1600 
 18 N       -0.1250    -8.3060     0.2170 N.4   1 <1>  -0.9590 
 19 C       -1.1810    -6.0690     0.9510 C.3   1 <1>   0.0000 
 20 C       -0.9980    -8.9140     1.2810 C.3   1 <1>   0.3430 
 21 C       -0.6210    -8.7550    -1.1290 C.3   1 <1>   0.2630 
 22 C       -1.4630    -6.6430     2.3690 C.3   1 <1>  -0.1600 
 23 C       -2.4690    -6.2420     0.0940 C.3   1 <1>   0.1200 
 24 C       -0.9610    -8.0890     2.5680 C.3   1 <1>  -0.1600 
 25 O       -2.2310    -5.9890    -1.2500 O.3   1 <1>  -0.6800 
 26 H        3.1040     0.9700    -0.4010 H     1 <1>   0.1500 
 27 H        0.6510    -1.4680    -2.8190 H     1 <1>   0.1500 
 28 H        2.2550    -4.4870    -2.2620 H     1 <1>   0.0800 
 29 H        0.6750    -3.8280    -2.6400 H     1 <1>   0.0800 
 30 H        5.4620     0.0170     2.1780 H     1 <1>   0.0800 
 31 H        3.9310     0.7840     1.7780 H     1 <1>   0.0800 
 32 H        5.2310     0.7000     0.5740 H     1 <1>   0.0800 
 33 H        1.6100    -4.4260     0.0380 H     1 <1>   0.4500 
 34 H        5.0300    -4.7830     0.2910 H     1 <1>   0.0800 
 35 H        4.9580    -3.3660     1.3250 H     1 <1>   0.0800 
 36 H        5.3460    -3.1900    -0.3900 H     1 <1>   0.0800 
 37 H       -0.0190    -6.1970    -1.7120 H     1 <1>   0.0800 
 38 H        1.5970    -6.5190    -1.1390 H     1 <1>   0.0800 
 39 H       -0.1480    -2.8540     0.0030 H     1 <1>   0.0800 
 40 H       -1.1330    -3.9380    -0.9470 H     1 <1>   0.0800 
 41 H        0.8230    -6.6770     1.1240 H     1 <1>   0.0800 
 42 H       -0.1100    -4.3990     1.8520 H     1 <1>   0.0800 
 43 H       -1.7420    -4.0310     1.4290 H     1 <1>   0.0800 
 44 H        0.8030    -8.7360     0.3540 H     1 <1>   0.4500 
 45 H       -2.0180    -8.9590     0.9350 H     1 <1>   0.0800 
 46 H       -0.6780    -9.9240     1.4860 H     1 <1>   0.0800 
 47 H       -1.5910    -8.3340    -1.3350 H     1 <1>   0.0800 
 48 H       -0.7060    -9.8300    -1.1560 H     1 <1>   0.0800 
 49 H        0.0590    -8.4530    -1.9090 H     1 <1>   0.0800 
 50 H       -0.9950    -6.0400     3.1310 H     1 <1>   0.0800 
 51 H       -2.5200    -6.6050     2.5750 H     1 <1>   0.0800 
 52 H       -3.2350    -5.5610     0.4290 H     1 <1>   0.0800 
 53 H       -2.8630    -7.2400     0.1700 H     1 <1>   0.0800 
 54 H       -1.5700    -8.5720     3.3130 H     1 <1>   0.0800 
 55 H        0.0460    -8.0820     2.9490 H     1 <1>   0.0800 
 56 H       -3.0850    -5.9360    -1.7410 H     1 <1>   0.4000 
@<TRIPOS>BOND
  1   1   2  1   
  2   2   3  ar  
  3   2   4  ar  
  4   3   5  ar  
  5   3  26  1   
  6   4   6  ar  
  7   4  27  1   
  8   5   7  1   
  9   5   8  ar  
 10   6   8  ar  
 11   6   9  1   
 12   7  10  1   
 13   8  11  1   
 14   9  12  1   
 15   9  28  1   
 16   9  29  1   
 17  10  30  1   
 18  10  31  1   
 19  10  32  1   
 20  11  13  1   
 21  12  14  1   
 22  12  15  1   
 23  12  33  1   
 24  13  34  1   
 25  13  35  1   
 26  13  36  1   
 27  14  16  1   
 28  14  37  1   
 29  14  38  1   
 30  15  17  1   
 31  15  39  1   
 32  15  40  1   
 33  16  18  1   
 34  16  19  1   
 35  16  41  1   
 36  17  19  1   
 37  17  42  1   
 38  17  43  1   
 39  18  20  1   
 40  18  21  1   
 41  18  44  1   
 42  19  22  1   
 43  19  23  1   
 44  20  24  1   
 45  20  45  1   
 46  20  46  1   
 47  21  47  1   
 48  21  48  1   
 49  21  49  1   
 50  22  24  1   
 51  22  50  1   
 52  22  51  1   
 53  23  25  1   
 54  23  52  1   
 55  23  53  1   
 56  24  54  1   
 57  24  55  1   
 58  25  56  1   
@<TRIPOS>SUBSTRUCTURE
  1 ****  12 GROUP 4 **** **** 0

# MOE 2024.06 (io_trps.svl 2023.06)
