@<TRIPOS>MOLECULE
NONAME
42 44 1 0 0 
SMALL
USER_CHARGES


@<TRIPOS>ATOM
  1 F       -0.6090     0.3110    -0.3310 F     1 <1>  -0.1900 
  2 C       -1.8660     0.6540    -0.2080 C.ar  1 <1>   0.1900 
  3 C       -2.2650     1.7520     0.5620 C.ar  1 <1>   0.0830 
  4 C       -2.7850    -0.1280    -0.8810 C.ar  1 <1>  -0.1500 
  5 O       -1.4580     2.5960     1.2680 O.3   1 <1>  -0.3630 
  6 C       -3.6200     2.0320     0.6280 C.ar  1 <1>  -0.1500 
  7 C       -4.1300     0.1810    -0.7950 C.ar  1 <1>  -0.1500 
  8 C       -0.0560     2.4530     1.3270 C.3   1 <1>   0.0400 
  9 C       -4.5790     1.2640    -0.0370 C.ar  1 <1>   0.0530 
 10 C       -5.9790     1.6000     0.0570 C.2   1 <1>   0.0870 
 11 O       -6.3380     2.8550     0.1590 O.3   1 <1>  -0.0190 
 12 C       -7.1230     0.8610     0.0540 C.2   1 <1>  -0.0860 
 13 N       -7.6310     3.0140     0.2230 N.2   1 <1>  -0.4100 
 14 C       -8.1270     1.8280     0.1670 C.2   1 <1>   0.3720 
 15 C       -7.3010    -0.5570    -0.0080 C.2   1 <1>   0.7160 
 16 N       -9.5020     1.5790     0.2320 N.pl3 1 <1>  -0.8210 
 17 O       -6.5080    -1.3040     0.5430 O.2   1 <1>  -0.5700 
 18 N       -8.3410    -1.1280    -0.6930 N.am  1 <1>  -0.5100 
 19 C      -10.1630     2.1970     1.4130 C.3   1 <1>   0.1290 
 20 C      -10.2080     1.9220    -1.0300 C.3   1 <1>   0.1290 
 21 C       -8.2760    -2.5080    -1.3090 C.3   1 <1>   0.2250 
 22 C       -9.5680    -1.5860     0.0580 C.3   1 <1>   0.2250 
 23 C       -9.0810    -3.0470    -0.1030 C.3   1 <1>   0.2580 
 24 O       -8.2500    -3.4530     0.9410 O.3   1 <1>  -0.6580 
 25 H       -2.4480    -0.9670    -1.4640 H     1 <1>   0.1500 
 26 H       -3.9370     2.8740     1.2180 H     1 <1>   0.1500 
 27 H       -4.8390    -0.4290    -1.3250 H     1 <1>   0.1500 
 28 H        0.3330     3.2360     1.9520 H     1 <1>   0.0800 
 29 H        0.3480     2.5440     0.3350 H     1 <1>   0.0800 
 30 H        0.1810     1.4940     1.7540 H     1 <1>   0.0800 
 31 H       -9.5920     1.9850     2.3020 H     1 <1>   0.0800 
 32 H      -11.1530     1.7930     1.5330 H     1 <1>   0.0800 
 33 H      -10.2250     3.2650     1.2890 H     1 <1>   0.0800 
 34 H       -9.7170     1.4480    -1.8630 H     1 <1>   0.0800 
 35 H      -10.1980     2.9890    -1.1820 H     1 <1>   0.0800 
 36 H      -11.2260     1.5770    -0.9880 H     1 <1>   0.0800 
 37 H       -7.2740    -2.8940    -1.3820 H     1 <1>   0.0000 
 38 H       -8.8200    -2.5370    -2.2370 H     1 <1>   0.0000 
 39 H      -10.4620    -1.3640    -0.4990 H     1 <1>   0.0000 
 40 H       -9.5920    -1.2400     1.0760 H     1 <1>   0.0000 
 41 H       -9.8360    -3.7810    -0.3170 H     1 <1>   0.0000 
 42 H       -7.4970    -2.8150     1.0160 H     1 <1>   0.4000 
@<TRIPOS>BOND
  1   1   2  1   
  2   2   3  ar  
  3   2   4  ar  
  4   3   5  1   
  5   3   6  ar  
  6   4   7  ar  
  7   4  25  1   
  8   5   8  1   
  9   6   9  ar  
 10   6  26  1   
 11   7   9  ar  
 12   7  27  1   
 13   8  28  1   
 14   8  29  1   
 15   8  30  1   
 16   9  10  1   
 17  10  11  1   
 18  10  12  2   
 19  11  13  1   
 20  12  14  1   
 21  12  15  1   
 22  13  14  2   
 23  14  16  1   
 24  15  17  2   
 25  15  18  am  
 26  16  19  1   
 27  16  20  1   
 28  18  21  1   
 29  18  22  1   
 30  19  31  1   
 31  19  32  1   
 32  19  33  1   
 33  20  34  1   
 34  20  35  1   
 35  20  36  1   
 36  21  23  1   
 37  21  37  1   
 38  21  38  1   
 39  22  23  1   
 40  22  39  1   
 41  22  40  1   
 42  23  24  1   
 43  23  41  1   
 44  24  42  1   
@<TRIPOS>SUBSTRUCTURE
  1 ****  10 GROUP 4 **** **** 0

# MOE 2024.06 (io_trps.svl 2023.06)
