@<TRIPOS>MOLECULE
NONAME
40 41 1 0 0 
SMALL
USER_CHARGES


@<TRIPOS>ATOM
  1 O       -0.9580     2.0700    -0.0720 O.co2 1 <1>  -0.9000 
  2 C       -1.5510     2.8030     0.7190 C.2   1 <1>   0.9060 
  3 O       -1.5160     4.0300     0.6640 O.co2 1 <1>  -0.9000 
  4 C       -2.5480     2.1650     1.6250 C.3   1 <1>  -0.2660 
  5 C       -3.5040     1.3600     0.7650 C.3   1 <1>   0.3430 
  6 N       -4.4570     2.2400     0.0340 N.4   1 <1>  -0.9590 
  7 C       -5.6800     1.5170    -0.3860 C.3   1 <1>   0.3430 
  8 C       -3.8000     2.9870    -1.0940 C.3   1 <1>   0.3430 
  9 C       -6.7740     2.5290    -0.8100 C.3   1 <1>   0.0000 
 10 C       -4.7980     3.3670    -2.1980 C.3   1 <1>  -0.1600 
 11 C       -7.5410     3.0280     0.4270 C.3   1 <1>   0.2000 
 12 C       -6.1810     3.7110    -1.6250 C.3   1 <1>  -0.1600 
 13 C       -7.8660     1.7740    -1.5800 C.3   1 <1>  -0.1600 
 14 O       -6.6620     3.2510     1.4920 O.3   1 <1>  -0.5600 
 15 C       -8.5550     1.9290     0.7650 C.3   1 <1>  -0.1600 
 16 C       -8.7080     1.0800    -0.5050 C.3   1 <1>  -0.1600 
 17 C       -7.1780     4.0380     2.5200 C.3   1 <1>   0.0400 
 18 H       -2.0100     1.5100     2.2810 H     1 <1>   0.0800 
 19 H       -3.0590     2.9070     2.2070 H     1 <1>   0.0800 
 20 H       -4.0580     0.6960     1.4080 H     1 <1>   0.0800 
 21 H       -2.9400     0.7620     0.0650 H     1 <1>   0.0800 
 22 H       -4.8010     2.9490     0.7080 H     1 <1>   0.4500 
 23 H       -5.4410     0.8700    -1.2140 H     1 <1>   0.0800 
 24 H       -6.0510     0.9140     0.4260 H     1 <1>   0.0800 
 25 H       -3.3530     3.8870    -0.6990 H     1 <1>   0.0800 
 26 H       -3.0000     2.3970    -1.5140 H     1 <1>   0.0800 
 27 H       -4.4020     4.2080    -2.7400 H     1 <1>   0.0800 
 28 H       -4.8800     2.5510    -2.8950 H     1 <1>   0.0800 
 29 H       -8.0560     3.9450     0.1870 H     1 <1>   0.0800 
 30 H       -6.8430     4.0090    -2.4190 H     1 <1>   0.0800 
 31 H       -6.0590     4.5640    -0.9790 H     1 <1>   0.0800 
 32 H       -8.4970     2.4730    -2.1030 H     1 <1>   0.0800 
 33 H       -7.4670     1.0750    -2.2960 H     1 <1>   0.0800 
 34 H       -8.2000     1.3150     1.5760 H     1 <1>   0.0800 
 35 H       -9.4970     2.3700     1.0390 H     1 <1>   0.0800 
 36 H       -8.3340     0.0860    -0.3240 H     1 <1>   0.0800 
 37 H       -9.7400     1.0060    -0.8080 H     1 <1>   0.0800 
 38 H       -6.4200     4.1430     3.2760 H     1 <1>   0.0800 
 39 H       -8.0440     3.5590     2.9430 H     1 <1>   0.0800 
 40 H       -7.4360     5.0090     2.1320 H     1 <1>   0.0800 
@<TRIPOS>BOND
  1   1   2  ar  
  2   2   3  ar  
  3   2   4  1   
  4   4   5  1   
  5   4  18  1   
  6   4  19  1   
  7   5   6  1   
  8   5  20  1   
  9   5  21  1   
 10   6   7  1   
 11   6   8  1   
 12   6  22  1   
 13   7   9  1   
 14   7  23  1   
 15   7  24  1   
 16   8  10  1   
 17   8  25  1   
 18   8  26  1   
 19   9  11  1   
 20   9  12  1   
 21   9  13  1   
 22  10  12  1   
 23  10  27  1   
 24  10  28  1   
 25  11  14  1   
 26  11  15  1   
 27  11  29  1   
 28  12  30  1   
 29  12  31  1   
 30  13  16  1   
 31  13  32  1   
 32  13  33  1   
 33  14  17  1   
 34  15  16  1   
 35  15  34  1   
 36  15  35  1   
 37  16  36  1   
 38  16  37  1   
 39  17  38  1   
 40  17  39  1   
 41  17  40  1   
@<TRIPOS>SUBSTRUCTURE
  1 ****   6 GROUP 4 **** **** 0

# MOE 2024.06 (io_trps.svl 2023.06)
