@<TRIPOS>MOLECULE
NONAME
39 40 1 0 0 
SMALL
USER_CHARGES


@<TRIPOS>ATOM
  1 F       -1.0180     0.7830    -1.8590 F     1 <1>  -0.1900 
  2 C       -1.5020     1.2740    -0.7410 C.ar  1 <1>   0.1900 
  3 C       -1.0020     2.4800    -0.2620 C.ar  1 <1>   0.1000 
  4 C       -2.4960     0.5840    -0.0780 C.ar  1 <1>   0.1600 
  5 N        0.0040     3.1910    -0.9170 N.pl3 1 <1>  -0.8690 
  6 C       -1.5810     2.9010     0.9270 C.ar  1 <1>  -0.1500 
  7 N       -3.0520     1.0000     1.0550 N.ar  1 <1>  -0.6200 
  8 C       -0.0890     4.6560    -1.1080 C.3   1 <1>   0.2090 
  9 C       -2.5750     2.1450     1.5260 C.ar  1 <1>   0.1600 
 10 C        0.8930     5.3500    -0.1460 C.3   1 <1>   0.3430 
 11 N        1.0700     6.8280    -0.3890 N.4   1 <1>  -0.9590 
 12 C        2.1180     7.4320     0.5160 C.3   1 <1>   0.4230 
 13 C       -0.2330     7.5540    -0.2530 C.3   1 <1>   0.3430 
 14 C        2.3100     8.9130     0.1390 C.3   1 <1>  -0.1600 
 15 C        3.4750     6.6810     0.4670 C.3   1 <1>   0.1200 
 16 C       -0.0690     9.0160    -0.6630 C.3   1 <1>  -0.1600 
 17 C        1.0010     9.7090     0.1810 C.3   1 <1>  -0.1600 
 18 O        4.3430     7.2280     1.4010 O.3   1 <1>  -0.6800 
 19 H       -2.8490    -0.3430    -0.4930 H     1 <1>   0.1500 
 20 H        0.3340     2.6940    -1.7620 H     1 <1>   0.4000 
 21 H       -1.2590     3.8080     1.3970 H     1 <1>   0.1500 
 22 H       -1.0990     4.9760    -0.9200 H     1 <1>   0.0800 
 23 H        0.1680     4.8860    -2.1280 H     1 <1>   0.0800 
 24 H       -3.0050     2.4960     2.4500 H     1 <1>   0.1500 
 25 H        1.8420     4.8530    -0.2610 H     1 <1>   0.0800 
 26 H        0.5560     5.1870     0.8640 H     1 <1>   0.0800 
 27 H        1.4030     6.9760    -1.3510 H     1 <1>   0.4500 
 28 H        1.7610     7.3820     1.5320 H     1 <1>   0.0800 
 29 H       -0.5720     7.5070     0.7700 H     1 <1>   0.0800 
 30 H       -0.9830     7.1010    -0.8790 H     1 <1>   0.0800 
 31 H        2.7480     8.9840    -0.8410 H     1 <1>   0.0800 
 32 H        3.0020     9.3680     0.8270 H     1 <1>   0.0800 
 33 H        3.9310     6.7760    -0.5040 H     1 <1>   0.0800 
 34 H        3.3640     5.6430     0.7220 H     1 <1>   0.0800 
 35 H       -1.0080     9.5260    -0.5330 H     1 <1>   0.0800 
 36 H        0.1870     9.0740    -1.7070 H     1 <1>   0.0800 
 37 H        1.1690    10.7090    -0.1860 H     1 <1>   0.0800 
 38 H        0.6630     9.7900     1.2020 H     1 <1>   0.0800 
 39 H        5.2250     6.7990     1.3790 H     1 <1>   0.4000 
@<TRIPOS>BOND
  1   1   2  1   
  2   2   3  ar  
  3   2   4  ar  
  4   3   5  1   
  5   3   6  ar  
  6   4   7  ar  
  7   4  19  1   
  8   5   8  1   
  9   5  20  1   
 10   6   9  ar  
 11   6  21  1   
 12   7   9  ar  
 13   8  10  1   
 14   8  22  1   
 15   8  23  1   
 16   9  24  1   
 17  10  11  1   
 18  10  25  1   
 19  10  26  1   
 20  11  12  1   
 21  11  13  1   
 22  11  27  1   
 23  12  14  1   
 24  12  15  1   
 25  12  28  1   
 26  13  16  1   
 27  13  29  1   
 28  13  30  1   
 29  14  17  1   
 30  14  31  1   
 31  14  32  1   
 32  15  18  1   
 33  15  33  1   
 34  15  34  1   
 35  16  17  1   
 36  16  35  1   
 37  16  36  1   
 38  17  37  1   
 39  17  38  1   
 40  18  39  1   
@<TRIPOS>SUBSTRUCTURE
  1 ****  10 GROUP 4 **** **** 0

# MOE 2024.06 (io_trps.svl 2023.06)
