@<TRIPOS>MOLECULE
NONAME
38 40 1 0 0 
SMALL
USER_CHARGES


@<TRIPOS>ATOM
  1 O        2.0880    -0.3080    -0.9050 O.2   1 <1>  -0.5700 
  2 C        1.9120    -0.7760     0.2050 C.2   1 <1>   0.7160 
  3 N        2.2690    -0.0490     1.3090 N.am  1 <1>  -0.4940 
  4 C        1.3220    -2.0860     0.3860 C.2   1 <1>   0.2030 
  5 C        2.7280     1.2660     1.4330 C.2   1 <1>   0.2500 
  6 N        1.0970    -2.6650     1.5280 N.2   1 <1>  -0.4100 
  7 C        0.8990    -2.9350    -0.6250 C.2   1 <1>  -0.1500 
  8 N        2.3890     1.9850     2.4560 N.2   1 <1>  -0.3380 
  9 N        3.5460     1.9410     0.5940 N.pl3 1 <1>   0.3340 
 10 O        0.5530    -3.8420     1.3390 O.3   1 <1>  -0.0190 
 11 C        0.4350    -3.9980     0.0370 C.2   1 <1>  -0.0400 
 12 N        2.9590     3.1800     2.3150 N.2   1 <1>  -0.3380 
 13 C        3.6460     3.1540     1.2110 C.2   1 <1>   0.3120 
 14 C        4.3020     1.6970    -0.5480 C.2   1 <1>  -0.1810 
 15 C       -0.1740    -5.2830    -0.4970 C.3   1 <1>   0.0200 
 16 N        4.4020     4.1910     0.7090 N.2   1 <1>  -0.5760 
 17 C        5.0600     2.7090    -1.0370 C.2   1 <1>  -0.1360 
 18 C       -1.6490    -5.4500    -0.0880 C.3   1 <1>  -0.0800 
 19 C        5.0710     3.9670    -0.3690 C.2   1 <1>   0.3750 
 20 C       -2.1900    -6.8000    -0.5760 C.3   1 <1>  -0.2400 
 21 C       -2.5240    -4.3140    -0.6370 C.3   1 <1>  -0.2400 
 22 C        5.9110     5.0800    -0.9530 C.3   1 <1>  -0.1790 
 23 H        1.9380    -0.4550     2.1870 H     1 <1>   0.3700 
 24 H        0.9520    -2.7370    -1.6800 H     1 <1>   0.1500 
 25 H        4.2500     0.7180    -0.9870 H     1 <1>   0.1500 
 26 H        0.4000    -6.1110    -0.1190 H     1 <1>   0.0800 
 27 H       -0.0960    -5.2920    -1.5700 H     1 <1>   0.0800 
 28 H        5.6620     2.5960    -1.9200 H     1 <1>   0.1500 
 29 H       -1.7080    -5.4330     0.9890 H     1 <1>   0.0800 
 30 H       -2.1560    -6.8580    -1.6500 H     1 <1>   0.0800 
 31 H       -3.2090    -6.9290    -0.2580 H     1 <1>   0.0800 
 32 H       -1.6070    -7.6070    -0.1680 H     1 <1>   0.0800 
 33 H       -2.4740    -4.2780    -1.7110 H     1 <1>   0.0800 
 34 H       -2.2040    -3.3640    -0.2450 H     1 <1>   0.0800 
 35 H       -3.5500    -4.4610    -0.3480 H     1 <1>   0.0800 
 36 H        5.5800     5.3050    -1.9500 H     1 <1>   0.0800 
 37 H        6.9440     4.7860    -0.9780 H     1 <1>   0.0800 
 38 H        5.8210     5.9680    -0.3530 H     1 <1>   0.0800 
@<TRIPOS>BOND
  1   1   2  2   
  2   2   3  am  
  3   2   4  1   
  4   3   5  1   
  5   3  23  1   
  6   4   6  2   
  7   4   7  1   
  8   5   8  2   
  9   5   9  1   
 10   6  10  1   
 11   7  11  2   
 12   7  24  1   
 13   8  12  1   
 14   9  13  1   
 15   9  14  1   
 16  10  11  1   
 17  11  15  1   
 18  12  13  2   
 19  13  16  1   
 20  14  17  2   
 21  14  25  1   
 22  15  18  1   
 23  15  26  1   
 24  15  27  1   
 25  16  19  2   
 26  17  19  1   
 27  17  28  1   
 28  18  20  1   
 29  18  21  1   
 30  18  29  1   
 31  19  22  1   
 32  20  30  1   
 33  20  31  1   
 34  20  32  1   
 35  21  33  1   
 36  21  34  1   
 37  21  35  1   
 38  22  36  1   
 39  22  37  1   
 40  22  38  1   
@<TRIPOS>SUBSTRUCTURE
  1 ****   2 GROUP 4 **** **** 0

# MOE 2024.06 (io_trps.svl 2023.06)
