@<TRIPOS>MOLECULE
NONAME
45 47 1 0 0 
SMALL
USER_CHARGES


@<TRIPOS>ATOM
  1 O       -1.2540    -0.6540    -0.5690 O.3   1 <1>  -0.3630 
  2 C       -1.9870     0.3780    -0.0680 C.ar  1 <1>   0.0830 
  3 C        0.0000    -0.4250    -1.1830 C.3   1 <1>   0.0400 
  4 C       -3.0840     0.0630     0.7280 C.ar  1 <1>  -0.1440 
  5 C       -1.6880     1.7140    -0.3270 C.ar  1 <1>  -0.1500 
  6 C       -3.8710     1.0760     1.2550 C.ar  1 <1>  -0.1500 
  7 C       -3.4250    -1.3840     1.0210 C.3   1 <1>   0.4870 
  8 C       -2.4780     2.7180     0.2030 C.ar  1 <1>  -0.1500 
  9 C       -3.5680     2.4000     0.9930 C.ar  1 <1>  -0.1500 
 10 N       -3.7210    -2.0650    -0.2640 N.4   1 <1>  -0.9590 
 11 C       -4.9840    -1.5370    -0.8670 C.3   1 <1>   0.3430 
 12 C       -3.8940    -3.5350    -0.0770 C.3   1 <1>   0.3430 
 13 C       -6.0640    -2.5600    -0.5040 C.3   1 <1>   0.2000 
 14 C       -5.2970    -3.8800    -0.5900 C.3   1 <1>  -0.0800 
 15 O       -6.4630    -2.3290     0.8110 O.3   1 <1>  -0.6800 
 16 C       -5.9240    -5.0850     0.1390 C.3   1 <1>  -0.0170 
 17 C       -4.9920    -6.2830     0.0640 C.ar  1 <1>  -0.1430 
 18 C       -4.2770    -6.7220     1.1620 C.ar  1 <1>  -0.1500 
 19 C       -4.8080    -6.9920    -1.1060 C.ar  1 <1>  -0.1500 
 20 C       -3.4230    -7.8050     1.0340 C.ar  1 <1>   0.1600 
 21 C       -3.9290    -8.0610    -1.1280 C.ar  1 <1>   0.1600 
 22 N       -3.2260    -8.4760    -0.0880 N.ar  1 <1>  -0.6200 
 23 H        0.4450    -1.3770    -1.4100 H     1 <1>   0.0800 
 24 H        0.6320     0.1170    -0.5010 H     1 <1>   0.0800 
 25 H       -0.1490     0.1320    -2.0920 H     1 <1>   0.0800 
 26 H       -0.8500     1.9960    -0.9380 H     1 <1>   0.1500 
 27 H       -4.7220     0.8500     1.8760 H     1 <1>   0.1500 
 28 H       -4.2770    -1.4430     1.6790 H     1 <1>   0.0800 
 29 H       -2.5800    -1.8510     1.5000 H     1 <1>   0.0800 
 30 H       -2.2440     3.7500     0.0020 H     1 <1>   0.1500 
 31 H       -4.1780     3.1870     1.4050 H     1 <1>   0.1500 
 32 H       -2.9100    -1.8360    -0.8650 H     1 <1>   0.4500 
 33 H       -5.2360    -0.5540    -0.5040 H     1 <1>   0.0800 
 34 H       -4.8790    -1.5000    -1.9380 H     1 <1>   0.0800 
 35 H       -3.1440    -4.0920    -0.6160 H     1 <1>   0.0800 
 36 H       -3.8270    -3.7820     0.9690 H     1 <1>   0.0800 
 37 H       -6.9230    -2.5030    -1.1510 H     1 <1>   0.0800 
 38 H       -5.1980    -4.1370    -1.6300 H     1 <1>   0.0800 
 39 H       -7.3200    -2.7670     1.0020 H     1 <1>   0.4000 
 40 H       -6.8670    -5.3380    -0.3150 H     1 <1>   0.0800 
 41 H       -6.1110    -4.8510     1.1730 H     1 <1>   0.0800 
 42 H       -4.3730    -6.2420     2.1190 H     1 <1>   0.1500 
 43 H       -5.3390    -6.7310    -2.0040 H     1 <1>   0.1500 
 44 H       -2.8740    -8.1380     1.8980 H     1 <1>   0.1500 
 45 H       -3.7960    -8.6050    -2.0490 H     1 <1>   0.1500 
@<TRIPOS>BOND
  1   1   2  1   
  2   1   3  1   
  3   2   4  ar  
  4   2   5  ar  
  5   3  23  1   
  6   3  24  1   
  7   3  25  1   
  8   4   6  ar  
  9   4   7  1   
 10   5   8  ar  
 11   5  26  1   
 12   6   9  ar  
 13   6  27  1   
 14   7  10  1   
 15   7  28  1   
 16   7  29  1   
 17   8   9  ar  
 18   8  30  1   
 19   9  31  1   
 20  10  11  1   
 21  10  12  1   
 22  10  32  1   
 23  11  13  1   
 24  11  33  1   
 25  11  34  1   
 26  12  14  1   
 27  12  35  1   
 28  12  36  1   
 29  13  14  1   
 30  13  15  1   
 31  13  37  1   
 32  14  16  1   
 33  14  38  1   
 34  15  39  1   
 35  16  17  1   
 36  16  40  1   
 37  16  41  1   
 38  17  18  ar  
 39  17  19  ar  
 40  18  20  ar  
 41  18  42  1   
 42  19  21  ar  
 43  19  43  1   
 44  20  22  ar  
 45  20  44  1   
 46  21  22  ar  
 47  21  45  1   
@<TRIPOS>SUBSTRUCTURE
  1 ****  10 GROUP 4 **** **** 0

# MOE 2024.06 (io_trps.svl 2023.06)
