@<TRIPOS>MOLECULE
NONAME
44 46 1 0 0 
SMALL
USER_CHARGES


@<TRIPOS>ATOM
  1 F        1.4120    -2.8690    -1.5040 F     1 <1>  -0.1900 
  2 C        0.8190    -3.6330    -0.6210 C.ar  1 <1>   0.1900 
  3 C        1.1580    -4.9820    -0.4730 C.ar  1 <1>   0.0820 
  4 C       -0.1710    -3.0420     0.1420 C.ar  1 <1>  -0.1500 
  5 O        2.0950    -5.6750    -1.1760 O.3   1 <1>  -0.3630 
  6 C        0.4680    -5.7170     0.4780 C.ar  1 <1>  -0.1500 
  7 C       -0.8580    -3.8040     1.0730 C.ar  1 <1>  -0.1500 
  8 C        3.1220    -5.0300    -1.9000 C.3   1 <1>   0.0400 
  9 C       -0.5450    -5.1470     1.2370 C.ar  1 <1>  -0.1430 
 10 C       -1.3110    -6.0150     2.2150 C.3   1 <1>   0.4870 
 11 N       -2.1710    -6.9070     1.4040 N.4   1 <1>  -0.9590 
 12 C       -3.3450    -6.2500     0.7580 C.3   1 <1>   0.3430 
 13 C       -2.6630    -8.1470     2.0420 C.3   1 <1>   0.3430 
 14 C       -4.3770    -7.3670     0.5380 C.3   1 <1>   0.2000 
 15 C       -3.7480    -8.6560     1.0890 C.3   1 <1>  -0.0800 
 16 O       -5.5280    -7.0800     1.2620 O.3   1 <1>  -0.6800 
 17 C       -3.1960    -9.5840    -0.0260 C.3   1 <1>  -0.0170 
 18 C       -1.8630    -9.1690    -0.6500 C.ar  1 <1>   0.1670 
 19 N       -1.8280    -7.9980    -1.2700 N.ar  1 <1>  -0.6200 
 20 C       -0.7550   -10.0080    -0.5430 C.ar  1 <1>   0.1600 
 21 C       -0.6400    -7.7440    -1.8050 C.ar  1 <1>   0.1600 
 22 N        0.4410    -9.7290    -1.0280 N.ar  1 <1>  -0.6200 
 23 C        0.4610    -8.5800    -1.6800 C.ar  1 <1>   0.1600 
 24 H       -0.3990    -2.0000     0.0020 H     1 <1>   0.1500 
 25 H        0.7420    -6.7510     0.6080 H     1 <1>   0.1500 
 26 H       -1.6320    -3.3360     1.6600 H     1 <1>   0.1500 
 27 H        3.8390    -5.7720    -2.2000 H     1 <1>   0.0800 
 28 H        3.5960    -4.3010    -1.2660 H     1 <1>   0.0800 
 29 H        2.6980    -4.5620    -2.7720 H     1 <1>   0.0800 
 30 H       -1.9060    -5.4120     2.8810 H     1 <1>   0.0800 
 31 H       -0.6130    -6.5960     2.7960 H     1 <1>   0.0800 
 32 H       -1.6010    -7.2060     0.5880 H     1 <1>   0.4500 
 33 H       -3.7630    -5.4850     1.3920 H     1 <1>   0.0800 
 34 H       -3.0530    -5.8180    -0.1860 H     1 <1>   0.0800 
 35 H       -1.8720    -8.8700     2.1710 H     1 <1>   0.0800 
 36 H       -3.0990    -7.9170     3.0000 H     1 <1>   0.0800 
 37 H       -4.6550    -7.4430    -0.5010 H     1 <1>   0.0800 
 38 H       -4.4820    -9.2230     1.6370 H     1 <1>   0.0800 
 39 H       -5.4090    -7.1490     2.2290 H     1 <1>   0.4000 
 40 H       -3.9270    -9.6690    -0.8130 H     1 <1>   0.0800 
 41 H       -3.0850   -10.5710     0.3870 H     1 <1>   0.0800 
 42 H       -0.8530   -10.9500    -0.0320 H     1 <1>   0.1500 
 43 H       -0.5230    -6.8280    -2.3600 H     1 <1>   0.1500 
 44 H        1.3930    -8.2830    -2.1340 H     1 <1>   0.1500 
@<TRIPOS>BOND
  1   1   2  1   
  2   2   3  ar  
  3   2   4  ar  
  4   3   5  1   
  5   3   6  ar  
  6   4   7  ar  
  7   4  24  1   
  8   5   8  1   
  9   6   9  ar  
 10   6  25  1   
 11   7   9  ar  
 12   7  26  1   
 13   8  27  1   
 14   8  28  1   
 15   8  29  1   
 16   9  10  1   
 17  10  11  1   
 18  10  30  1   
 19  10  31  1   
 20  11  12  1   
 21  11  13  1   
 22  11  32  1   
 23  12  14  1   
 24  12  33  1   
 25  12  34  1   
 26  13  15  1   
 27  13  35  1   
 28  13  36  1   
 29  14  15  1   
 30  14  16  1   
 31  14  37  1   
 32  15  17  1   
 33  15  38  1   
 34  16  39  1   
 35  17  18  1   
 36  17  40  1   
 37  17  41  1   
 38  18  19  ar  
 39  18  20  ar  
 40  19  21  ar  
 41  20  22  ar  
 42  20  42  1   
 43  21  23  ar  
 44  21  43  1   
 45  22  23  ar  
 46  23  44  1   
@<TRIPOS>SUBSTRUCTURE
  1 ****   6 GROUP 4 **** **** 0

# MOE 2024.06 (io_trps.svl 2023.06)
