@<TRIPOS>MOLECULE
NONAME
42 43 1 0 0 
SMALL
USER_CHARGES


@<TRIPOS>ATOM
  1 CL       0.5430     0.5590    -0.1580 Cl    1 <1>  -0.1770 
  2 C       -1.0490     1.2690    -0.2970 C.ar  1 <1>   0.1770 
  3 C       -1.3750     2.4210     0.4090 C.ar  1 <1>  -0.1440 
  4 C       -1.9620     0.6460    -1.1260 C.ar  1 <1>  -0.1500 
  5 C       -2.6520     2.9530     0.2710 C.ar  1 <1>  -0.1500 
  6 C       -0.3680     3.1050     1.3150 C.3   1 <1>   0.3390 
  7 C       -3.2240     1.1930    -1.2460 C.ar  1 <1>   0.1770 
  8 C       -3.5790     2.3390    -0.5570 C.ar  1 <1>  -0.1500 
  9 N        0.3730     4.0560     0.5240 N.am  1 <1>  -0.9140 
 10 CL      -4.3940     0.4240    -2.2860 Cl    1 <1>  -0.1770 
 11 S        1.2470     5.0730     1.4980 S.o2  1 <1>   1.5760 
 12 O        0.2710     5.9550     2.0880 O.2   1 <1>  -0.6500 
 13 O        2.1510     4.2900     2.3060 O.2   1 <1>  -0.6500 
 14 N        2.1010     5.8960     0.3070 N.am  1 <1>  -0.8490 
 15 C        2.6920     7.1220     0.8480 C.3   1 <1>   0.1960 
 16 C        3.1260     5.0430    -0.3050 C.3   1 <1>   0.1960 
 17 C        3.3650     7.9480    -0.2600 C.3   1 <1>  -0.0800 
 18 C        3.8030     5.7800    -1.4640 C.3   1 <1>  -0.1600 
 19 C        4.4200     7.1050    -0.9980 C.3   1 <1>  -0.1600 
 20 C        3.9690     9.2240     0.3410 C.3   1 <1>   0.1200 
 21 O        4.5350     9.9850    -0.6770 O.3   1 <1>  -0.5600 
 22 C        5.1090    11.1750    -0.2430 C.3   1 <1>   0.0400 
 23 H       -1.6960    -0.2440    -1.6660 H     1 <1>   0.1500 
 24 H       -2.9330     3.8460     0.8050 H     1 <1>   0.1500 
 25 H        0.3080     2.3890     1.7530 H     1 <1>   0.0800 
 26 H       -0.8890     3.6050     2.1150 H     1 <1>   0.0800 
 27 H       -4.5700     2.7420    -0.6710 H     1 <1>   0.1500 
 28 H       -0.2960     4.6870     0.0970 H     1 <1>   0.4200 
 29 H        3.4130     6.8710     1.6100 H     1 <1>   0.0800 
 30 H        1.9180     7.7210     1.3010 H     1 <1>   0.0800 
 31 H        2.6730     4.1410    -0.6830 H     1 <1>   0.0800 
 32 H        3.8630     4.7630     0.4310 H     1 <1>   0.0800 
 33 H        2.5990     8.2430    -0.9560 H     1 <1>   0.0800 
 34 H        3.0710     5.9690    -2.2290 H     1 <1>   0.0800 
 35 H        4.5680     5.1540    -1.8870 H     1 <1>   0.0800 
 36 H        5.2480     6.9030    -0.3410 H     1 <1>   0.0800 
 37 H        4.7950     7.6480    -1.8490 H     1 <1>   0.0800 
 38 H        4.7390     8.9800     1.0540 H     1 <1>   0.0800 
 39 H        3.2030     9.8120     0.8190 H     1 <1>   0.0800 
 40 H        5.5140    11.6830    -1.1000 H     1 <1>   0.0800 
 41 H        5.8990    10.9550     0.4550 H     1 <1>   0.0800 
 42 H        4.3530    11.7880     0.2180 H     1 <1>   0.0800 
@<TRIPOS>BOND
  1   1   2  1   
  2   2   3  ar  
  3   2   4  ar  
  4   3   5  ar  
  5   3   6  1   
  6   4   7  ar  
  7   4  23  1   
  8   5   8  ar  
  9   5  24  1   
 10   6   9  1   
 11   6  25  1   
 12   6  26  1   
 13   7   8  ar  
 14   7  10  1   
 15   8  27  1   
 16   9  11  am  
 17   9  28  1   
 18  11  12  2   
 19  11  13  2   
 20  11  14  am  
 21  14  15  1   
 22  14  16  1   
 23  15  17  1   
 24  15  29  1   
 25  15  30  1   
 26  16  18  1   
 27  16  31  1   
 28  16  32  1   
 29  17  19  1   
 30  17  20  1   
 31  17  33  1   
 32  18  19  1   
 33  18  34  1   
 34  18  35  1   
 35  19  36  1   
 36  19  37  1   
 37  20  21  1   
 38  20  38  1   
 39  20  39  1   
 40  21  22  1   
 41  22  40  1   
 42  22  41  1   
 43  22  42  1   
@<TRIPOS>SUBSTRUCTURE
  1 ****   9 GROUP 4 **** **** 0

# MOE 2024.06 (io_trps.svl 2023.06)
