@<TRIPOS>MOLECULE
NONAME
51 53 1 0 0 
SMALL
USER_CHARGES


@<TRIPOS>ATOM
  1 O        0.3690    -0.6600     0.6480 O.2   1 <1>  -0.5700 
  2 C        0.9700    -1.6450     0.2950 C.2   1 <1>   0.5690 
  3 N        2.1950    -1.6840    -0.2940 N.am  1 <1>  -0.4770 
  4 C        0.4040    -3.0280     0.4660 C.3   1 <1>  -0.0990 
  5 C        3.0310    -0.5930    -0.6110 C.ar  1 <1>   0.1170 
  6 C        2.5480    -3.0650    -0.6750 C.3   1 <1>   0.1400 
  7 C        1.6060    -3.9400     0.1680 C.3   1 <1>  -0.0190 
  8 C        4.3600    -0.5080    -0.1700 C.ar  1 <1>   0.0830 
  9 C        2.5180     0.4390    -1.3880 C.ar  1 <1>  -0.1500 
 10 C        1.2340    -5.2720    -0.4860 C.2   1 <1>   0.5690 
 11 O        4.8450    -1.5060     0.6280 O.3   1 <1>  -0.3630 
 12 C        5.1420     0.5840    -0.5390 C.ar  1 <1>  -0.1500 
 13 C        3.2980     1.5230    -1.7450 C.ar  1 <1>  -0.1500 
 14 O        1.5160    -5.4220    -1.6510 O.2   1 <1>  -0.5700 
 15 N        0.6020    -6.2690     0.2190 N.am  1 <1>  -0.6600 
 16 C        6.0340    -1.3390     1.3680 C.3   1 <1>   0.0400 
 17 C        4.6130     1.5940    -1.3230 C.ar  1 <1>  -0.1500 
 18 C        0.2620    -7.5510    -0.4640 C.3   1 <1>   0.3200 
 19 C        0.2550    -6.2130     1.6750 C.3   1 <1>   0.1400 
 20 C       -1.2080    -7.5680    -0.8330 C.2   1 <1>  -0.3320 
 21 C       -1.2190    -5.8530     1.9030 C.3   1 <1>   0.1200 
 22 N       -1.9700    -8.6780    -0.8580 N.pl3 1 <1>   0.0330 
 23 C       -2.0170    -6.5510    -1.2020 C.2   1 <1>   0.0770 
 24 O       -1.4080    -5.5750     3.2490 O.3   1 <1>  -0.6800 
 25 C       -3.2000    -8.2580    -1.2230 C.2   1 <1>   0.0060 
 26 N       -3.2690    -6.9860    -1.4330 N.2   1 <1>  -0.5650 
 27 C       -4.3790    -9.1950    -1.3720 C.3   1 <1>  -0.0600 
 28 H       -0.3850    -3.1690    -0.2510 H     1 <1>   0.0800 
 29 H        0.0310    -3.1580     1.4640 H     1 <1>   0.0800 
 30 H        3.5790    -3.2880    -0.4670 H     1 <1>   0.0800 
 31 H        2.3660    -3.1770    -1.7300 H     1 <1>   0.0800 
 32 H        2.1310    -4.1380     1.0830 H     1 <1>   0.0800 
 33 H        1.4940     0.3880    -1.7120 H     1 <1>   0.1500 
 34 H        6.1650     0.6690    -0.2280 H     1 <1>   0.1500 
 35 H        2.8800     2.3100    -2.3480 H     1 <1>   0.1500 
 36 H        6.1450    -2.1880     2.0180 H     1 <1>   0.0800 
 37 H        5.9570    -0.4390     1.9530 H     1 <1>   0.0800 
 38 H        6.8660    -1.2890     0.6880 H     1 <1>   0.0800 
 39 H        5.2220     2.4360    -1.6030 H     1 <1>   0.1500 
 40 H        0.4880    -8.3710     0.1960 H     1 <1>   0.0800 
 41 H        0.8540    -7.6820    -1.3540 H     1 <1>   0.0800 
 42 H        0.8660    -5.4830     2.1730 H     1 <1>   0.0800 
 43 H        0.4600    -7.1680     2.1260 H     1 <1>   0.0800 
 44 H       -1.8750    -6.6590     1.6260 H     1 <1>   0.0800 
 45 H       -1.4850    -4.9700     1.3490 H     1 <1>   0.0800 
 46 H       -1.6950    -9.6440    -0.6580 H     1 <1>   0.2700 
 47 H       -1.7570    -5.5110    -1.3160 H     1 <1>   0.1500 
 48 H       -1.5200    -6.3960     3.7670 H     1 <1>   0.4000 
 49 H       -4.5850    -9.6830    -0.4380 H     1 <1>   0.0800 
 50 H       -4.1710    -9.9330    -2.1250 H     1 <1>   0.0800 
 51 H       -5.2490    -8.6370    -1.6690 H     1 <1>   0.0800 
@<TRIPOS>BOND
  1   1   2  2   
  2   2   3  am  
  3   2   4  1   
  4   3   5  1   
  5   3   6  1   
  6   4   7  1   
  7   4  28  1   
  8   4  29  1   
  9   5   8  ar  
 10   5   9  ar  
 11   6   7  1   
 12   6  30  1   
 13   6  31  1   
 14   7  10  1   
 15   7  32  1   
 16   8  11  1   
 17   8  12  ar  
 18   9  13  ar  
 19   9  33  1   
 20  10  14  2   
 21  10  15  am  
 22  11  16  1   
 23  12  17  ar  
 24  12  34  1   
 25  13  17  ar  
 26  13  35  1   
 27  15  18  1   
 28  15  19  1   
 29  16  36  1   
 30  16  37  1   
 31  16  38  1   
 32  17  39  1   
 33  18  20  1   
 34  18  40  1   
 35  18  41  1   
 36  19  21  1   
 37  19  42  1   
 38  19  43  1   
 39  20  22  1   
 40  20  23  2   
 41  21  24  1   
 42  21  44  1   
 43  21  45  1   
 44  22  25  1   
 45  22  46  1   
 46  23  26  1   
 47  23  47  1   
 48  24  48  1   
 49  25  26  2   
 50  25  27  1   
 51  27  49  1   
 52  27  50  1   
 53  27  51  1   
@<TRIPOS>SUBSTRUCTURE
  1 ****   7 GROUP 4 **** **** 0

# MOE 2024.06 (io_trps.svl 2023.06)
