@<TRIPOS>MOLECULE
NONAME
56 59 1 0 0 
SMALL
USER_CHARGES


@<TRIPOS>ATOM
  1 O        0.8120     0.2900    -0.5960 O.2   1 <1>  -0.5700 
  2 C        1.2400     1.3680    -0.2410 C.2   1 <1>   0.6900 
  3 N        0.5050     2.2860     0.4530 N.am  1 <1>  -0.4200 
  4 N        2.5050     1.8130    -0.4830 N.am  1 <1>  -0.6600 
  5 C        1.2650     3.3890     0.7000 C.2   1 <1>   0.5690 
  6 C       -0.9040     2.0880     0.8600 C.3   1 <1>   0.0600 
  7 C        2.6710     3.1720     0.1040 C.3   1 <1>   0.3610 
  8 C        3.5620     1.0650    -1.2160 C.3   1 <1>   0.0600 
  9 O        0.8900     4.3770     1.2890 O.2   1 <1>  -0.5700 
 10 C        2.9960     4.1880    -1.0030 C.3   1 <1>  -0.1600 
 11 C        3.7640     3.1450     1.1850 C.3   1 <1>  -0.1600 
 12 C        3.2740     5.5750    -0.4230 C.3   1 <1>   0.2090 
 13 C        4.0360     4.5460     1.7320 C.3   1 <1>   0.2090 
 14 N        4.3450     5.4610     0.6000 N.pl3 1 <1>  -0.8380 
 15 C        5.6070     5.8970     0.3750 C.ar  1 <1>   0.4100 
 16 N        6.5390     4.9670     0.3210 N.ar  1 <1>  -0.6200 
 17 C        5.9040     7.2720     0.2070 C.ar  1 <1>  -0.1430 
 18 C        7.7810     5.3370     0.0610 C.ar  1 <1>   0.7710 
 19 C        7.1880     7.6180    -0.0730 C.ar  1 <1>   0.2180 
 20 C        4.8120     8.3330     0.3640 C.3   1 <1>  -0.0160 
 21 N        8.1020     6.6230    -0.1470 N.ar  1 <1>  -0.1790 
 22 N        8.7630     4.3930    -0.0030 N.pl3 1 <1>  -0.8380 
 23 C        7.6610     9.0540    -0.2830 C.3   1 <1>  -0.0170 
 24 C        5.3870     9.7400     0.5730 C.3   1 <1>  -0.1600 
 25 C        8.4350     2.9300     0.0760 C.3   1 <1>   0.1290 
 26 C       10.2400     4.6310    -0.0790 C.3   1 <1>   0.1290 
 27 C        6.4910    10.0340    -0.4480 C.3   1 <1>  -0.1600 
 28 H       -0.9740     1.2250     1.4990 H     1 <1>   0.0800 
 29 H       -1.5100     1.9280    -0.0140 H     1 <1>   0.0800 
 30 H       -1.2630     2.9530     1.3900 H     1 <1>   0.0800 
 31 H        3.1810     0.1090    -1.5320 H     1 <1>   0.0800 
 32 H        4.4110     0.9010    -0.5770 H     1 <1>   0.0800 
 33 H        3.8690     1.6160    -2.0880 H     1 <1>   0.0800 
 34 H        2.1760     4.2500    -1.6950 H     1 <1>   0.0800 
 35 H        3.8730     3.8770    -1.5390 H     1 <1>   0.0800 
 36 H        4.6820     2.7720     0.7720 H     1 <1>   0.0800 
 37 H        3.4660     2.5010     1.9920 H     1 <1>   0.0800 
 38 H        2.3880     5.9900     0.0280 H     1 <1>   0.0800 
 39 H        3.5870     6.2310    -1.2170 H     1 <1>   0.0800 
 40 H        4.8670     4.5140     2.4160 H     1 <1>   0.0800 
 41 H        3.1800     4.9200     2.2690 H     1 <1>   0.0800 
 42 H        4.1800     8.0890     1.2020 H     1 <1>   0.0800 
 43 H        4.1970     8.3370    -0.5190 H     1 <1>   0.0800 
 44 H        9.0730     6.7940    -0.3680 H     1 <1>   0.4570 
 45 H        8.2880     9.1180    -1.1560 H     1 <1>   0.0800 
 46 H        8.2440     9.3520     0.5710 H     1 <1>   0.0800 
 47 H        5.7850     9.8210     1.5710 H     1 <1>   0.0800 
 48 H        4.5970    10.4660     0.4780 H     1 <1>   0.0800 
 49 H        7.4250     2.7340    -0.2440 H     1 <1>   0.0800 
 50 H        8.5480     2.5850     1.0890 H     1 <1>   0.0800 
 51 H        9.0940     2.3650    -0.5610 H     1 <1>   0.0800 
 52 H       10.5030     5.6300     0.2180 H     1 <1>   0.0800 
 53 H       10.5880     4.4530    -1.0830 H     1 <1>   0.0800 
 54 H       10.7510     3.9500     0.5820 H     1 <1>   0.0800 
 55 H        6.0830     9.9480    -1.4420 H     1 <1>   0.0800 
 56 H        6.8430    11.0450    -0.3250 H     1 <1>   0.0800 
@<TRIPOS>BOND
  1   1   2  2   
  2   2   3  am  
  3   2   4  am  
  4   3   5  am  
  5   3   6  1   
  6   4   7  1   
  7   4   8  1   
  8   5   7  1   
  9   5   9  2   
 10   6  28  1   
 11   6  29  1   
 12   6  30  1   
 13   7  10  1   
 14   7  11  1   
 15   8  31  1   
 16   8  32  1   
 17   8  33  1   
 18  10  12  1   
 19  10  34  1   
 20  10  35  1   
 21  11  13  1   
 22  11  36  1   
 23  11  37  1   
 24  12  14  1   
 25  12  38  1   
 26  12  39  1   
 27  13  14  1   
 28  13  40  1   
 29  13  41  1   
 30  14  15  1   
 31  15  16  ar  
 32  15  17  ar  
 33  16  18  ar  
 34  17  19  ar  
 35  17  20  1   
 36  18  21  ar  
 37  18  22  1   
 38  19  21  ar  
 39  19  23  1   
 40  20  24  1   
 41  20  42  1   
 42  20  43  1   
 43  21  44  1   
 44  22  25  1   
 45  22  26  1   
 46  23  27  1   
 47  23  45  1   
 48  23  46  1   
 49  24  27  1   
 50  24  47  1   
 51  24  48  1   
 52  25  49  1   
 53  25  50  1   
 54  25  51  1   
 55  26  52  1   
 56  26  53  1   
 57  26  54  1   
 58  27  55  1   
 59  27  56  1   
@<TRIPOS>SUBSTRUCTURE
  1 ****  14 GROUP 4 **** **** 0

# MOE 2024.06 (io_trps.svl 2023.06)
