@<TRIPOS>MOLECULE
NONAME
24 25 1 0 0 
SMALL
USER_CHARGES


@<TRIPOS>ATOM
  1 O       -0.2470    -1.0220    -1.3870 O.co2 1 <1>  -0.9000 
  2 C       -1.3070    -1.2560    -0.7940 C.2   1 <1>   0.8710 
  3 O       -2.3590    -0.6800    -1.0930 O.co2 1 <1>  -0.9000 
  4 C       -1.3250    -2.2690     0.3490 C.3   1 <1>  -0.0710 
  5 C       -0.2760    -3.4160     0.2560 C.3   1 <1>   0.0000 
  6 C       -2.4060    -3.3770     0.1930 C.3   1 <1>   0.0000 
  7 C       -1.3330    -4.2220    -0.5510 C.3   1 <1>   0.1080 
  8 C       -1.3650    -5.7260    -0.2770 C.ar  1 <1>  -0.1080 
  9 C       -0.1840    -6.4410    -0.1440 C.ar  1 <1>  -0.1500 
 10 C       -2.5730    -6.4000    -0.1770 C.ar  1 <1>  -0.1500 
 11 C       -0.2080    -7.8040     0.0980 C.ar  1 <1>  -0.1500 
 12 C       -2.6020    -7.7630     0.0660 C.ar  1 <1>  -0.1500 
 13 C       -1.4190    -8.4660     0.2060 C.ar  1 <1>  -0.1500 
 14 H       -1.3470    -1.8020     1.3180 H     1 <1>   0.0000 
 15 H       -0.0660    -3.8490     1.2200 H     1 <1>   0.0000 
 16 H        0.6140    -3.1850    -0.3010 H     1 <1>   0.0000 
 17 H       -3.2470    -3.1080    -0.4210 H     1 <1>   0.0000 
 18 H       -2.6930    -3.8000     1.1410 H     1 <1>   0.0000 
 19 H       -1.2970    -3.9940    -1.6030 H     1 <1>   0.0000 
 20 H        0.7620    -5.9360    -0.2330 H     1 <1>   0.1500 
 21 H       -3.4990    -5.8630    -0.2900 H     1 <1>   0.1500 
 22 H        0.7140    -8.3470     0.2020 H     1 <1>   0.1500 
 23 H       -3.5450    -8.2740     0.1450 H     1 <1>   0.1500 
 24 H       -1.4390    -9.5250     0.3950 H     1 <1>   0.1500 
@<TRIPOS>BOND
  1   1   2  ar  
  2   2   3  ar  
  3   2   4  1   
  4   4   5  1   
  5   4   6  1   
  6   4  14  1   
  7   5   7  1   
  8   5  15  1   
  9   5  16  1   
 10   6   7  1   
 11   6  17  1   
 12   6  18  1   
 13   7   8  1   
 14   7  19  1   
 15   8   9  ar  
 16   8  10  ar  
 17   9  11  ar  
 18   9  20  1   
 19  10  12  ar  
 20  10  21  1   
 21  11  13  ar  
 22  11  22  1   
 23  12  13  ar  
 24  12  23  1   
 25  13  24  1   
@<TRIPOS>SUBSTRUCTURE
  1 ****   7 GROUP 4 **** **** 0

# MOE 2024.06 (io_trps.svl 2023.06)
