@<TRIPOS>MOLECULE
NONAME
41 43 1 0 0 
SMALL
USER_CHARGES


@<TRIPOS>ATOM
  1 O        0.0460     0.0260     1.1320 O.2   1 <1>  -0.5700 
  2 C       -1.0850     0.3530     0.8370 C.2   1 <1>   0.5440 
  3 N       -2.1040    -0.5100     1.1250 N.am  1 <1>  -0.6600 
  4 C       -1.3480     1.6350     0.2290 C.ar  1 <1>   0.0860 
  5 C       -2.0360    -1.8780     0.5530 C.3   1 <1>   0.3200 
  6 C       -2.8230    -0.3900     2.4300 C.3   1 <1>   0.1400 
  7 C       -2.4870     1.8950    -0.5090 C.ar  1 <1>   0.1600 
  8 C       -0.4750     2.6980     0.3530 C.ar  1 <1>   0.1600 
  9 C       -3.0800    -1.9980    -0.5360 C.2   1 <1>  -0.3320 
 10 C       -3.8180     0.7830     2.4690 C.3   1 <1>   0.1200 
 11 N       -2.7570     3.0730    -1.0310 N.ar  1 <1>  -0.6200 
 12 N       -0.7080     3.8880    -0.1600 N.ar  1 <1>  -0.6200 
 13 N       -4.3060    -1.4510    -0.4540 N.pl3 1 <1>   0.0330 
 14 C       -3.0240    -2.6170    -1.7350 C.2   1 <1>   0.0770 
 15 O       -4.7960     0.6370     1.4880 O.3   1 <1>  -0.6800 
 16 C       -1.8450     4.0110    -0.8260 C.ar  1 <1>   0.5880 
 17 C       -4.9190    -1.7720    -1.6130 C.2   1 <1>   0.0060 
 18 N       -4.1820    -2.4770    -2.4070 N.2   1 <1>  -0.5650 
 19 C       -2.1330     5.3800    -1.4290 C.3   1 <1>  -0.0680 
 20 C       -6.3280    -1.3290    -1.9380 C.3   1 <1>  -0.0600 
 21 C       -2.1250     6.6210    -0.5820 C.3   1 <1>  -0.2000 
 22 C       -3.4160     6.1060    -1.1360 C.3   1 <1>  -0.2000 
 23 H       -2.2140    -2.6130     1.3180 H     1 <1>   0.0800 
 24 H       -1.0590    -2.0610     0.1370 H     1 <1>   0.0800 
 25 H       -2.0930    -0.2530     3.2110 H     1 <1>   0.0800 
 26 H       -3.3580    -1.2980     2.6460 H     1 <1>   0.0800 
 27 H       -3.1990     1.1030    -0.6700 H     1 <1>   0.1500 
 28 H        0.4440     2.5560     0.8990 H     1 <1>   0.1500 
 29 H       -3.3080     1.7170     2.3110 H     1 <1>   0.0800 
 30 H       -4.3100     0.8140     3.4260 H     1 <1>   0.0800 
 31 H       -4.6640    -0.8610     0.3110 H     1 <1>   0.2700 
 32 H       -2.2000    -3.1650    -2.1610 H     1 <1>   0.1500 
 33 H       -5.3750     1.4280     1.4690 H     1 <1>   0.4000 
 34 H       -1.7370     5.4580    -2.4240 H     1 <1>   0.1000 
 35 H       -6.3830    -0.2560    -1.9470 H     1 <1>   0.0800 
 36 H       -7.0130    -1.7170    -1.2080 H     1 <1>   0.0800 
 37 H       -6.6090    -1.6980    -2.9080 H     1 <1>   0.0800 
 38 H       -1.6960     7.5170    -0.9940 H     1 <1>   0.1000 
 39 H       -1.9310     6.5180     0.4720 H     1 <1>   0.1000 
 40 H       -4.1230     5.6450    -0.4690 H     1 <1>   0.1000 
 41 H       -3.8930     6.6410    -1.9380 H     1 <1>   0.1000 
@<TRIPOS>BOND
  1   1   2  2   
  2   2   3  am  
  3   2   4  1   
  4   3   5  1   
  5   3   6  1   
  6   4   7  ar  
  7   4   8  ar  
  8   5   9  1   
  9   5  23  1   
 10   5  24  1   
 11   6  10  1   
 12   6  25  1   
 13   6  26  1   
 14   7  11  ar  
 15   7  27  1   
 16   8  12  ar  
 17   8  28  1   
 18   9  13  1   
 19   9  14  2   
 20  10  15  1   
 21  10  29  1   
 22  10  30  1   
 23  11  16  ar  
 24  12  16  ar  
 25  13  17  1   
 26  13  31  1   
 27  14  18  1   
 28  14  32  1   
 29  15  33  1   
 30  16  19  1   
 31  17  18  2   
 32  17  20  1   
 33  19  21  1   
 34  19  22  1   
 35  19  34  1   
 36  20  35  1   
 37  20  36  1   
 38  20  37  1   
 39  21  22  1   
 40  21  38  1   
 41  21  39  1   
 42  22  40  1   
 43  22  41  1   
@<TRIPOS>SUBSTRUCTURE
  1 ****   7 GROUP 4 **** **** 0

# MOE 2024.06 (io_trps.svl 2023.06)
