@<TRIPOS>MOLECULE
NONAME
48 51 1 0 0 
SMALL
USER_CHARGES


@<TRIPOS>ATOM
  1 O       -0.8230    -1.7160    -1.4840 O.2   1 <1>  -0.5700 
  2 C       -1.9780    -1.3490    -1.3380 C.2   1 <1>   0.7160 
  3 N       -2.3820    -0.2250    -2.0230 N.am  1 <1>  -0.7300 
  4 C       -2.9250    -2.0560    -0.4700 C.2   1 <1>   0.4300 
  5 C       -1.5540     0.5970    -2.9420 C.3   1 <1>   0.0600 
  6 N       -4.1420    -1.6730    -0.2520 N.2   1 <1>  -0.4100 
  7 N       -2.6490    -3.1850     0.2060 N.2   1 <1>  -0.5650 
  8 O       -4.6930    -2.5240     0.5500 O.3   1 <1>  -0.0190 
  9 C       -3.7570    -3.4080     0.7830 C.2   1 <1>   0.2980 
 10 C       -4.0580    -4.5770     1.7180 C.3   1 <1>   0.2900 
 11 N       -5.0950    -5.5010     1.2010 N.3   1 <1>  -0.8100 
 12 C       -6.4630    -4.9470     1.1400 C.3   1 <1>   0.1100 
 13 C       -5.1500    -6.7830     1.9110 C.3   1 <1>   0.1100 
 14 C       -7.3910    -5.9900     1.7680 C.3   1 <1>   0.2000 
 15 C       -6.5860    -7.2870     1.7380 C.3   1 <1>  -0.0800 
 16 O       -7.6060    -5.6450     3.0930 O.3   1 <1>  -0.6800 
 17 C       -6.7660    -8.0270     0.3950 C.3   1 <1>  -0.0170 
 18 C       -6.0290    -9.3660     0.2520 C.ar  1 <1>  -0.1440 
 19 C       -5.8870    -9.9650    -1.0250 C.ar  1 <1>   0.0000 
 20 C       -5.4940   -10.0420     1.3140 C.ar  1 <1>  -0.1500 
 21 C       -5.1770   -11.1890    -1.1100 C.ar  1 <1>   0.3100 
 22 C       -6.4110    -9.4270    -2.2240 C.ar  1 <1>  -0.1500 
 23 C       -4.8200   -11.2540     1.1200 C.ar  1 <1>   0.1600 
 24 N       -4.6520   -11.8190    -0.0310 N.ar  1 <1>  -0.6200 
 25 C       -5.0060   -11.7930    -2.3660 C.ar  1 <1>  -0.1500 
 26 C       -6.2300   -10.0430    -3.4330 C.ar  1 <1>  -0.1500 
 27 C       -5.5160   -11.2400    -3.5080 C.ar  1 <1>  -0.1500 
 28 H       -3.3530     0.0710    -1.8880 H     1 <1>   0.3700 
 29 H       -0.5560     0.1970    -3.0130 H     1 <1>   0.0800 
 30 H       -1.4970     1.6070    -2.5750 H     1 <1>   0.0800 
 31 H       -1.9950     0.6000    -3.9240 H     1 <1>   0.0800 
 32 H       -4.3550    -4.1940     2.6770 H     1 <1>   0.0800 
 33 H       -3.1420    -5.1270     1.8480 H     1 <1>   0.0800 
 34 H       -6.5510    -4.0010     1.6480 H     1 <1>   0.0800 
 35 H       -6.7240    -4.8080     0.1050 H     1 <1>   0.0800 
 36 H       -4.4230    -7.4680     1.5070 H     1 <1>   0.0800 
 37 H       -4.9470    -6.6340     2.9590 H     1 <1>   0.0800 
 38 H       -8.3480    -6.0560     1.2790 H     1 <1>   0.0800 
 39 H       -6.8920    -7.9310     2.5430 H     1 <1>   0.0800 
 40 H       -6.7470    -5.4900     3.5290 H     1 <1>   0.4000 
 41 H       -6.4270    -7.3680    -0.3860 H     1 <1>   0.0800 
 42 H       -7.8150    -8.2090     0.2370 H     1 <1>   0.0800 
 43 H       -5.5610    -9.6860     2.3230 H     1 <1>   0.1500 
 44 H       -6.9700    -8.5110    -2.1960 H     1 <1>   0.1500 
 45 H       -4.4150   -11.7470     1.9870 H     1 <1>   0.1500 
 46 H       -4.4550   -12.7160    -2.3980 H     1 <1>   0.1500 
 47 H       -6.6330    -9.6180    -4.3360 H     1 <1>   0.1500 
 48 H       -5.3760   -11.7150    -4.4640 H     1 <1>   0.1500 
@<TRIPOS>BOND
  1   1   2  2   
  2   2   3  am  
  3   2   4  1   
  4   3   5  1   
  5   3  28  1   
  6   4   6  2   
  7   4   7  1   
  8   5  29  1   
  9   5  30  1   
 10   5  31  1   
 11   6   8  1   
 12   7   9  2   
 13   8   9  1   
 14   9  10  1   
 15  10  11  1   
 16  10  32  1   
 17  10  33  1   
 18  11  12  1   
 19  11  13  1   
 20  12  14  1   
 21  12  34  1   
 22  12  35  1   
 23  13  15  1   
 24  13  36  1   
 25  13  37  1   
 26  14  15  1   
 27  14  16  1   
 28  14  38  1   
 29  15  17  1   
 30  15  39  1   
 31  16  40  1   
 32  17  18  1   
 33  17  41  1   
 34  17  42  1   
 35  18  19  ar  
 36  18  20  ar  
 37  19  21  ar  
 38  19  22  ar  
 39  20  23  ar  
 40  20  43  1   
 41  21  24  ar  
 42  21  25  ar  
 43  22  26  ar  
 44  22  44  1   
 45  23  24  ar  
 46  23  45  1   
 47  25  27  ar  
 48  25  46  1   
 49  26  27  ar  
 50  26  47  1   
 51  27  48  1   
@<TRIPOS>SUBSTRUCTURE
  1 ****  11 GROUP 4 **** **** 0

# MOE 2024.06 (io_trps.svl 2023.06)
