@<TRIPOS>MOLECULE
NONAME
38 39 1 0 0 
SMALL
USER_CHARGES


@<TRIPOS>ATOM
  1 O       -1.2100    -3.9330     1.4170 O.2   1 <1>  -0.5700 
  2 C       -0.2130    -3.2460     1.3440 C.2   1 <1>   0.6900 
  3 N        0.0810    -2.5350     0.2400 N.am  1 <1>  -0.7300 
  4 N        0.6370    -3.2120     2.3680 N.am  1 <1>  -0.8000 
  5 C       -0.7830    -2.4930    -0.9870 C.3   1 <1>   0.2010 
  6 C       -0.7290    -3.7640    -1.8410 C.2   1 <1>   0.5690 
  7 O       -0.6630    -3.6720    -3.0430 O.2   1 <1>  -0.5700 
  8 N       -0.7740    -4.9650    -1.2170 N.am  1 <1>  -0.7300 
  9 C       -0.8310    -6.3010    -1.8430 C.3   1 <1>   0.2200 
 10 C       -1.9090    -7.1500    -1.1850 C.3   1 <1>  -0.0800 
 11 C        0.4220    -7.0870    -1.4750 C.3   1 <1>   0.1200 
 12 C       -1.1930    -7.6830     0.0580 C.3   1 <1>   0.1200 
 13 C       -3.2410    -6.4360    -0.8810 C.3   1 <1>  -0.0170 
 14 O        0.1760    -7.6620    -0.2240 O.3   1 <1>  -0.5600 
 15 C       -4.2210    -7.3780    -0.2010 C.ar  1 <1>  -0.1430 
 16 C       -4.9450    -8.3170    -0.9070 C.ar  1 <1>  -0.1500 
 17 C       -4.4330    -7.3420     1.1620 C.ar  1 <1>  -0.1500 
 18 C       -5.8190    -9.1540    -0.2320 C.ar  1 <1>   0.1600 
 19 C       -5.3310    -8.2250     1.7390 C.ar  1 <1>   0.1600 
 20 N       -6.0280    -9.1320     1.0740 N.ar  1 <1>  -0.6200 
 21 H        1.0500    -2.2500     0.1060 H     1 <1>   0.3700 
 22 H        0.3780    -3.7100     3.2190 H     1 <1>   0.3700 
 23 H        1.3600    -2.5040     2.4550 H     1 <1>   0.3700 
 24 H       -1.8040    -2.3400    -0.6880 H     1 <1>   0.0800 
 25 H       -0.4890    -1.6570    -1.5970 H     1 <1>   0.0800 
 26 H       -0.8110    -4.9640    -0.1860 H     1 <1>   0.3700 
 27 H       -0.9570    -6.2130    -2.9100 H     1 <1>   0.0800 
 28 H       -2.1110    -7.9900    -1.8250 H     1 <1>   0.0800 
 29 H        1.2980    -6.4650    -1.4220 H     1 <1>   0.0800 
 30 H        0.5830    -7.8880    -2.1740 H     1 <1>   0.0800 
 31 H       -1.4910    -8.6900     0.2970 H     1 <1>   0.0800 
 32 H       -1.3560    -7.0430     0.9070 H     1 <1>   0.0800 
 33 H       -3.6700    -6.0730    -1.7990 H     1 <1>   0.0800 
 34 H       -3.0790    -5.5850    -0.2420 H     1 <1>   0.0800 
 35 H       -4.8380    -8.4050    -1.9720 H     1 <1>   0.1500 
 36 H       -3.9090    -6.6360     1.7810 H     1 <1>   0.1500 
 37 H       -6.3760    -9.8810    -0.7990 H     1 <1>   0.1500 
 38 H       -5.4830    -8.1810     2.8040 H     1 <1>   0.1500 
@<TRIPOS>BOND
  1   1   2  2   
  2   2   3  am  
  3   2   4  am  
  4   3   5  1   
  5   3  21  1   
  6   4  22  1   
  7   4  23  1   
  8   5   6  1   
  9   5  24  1   
 10   5  25  1   
 11   6   7  2   
 12   6   8  am  
 13   8   9  1   
 14   8  26  1   
 15   9  10  1   
 16   9  11  1   
 17   9  27  1   
 18  10  12  1   
 19  10  13  1   
 20  10  28  1   
 21  11  14  1   
 22  11  29  1   
 23  11  30  1   
 24  12  14  1   
 25  12  31  1   
 26  12  32  1   
 27  13  15  1   
 28  13  33  1   
 29  13  34  1   
 30  15  16  ar  
 31  15  17  ar  
 32  16  18  ar  
 33  16  35  1   
 34  17  19  ar  
 35  17  36  1   
 36  18  20  ar  
 37  18  37  1   
 38  19  20  ar  
 39  19  38  1   
@<TRIPOS>SUBSTRUCTURE
  1 ****  13 GROUP 4 **** **** 0

# MOE 2024.06 (io_trps.svl 2023.06)
