@<TRIPOS>MOLECULE
NONAME
42 45 1 0 0 
SMALL
USER_CHARGES


@<TRIPOS>ATOM
  1 O       -0.0560     0.3070     1.3490 O.3   1 <1>  -0.5600 
  2 C        0.7860     0.6520     0.2880 C.3   1 <1>   0.1200 
  3 C       -1.3940     0.5170     0.9960 C.3   1 <1>   0.1200 
  4 C        0.0250     1.6950    -0.5210 C.3   1 <1>   0.2890 
  5 C       -1.3950     1.1620    -0.3930 C.3   1 <1>  -0.0800 
  6 N        0.1650     3.0170     0.1420 N.pl3 1 <1>  -0.8690 
  7 C       -2.5210     2.1880    -0.6150 C.3   1 <1>  -0.0170 
  8 C        0.2220     4.2250    -0.4970 C.ar  1 <1>   0.4100 
  9 C       -3.8870     1.5240    -0.5340 C.ar  1 <1>  -0.1430 
 10 N        0.0400     4.2470    -1.7990 N.ar  1 <1>  -0.6200 
 11 C        0.4490     5.3840     0.2140 C.ar  1 <1>  -0.1500 
 12 C       -4.4190     0.8280    -1.6000 C.ar  1 <1>  -0.1500 
 13 C       -4.6640     1.5810     0.6050 C.ar  1 <1>  -0.1500 
 14 C        0.0900     5.4410    -2.3580 C.ar  1 <1>   0.4700 
 15 C        0.4820     6.5650    -0.4760 C.ar  1 <1>   0.2780 
 16 C       -5.6650     0.2350    -1.4770 C.ar  1 <1>   0.1600 
 17 C       -5.8980     0.9530     0.6250 C.ar  1 <1>   0.1600 
 18 N        0.2960     6.6110    -1.7800 N.ar  1 <1>  -0.6200 
 19 C        0.7250     7.8880     0.2340 C.3   1 <1>  -0.0680 
 20 N       -6.4160     0.2790    -0.3890 N.ar  1 <1>  -0.6200 
 21 C        2.0300     8.6020     0.0560 C.3   1 <1>  -0.2000 
 22 C        1.6770     8.0150     1.3880 C.3   1 <1>  -0.2000 
 23 H        1.7200     1.0240     0.6700 H     1 <1>   0.0800 
 24 H        0.9540    -0.2340    -0.2980 H     1 <1>   0.0800 
 25 H       -1.9130    -0.4270     1.0010 H     1 <1>   0.0800 
 26 H       -1.8240     1.1710     1.7340 H     1 <1>   0.0800 
 27 H        0.3650     1.7370    -1.5420 H     1 <1>   0.0800 
 28 H       -1.5140     0.3720    -1.1140 H     1 <1>   0.0800 
 29 H        0.2400     2.9620     1.1610 H     1 <1>   0.4000 
 30 H       -2.4030     2.6440    -1.5820 H     1 <1>   0.0800 
 31 H       -2.4630     2.9740     0.1170 H     1 <1>   0.0800 
 32 H        0.5910     5.3490     1.2740 H     1 <1>   0.1500 
 33 H       -3.8780     0.7420    -2.5240 H     1 <1>   0.1500 
 34 H       -4.3230     2.1080     1.4770 H     1 <1>   0.1500 
 35 H       -0.0580     5.4670    -3.4250 H     1 <1>   0.1500 
 36 H       -6.0640    -0.3050    -2.3190 H     1 <1>   0.1500 
 37 H       -6.4900     1.0070     1.5220 H     1 <1>   0.1500 
 38 H       -0.1600     8.4990     0.2430 H     1 <1>   0.1000 
 39 H        2.7880     8.1280    -0.5440 H     1 <1>   0.1000 
 40 H        2.0130     9.6710    -0.0710 H     1 <1>   0.1000 
 41 H        1.4230     8.6820     2.1940 H     1 <1>   0.1000 
 42 H        2.2390     7.1610     1.7210 H     1 <1>   0.1000 
@<TRIPOS>BOND
  1   1   2  1   
  2   1   3  1   
  3   2   4  1   
  4   2  23  1   
  5   2  24  1   
  6   3   5  1   
  7   3  25  1   
  8   3  26  1   
  9   4   5  1   
 10   4   6  1   
 11   4  27  1   
 12   5   7  1   
 13   5  28  1   
 14   6   8  1   
 15   6  29  1   
 16   7   9  1   
 17   7  30  1   
 18   7  31  1   
 19   8  10  ar  
 20   8  11  ar  
 21   9  12  ar  
 22   9  13  ar  
 23  10  14  ar  
 24  11  15  ar  
 25  11  32  1   
 26  12  16  ar  
 27  12  33  1   
 28  13  17  ar  
 29  13  34  1   
 30  14  18  ar  
 31  14  35  1   
 32  15  18  ar  
 33  15  19  1   
 34  16  20  ar  
 35  16  36  1   
 36  17  20  ar  
 37  17  37  1   
 38  19  21  1   
 39  19  22  1   
 40  19  38  1   
 41  21  22  1   
 42  21  39  1   
 43  21  40  1   
 44  22  41  1   
 45  22  42  1   
@<TRIPOS>SUBSTRUCTURE
  1 ****   6 GROUP 4 **** **** 0

# MOE 2024.06 (io_trps.svl 2023.06)
