@<TRIPOS>MOLECULE
NONAME
53 55 1 0 0 
SMALL
USER_CHARGES


@<TRIPOS>ATOM
  1 O       -0.5970     1.6900    -2.5140 O.2   1 <1>  -0.5700 
  2 C        0.0870     0.7260    -2.2740 C.2   1 <1>   0.5690 
  3 N        1.3680     0.7810    -1.8070 N.am  1 <1>  -0.4940 
  4 C       -0.5010    -0.6800    -2.4280 C.3   1 <1>   0.1710 
  5 C        2.0890     1.8010    -1.1570 C.2   1 <1>  -0.0880 
  6 N        0.1370    -1.6860    -1.5140 N.3   1 <1>  -0.8100 
  7 N        2.0950     3.1320    -1.4260 N.pl3 1 <1>   0.3140 
  8 C        2.9240     1.6050    -0.0980 C.2   1 <1>  -0.0540 
  9 C       -0.2160    -3.0710    -1.8780 C.3   1 <1>   0.1100 
 10 C       -0.1880    -1.4190    -0.0910 C.3   1 <1>   0.1100 
 11 N        2.9080     3.7980    -0.5780 N.2   1 <1>  -0.7070 
 12 C        1.3990     3.8570    -2.4970 C.3   1 <1>   0.0160 
 13 C        3.2380     0.3680     0.5720 C.ar  1 <1>   0.0540 
 14 C        3.3950     2.8890     0.2000 C.2   1 <1>   0.1080 
 15 C        0.5110    -4.0870    -0.9700 C.3   1 <1>   0.3430 
 16 C        0.5560    -2.3970     0.8380 C.3   1 <1>   0.3430 
 17 C        3.8720    -0.6730    -0.1010 C.ar  1 <1>  -0.1500 
 18 C        2.9230     0.1800     1.9150 C.ar  1 <1>  -0.1500 
 19 C        4.3750     3.2250     1.3020 C.3   1 <1>  -0.0590 
 20 N        0.2560    -3.8300     0.4940 N.4   1 <1>  -0.9590 
 21 C        4.1920    -1.8540     0.5450 C.ar  1 <1>  -0.1500 
 22 C        3.2400    -0.9980     2.5680 C.ar  1 <1>  -0.1500 
 23 C        1.0330    -4.7400     1.3730 C.3   1 <1>   0.3430 
 24 C        3.8800    -2.0180     1.8840 C.ar  1 <1>  -0.1500 
 25 C        0.4730    -6.1540     1.2780 C.3   1 <1>  -0.2400 
 26 H        1.7250    -0.1630    -1.6310 H     1 <1>   0.3700 
 27 H       -0.3520    -0.9770    -3.4510 H     1 <1>   0.0800 
 28 H       -1.5610    -0.6330    -2.2470 H     1 <1>   0.0800 
 29 H        0.0730    -3.2550    -2.8990 H     1 <1>   0.0800 
 30 H       -1.2810    -3.2140    -1.8050 H     1 <1>   0.0800 
 31 H       -1.2500    -1.5000     0.0700 H     1 <1>   0.0800 
 32 H        0.1050    -0.4170     0.1760 H     1 <1>   0.0800 
 33 H        1.3690     3.2490    -3.3800 H     1 <1>   0.0800 
 34 H        1.9230     4.7710    -2.7040 H     1 <1>   0.0800 
 35 H        0.3990     4.0800    -2.1740 H     1 <1>   0.0800 
 36 H        1.5680    -4.0180    -1.1670 H     1 <1>   0.0800 
 37 H        0.1910    -5.0820    -1.2300 H     1 <1>   0.0800 
 38 H        0.2810    -2.1950     1.8600 H     1 <1>   0.0800 
 39 H        1.6130    -2.2120     0.7380 H     1 <1>   0.0800 
 40 H        4.1340    -0.5380    -1.1360 H     1 <1>   0.1500 
 41 H        2.4340     0.9770     2.4490 H     1 <1>   0.1500 
 42 H        5.0500     2.4070     1.4670 H     1 <1>   0.0800 
 43 H        3.8390     3.4360     2.2080 H     1 <1>   0.0800 
 44 H        4.9440     4.0940     1.0250 H     1 <1>   0.0800 
 45 H       -0.7440    -3.9860     0.6710 H     1 <1>   0.4500 
 46 H        4.7020    -2.6370     0.0090 H     1 <1>   0.1500 
 47 H        3.0050    -1.1130     3.6130 H     1 <1>   0.1500 
 48 H        0.9590    -4.4050     2.3960 H     1 <1>   0.0800 
 49 H        2.0740    -4.7310     1.0900 H     1 <1>   0.0800 
 50 H        4.1500    -2.9260     2.3960 H     1 <1>   0.1500 
 51 H       -0.5710    -6.1730     1.5370 H     1 <1>   0.0800 
 52 H        0.9960    -6.7860     1.9750 H     1 <1>   0.0800 
 53 H        0.6120    -6.5700     0.2970 H     1 <1>   0.0800 
@<TRIPOS>BOND
  1   1   2  2   
  2   2   3  am  
  3   2   4  1   
  4   3   5  1   
  5   3  26  1   
  6   4   6  1   
  7   4  27  1   
  8   4  28  1   
  9   5   7  1   
 10   5   8  2   
 11   6   9  1   
 12   6  10  1   
 13   7  11  1   
 14   7  12  1   
 15   8  13  1   
 16   8  14  1   
 17   9  15  1   
 18   9  29  1   
 19   9  30  1   
 20  10  16  1   
 21  10  31  1   
 22  10  32  1   
 23  11  14  2   
 24  12  33  1   
 25  12  34  1   
 26  12  35  1   
 27  13  17  ar  
 28  13  18  ar  
 29  14  19  1   
 30  15  20  1   
 31  15  36  1   
 32  15  37  1   
 33  16  20  1   
 34  16  38  1   
 35  16  39  1   
 36  17  21  ar  
 37  17  40  1   
 38  18  22  ar  
 39  18  41  1   
 40  19  42  1   
 41  19  43  1   
 42  19  44  1   
 43  20  23  1   
 44  20  45  1   
 45  21  24  ar  
 46  21  46  1   
 47  22  24  ar  
 48  22  47  1   
 49  23  25  1   
 50  23  48  1   
 51  23  49  1   
 52  24  50  1   
 53  25  51  1   
 54  25  52  1   
 55  25  53  1   
@<TRIPOS>SUBSTRUCTURE
  1 ****  13 GROUP 4 **** **** 0

# MOE 2024.06 (io_trps.svl 2023.06)
