@<TRIPOS>MOLECULE
NONAME
28 29 1 0 0 
SMALL
USER_CHARGES


@<TRIPOS>ATOM
  1 BR      -0.1250     0.1420    -0.7210 Br    1 <1>  -0.1110 
  2 C       -0.0450    -1.7540    -0.4060 C.ar  1 <1>   0.1110 
  3 C       -0.5600    -2.6110    -1.3580 C.ar  1 <1>  -0.1500 
  4 C        0.5240    -2.2130     0.7650 C.ar  1 <1>  -0.1500 
  5 C       -0.4990    -3.9750    -1.1270 C.ar  1 <1>  -0.1500 
  6 C        0.5800    -3.5780     0.9850 C.ar  1 <1>  -0.1500 
  7 C        0.0730    -4.4680     0.0430 C.ar  1 <1>  -0.1430 
  8 C        0.1570    -5.9680     0.3050 C.3   1 <1>   0.0640 
  9 C        0.9940    -6.6460    -0.7920 C.3   1 <1>   0.3430 
 10 C       -1.2430    -6.5960     0.4120 C.3   1 <1>  -0.1600 
 11 N        1.0300    -8.1330    -0.6110 N.4   1 <1>  -0.9060 
 12 C       -1.1540    -8.1240     0.5440 C.3   1 <1>  -0.1600 
 13 C       -0.3270    -8.7480    -0.5850 C.3   1 <1>   0.3430 
 14 H       -1.0000    -2.2140    -2.2560 H     1 <1>   0.1500 
 15 H        0.9120    -1.5140     1.4860 H     1 <1>   0.1500 
 16 H       -0.9080    -4.6350    -1.8700 H     1 <1>   0.1500 
 17 H        1.0210    -3.9330     1.9020 H     1 <1>   0.1500 
 18 H        0.6650    -6.1200     1.2420 H     1 <1>   0.0800 
 19 H        1.9940    -6.2440    -0.7710 H     1 <1>   0.0800 
 20 H        0.5620    -6.4110    -1.7520 H     1 <1>   0.0800 
 21 H       -1.7560    -6.1840     1.2660 H     1 <1>   0.0800 
 22 H       -1.8250    -6.3510    -0.4600 H     1 <1>   0.0800 
 23 H        1.5870    -8.5580    -1.3640 H     1 <1>   0.4500 
 24 H        1.5090    -8.3520     0.2710 H     1 <1>   0.4500 
 25 H       -2.1470    -8.5390     0.5190 H     1 <1>   0.0800 
 26 H       -0.7230    -8.3890     1.4950 H     1 <1>   0.0800 
 27 H       -0.8240    -8.5770    -1.5270 H     1 <1>   0.0800 
 28 H       -0.2500    -9.8140    -0.4320 H     1 <1>   0.0800 
@<TRIPOS>BOND
  1   1   2  1   
  2   2   3  ar  
  3   2   4  ar  
  4   3   5  ar  
  5   3  14  1   
  6   4   6  ar  
  7   4  15  1   
  8   5   7  ar  
  9   5  16  1   
 10   6   7  ar  
 11   6  17  1   
 12   7   8  1   
 13   8   9  1   
 14   8  10  1   
 15   8  18  1   
 16   9  11  1   
 17   9  19  1   
 18   9  20  1   
 19  10  12  1   
 20  10  21  1   
 21  10  22  1   
 22  11  13  1   
 23  11  23  1   
 24  11  24  1   
 25  12  13  1   
 26  12  25  1   
 27  12  26  1   
 28  13  27  1   
 29  13  28  1   
@<TRIPOS>SUBSTRUCTURE
  1 ****   7 GROUP 4 **** **** 0

# MOE 2024.06 (io_trps.svl 2023.06)
