@<TRIPOS>MOLECULE
NONAME
45 48 1 0 0 
SMALL
USER_CHARGES


@<TRIPOS>ATOM
  1 O        0.0060    -0.4850    -1.4730 O.2   1 <1>  -0.5700 
  2 C        0.5660    -0.7860    -0.4390 C.2   1 <1>   0.6160 
  3 N        0.8310     0.1860     0.4680 N.am  1 <1>  -0.7300 
  4 C        0.9390    -2.1620    -0.1940 C.2   1 <1>   0.0140 
  5 C        0.8810     1.6220     0.1750 C.3   1 <1>   0.4000 
  6 C        0.3430    -3.1700    -0.9140 C.2   1 <1>   0.2290 
  7 C        1.9250    -2.5250     0.7690 C.2   1 <1>  -0.1500 
  8 C        2.2140     2.1530     0.6990 C.2   1 <1>   0.0060 
  9 C       -0.2980     2.2880     0.8760 C.3   1 <1>  -0.2400 
 10 N        0.6730    -4.4920    -0.7080 N.pl3 1 <1>  -0.6290 
 11 C        2.2470    -3.8410     0.9640 C.2   1 <1>  -0.1410 
 12 N        2.9260     1.5530     1.5980 N.2   1 <1>  -0.3380 
 13 N        2.7980     3.2890     0.2890 N.pl3 1 <1>   0.0480 
 14 C        1.6050    -4.8370     0.2110 C.cat 1 <1>   0.7910 
 15 C        0.2240    -5.6620    -1.2890 C.2   1 <1>   0.2000 
 16 N        4.0120     2.2930     1.8010 N.2   1 <1>  -0.3380 
 17 C        3.9170     3.3120     1.0210 C.2   1 <1>   0.0360 
 18 C        2.3220     4.2770    -0.7210 C.3   1 <1>   0.1760 
 19 N        1.7410    -6.1730     0.2130 N.pl3 1 <1>  -0.7000 
 20 C        0.8810    -6.6920    -0.7210 C.2   1 <1>   0.2000 
 21 C        3.4640     4.7780    -1.6130 C.3   1 <1>  -0.1600 
 22 C        1.8030     5.5430    -0.0380 C.3   1 <1>  -0.1600 
 23 C        4.0000     6.0660    -0.9720 C.3   1 <1>  -0.1600 
 24 C        3.0260     6.4420     0.1490 C.3   1 <1>  -0.1600 
 25 H        1.3970    -0.0150     1.2970 H     1 <1>   0.3700 
 26 H        0.8140     1.7750    -0.8890 H     1 <1>   0.0800 
 27 H       -0.4040    -2.9470    -1.6620 H     1 <1>   0.1500 
 28 H        2.4230    -1.7520     1.3340 H     1 <1>   0.1500 
 29 H       -0.2250     2.1500     1.9400 H     1 <1>   0.0800 
 30 H       -1.2210     1.8660     0.5220 H     1 <1>   0.0800 
 31 H       -0.3060     3.3420     0.6690 H     1 <1>   0.0800 
 32 H        2.9880    -4.1370     1.6840 H     1 <1>   0.1500 
 33 H       -0.5290    -5.6790    -2.0630 H     1 <1>   0.1500 
 34 H        4.6470     4.0970     0.9580 H     1 <1>   0.1500 
 35 H        1.5530     3.8250    -1.3200 H     1 <1>   0.0800 
 36 H        2.3830    -6.6990     0.8130 H     1 <1>   0.4500 
 37 H        0.7910    -7.7490    -0.9230 H     1 <1>   0.1500 
 38 H        3.0570     5.0250    -2.5790 H     1 <1>   0.0800 
 39 H        4.2320     4.0370    -1.7520 H     1 <1>   0.0800 
 40 H        1.2990     5.3390     0.8910 H     1 <1>   0.0800 
 41 H        1.1140     6.0350    -0.7030 H     1 <1>   0.0800 
 42 H        4.0480     6.8510    -1.7080 H     1 <1>   0.0800 
 43 H        4.9890     5.9150    -0.5730 H     1 <1>   0.0800 
 44 H        3.4790     6.2400     1.1060 H     1 <1>   0.0800 
 45 H        2.7580     7.4840     0.1120 H     1 <1>   0.0800 
@<TRIPOS>BOND
  1   1   2  2   
  2   2   3  am  
  3   2   4  1   
  4   3   5  1   
  5   3  25  1   
  6   4   6  2   
  7   4   7  1   
  8   5   8  1   
  9   5   9  1   
 10   5  26  1   
 11   6  10  1   
 12   6  27  1   
 13   7  11  2   
 14   7  28  1   
 15   8  12  2   
 16   8  13  1   
 17   9  29  1   
 18   9  30  1   
 19   9  31  1   
 20  10  14  ar  
 21  10  15  1   
 22  11  14  1   
 23  11  32  1   
 24  12  16  1   
 25  13  17  1   
 26  13  18  1   
 27  14  19  ar  
 28  15  20  2   
 29  15  33  1   
 30  16  17  2   
 31  17  34  1   
 32  18  21  1   
 33  18  22  1   
 34  18  35  1   
 35  19  20  1   
 36  19  36  1   
 37  20  37  1   
 38  21  23  1   
 39  21  38  1   
 40  21  39  1   
 41  22  24  1   
 42  22  40  1   
 43  22  41  1   
 44  23  24  1   
 45  23  42  1   
 46  23  43  1   
 47  24  44  1   
 48  24  45  1   
@<TRIPOS>SUBSTRUCTURE
  1 ****   3 GROUP 4 **** **** 0

# MOE 2024.06 (io_trps.svl 2023.06)
