@<TRIPOS>MOLECULE
NONAME
49 50 1 0 0 
SMALL
USER_CHARGES


@<TRIPOS>ATOM
  1 O        4.0710    -1.5940    -0.4470 O.2   1 <1>  -0.5700 
  2 C        2.8640    -1.5190    -0.5330 C.2   1 <1>   0.5690 
  3 N        2.1970    -0.3380    -0.7260 N.am  1 <1>  -0.4940 
  4 C        2.0190    -2.8060    -0.3970 C.3   1 <1>   0.3950 
  5 C        2.6110     1.0130    -0.6730 C.2   1 <1>  -0.0880 
  6 N        1.5390    -3.3780    -1.7010 N.3   1 <1>  -0.8100 
  7 C        0.8350    -2.5050     0.5350 C.ar  1 <1>  -0.1440 
  8 N        3.7990     1.5520    -1.0620 N.pl3 1 <1>   0.3140 
  9 C        1.8610     2.0400    -0.2080 C.2   1 <1>  -0.1810 
 10 C        0.9150    -4.6970    -1.5070 C.3   1 <1>   0.0300 
 11 C        2.6280    -3.4940    -2.6840 C.3   1 <1>   0.0300 
 12 C        1.0020    -2.6200     1.9070 C.ar  1 <1>  -0.1500 
 13 C       -0.3960    -2.0810     0.0460 C.ar  1 <1>  -0.1500 
 14 N        3.8240     2.8880    -0.8550 N.2   1 <1>  -0.7070 
 15 C        4.9390     0.8910    -1.7090 C.3   1 <1>   0.0160 
 16 C        2.6690     3.1660    -0.3410 C.2   1 <1>   0.1080 
 17 C        0.4470     1.9750     0.3480 C.3   1 <1>   0.0210 
 18 C       -0.0340    -2.3130     2.7720 C.ar  1 <1>  -0.1500 
 19 C       -1.4310    -1.7740     0.9100 C.ar  1 <1>  -0.1500 
 20 C        2.2920     4.5750     0.0550 C.3   1 <1>  -0.0590 
 21 C        0.4670     1.5280     1.8110 C.3   1 <1>  -0.2400 
 22 C       -1.2550    -1.8840     2.2790 C.ar  1 <1>  -0.1430 
 23 C       -2.3880    -1.5460     3.2300 C.3   1 <1>  -0.0970 
 24 H        1.1830    -0.4590    -0.6910 H     1 <1>   0.3700 
 25 H        2.6480    -3.5390     0.0770 H     1 <1>   0.0800 
 26 H        0.0790    -4.6260    -0.8320 H     1 <1>   0.0800 
 27 H        1.6270    -5.3990    -1.1070 H     1 <1>   0.0800 
 28 H        0.5490    -5.0700    -2.4480 H     1 <1>   0.0800 
 29 H        3.0090    -2.5200    -2.9410 H     1 <1>   0.0800 
 30 H        2.2600    -3.9510    -3.5870 H     1 <1>   0.0800 
 31 H        3.4320    -4.0930    -2.2910 H     1 <1>   0.0800 
 32 H        1.9450    -2.9420     2.3150 H     1 <1>   0.1500 
 33 H       -0.5540    -1.9930    -1.0160 H     1 <1>   0.1500 
 34 H        4.5780     0.1300    -2.3730 H     1 <1>   0.0800 
 35 H        5.5610     0.4530    -0.9520 H     1 <1>   0.0800 
 36 H        5.5000     1.6200    -2.2620 H     1 <1>   0.0800 
 37 H       -0.1330     1.2790    -0.2300 H     1 <1>   0.0800 
 38 H       -0.0240     2.9390     0.2670 H     1 <1>   0.0800 
 39 H        0.1160    -2.4070     3.8330 H     1 <1>   0.1500 
 40 H       -2.3770    -1.4510     0.5110 H     1 <1>   0.1500 
 41 H        1.8480     4.5760     1.0320 H     1 <1>   0.0800 
 42 H        1.5950     4.9750    -0.6580 H     1 <1>   0.0800 
 43 H        3.1700     5.1940     0.0710 H     1 <1>   0.0800 
 44 H        0.9170     0.5550     1.8930 H     1 <1>   0.0800 
 45 H       -0.5350     1.4760     2.1980 H     1 <1>   0.0800 
 46 H        1.0370     2.2210     2.4030 H     1 <1>   0.0800 
 47 H       -1.9990    -1.1240     4.1400 H     1 <1>   0.0800 
 48 H       -2.9400    -2.4370     3.4680 H     1 <1>   0.0800 
 49 H       -3.0560    -0.8320     2.7840 H     1 <1>   0.0800 
@<TRIPOS>BOND
  1   1   2  2   
  2   2   3  am  
  3   2   4  1   
  4   3   5  1   
  5   3  24  1   
  6   4   6  1   
  7   4   7  1   
  8   4  25  1   
  9   5   8  1   
 10   5   9  2   
 11   6  10  1   
 12   6  11  1   
 13   7  12  ar  
 14   7  13  ar  
 15   8  14  1   
 16   8  15  1   
 17   9  16  1   
 18   9  17  1   
 19  10  26  1   
 20  10  27  1   
 21  10  28  1   
 22  11  29  1   
 23  11  30  1   
 24  11  31  1   
 25  12  18  ar  
 26  12  32  1   
 27  13  19  ar  
 28  13  33  1   
 29  14  16  2   
 30  15  34  1   
 31  15  35  1   
 32  15  36  1   
 33  16  20  1   
 34  17  21  1   
 35  17  37  1   
 36  17  38  1   
 37  18  22  ar  
 38  18  39  1   
 39  19  22  ar  
 40  19  40  1   
 41  20  41  1   
 42  20  42  1   
 43  20  43  1   
 44  21  44  1   
 45  21  45  1   
 46  21  46  1   
 47  22  23  1   
 48  23  47  1   
 49  23  48  1   
 50  23  49  1   
@<TRIPOS>SUBSTRUCTURE
  1 ****   3 GROUP 4 **** **** 0

# MOE 2024.06 (io_trps.svl 2023.06)
