@<TRIPOS>MOLECULE
NONAME
45 48 1 0 0 
SMALL
USER_CHARGES


@<TRIPOS>ATOM
  1 O       -2.9580     0.7740     2.3450 O.2   1 <1>  -0.5700 
  2 C       -2.4390     1.6570     1.6860 C.2   1 <1>   0.7800 
  3 O       -1.2370     2.1620     1.9610 O.3   1 <1>  -0.2330 
  4 N       -2.9670     2.2330     0.5670 N.am  1 <1>  -0.4770 
  5 C       -0.9670     3.0660     0.9980 C.ar  1 <1>   0.0830 
  6 C       -2.0210     3.1280     0.1120 C.ar  1 <1>   0.1170 
  7 C       -4.2840     1.9050    -0.0440 C.3   1 <1>   0.2010 
  8 C        0.1650     3.8450     0.8460 C.ar  1 <1>  -0.1500 
  9 C       -1.9680     3.9840    -0.9780 C.ar  1 <1>  -0.1500 
 10 C       -4.3110     0.5290    -0.7050 C.2   1 <1>   0.5690 
 11 C        0.2190     4.7050    -0.2400 C.ar  1 <1>  -0.1500 
 12 C       -0.8390     4.7720    -1.1450 C.ar  1 <1>  -0.1500 
 13 O       -4.6480     0.4440    -1.8620 O.2   1 <1>  -0.5700 
 14 N       -3.9790    -0.5700     0.0210 N.am  1 <1>  -0.7300 
 15 C       -3.9260    -1.9510    -0.5030 C.3   1 <1>   0.2200 
 16 C       -5.1030    -2.7620     0.0100 C.3   1 <1>  -0.0800 
 17 C       -2.7040    -2.7250    -0.0040 C.3   1 <1>   0.1200 
 18 C       -4.4940    -4.1480     0.1710 C.3   1 <1>   0.1200 
 19 C       -6.3200    -2.7130    -0.9260 C.3   1 <1>  -0.0170 
 20 O       -3.1720    -3.9230     0.5430 O.3   1 <1>  -0.5600 
 21 C       -7.4340    -3.6180    -0.4250 C.ar  1 <1>  -0.1430 
 22 C       -8.2180    -3.2730     0.6570 C.ar  1 <1>  -0.1500 
 23 C       -7.7190    -4.8300    -1.0210 C.ar  1 <1>  -0.1500 
 24 C       -9.2160    -4.1330     1.0820 C.ar  1 <1>   0.1600 
 25 C       -8.7420    -5.6170    -0.5180 C.ar  1 <1>   0.1600 
 26 N       -9.4970    -5.2980     0.5210 N.ar  1 <1>  -0.6200 
 27 H       -5.0390     1.9300     0.7200 H     1 <1>   0.0800 
 28 H       -4.5310     2.6480    -0.7800 H     1 <1>   0.0800 
 29 H        0.9720     3.7770     1.5540 H     1 <1>   0.1500 
 30 H       -2.7830     4.0320    -1.6780 H     1 <1>   0.1500 
 31 H        1.0860     5.3260    -0.3880 H     1 <1>   0.1500 
 32 H       -0.7760     5.4450    -1.9830 H     1 <1>   0.1500 
 33 H       -3.7020    -0.4540     1.0080 H     1 <1>   0.3700 
 34 H       -3.9090    -1.9380    -1.5800 H     1 <1>   0.0800 
 35 H       -5.3830    -2.4190     0.9900 H     1 <1>   0.0800 
 36 H       -2.1730    -2.1930     0.7660 H     1 <1>   0.0800 
 37 H       -2.0400    -2.9640    -0.8160 H     1 <1>   0.0800 
 38 H       -4.4890    -4.6890    -0.7590 H     1 <1>   0.0800 
 39 H       -4.9850    -4.7280     0.9340 H     1 <1>   0.0800 
 40 H       -6.0310    -3.0090    -1.9200 H     1 <1>   0.0800 
 41 H       -6.6820    -1.7010    -0.9860 H     1 <1>   0.0800 
 42 H       -8.0600    -2.3440     1.1740 H     1 <1>   0.1500 
 43 H       -7.1570    -5.1720    -1.8710 H     1 <1>   0.1500 
 44 H       -9.8170    -3.8470     1.9290 H     1 <1>   0.1500 
 45 H       -8.9500    -6.5590    -0.9950 H     1 <1>   0.1500 
@<TRIPOS>BOND
  1   1   2  2   
  2   2   3  1   
  3   2   4  am  
  4   3   5  1   
  5   4   6  1   
  6   4   7  1   
  7   5   6  ar  
  8   5   8  ar  
  9   6   9  ar  
 10   7  10  1   
 11   7  27  1   
 12   7  28  1   
 13   8  11  ar  
 14   8  29  1   
 15   9  12  ar  
 16   9  30  1   
 17  10  13  2   
 18  10  14  am  
 19  11  12  ar  
 20  11  31  1   
 21  12  32  1   
 22  14  15  1   
 23  14  33  1   
 24  15  16  1   
 25  15  17  1   
 26  15  34  1   
 27  16  18  1   
 28  16  19  1   
 29  16  35  1   
 30  17  20  1   
 31  17  36  1   
 32  17  37  1   
 33  18  20  1   
 34  18  38  1   
 35  18  39  1   
 36  19  21  1   
 37  19  40  1   
 38  19  41  1   
 39  21  22  ar  
 40  21  23  ar  
 41  22  24  ar  
 42  22  42  1   
 43  23  25  ar  
 44  23  43  1   
 45  24  26  ar  
 46  24  44  1   
 47  25  26  ar  
 48  25  45  1   
@<TRIPOS>SUBSTRUCTURE
  1 ****  14 GROUP 4 **** **** 0

# MOE 2024.06 (io_trps.svl 2023.06)
