@<TRIPOS>MOLECULE
NONAME
52 54 1 0 0 
SMALL
USER_CHARGES


@<TRIPOS>ATOM
  1 O       -1.4050     2.0020    -2.1420 O.2   1 <1>  -0.5700 
  2 C       -2.1440     1.9900    -1.1830 C.2   1 <1>   0.5690 
  3 N       -3.4090     1.4560    -1.2560 N.am  1 <1>  -0.6600 
  4 C       -1.5940     2.5790     0.1230 C.3   1 <1>   0.1810 
  5 C       -4.3460     1.3380    -0.1070 C.3   1 <1>   0.1400 
  6 C       -3.8810     0.7280    -2.4640 C.3   1 <1>   0.1400 
  7 O       -1.5120     1.6410     1.1720 O.3   1 <1>  -0.5600 
  8 C       -4.4540    -0.1360     0.2830 C.3   1 <1>  -0.1600 
  9 C       -3.9820    -0.7600    -2.1230 C.3   1 <1>  -0.1600 
 10 C       -0.6050     0.6100     0.9510 C.3   1 <1>   0.1200 
 11 C       -4.8870    -1.0140    -0.9060 C.3   1 <1>   0.4240 
 12 C       -0.6280    -0.2930     2.1770 C.3   1 <1>  -0.2400 
 13 O       -6.1700    -0.5960    -1.3100 O.3   1 <1>  -0.5600 
 14 C       -4.8610    -2.5090    -0.5230 C.ar  1 <1>  -0.1440 
 15 C       -7.2670    -1.1220    -0.6270 C.3   1 <1>   0.1200 
 16 C       -6.0240    -3.2720    -0.5150 C.ar  1 <1>  -0.1440 
 17 C       -3.6630    -3.1220    -0.1700 C.ar  1 <1>  -0.1500 
 18 C       -7.3410    -2.6230    -0.8910 C.3   1 <1>  -0.0170 
 19 C       -5.9870    -4.6110    -0.1610 C.ar  1 <1>  -0.1500 
 20 C       -3.6150    -4.4620     0.1720 C.ar  1 <1>   0.0820 
 21 C       -4.7940    -5.2110     0.2000 C.ar  1 <1>   0.0820 
 22 O       -2.3990    -4.9870     0.4640 O.3   1 <1>  -0.3620 
 23 O       -4.8350    -6.5130     0.5740 O.3   1 <1>  -0.3620 
 24 C       -1.9120    -5.9620    -0.4320 C.3   1 <1>   0.0400 
 25 C       -4.5100    -6.7870     1.9190 C.3   1 <1>   0.0400 
 26 H       -2.2370     3.3750     0.4470 H     1 <1>   0.0800 
 27 H       -0.6130     2.9850    -0.0470 H     1 <1>   0.0800 
 28 H       -5.3130     1.7120    -0.4000 H     1 <1>   0.0800 
 29 H       -4.0100     1.9140     0.7370 H     1 <1>   0.0800 
 30 H       -3.2010     0.8700    -3.2860 H     1 <1>   0.0800 
 31 H       -4.8450     1.1100    -2.7560 H     1 <1>   0.0800 
 32 H       -5.1380    -0.2530     1.1000 H     1 <1>   0.0800 
 33 H       -3.4910    -0.4550     0.6340 H     1 <1>   0.0800 
 34 H       -2.9900    -1.1220    -1.9310 H     1 <1>   0.0800 
 35 H       -4.3660    -1.3030    -2.9660 H     1 <1>   0.0800 
 36 H        0.3760     1.0330     0.8070 H     1 <1>   0.0800 
 37 H       -0.8990     0.0580     0.0730 H     1 <1>   0.0800 
 38 H       -0.3420     0.2640     3.0510 H     1 <1>   0.0800 
 39 H        0.0640    -1.1050     2.0440 H     1 <1>   0.0800 
 40 H       -1.6120    -0.7020     2.3180 H     1 <1>   0.0800 
 41 H       -8.1500    -0.6310    -0.9950 H     1 <1>   0.0800 
 42 H       -7.1620    -0.9180     0.4240 H     1 <1>   0.0800 
 43 H       -2.7420    -2.5680    -0.1600 H     1 <1>   0.1500 
 44 H       -7.5460    -2.7940    -1.9330 H     1 <1>   0.0800 
 45 H       -8.1420    -3.0450    -0.3130 H     1 <1>   0.0800 
 46 H       -6.8850    -5.2020    -0.1550 H     1 <1>   0.1500 
 47 H       -0.9060    -6.2100    -0.1440 H     1 <1>   0.0800 
 48 H       -1.9230    -5.5550    -1.4270 H     1 <1>   0.0800 
 49 H       -2.5340    -6.8370    -0.3800 H     1 <1>   0.0800 
 50 H       -4.6950    -7.8290     2.1050 H     1 <1>   0.0800 
 51 H       -5.1300    -6.1810     2.5560 H     1 <1>   0.0800 
 52 H       -3.4720    -6.5640     2.0880 H     1 <1>   0.0800 
@<TRIPOS>BOND
  1   1   2  2   
  2   2   3  am  
  3   2   4  1   
  4   3   5  1   
  5   3   6  1   
  6   4   7  1   
  7   4  26  1   
  8   4  27  1   
  9   5   8  1   
 10   5  28  1   
 11   5  29  1   
 12   6   9  1   
 13   6  30  1   
 14   6  31  1   
 15   7  10  1   
 16   8  11  1   
 17   8  32  1   
 18   8  33  1   
 19   9  11  1   
 20   9  34  1   
 21   9  35  1   
 22  10  12  1   
 23  10  36  1   
 24  10  37  1   
 25  11  13  1   
 26  11  14  1   
 27  12  38  1   
 28  12  39  1   
 29  12  40  1   
 30  13  15  1   
 31  14  16  ar  
 32  14  17  ar  
 33  15  18  1   
 34  15  41  1   
 35  15  42  1   
 36  16  18  1   
 37  16  19  ar  
 38  17  20  ar  
 39  17  43  1   
 40  18  44  1   
 41  18  45  1   
 42  19  21  ar  
 43  19  46  1   
 44  20  21  ar  
 45  20  22  1   
 46  21  23  1   
 47  22  24  1   
 48  23  25  1   
 49  24  47  1   
 50  24  48  1   
 51  24  49  1   
 52  25  50  1   
 53  25  51  1   
 54  25  52  1   
@<TRIPOS>SUBSTRUCTURE
  1 ****  14 GROUP 4 **** **** 0

# MOE 2024.06 (io_trps.svl 2023.06)
