@<TRIPOS>MOLECULE
NONAME
42 44 1 0 0 
SMALL
USER_CHARGES


@<TRIPOS>ATOM
  1 O       -0.8280     0.6170     1.0000 O.2   1 <1>  -0.5700 
  2 C       -1.7030     1.0040     0.2610 C.2   1 <1>   0.5690 
  3 N       -2.6760     0.1430    -0.1710 N.am  1 <1>  -0.6600 
  4 C       -1.7200     2.4730    -0.1780 C.3   1 <1>  -0.0190 
  5 C       -3.8710     0.4680    -0.9910 C.3   1 <1>   0.1400 
  6 C       -2.7070    -1.2820     0.2400 C.3   1 <1>   0.1400 
  7 C       -0.3520     3.1590    -0.2420 C.3   1 <1>  -0.1600 
  8 C       -2.5160     3.3790     0.7650 C.3   1 <1>  -0.1600 
  9 C       -4.8560    -0.6570    -0.6790 C.3   1 <1>   0.2000 
 10 C       -3.9520    -1.8710    -0.4360 C.3   1 <1>  -0.0800 
 11 C       -0.6680     4.6550    -0.2310 C.3   1 <1>  -0.1600 
 12 C       -2.0190     4.8000     0.4810 C.3   1 <1>  -0.1600 
 13 O       -5.5200    -0.3300     0.4940 O.3   1 <1>  -0.6800 
 14 C       -4.6070    -3.0200     0.3550 C.3   1 <1>   0.0200 
 15 C       -3.7310    -4.2580     0.4470 C.2   1 <1>  -0.0400 
 16 O       -4.1320    -5.2540     1.1910 O.3   1 <1>  -0.0190 
 17 C       -2.5530    -4.6070    -0.0980 C.2   1 <1>  -0.1500 
 18 N       -3.2890    -6.2450     1.1780 N.2   1 <1>  -0.4100 
 19 C       -2.3260    -5.8830     0.4100 C.2   1 <1>   0.1080 
 20 C       -1.1140    -6.7350     0.1050 C.3   1 <1>  -0.0590 
 21 H       -2.1510     2.5390    -1.1600 H     1 <1>   0.0800 
 22 H       -4.2840     1.4320    -0.7510 H     1 <1>   0.0800 
 23 H       -3.5980     0.4370    -2.0320 H     1 <1>   0.0800 
 24 H       -1.8050    -1.7810    -0.0720 H     1 <1>   0.0800 
 25 H       -2.7840    -1.3350     1.3130 H     1 <1>   0.0800 
 26 H        0.2200     2.9160     0.6380 H     1 <1>   0.0800 
 27 H        0.2070     2.8660    -1.1130 H     1 <1>   0.0800 
 28 H       -3.5770     3.2880     0.6190 H     1 <1>   0.0800 
 29 H       -2.2790     3.1200     1.7830 H     1 <1>   0.0800 
 30 H       -5.5850    -0.8120    -1.4550 H     1 <1>   0.0800 
 31 H       -3.6540    -2.2480    -1.3980 H     1 <1>   0.0800 
 32 H        0.1070     5.2100     0.2710 H     1 <1>   0.0800 
 33 H       -0.7540     5.0150    -1.2420 H     1 <1>   0.0800 
 34 H       -2.7130     5.3170    -0.1600 H     1 <1>   0.0800 
 35 H       -1.9160     5.3530     1.3990 H     1 <1>   0.0800 
 36 H       -4.8600    -0.0560     1.1640 H     1 <1>   0.4000 
 37 H       -5.5330    -3.2940    -0.1180 H     1 <1>   0.0800 
 38 H       -4.8380    -2.6940     1.3540 H     1 <1>   0.0800 
 39 H       -1.9060    -4.0710    -0.7660 H     1 <1>   0.1500 
 40 H       -0.2220    -6.2260     0.4200 H     1 <1>   0.0800 
 41 H       -1.0610    -6.9290    -0.9500 H     1 <1>   0.0800 
 42 H       -1.1840    -7.6710     0.6280 H     1 <1>   0.0800 
@<TRIPOS>BOND
  1   1   2  2   
  2   2   3  am  
  3   2   4  1   
  4   3   5  1   
  5   3   6  1   
  6   4   7  1   
  7   4   8  1   
  8   4  21  1   
  9   5   9  1   
 10   5  22  1   
 11   5  23  1   
 12   6  10  1   
 13   6  24  1   
 14   6  25  1   
 15   7  11  1   
 16   7  26  1   
 17   7  27  1   
 18   8  12  1   
 19   8  28  1   
 20   8  29  1   
 21   9  10  1   
 22   9  13  1   
 23   9  30  1   
 24  10  14  1   
 25  10  31  1   
 26  11  12  1   
 27  11  32  1   
 28  11  33  1   
 29  12  34  1   
 30  12  35  1   
 31  13  36  1   
 32  14  15  1   
 33  14  37  1   
 34  14  38  1   
 35  15  16  1   
 36  15  17  2   
 37  16  18  1   
 38  17  19  1   
 39  17  39  1   
 40  18  19  2   
 41  19  20  1   
 42  20  40  1   
 43  20  41  1   
 44  20  42  1   
@<TRIPOS>SUBSTRUCTURE
  1 ****   6 GROUP 4 **** **** 0

# MOE 2024.06 (io_trps.svl 2023.06)
