@<TRIPOS>MOLECULE
NONAME
40 42 1 0 0 
SMALL
USER_CHARGES


@<TRIPOS>ATOM
  1 F       -0.7480     0.3310     0.5950 F     1 <1>  -0.3400 
  2 C       -1.8940    -0.3390     0.5990 C.3   1 <1>   1.1640 
  3 F       -2.6680     0.2330    -0.3110 F     1 <1>  -0.3400 
  4 F       -2.4570    -0.1160     1.7760 F     1 <1>  -0.3400 
  5 C       -1.6950    -1.8440     0.3280 C.ar  1 <1>  -0.1440 
  6 C       -0.4540    -2.4110     0.1180 C.ar  1 <1>  -0.1500 
  7 C       -2.8160    -2.6840     0.2910 C.ar  1 <1>  -0.1500 
  8 C       -0.3020    -3.7840    -0.1260 C.ar  1 <1>   0.3610 
  9 C       -2.6860    -4.0290     0.0550 C.ar  1 <1>  -0.1500 
 10 N        0.9460    -4.3290    -0.3370 N.ar  1 <1>  -0.1790 
 11 C       -1.4300    -4.6260    -0.1610 C.ar  1 <1>   0.0000 
 12 C        1.1320    -5.6380    -0.5770 C.ar  1 <1>   0.2180 
 13 C       -1.2490    -6.0220    -0.4100 C.ar  1 <1>   0.1000 
 14 C        0.0530    -6.4830    -0.6160 C.ar  1 <1>  -0.1500 
 15 C        2.5490    -6.1420    -0.8010 C.3   1 <1>  -0.0970 
 16 N       -2.3100    -6.8540    -0.4510 N.pl3 1 <1>  -0.8690 
 17 C       -2.4020    -8.3140    -0.7820 C.3   1 <1>   0.3500 
 18 C       -3.8180    -8.7260    -1.2560 C.2   1 <1>   0.5690 
 19 C       -1.9870    -9.1290     0.4530 C.3   1 <1>  -0.1600 
 20 O       -4.5100    -7.9320    -1.8480 O.2   1 <1>  -0.5700 
 21 N       -4.3000    -9.9660    -0.9870 N.am  1 <1>  -0.7300 
 22 C       -2.2270   -10.6300     0.2120 C.3   1 <1>  -0.1600 
 23 C       -3.7070   -10.9460    -0.0490 C.3   1 <1>   0.1400 
 24 H        0.4260    -1.7900     0.1400 H     1 <1>   0.1500 
 25 H       -3.7990    -2.2650     0.4520 H     1 <1>   0.1500 
 26 H       -3.5730    -4.6390     0.0330 H     1 <1>   0.1500 
 27 H        1.7500    -3.6990    -0.3080 H     1 <1>   0.4570 
 28 H        0.2060    -7.5270    -0.8130 H     1 <1>   0.1500 
 29 H        2.9890    -5.6580    -1.6560 H     1 <1>   0.0800 
 30 H        2.5510    -7.2030    -0.9810 H     1 <1>   0.0800 
 31 H        3.1580    -5.9500     0.0650 H     1 <1>   0.0800 
 32 H       -3.2660    -6.4720    -0.4030 H     1 <1>   0.4000 
 33 H       -1.7290    -8.5310    -1.5920 H     1 <1>   0.0800 
 34 H       -2.5700    -8.8110     1.3000 H     1 <1>   0.0800 
 35 H       -0.9490    -8.9630     0.6730 H     1 <1>   0.0800 
 36 H       -5.2490   -10.1560    -1.3180 H     1 <1>   0.3700 
 37 H       -1.8980   -11.1920     1.0680 H     1 <1>   0.0800 
 38 H       -1.6450   -10.9610    -0.6310 H     1 <1>   0.0800 
 39 H       -3.8020   -11.9390    -0.4560 H     1 <1>   0.0800 
 40 H       -4.2540   -10.9070     0.8780 H     1 <1>   0.0800 
@<TRIPOS>BOND
  1   1   2  1   
  2   2   3  1   
  3   2   4  1   
  4   2   5  1   
  5   5   6  ar  
  6   5   7  ar  
  7   6   8  ar  
  8   6  24  1   
  9   7   9  ar  
 10   7  25  1   
 11   8  10  ar  
 12   8  11  ar  
 13   9  11  ar  
 14   9  26  1   
 15  10  12  ar  
 16  10  27  1   
 17  11  13  ar  
 18  12  14  ar  
 19  12  15  1   
 20  13  14  ar  
 21  13  16  1   
 22  14  28  1   
 23  15  29  1   
 24  15  30  1   
 25  15  31  1   
 26  16  17  1   
 27  16  32  1   
 28  17  18  1   
 29  17  19  1   
 30  17  33  1   
 31  18  20  2   
 32  18  21  am  
 33  19  22  1   
 34  19  34  1   
 35  19  35  1   
 36  21  23  1   
 37  21  36  1   
 38  22  23  1   
 39  22  37  1   
 40  22  38  1   
 41  23  39  1   
 42  23  40  1   
@<TRIPOS>SUBSTRUCTURE
  1 ****  11 GROUP 4 **** **** 0

# MOE 2024.06 (io_trps.svl 2023.06)
