@<TRIPOS>MOLECULE
NONAME
56 59 1 0 0 
SMALL
USER_CHARGES


@<TRIPOS>ATOM
  1 O        1.6680    -0.5920     3.0020 O.3   1 <1>  -0.6800 
  2 C        1.6210    -0.5140     1.6120 C.3   1 <1>   0.2000 
  3 C        2.2810    -1.7470     0.9860 C.3   1 <1>  -0.0800 
  4 C        2.4980     0.6540     1.1420 C.3   1 <1>   0.2090 
  5 C        3.7720    -1.4060     0.9710 C.3   1 <1>   0.2090 
  6 C        1.9670    -3.1030     1.6520 C.3   1 <1>  -0.0170 
  7 N        3.8320     0.0690     0.8070 N.pl3 1 <1>  -0.8380 
  8 C        2.7330    -4.2430     0.9870 C.ar  1 <1>  -0.1440 
  9 C        4.9070     0.8170     0.4540 C.ar  1 <1>   0.4100 
 10 C        2.3680    -4.7800    -0.2710 C.ar  1 <1>   0.0000 
 11 C        3.8230    -4.7810     1.6080 C.ar  1 <1>  -0.1500 
 12 N        4.7260     2.1170     0.3180 N.ar  1 <1>  -0.6200 
 13 C        6.1680     0.2280     0.2410 C.ar  1 <1>  -0.1500 
 14 C        3.1770    -5.8130    -0.8040 C.ar  1 <1>   0.3100 
 15 C        1.2500    -4.3590    -1.0270 C.ar  1 <1>  -0.1500 
 16 C        4.5480    -5.8110     0.9980 C.ar  1 <1>   0.1600 
 17 C        5.7610     2.8680    -0.0260 C.ar  1 <1>   0.7710 
 18 C        7.2160     1.0110    -0.1070 C.ar  1 <1>   0.2180 
 19 N        4.2600    -6.3150    -0.1600 N.ar  1 <1>  -0.6200 
 20 C        2.8500    -6.3540    -2.0580 C.ar  1 <1>  -0.1500 
 21 C        0.9580    -4.9070    -2.2460 C.ar  1 <1>  -0.1500 
 22 N        6.9780     2.3370    -0.2300 N.ar  1 <1>  -0.1790 
 23 N        5.5970     4.2130    -0.1740 N.pl3 1 <1>  -0.8380 
 24 C        8.6230     0.4810    -0.3560 C.3   1 <1>  -0.0170 
 25 C        1.7680    -5.9160    -2.7720 C.ar  1 <1>  -0.1500 
 26 C        4.3050     4.8770     0.2070 C.3   1 <1>   0.1290 
 27 C        6.5730     5.1820    -0.7630 C.3   1 <1>   0.1290 
 28 C        9.0770     0.7030    -1.8050 C.3   1 <1>  -0.2400 
 29 H        1.0140    -1.2330     3.3380 H     1 <1>   0.4000 
 30 H        0.5940    -0.3840     1.3150 H     1 <1>   0.0800 
 31 H        1.9710    -1.7880    -0.0420 H     1 <1>   0.0800 
 32 H        2.5850     1.4090     1.9050 H     1 <1>   0.0800 
 33 H        2.0810     1.0900     0.2520 H     1 <1>   0.0800 
 34 H        4.2710    -1.9140     0.1630 H     1 <1>   0.0800 
 35 H        4.2240    -1.6720     1.9110 H     1 <1>   0.0800 
 36 H        0.9110    -3.3010     1.6130 H     1 <1>   0.0800 
 37 H        2.2420    -3.0660     2.6920 H     1 <1>   0.0800 
 38 H        4.1550    -4.4340     2.5700 H     1 <1>   0.1500 
 39 H        6.2760    -0.8320     0.3620 H     1 <1>   0.1500 
 40 H        0.6070    -3.5920    -0.6400 H     1 <1>   0.1500 
 41 H        5.4000    -6.2080     1.5240 H     1 <1>   0.1500 
 42 H        3.4850    -7.1320    -2.4410 H     1 <1>   0.1500 
 43 H        0.1060    -4.5750    -2.8140 H     1 <1>   0.1500 
 44 H        7.7060     2.9970    -0.4650 H     1 <1>   0.4570 
 45 H        9.3150     0.9550     0.3190 H     1 <1>   0.0800 
 46 H        8.6470    -0.5760    -0.1470 H     1 <1>   0.0800 
 47 H        1.5300    -6.3400    -3.7330 H     1 <1>   0.1500 
 48 H        4.4930     5.8590     0.6080 H     1 <1>   0.0800 
 49 H        3.7790     4.3130     0.9590 H     1 <1>   0.0800 
 50 H        3.6720     4.9690    -0.6590 H     1 <1>   0.0800 
 51 H        6.0560     5.8680    -1.4150 H     1 <1>   0.0800 
 52 H        7.3280     4.6880    -1.3480 H     1 <1>   0.0800 
 53 H        7.0440     5.7510     0.0220 H     1 <1>   0.0800 
 54 H        9.1440     1.7490    -2.0440 H     1 <1>   0.0800 
 55 H        8.3910     0.2330    -2.4900 H     1 <1>   0.0800 
 56 H       10.0490     0.2640    -1.9540 H     1 <1>   0.0800 
@<TRIPOS>BOND
  1   1   2  1   
  2   1  29  1   
  3   2   3  1   
  4   2   4  1   
  5   2  30  1   
  6   3   5  1   
  7   3   6  1   
  8   3  31  1   
  9   4   7  1   
 10   4  32  1   
 11   4  33  1   
 12   5   7  1   
 13   5  34  1   
 14   5  35  1   
 15   6   8  1   
 16   6  36  1   
 17   6  37  1   
 18   7   9  1   
 19   8  10  ar  
 20   8  11  ar  
 21   9  12  ar  
 22   9  13  ar  
 23  10  14  ar  
 24  10  15  ar  
 25  11  16  ar  
 26  11  38  1   
 27  12  17  ar  
 28  13  18  ar  
 29  13  39  1   
 30  14  19  ar  
 31  14  20  ar  
 32  15  21  ar  
 33  15  40  1   
 34  16  19  ar  
 35  16  41  1   
 36  17  22  ar  
 37  17  23  1   
 38  18  22  ar  
 39  18  24  1   
 40  20  25  ar  
 41  20  42  1   
 42  21  25  ar  
 43  21  43  1   
 44  22  44  1   
 45  23  26  1   
 46  23  27  1   
 47  24  28  1   
 48  24  45  1   
 49  24  46  1   
 50  25  47  1   
 51  26  48  1   
 52  26  49  1   
 53  26  50  1   
 54  27  51  1   
 55  27  52  1   
 56  27  53  1   
 57  28  54  1   
 58  28  55  1   
 59  28  56  1   
@<TRIPOS>SUBSTRUCTURE
  1 ****   5 GROUP 4 **** **** 0

# MOE 2024.06 (io_trps.svl 2023.06)
