@<TRIPOS>MOLECULE
NONAME
38 40 1 0 0 
SMALL
USER_CHARGES


@<TRIPOS>ATOM
  1 O       -0.5430     0.5650     1.4530 O.2   1 <1>  -0.5700 
  2 C       -1.3550     1.0990     0.7180 C.2   1 <1>   0.7150 
  3 N       -2.4160     0.3290     0.2840 N.am  1 <1>  -0.6600 
  4 C       -1.1610     2.4840     0.3560 C.2   1 <1>   0.0550 
  5 C       -3.6260     0.7960    -0.4460 C.3   1 <1>   0.1400 
  6 C       -2.5190    -1.1240     0.5680 C.3   1 <1>   0.1400 
  7 O       -1.8680     3.0880    -0.5730 O.3   1 <1>  -0.0190 
  8 C       -0.2900     3.4100     0.8160 C.2   1 <1>  -0.1500 
  9 C       -4.6470    -0.3240    -0.2520 C.3   1 <1>   0.2000 
 10 C       -3.7860    -1.5880    -0.1610 C.3   1 <1>  -0.0800 
 11 N       -1.5320     4.3300    -0.7470 N.2   1 <1>  -0.4100 
 12 C       -0.5760     4.5510     0.0820 C.2   1 <1>   0.1080 
 13 O       -5.2940    -0.1150     0.9570 O.3   1 <1>  -0.6800 
 14 C       -4.4760    -2.7980     0.4960 C.3   1 <1>   0.0200 
 15 C        0.1250     5.8840     0.2170 C.3   1 <1>  -0.0590 
 16 C       -3.6410    -4.0660     0.4380 C.2   1 <1>  -0.0400 
 17 O       -4.0530    -5.1180     1.0940 O.3   1 <1>  -0.0190 
 18 C       -2.4920    -4.3960    -0.1770 C.2   1 <1>  -0.1500 
 19 N       -3.2440    -6.1280     0.9570 N.2   1 <1>  -0.4100 
 20 C       -2.2940    -5.7220     0.1960 C.2   1 <1>   0.1080 
 21 C       -1.1220    -6.5780    -0.2310 C.3   1 <1>  -0.0590 
 22 H       -3.9940     1.7340    -0.0650 H     1 <1>   0.0800 
 23 H       -3.3860     0.9000    -1.4900 H     1 <1>   0.0800 
 24 H       -1.6420    -1.6410     0.2170 H     1 <1>   0.0800 
 25 H       -2.6110    -1.2680     1.6320 H     1 <1>   0.0800 
 26 H        0.4600     3.2950     1.5780 H     1 <1>   0.1500 
 27 H       -5.3860    -0.3620    -1.0340 H     1 <1>   0.0800 
 28 H       -3.5060    -1.8590    -1.1640 H     1 <1>   0.0800 
 29 H       -4.6300     0.0880     1.6460 H     1 <1>   0.4000 
 30 H       -5.4130    -2.9870     0.0030 H     1 <1>   0.0800 
 31 H       -4.6920    -2.5830     1.5280 H     1 <1>   0.0800 
 32 H        0.8790     5.8380     0.9810 H     1 <1>   0.0800 
 33 H       -0.5910     6.6430     0.4740 H     1 <1>   0.0800 
 34 H        0.5880     6.1440    -0.7180 H     1 <1>   0.0800 
 35 H       -1.8480    -3.8180    -0.8120 H     1 <1>   0.1500 
 36 H       -1.0980    -6.6570    -1.3020 H     1 <1>   0.0800 
 37 H       -1.2160    -7.5630     0.1880 H     1 <1>   0.0800 
 38 H       -0.2050    -6.1390     0.1150 H     1 <1>   0.0800 
@<TRIPOS>BOND
  1   1   2  2   
  2   2   3  am  
  3   2   4  1   
  4   3   5  1   
  5   3   6  1   
  6   4   7  1   
  7   4   8  2   
  8   5   9  1   
  9   5  22  1   
 10   5  23  1   
 11   6  10  1   
 12   6  24  1   
 13   6  25  1   
 14   7  11  1   
 15   8  12  1   
 16   8  26  1   
 17   9  10  1   
 18   9  13  1   
 19   9  27  1   
 20  10  14  1   
 21  10  28  1   
 22  11  12  2   
 23  12  15  1   
 24  13  29  1   
 25  14  16  1   
 26  14  30  1   
 27  14  31  1   
 28  15  32  1   
 29  15  33  1   
 30  15  34  1   
 31  16  17  1   
 32  16  18  2   
 33  17  19  1   
 34  18  20  1   
 35  18  35  1   
 36  19  20  2   
 37  20  21  1   
 38  21  36  1   
 39  21  37  1   
 40  21  38  1   
@<TRIPOS>SUBSTRUCTURE
  1 ****   6 GROUP 4 **** **** 0

# MOE 2024.06 (io_trps.svl 2023.06)
