@<TRIPOS>MOLECULE
NONAME
44 46 1 0 0 
SMALL
USER_CHARGES


@<TRIPOS>ATOM
  1 F        3.4120     2.9700    -0.0410 F     1 <1>  -0.3400 
  2 C        3.1500     1.6720    -0.1160 C.3   1 <1>   0.8800 
  3 F        1.9080     1.5240     0.3190 F     1 <1>  -0.3400 
  4 O        4.0070     1.0150     0.7930 O.3   1 <1>  -0.3630 
  5 C        4.5840    -0.1280     0.3760 C.ar  1 <1>   0.0830 
  6 C        5.5690    -0.1280    -0.6210 C.ar  1 <1>   0.0860 
  7 C        4.1850    -1.3060     0.9860 C.ar  1 <1>  -0.1500 
  8 C        6.0430     1.0940    -1.2330 C.2   1 <1>   0.5440 
  9 C        6.0910    -1.3610    -1.0130 C.ar  1 <1>  -0.1500 
 10 C        4.7340    -2.5120     0.5930 C.ar  1 <1>  -0.1500 
 11 O        5.9160     1.2350    -2.4310 O.2   1 <1>  -0.5700 
 12 N        6.6270     2.1210    -0.5170 N.am  1 <1>  -0.6600 
 13 C        5.6840    -2.5390    -0.4140 C.ar  1 <1>  -0.1500 
 14 C        7.1560     1.9230     0.8870 C.3   1 <1>   0.2200 
 15 C        6.6610     3.4940    -1.1310 C.3   1 <1>   0.1400 
 16 C        6.5610     2.9200     1.8960 C.3   1 <1>   0.1200 
 17 C        8.7030     1.9650     0.9110 C.3   1 <1>   0.3430 
 18 C        7.5820     4.5150    -0.4390 C.3   1 <1>  -0.0800 
 19 O        7.3030     4.1020     1.9170 O.3   1 <1>  -0.5600 
 20 N        9.2820     2.6190    -0.3140 N.4   1 <1>  -0.9590 
 21 C        7.0130     5.0020     0.9020 C.3   1 <1>   0.1200 
 22 C        9.0630     4.1000    -0.3340 C.3   1 <1>   0.3430 
 23 C       10.7220     2.2760    -0.4950 C.3   1 <1>   0.2630 
 24 H        3.2390     1.3280    -1.1320 H     1 <1>   0.0800 
 25 H        3.4410    -1.2790     1.7640 H     1 <1>   0.1500 
 26 H        6.8230    -1.3930    -1.8020 H     1 <1>   0.1500 
 27 H        4.4200    -3.4290     1.0630 H     1 <1>   0.1500 
 28 H        6.1010    -3.4810    -0.7300 H     1 <1>   0.1500 
 29 H        6.8670     0.9500     1.2400 H     1 <1>   0.0800 
 30 H        6.9720     3.4060    -2.1590 H     1 <1>   0.0800 
 31 H        5.6560     3.8810    -1.1460 H     1 <1>   0.0800 
 32 H        6.6260     2.5020     2.8850 H     1 <1>   0.0800 
 33 H        5.5250     3.1310     1.6910 H     1 <1>   0.0800 
 34 H        9.0570     0.9490     0.9670 H     1 <1>   0.0800 
 35 H        9.0380     2.4730     1.8000 H     1 <1>   0.0800 
 36 H        7.5640     5.3870    -1.0670 H     1 <1>   0.0800 
 37 H        8.7230     2.2360    -1.0970 H     1 <1>   0.4500 
 38 H        5.9470     5.1580     0.8560 H     1 <1>   0.0800 
 39 H        7.4740     5.9360     1.1770 H     1 <1>   0.0800 
 40 H        9.4930     4.5450     0.5490 H     1 <1>   0.0800 
 41 H        9.5800     4.5080    -1.1880 H     1 <1>   0.0800 
 42 H       11.3050     2.6630     0.3260 H     1 <1>   0.0800 
 43 H       11.0950     2.7000    -1.4130 H     1 <1>   0.0800 
 44 H       10.8500     1.2070    -0.5360 H     1 <1>   0.0800 
@<TRIPOS>BOND
  1   1   2  1   
  2   2   3  1   
  3   2   4  1   
  4   2  24  1   
  5   4   5  1   
  6   5   6  ar  
  7   5   7  ar  
  8   6   8  1   
  9   6   9  ar  
 10   7  10  ar  
 11   7  25  1   
 12   8  11  2   
 13   8  12  am  
 14   9  13  ar  
 15   9  26  1   
 16  10  13  ar  
 17  10  27  1   
 18  12  14  1   
 19  12  15  1   
 20  13  28  1   
 21  14  16  1   
 22  14  17  1   
 23  14  29  1   
 24  15  18  1   
 25  15  30  1   
 26  15  31  1   
 27  16  19  1   
 28  16  32  1   
 29  16  33  1   
 30  17  20  1   
 31  17  34  1   
 32  17  35  1   
 33  18  21  1   
 34  18  22  1   
 35  18  36  1   
 36  19  21  1   
 37  20  22  1   
 38  20  23  1   
 39  20  37  1   
 40  21  38  1   
 41  21  39  1   
 42  22  40  1   
 43  22  41  1   
 44  23  42  1   
 45  23  43  1   
 46  23  44  1   
@<TRIPOS>SUBSTRUCTURE
  1 ****  12 GROUP 4 **** **** 0

# MOE 2024.06 (io_trps.svl 2023.06)
