@<TRIPOS>MOLECULE
NONAME
55 58 1 0 0 
SMALL
USER_CHARGES


@<TRIPOS>ATOM
  1 CL      -1.3420    -0.3260     3.0520 Cl    1 <1>  -0.1770 
  2 C       -1.8940    -1.7710     2.2470 C.ar  1 <1>   0.1770 
  3 C       -0.9850    -2.7610     1.9270 C.ar  1 <1>  -0.1500 
  4 C       -3.2330    -1.9110     1.9370 C.ar  1 <1>  -0.1500 
  5 C       -1.4290    -3.9050     1.2880 C.ar  1 <1>  -0.1500 
  6 C       -3.6640    -3.0590     1.2960 C.ar  1 <1>  -0.1500 
  7 C       -2.7760    -4.0840     0.9590 C.ar  1 <1>   0.0530 
  8 C       -3.2180    -5.2860     0.2920 C.2   1 <1>   0.0870 
  9 O       -2.3710    -6.0150    -0.3970 O.3   1 <1>  -0.0190 
 10 C       -4.4230    -5.9010     0.1960 C.2   1 <1>  -0.2330 
 11 N       -2.9300    -7.0620    -0.9470 N.2   1 <1>  -0.4100 
 12 C       -4.1690    -7.0130    -0.6050 C.2   1 <1>   0.3720 
 13 C       -5.6840    -5.5550     0.7580 C.2   1 <1>   1.0330 
 14 N       -5.0950    -7.9700    -1.0260 N.pl3 1 <1>  -0.8210 
 15 O       -6.4680    -4.8170     0.1380 O.co2 1 <1>  -0.9000 
 16 O       -6.0210    -5.9910     1.8720 O.co2 1 <1>  -0.9000 
 17 C       -5.8080    -8.6550     0.0900 C.3   1 <1>   0.2090 
 18 C       -6.0540    -7.4420    -2.0270 C.3   1 <1>   0.2090 
 19 C       -6.5740    -9.8920    -0.4210 C.3   1 <1>   0.0000 
 20 C       -6.8520    -8.6050    -2.6260 C.3   1 <1>  -0.1600 
 21 C       -7.3600   -10.4810     0.7640 C.3   1 <1>   0.1400 
 22 C       -5.5740   -10.9630    -0.9050 C.3   1 <1>  -0.1600 
 23 C       -7.5560    -9.4300    -1.5320 C.3   1 <1>  -0.1600 
 24 N       -7.9870   -11.8070     0.4540 N.am  1 <1>  -0.6600 
 25 C       -6.2830   -12.2510    -1.3520 C.3   1 <1>  -0.0990 
 26 C       -7.4610   -12.6640    -0.4830 C.2   1 <1>   0.5690 
 27 C       -9.1850   -12.1980     1.2480 C.3   1 <1>   0.2200 
 28 O       -7.9150   -13.7670    -0.6800 O.2   1 <1>  -0.5700 
 29 C      -10.3910   -11.3700     0.8060 C.3   1 <1>  -0.2400 
 30 C       -8.9190   -12.0550     2.7480 C.3   1 <1>  -0.2400 
 31 H        0.0520    -2.6340     2.1760 H     1 <1>   0.1500 
 32 H       -3.9300    -1.1330     2.1920 H     1 <1>   0.1500 
 33 H       -0.7240    -4.6790     1.0420 H     1 <1>   0.1500 
 34 H       -4.7090    -3.1560     1.0530 H     1 <1>   0.1500 
 35 H       -6.5160    -7.9780     0.5360 H     1 <1>   0.0800 
 36 H       -5.0960    -8.9360     0.8470 H     1 <1>   0.0800 
 37 H       -5.5130    -6.9260    -2.8020 H     1 <1>   0.0800 
 38 H       -6.7230    -6.7390    -1.5570 H     1 <1>   0.0800 
 39 H       -6.1830    -9.2280    -3.1900 H     1 <1>   0.0800 
 40 H       -7.5850    -8.2110    -3.3060 H     1 <1>   0.0800 
 41 H       -8.1150    -9.7760     1.0640 H     1 <1>   0.0800 
 42 H       -6.6940   -10.6160     1.5980 H     1 <1>   0.0800 
 43 H       -4.9100   -11.2040    -0.0930 H     1 <1>   0.0800 
 44 H       -4.9650   -10.5850    -1.7070 H     1 <1>   0.0800 
 45 H       -8.3100    -8.8040    -1.0850 H     1 <1>   0.0800 
 46 H       -8.0650   -10.2650    -1.9770 H     1 <1>   0.0800 
 47 H       -5.5740   -13.0570    -1.3750 H     1 <1>   0.0800 
 48 H       -6.6520   -12.1220    -2.3530 H     1 <1>   0.0800 
 49 H       -9.4130   -13.2350     1.0590 H     1 <1>   0.0800 
 50 H      -10.2620   -10.3300     1.0410 H     1 <1>   0.0800 
 51 H      -11.2740   -11.7220     1.3060 H     1 <1>   0.0800 
 52 H      -10.5360   -11.4810    -0.2540 H     1 <1>   0.0800 
 53 H       -8.7980   -11.0250     3.0300 H     1 <1>   0.0800 
 54 H       -8.0380   -12.6090     3.0160 H     1 <1>   0.0800 
 55 H       -9.7500   -12.4570     3.2990 H     1 <1>   0.0800 
@<TRIPOS>BOND
  1   1   2  1   
  2   2   3  ar  
  3   2   4  ar  
  4   3   5  ar  
  5   3  31  1   
  6   4   6  ar  
  7   4  32  1   
  8   5   7  ar  
  9   5  33  1   
 10   6   7  ar  
 11   6  34  1   
 12   7   8  1   
 13   8   9  1   
 14   8  10  2   
 15   9  11  1   
 16  10  12  1   
 17  10  13  1   
 18  11  12  2   
 19  12  14  1   
 20  13  15  ar  
 21  13  16  ar  
 22  14  17  1   
 23  14  18  1   
 24  17  19  1   
 25  17  35  1   
 26  17  36  1   
 27  18  20  1   
 28  18  37  1   
 29  18  38  1   
 30  19  21  1   
 31  19  22  1   
 32  19  23  1   
 33  20  23  1   
 34  20  39  1   
 35  20  40  1   
 36  21  24  1   
 37  21  41  1   
 38  21  42  1   
 39  22  25  1   
 40  22  43  1   
 41  22  44  1   
 42  23  45  1   
 43  23  46  1   
 44  24  26  am  
 45  24  27  1   
 46  25  26  1   
 47  25  47  1   
 48  25  48  1   
 49  26  28  2   
 50  27  29  1   
 51  27  30  1   
 52  27  49  1   
 53  29  50  1   
 54  29  51  1   
 55  29  52  1   
 56  30  53  1   
 57  30  54  1   
 58  30  55  1   
@<TRIPOS>SUBSTRUCTURE
  1 ****  17 GROUP 4 **** **** 0

# MOE 2024.06 (io_trps.svl 2023.06)
