@<TRIPOS>MOLECULE
NONAME
53 56 1 0 0 
SMALL
USER_CHARGES


@<TRIPOS>ATOM
  1 S        0.4720    -0.9430    -1.6970 S.o2  1 <1>   1.5000 
  2 O       -0.2890    -0.4690    -2.8310 O.2   1 <1>  -0.6500 
  3 O        1.2480    -2.1560    -1.8360 O.2   1 <1>  -0.6500 
  4 N       -0.6920    -1.3010    -0.5120 N.am  1 <1>  -0.8490 
  5 C        1.4880     0.3580    -0.9550 C.2   1 <1>  -0.0220 
  6 C       -1.4410    -2.5040    -0.9000 C.3   1 <1>   0.1960 
  7 C       -1.5860    -0.1630    -0.2550 C.3   1 <1>   0.1960 
  8 S        1.2090     2.0210    -1.4640 S.3   1 <1>  -0.0800 
  9 C        2.4570     0.3430    -0.0170 C.2   1 <1>  -0.1500 
 10 C       -2.4740    -2.9180     0.1780 C.3   1 <1>   0.4230 
 11 C       -2.5630    -0.5220     0.8700 C.3   1 <1>  -0.1600 
 12 C        2.4390     2.6600    -0.3750 C.2   1 <1>   0.0410 
 13 C        2.9900     1.6270     0.3050 C.2   1 <1>  -0.1500 
 14 N       -3.1790    -4.2420    -0.1040 N.4   1 <1>  -0.9590 
 15 C       -3.4420    -1.7560     0.5320 C.3   1 <1>   0.0000 
 16 C        2.6850     4.0800    -0.3450 C.2   1 <1>   0.2260 
 17 C       -4.4420    -4.4400     0.6820 C.3   1 <1>   0.3430 
 18 C       -3.4290    -4.5440    -1.5540 C.3   1 <1>   0.2630 
 19 C       -4.2720    -2.1480     1.7890 C.3   1 <1>  -0.1600 
 20 C       -4.3820    -1.4430    -0.6670 C.3   1 <1>   0.1200 
 21 N        3.6360     4.5670     0.5530 N.2   1 <1>  -0.5650 
 22 C        2.0880     5.0270    -1.1000 C.2   1 <1>  -0.1100 
 23 C       -4.3950    -3.6700     2.0010 C.3   1 <1>  -0.1600 
 24 O       -5.0800    -0.2630    -0.4710 O.3   1 <1>  -0.6800 
 25 C        3.7590     5.8290     0.4840 C.2   1 <1>   0.1980 
 26 S        2.7200     6.5920    -0.6960 S.3   1 <1>  -0.0800 
 27 C        4.6760     6.7240     1.2830 C.3   1 <1>  -0.0600 
 28 H       -1.9260    -2.3230    -1.8440 H     1 <1>   0.0800 
 29 H       -0.7470    -3.3180    -1.0250 H     1 <1>   0.0800 
 30 H       -1.0070     0.6920     0.0560 H     1 <1>   0.0800 
 31 H       -2.1230     0.1130    -1.1490 H     1 <1>   0.0800 
 32 H        2.8270    -0.5430     0.4710 H     1 <1>   0.1500 
 33 H       -1.8900    -3.0740     1.0700 H     1 <1>   0.0800 
 34 H       -1.9820    -0.7080     1.7570 H     1 <1>   0.0800 
 35 H       -3.1780     0.3360     1.0800 H     1 <1>   0.0800 
 36 H        3.7710     1.7420     1.0380 H     1 <1>   0.1500 
 37 H       -2.5230    -4.9620     0.2350 H     1 <1>   0.4500 
 38 H       -5.2860    -4.0880     0.1110 H     1 <1>   0.0800 
 39 H       -4.5910    -5.4910     0.8770 H     1 <1>   0.0800 
 40 H       -4.0800    -3.8040    -1.9890 H     1 <1>   0.0800 
 41 H       -3.8930    -5.5120    -1.6590 H     1 <1>   0.0800 
 42 H       -2.5020    -4.5550    -2.1050 H     1 <1>   0.0800 
 43 H       -3.8280    -1.7340     2.6800 H     1 <1>   0.0800 
 44 H       -5.2590    -1.7220     1.7250 H     1 <1>   0.0800 
 45 H       -5.1070    -2.2220    -0.8200 H     1 <1>   0.0800 
 46 H       -3.8280    -1.3160    -1.5800 H     1 <1>   0.0800 
 47 H        1.3340     4.9680    -1.8630 H     1 <1>   0.1500 
 48 H       -5.2900    -3.8750     2.5630 H     1 <1>   0.0800 
 49 H       -3.5680    -4.0300     2.5890 H     1 <1>   0.0800 
 50 H       -5.7050    -0.3190     0.2790 H     1 <1>   0.4000 
 51 H        5.2560     6.1320     1.9670 H     1 <1>   0.0800 
 52 H        4.0960     7.4360     1.8400 H     1 <1>   0.0800 
 53 H        5.3410     7.2470     0.6210 H     1 <1>   0.0800 
@<TRIPOS>BOND
  1   1   2  2   
  2   1   3  2   
  3   1   4  am  
  4   1   5  1   
  5   4   6  1   
  6   4   7  1   
  7   5   8  1   
  8   5   9  2   
  9   6  10  1   
 10   6  28  1   
 11   6  29  1   
 12   7  11  1   
 13   7  30  1   
 14   7  31  1   
 15   8  12  1   
 16   9  13  1   
 17   9  32  1   
 18  10  14  1   
 19  10  15  1   
 20  10  33  1   
 21  11  15  1   
 22  11  34  1   
 23  11  35  1   
 24  12  13  2   
 25  12  16  1   
 26  13  36  1   
 27  14  17  1   
 28  14  18  1   
 29  14  37  1   
 30  15  19  1   
 31  15  20  1   
 32  16  21  1   
 33  16  22  2   
 34  17  23  1   
 35  17  38  1   
 36  17  39  1   
 37  18  40  1   
 38  18  41  1   
 39  18  42  1   
 40  19  23  1   
 41  19  43  1   
 42  19  44  1   
 43  20  24  1   
 44  20  45  1   
 45  20  46  1   
 46  21  25  2   
 47  22  26  1   
 48  22  47  1   
 49  23  48  1   
 50  23  49  1   
 51  24  50  1   
 52  25  26  1   
 53  25  27  1   
 54  27  51  1   
 55  27  52  1   
 56  27  53  1   
@<TRIPOS>SUBSTRUCTURE
  1 ****   7 GROUP 4 **** **** 0

# MOE 2024.06 (io_trps.svl 2023.06)
