@<TRIPOS>MOLECULE
NONAME
43 45 1 0 0 
SMALL
USER_CHARGES


@<TRIPOS>ATOM
  1 S       -0.9530    -0.3650    -1.5360 S.3   1 <1>  -0.0800 
  2 C       -1.8420    -1.2100    -0.2950 C.2   1 <1>  -0.1400 
  3 C       -0.9770     1.0750    -0.5550 C.2   1 <1>   0.2280 
  4 C       -2.0730    -0.3450     0.7170 C.2   1 <1>   0.0460 
  5 C       -2.1270    -2.6670    -0.6470 C.3   1 <1>   0.0200 
  6 N       -1.5750     0.9380     0.5570 N.2   1 <1>  -0.5650 
  7 C       -2.8060    -0.5450     2.0290 C.3   1 <1>  -0.0590 
  8 C       -2.7360    -3.5040     0.4780 C.3   1 <1>   0.2090 
  9 N       -2.8140    -4.9360     0.0700 N.pl3 1 <1>  -0.8380 
 10 C       -3.9510    -5.4730    -0.5100 C.ar  1 <1>   0.7200 
 11 C       -1.6650    -5.7930     0.4820 C.3   1 <1>   0.1290 
 12 N       -4.0270    -6.8010    -0.5560 N.ar  1 <1>  -0.6200 
 13 N       -4.8550    -4.6050    -0.9660 N.ar  1 <1>  -0.6200 
 14 C       -5.1050    -7.3220    -1.1100 C.ar  1 <1>   0.4100 
 15 C       -5.9290    -5.1310    -1.5210 C.ar  1 <1>   0.1600 
 16 N       -5.1910    -8.7090    -1.1470 N.pl3 1 <1>  -0.8380 
 17 C       -6.0940    -6.4820    -1.6110 C.ar  1 <1>   0.1900 
 18 C       -6.3000    -9.3820    -0.4070 C.3   1 <1>   0.2090 
 19 C       -3.9490    -9.5430    -1.1810 C.3   1 <1>   0.2090 
 20 F       -7.1860    -6.9620    -2.1730 F     1 <1>  -0.1900 
 21 C       -5.8110    -9.9060     0.9570 C.3   1 <1>   0.1200 
 22 C       -3.5910   -10.0520     0.2270 C.3   1 <1>   0.1200 
 23 O       -4.6780   -10.7170     0.8120 O.3   1 <1>  -0.5600 
 24 H       -0.4950     1.9500    -0.9530 H     1 <1>   0.1500 
 25 H       -1.2010    -3.1260    -0.9420 H     1 <1>   0.0800 
 26 H       -2.7930    -2.6920    -1.4920 H     1 <1>   0.0800 
 27 H       -3.2480    -1.5140     2.1150 H     1 <1>   0.0800 
 28 H       -3.5880     0.1890     2.1110 H     1 <1>   0.0800 
 29 H       -2.1210    -0.4030     2.8450 H     1 <1>   0.0800 
 30 H       -3.7210    -3.1360     0.7090 H     1 <1>   0.0800 
 31 H       -2.1300    -3.4180     1.3620 H     1 <1>   0.0800 
 32 H       -0.7650    -5.2080     0.5490 H     1 <1>   0.0800 
 33 H       -1.5070    -6.5760    -0.2400 H     1 <1>   0.0800 
 34 H       -1.8730    -6.2380     1.4400 H     1 <1>   0.0800 
 35 H       -6.6840    -4.4690    -1.9070 H     1 <1>   0.1500 
 36 H       -6.6690   -10.2050    -0.9930 H     1 <1>   0.0800 
 37 H       -7.1130    -8.6960    -0.2500 H     1 <1>   0.0800 
 38 H       -3.1290    -8.9720    -1.5800 H     1 <1>   0.0800 
 39 H       -4.1080   -10.3850    -1.8310 H     1 <1>   0.0800 
 40 H       -6.5790   -10.4950     1.4250 H     1 <1>   0.0800 
 41 H       -5.5620    -9.0820     1.6040 H     1 <1>   0.0800 
 42 H       -3.3090    -9.2270     0.8580 H     1 <1>   0.0800 
 43 H       -2.7710   -10.7440     0.1730 H     1 <1>   0.0800 
@<TRIPOS>BOND
  1   1   2  1   
  2   1   3  1   
  3   2   4  2   
  4   2   5  1   
  5   3   6  2   
  6   3  24  1   
  7   4   6  1   
  8   4   7  1   
  9   5   8  1   
 10   5  25  1   
 11   5  26  1   
 12   7  27  1   
 13   7  28  1   
 14   7  29  1   
 15   8   9  1   
 16   8  30  1   
 17   8  31  1   
 18   9  10  1   
 19   9  11  1   
 20  10  12  ar  
 21  10  13  ar  
 22  11  32  1   
 23  11  33  1   
 24  11  34  1   
 25  12  14  ar  
 26  13  15  ar  
 27  14  16  1   
 28  14  17  ar  
 29  15  17  ar  
 30  15  35  1   
 31  16  18  1   
 32  16  19  1   
 33  17  20  1   
 34  18  21  1   
 35  18  36  1   
 36  18  37  1   
 37  19  22  1   
 38  19  38  1   
 39  19  39  1   
 40  21  23  1   
 41  21  40  1   
 42  21  41  1   
 43  22  23  1   
 44  22  42  1   
 45  22  43  1   
@<TRIPOS>SUBSTRUCTURE
  1 ****  10 GROUP 4 **** **** 0

# MOE 2024.06 (io_trps.svl 2023.06)
