@<TRIPOS>MOLECULE
NONAME
43 47 1 0 0 
SMALL
USER_CHARGES


@<TRIPOS>ATOM
  1 S       -0.1060     0.2880    -2.0610 S.3   1 <1>  -0.0800 
  2 C       -1.0360     1.0100    -0.7570 C.2   1 <1>  -0.1400 
  3 C       -1.3250    -0.9610    -2.2810 C.2   1 <1>  -0.1100 
  4 C       -2.1740     0.3310    -0.5540 C.2   1 <1>  -0.1810 
  5 C       -0.5680     2.2420     0.0080 C.3   1 <1>   0.4600 
  6 C       -2.3440    -0.7980    -1.4150 C.2   1 <1>  -0.1500 
  7 C       -3.1360     0.7940     0.5170 C.3   1 <1>   0.0210 
  8 O       -1.4540     2.4650     1.0890 O.3   1 <1>  -0.5600 
  9 C        0.8120     2.0050     0.6270 C.3   1 <1>  -0.1600 
 10 C       -0.5460     3.4860    -0.8880 C.3   1 <1>  -0.1600 
 11 C       -2.8310     2.2630     0.8690 C.3   1 <1>   0.1200 
 12 C        1.3020     3.2480     1.3640 C.3   1 <1>   0.2090 
 13 C       -0.0230     4.7130    -0.1420 C.3   1 <1>   0.2090 
 14 N        1.3270     4.4030     0.4150 N.pl3 1 <1>  -0.8380 
 15 C        2.4680     5.0830     0.0930 C.ar  1 <1>   0.4100 
 16 N        3.5990     4.3860     0.1650 N.ar  1 <1>  -0.6200 
 17 C        2.4870     6.4580    -0.3050 C.ar  1 <1>   0.2270 
 18 C        4.7320     4.9700    -0.1630 C.ar  1 <1>   0.7710 
 19 N        1.5170     7.4210    -0.4270 N.2   1 <1>  -0.5650 
 20 C        3.6920     7.0170    -0.6270 C.ar  1 <1>   0.1560 
 21 N        4.8250     6.2540    -0.5590 N.ar  1 <1>  -0.1260 
 22 N        5.8210     4.2090    -0.0830 N.pl3 1 <1>  -0.9000 
 23 C        2.1370     8.4810    -0.8080 C.2   1 <1>   0.0360 
 24 N        3.4750     8.3060    -0.9530 N.pl3 1 <1>   0.0330 
 25 H       -1.1460    -1.6940    -3.0470 H     1 <1>   0.1500 
 26 H       -3.2120    -1.4290    -1.3440 H     1 <1>   0.1500 
 27 H       -3.0290     0.1780     1.3920 H     1 <1>   0.0800 
 28 H       -4.1480     0.7150     0.1640 H     1 <1>   0.0800 
 29 H        1.5220     1.7620    -0.1410 H     1 <1>   0.0800 
 30 H        0.7580     1.1720     1.3030 H     1 <1>   0.0800 
 31 H       -1.5270     3.6810    -1.2770 H     1 <1>   0.0800 
 32 H        0.0980     3.3020    -1.7280 H     1 <1>   0.0800 
 33 H       -3.3510     2.5440     1.7680 H     1 <1>   0.0800 
 34 H       -3.1490     2.9120     0.0720 H     1 <1>   0.0800 
 35 H        2.2760     3.0630     1.7810 H     1 <1>   0.0800 
 36 H        0.6370     3.4760     2.1800 H     1 <1>   0.0800 
 37 H       -0.6900     4.9760     0.6620 H     1 <1>   0.0800 
 38 H        0.0150     5.5340    -0.8320 H     1 <1>   0.0800 
 39 H        5.7490     6.6050    -0.7870 H     1 <1>   0.4570 
 40 H        6.7960     4.4380    -0.2850 H     1 <1>   0.4000 
 41 H        5.6830     3.2370     0.2180 H     1 <1>   0.4000 
 42 H        1.6590     9.4310    -0.9980 H     1 <1>   0.1500 
 43 H        4.1380     9.0330    -1.2420 H     1 <1>   0.2700 
@<TRIPOS>BOND
  1   1   2  1   
  2   1   3  1   
  3   2   4  2   
  4   2   5  1   
  5   3   6  2   
  6   3  25  1   
  7   4   6  1   
  8   4   7  1   
  9   5   8  1   
 10   5   9  1   
 11   5  10  1   
 12   6  26  1   
 13   7  11  1   
 14   7  27  1   
 15   7  28  1   
 16   8  11  1   
 17   9  12  1   
 18   9  29  1   
 19   9  30  1   
 20  10  13  1   
 21  10  31  1   
 22  10  32  1   
 23  11  33  1   
 24  11  34  1   
 25  12  14  1   
 26  12  35  1   
 27  12  36  1   
 28  13  14  1   
 29  13  37  1   
 30  13  38  1   
 31  14  15  1   
 32  15  16  ar  
 33  15  17  ar  
 34  16  18  ar  
 35  17  19  1   
 36  17  20  ar  
 37  18  21  ar  
 38  18  22  1   
 39  19  23  2   
 40  20  21  ar  
 41  20  24  1   
 42  21  39  1   
 43  22  40  1   
 44  22  41  1   
 45  23  24  1   
 46  23  42  1   
 47  24  43  1   
@<TRIPOS>SUBSTRUCTURE
  1 ****  14 GROUP 4 **** **** 0

# MOE 2024.06 (io_trps.svl 2023.06)
