@<TRIPOS>MOLECULE
NONAME
56 58 1 0 0 
SMALL
USER_CHARGES


@<TRIPOS>ATOM
  1 F       -0.6560     0.0510    -0.0310 F     1 <1>  -0.1900 
  2 C       -1.9040     0.4440    -0.0570 C.ar  1 <1>   0.1900 
  3 C       -2.4400     1.2810     0.9290 C.ar  1 <1>   0.0830 
  4 C       -2.6690    -0.0090    -1.1150 C.ar  1 <1>  -0.1500 
  5 O       -1.7910     1.7930     2.0140 O.3   1 <1>  -0.3630 
  6 C       -3.7720     1.6430     0.8090 C.ar  1 <1>  -0.1500 
  7 C       -3.9960     0.3720    -1.2030 C.ar  1 <1>  -0.1500 
  8 C       -0.4450     1.4980     2.3140 C.3   1 <1>   0.0400 
  9 C       -4.5770     1.2010    -0.2420 C.ar  1 <1>   0.0530 
 10 C       -5.9550     1.6140    -0.3280 C.2   1 <1>   0.0870 
 11 O       -6.2620     2.8610    -0.0780 O.3   1 <1>  -0.0190 
 12 C       -7.1170     0.9720    -0.6330 C.2   1 <1>  -0.0860 
 13 N       -7.5370     3.1100    -0.2030 N.2   1 <1>  -0.4100 
 14 C       -8.0750     1.9920    -0.5390 C.2   1 <1>   0.3720 
 15 C       -7.3790    -0.4010    -0.9480 C.2   1 <1>   0.7160 
 16 N       -9.4540     1.8570    -0.7740 N.pl3 1 <1>  -0.8210 
 17 O       -6.5180    -1.2580    -0.8810 O.2   1 <1>  -0.5700 
 18 N       -8.6300    -0.7960    -1.3130 N.am  1 <1>  -0.7300 
 19 C       -9.8840     2.5670    -2.0120 C.3   1 <1>   0.1290 
 20 C      -10.2790     2.2880     0.3910 C.3   1 <1>   0.1290 
 21 C       -9.0570    -2.1750    -1.6150 C.3   1 <1>   0.1400 
 22 C       -9.3030    -2.9430    -0.3070 C.3   1 <1>  -0.0800 
 23 C       -9.4730    -4.4440    -0.6080 C.3   1 <1>   0.3430 
 24 C      -10.4930    -2.3760     0.4930 C.3   1 <1>  -0.1600 
 25 N      -10.3610    -5.1400     0.3840 N.4   1 <1>  -0.9590 
 26 C      -10.6870    -3.1550     1.8090 C.3   1 <1>  -0.1600 
 27 C      -10.1780    -4.6010     1.7610 C.3   1 <1>   0.3430 
 28 C      -10.1610    -6.6190     0.3430 C.3   1 <1>   0.2630 
 29 H       -2.2310    -0.6520    -1.8570 H     1 <1>   0.1500 
 30 H       -4.1950     2.2870     1.5590 H     1 <1>   0.1500 
 31 H       -4.5900     0.0210    -2.0280 H     1 <1>   0.1500 
 32 H       -0.1870     2.0060     3.2260 H     1 <1>   0.0800 
 33 H        0.1790     1.8510     1.5120 H     1 <1>   0.0800 
 34 H       -0.3400     0.4360     2.4470 H     1 <1>   0.0800 
 35 H       -9.3430    -0.0500    -1.2670 H     1 <1>   0.3700 
 36 H       -9.2700     2.2600    -2.8420 H     1 <1>   0.0800 
 37 H       -9.7810     3.6320    -1.8840 H     1 <1>   0.0800 
 38 H      -10.9100     2.3350    -2.2350 H     1 <1>   0.0800 
 39 H       -9.9160     1.8190     1.2900 H     1 <1>   0.0800 
 40 H      -11.3060     2.0050     0.2420 H     1 <1>   0.0800 
 41 H      -10.2200     3.3570     0.5150 H     1 <1>   0.0800 
 42 H       -8.2760    -2.6560    -2.1820 H     1 <1>   0.0800 
 43 H       -9.9470    -2.1480    -2.2200 H     1 <1>   0.0800 
 44 H       -8.4130    -2.8460     0.2910 H     1 <1>   0.0800 
 45 H       -8.4960    -4.9010    -0.6110 H     1 <1>   0.0800 
 46 H       -9.8930    -4.5640    -1.5940 H     1 <1>   0.0800 
 47 H      -11.3870    -2.4470    -0.1030 H     1 <1>   0.0800 
 48 H      -10.3360    -1.3340     0.7170 H     1 <1>   0.0800 
 49 H      -11.3350    -4.9290     0.1230 H     1 <1>   0.4500 
 50 H      -11.7290    -3.1470     2.0780 H     1 <1>   0.0800 
 51 H      -10.1590    -2.6500     2.6000 H     1 <1>   0.0800 
 52 H       -9.1310    -4.6230     2.0160 H     1 <1>   0.0800 
 53 H      -10.7160    -5.1990     2.4800 H     1 <1>   0.0800 
 54 H       -9.1500    -6.8670     0.6240 H     1 <1>   0.0800 
 55 H      -10.3450    -6.9940    -0.6510 H     1 <1>   0.0800 
 56 H      -10.8380    -7.1080     1.0250 H     1 <1>   0.0800 
@<TRIPOS>BOND
  1   1   2  1   
  2   2   3  ar  
  3   2   4  ar  
  4   3   5  1   
  5   3   6  ar  
  6   4   7  ar  
  7   4  29  1   
  8   5   8  1   
  9   6   9  ar  
 10   6  30  1   
 11   7   9  ar  
 12   7  31  1   
 13   8  32  1   
 14   8  33  1   
 15   8  34  1   
 16   9  10  1   
 17  10  11  1   
 18  10  12  2   
 19  11  13  1   
 20  12  14  1   
 21  12  15  1   
 22  13  14  2   
 23  14  16  1   
 24  15  17  2   
 25  15  18  am  
 26  16  19  1   
 27  16  20  1   
 28  18  21  1   
 29  18  35  1   
 30  19  36  1   
 31  19  37  1   
 32  19  38  1   
 33  20  39  1   
 34  20  40  1   
 35  20  41  1   
 36  21  22  1   
 37  21  42  1   
 38  21  43  1   
 39  22  23  1   
 40  22  24  1   
 41  22  44  1   
 42  23  25  1   
 43  23  45  1   
 44  23  46  1   
 45  24  26  1   
 46  24  47  1   
 47  24  48  1   
 48  25  27  1   
 49  25  28  1   
 50  25  49  1   
 51  26  27  1   
 52  26  50  1   
 53  26  51  1   
 54  27  52  1   
 55  27  53  1   
 56  28  54  1   
 57  28  55  1   
 58  28  56  1   
@<TRIPOS>SUBSTRUCTURE
  1 ****  15 GROUP 4 **** **** 0

# MOE 2024.06 (io_trps.svl 2023.06)
