@<TRIPOS>MOLECULE
NONAME
49 50 1 0 0 
SMALL
USER_CHARGES


@<TRIPOS>ATOM
  1 O       -0.6500    -0.2070    -0.0330 O.2   1 <1>  -0.5700 
  2 C       -1.5840     0.5360    -0.2430 C.2   1 <1>   0.5690 
  3 N       -2.6710     0.1230    -0.9750 N.am  1 <1>  -0.6600 
  4 C       -1.5140     1.9280     0.3820 C.3   1 <1>   0.1810 
  5 C       -2.7580    -1.2760    -1.4950 C.3   1 <1>   0.3210 
  6 C       -3.8250     1.0170    -1.3290 C.3   1 <1>   0.1400 
  7 O       -1.3790     2.9380    -0.6050 O.3   1 <1>  -0.3630 
  8 C       -3.9010    -2.0280    -0.8240 C.2   1 <1>   0.0460 
  9 C       -4.9940     0.9570    -0.3240 C.3   1 <1>   0.1200 
 10 C       -1.0020     4.1490    -0.1410 C.ar  1 <1>   0.0830 
 11 N       -5.0750    -2.2170    -1.4640 N.2   1 <1>  -0.5650 
 12 C       -3.9390    -2.5670     0.4180 C.2   1 <1>  -0.3320 
 13 O       -4.5420     0.6540     0.9520 O.3   1 <1>  -0.6800 
 14 C        0.3550     4.4490    -0.0110 C.ar  1 <1>  -0.1430 
 15 C       -1.9830     5.0760     0.1990 C.ar  1 <1>  -0.1430 
 16 C       -5.7950    -2.8640    -0.6080 C.2   1 <1>   0.0360 
 17 N       -5.1630    -3.1080     0.5580 N.pl3 1 <1>   0.0330 
 18 C       -2.8850    -2.6130     1.5130 C.3   1 <1>  -0.0600 
 19 C        0.7250     5.6870     0.5080 C.ar  1 <1>  -0.1440 
 20 C        1.4170     3.4320    -0.4300 C.3   1 <1>  -0.0970 
 21 C       -1.5950     6.3040     0.7040 C.ar  1 <1>  -0.1500 
 22 C       -3.4640     4.7690     0.0250 C.3   1 <1>  -0.0970 
 23 C       -0.2540     6.6020     0.8600 C.ar  1 <1>  -0.1500 
 24 C        2.1850     6.0750     0.7050 C.3   1 <1>  -0.0970 
 25 H       -0.6620     1.9780     1.0350 H     1 <1>   0.0800 
 26 H       -2.4000     2.1250     0.9530 H     1 <1>   0.0800 
 27 H       -1.8420    -1.8080    -1.3140 H     1 <1>   0.0800 
 28 H       -2.9180    -1.2560    -2.5580 H     1 <1>   0.0800 
 29 H       -4.1960     0.7530    -2.3040 H     1 <1>   0.0800 
 30 H       -3.4900     2.0340    -1.4020 H     1 <1>   0.0800 
 31 H       -5.6950     0.1960    -0.6150 H     1 <1>   0.0800 
 32 H       -5.5110     1.9000    -0.2890 H     1 <1>   0.0800 
 33 H       -4.0790    -0.2120     0.8940 H     1 <1>   0.4000 
 34 H       -6.8050    -3.1870    -0.7880 H     1 <1>   0.1500 
 35 H       -5.5400    -3.6010     1.3730 H     1 <1>   0.2700 
 36 H       -1.9690    -2.1620     1.1770 H     1 <1>   0.0800 
 37 H       -2.6770    -3.6330     1.7850 H     1 <1>   0.0800 
 38 H       -3.2270    -2.0820     2.3830 H     1 <1>   0.0800 
 39 H        1.0190     2.7050    -1.1160 H     1 <1>   0.0800 
 40 H        1.7880     2.9150     0.4360 H     1 <1>   0.0800 
 41 H        2.2360     3.9180    -0.9260 H     1 <1>   0.0800 
 42 H       -2.3320     7.0370     0.9800 H     1 <1>   0.1500 
 43 H       -3.7700     4.0140     0.7260 H     1 <1>   0.0800 
 44 H       -3.6460     4.4170    -0.9740 H     1 <1>   0.0800 
 45 H       -4.0600     5.6480     0.1870 H     1 <1>   0.0800 
 46 H        0.0210     7.5630     1.2590 H     1 <1>   0.1500 
 47 H        2.7060     5.3020     1.2400 H     1 <1>   0.0800 
 48 H        2.2690     6.9860     1.2690 H     1 <1>   0.0800 
 49 H        2.6550     6.2220    -0.2510 H     1 <1>   0.0800 
@<TRIPOS>BOND
  1   1   2  2   
  2   2   3  am  
  3   2   4  1   
  4   3   5  1   
  5   3   6  1   
  6   4   7  1   
  7   4  25  1   
  8   4  26  1   
  9   5   8  1   
 10   5  27  1   
 11   5  28  1   
 12   6   9  1   
 13   6  29  1   
 14   6  30  1   
 15   7  10  1   
 16   8  11  1   
 17   8  12  2   
 18   9  13  1   
 19   9  31  1   
 20   9  32  1   
 21  10  14  ar  
 22  10  15  ar  
 23  11  16  2   
 24  12  17  1   
 25  12  18  1   
 26  13  33  1   
 27  14  19  ar  
 28  14  20  1   
 29  15  21  ar  
 30  15  22  1   
 31  16  17  1   
 32  16  34  1   
 33  17  35  1   
 34  18  36  1   
 35  18  37  1   
 36  18  38  1   
 37  19  23  ar  
 38  19  24  1   
 39  20  39  1   
 40  20  40  1   
 41  20  41  1   
 42  21  23  ar  
 43  21  42  1   
 44  22  43  1   
 45  22  44  1   
 46  22  45  1   
 47  23  46  1   
 48  24  47  1   
 49  24  48  1   
 50  24  49  1   
@<TRIPOS>SUBSTRUCTURE
  1 ****   4 GROUP 4 **** **** 0

# MOE 2024.06 (io_trps.svl 2023.06)
