@<TRIPOS>MOLECULE
NONAME
49 52 1 0 0 
SMALL
USER_CHARGES


@<TRIPOS>ATOM
  1 S        1.0400    -0.0640    -1.9850 S.3   1 <1>  -0.0800 
  2 C        2.1310    -0.6220    -0.7180 C.ar  1 <1>   0.0400 
  3 C        0.2240    -1.6150    -2.0240 C.2   1 <1>  -0.1100 
  4 C        1.8460    -1.9380    -0.3760 C.ar  1 <1>   0.0000 
  5 C        3.1330     0.1280    -0.1310 C.ar  1 <1>  -0.1500 
  6 C        0.7410    -2.4970    -1.1350 C.2   1 <1>  -0.0860 
  7 C        2.6340    -2.5140     0.6220 C.ar  1 <1>  -0.1500 
  8 C        3.8960    -0.4680     0.8550 C.ar  1 <1>  -0.1500 
  9 C        0.2480    -3.8460    -0.9480 C.2   1 <1>   0.7160 
 10 C        3.6440    -1.7850     1.2270 C.ar  1 <1>  -0.1500 
 11 O        0.9820    -4.7660    -0.6300 O.2   1 <1>  -0.5700 
 12 N       -1.0900    -4.1340    -1.0980 N.am  1 <1>  -0.6600 
 13 C       -1.5310    -5.5310    -1.2750 C.3   1 <1>   0.1400 
 14 C       -2.1290    -3.3170    -0.4210 C.3   1 <1>   0.1400 
 15 C       -1.8650    -6.0230     0.1450 C.3   1 <1>   0.4230 
 16 C       -2.6330    -4.0370     0.8580 C.3   1 <1>  -0.1600 
 17 N       -1.4680    -7.4530     0.4260 N.4   1 <1>  -0.9590 
 18 C       -3.3120    -5.4890     0.5830 C.3   1 <1>   0.0000 
 19 C       -2.1020    -8.4070    -0.5020 C.3   1 <1>   0.3430 
 20 C        0.0250    -7.6010     0.4380 C.3   1 <1>   0.2630 
 21 C       -4.0430    -6.8960     0.2520 C.3   1 <1>  -0.1600 
 22 C       -4.7200    -4.9220     1.0970 C.3   1 <1>   0.1200 
 23 C       -3.5100    -7.9160    -0.7860 C.3   1 <1>  -0.1600 
 24 O       -5.3080    -4.1750     0.0790 O.3   1 <1>  -0.6800 
 25 H       -0.5820    -1.7170    -2.7280 H     1 <1>   0.1500 
 26 H        3.3070     1.1440    -0.4390 H     1 <1>   0.1500 
 27 H        2.4640    -3.5300     0.9270 H     1 <1>   0.1500 
 28 H        4.6860     0.0830     1.3350 H     1 <1>   0.1500 
 29 H        4.2460    -2.2400     1.9940 H     1 <1>   0.1500 
 30 H       -2.3990    -5.5480    -1.9110 H     1 <1>   0.0800 
 31 H       -0.7480    -6.1090    -1.7310 H     1 <1>   0.0800 
 32 H       -1.7310    -2.3520    -0.1560 H     1 <1>   0.0800 
 33 H       -2.9530    -3.1580    -1.0980 H     1 <1>   0.0800 
 34 H       -1.1360    -5.5090     0.7440 H     1 <1>   0.0800 
 35 H       -1.8400    -4.0880     1.5870 H     1 <1>   0.0800 
 36 H       -3.2360    -3.2540     1.2880 H     1 <1>   0.0800 
 37 H       -1.8220    -7.6620     1.3680 H     1 <1>   0.4500 
 38 H       -1.5470    -8.4670    -1.4250 H     1 <1>   0.0800 
 39 H       -2.1320    -9.3870    -0.0540 H     1 <1>   0.0800 
 40 H        0.4360    -7.3830    -0.5340 H     1 <1>   0.0800 
 41 H        0.3030    -8.6050     0.7140 H     1 <1>   0.0800 
 42 H        0.4630    -6.9150     1.1450 H     1 <1>   0.0800 
 43 H       -4.1780    -7.4310     1.1800 H     1 <1>   0.0800 
 44 H       -5.0290    -6.7490    -0.1690 H     1 <1>   0.0800 
 45 H       -4.6600    -4.3140     1.9850 H     1 <1>   0.0800 
 46 H       -5.4550    -5.6470     1.4150 H     1 <1>   0.0800 
 47 H       -3.5410    -7.4820    -1.7700 H     1 <1>   0.0800 
 48 H       -4.1640    -8.7700    -0.8190 H     1 <1>   0.0800 
 49 H       -6.1850    -3.8330     0.3520 H     1 <1>   0.4000 
@<TRIPOS>BOND
  1   1   2  1   
  2   1   3  1   
  3   2   4  ar  
  4   2   5  ar  
  5   3   6  2   
  6   3  25  1   
  7   4   6  1   
  8   4   7  ar  
  9   5   8  ar  
 10   5  26  1   
 11   6   9  1   
 12   7  10  ar  
 13   7  27  1   
 14   8  10  ar  
 15   8  28  1   
 16   9  11  2   
 17   9  12  am  
 18  10  29  1   
 19  12  13  1   
 20  12  14  1   
 21  13  15  1   
 22  13  30  1   
 23  13  31  1   
 24  14  16  1   
 25  14  32  1   
 26  14  33  1   
 27  15  17  1   
 28  15  18  1   
 29  15  34  1   
 30  16  18  1   
 31  16  35  1   
 32  16  36  1   
 33  17  19  1   
 34  17  20  1   
 35  17  37  1   
 36  18  21  1   
 37  18  22  1   
 38  19  23  1   
 39  19  38  1   
 40  19  39  1   
 41  20  40  1   
 42  20  41  1   
 43  20  42  1   
 44  21  23  1   
 45  21  43  1   
 46  21  44  1   
 47  22  24  1   
 48  22  45  1   
 49  22  46  1   
 50  23  47  1   
 51  23  48  1   
 52  24  49  1   
@<TRIPOS>SUBSTRUCTURE
  1 ****  12 GROUP 4 **** **** 0

# MOE 2024.06 (io_trps.svl 2023.06)
