@<TRIPOS>MOLECULE
NONAME
50 52 1 0 0 
SMALL
USER_CHARGES


@<TRIPOS>ATOM
  1 F        0.0170     0.4910     0.0710 F     1 <1>  -0.1900 
  2 C        1.1220     1.2040    -0.0040 C.ar  1 <1>   0.1900 
  3 C        2.3620     0.6620     0.3280 C.ar  1 <1>   0.4100 
  4 C        1.0510     2.5050    -0.4140 C.ar  1 <1>   0.1600 
  5 N        3.4470     1.4110     0.2400 N.ar  1 <1>  -0.6200 
  6 N        2.5330    -0.6520     0.7460 N.pl3 1 <1>  -0.8380 
  7 N        2.1300     3.2590    -0.5050 N.ar  1 <1>  -0.6200 
  8 C        3.2650     2.6580    -0.1600 C.ar  1 <1>   0.7200 
  9 C        2.1320    -1.7690    -0.1610 C.3   1 <1>   0.2090 
 10 C        3.6680    -1.0280     1.6460 C.3   1 <1>   0.2090 
 11 N        4.4080     3.3800    -0.2240 N.pl3 1 <1>  -0.8690 
 12 C        3.3630    -2.3840    -0.8540 C.3   1 <1>   0.1200 
 13 C        4.8110    -1.6780     0.8460 C.3   1 <1>   0.1200 
 14 C        4.5470     4.6120    -1.0170 C.3   1 <1>   0.2090 
 15 O        4.3400    -2.7540     0.0800 O.3   1 <1>  -0.5600 
 16 C        5.9160     5.2250    -0.7370 C.3   1 <1>  -0.1600 
 17 C        6.0620     6.5740    -1.4500 C.3   1 <1>   0.0960 
 18 N        7.3690     7.1930    -1.1340 N.pl3 1 <1>   0.0480 
 19 C        7.6680     8.2660    -0.3510 C.2   1 <1>   0.0070 
 20 C        8.5560     6.7680    -1.6030 C.2   1 <1>  -0.3020 
 21 N        8.9400     8.5200    -0.3010 N.2   1 <1>  -0.5650 
 22 C        6.6110     9.0870     0.3970 C.3   1 <1>   0.1000 
 23 C        9.4970     7.5830    -1.0860 C.2   1 <1>   0.0770 
 24 C        7.1020    10.5080     0.7110 C.3   1 <1>  -0.2400 
 25 C        6.2070     8.3830     1.6970 C.3   1 <1>  -0.2400 
 26 H        0.0990     2.9350    -0.6720 H     1 <1>   0.1500 
 27 H        1.4470    -1.4140    -0.9100 H     1 <1>   0.0800 
 28 H        1.6300    -2.5280     0.4140 H     1 <1>   0.0800 
 29 H        3.3150    -1.7250     2.3850 H     1 <1>   0.0800 
 30 H        4.0370    -0.1600     2.1650 H     1 <1>   0.0800 
 31 H        5.2330     2.7880    -0.1430 H     1 <1>   0.4000 
 32 H        3.7950    -1.6770    -1.5410 H     1 <1>   0.0800 
 33 H        3.0780    -3.2660    -1.3980 H     1 <1>   0.0800 
 34 H        5.5640    -2.0540     1.5140 H     1 <1>   0.0800 
 35 H        5.2600    -0.9550     0.1870 H     1 <1>   0.0800 
 36 H        3.7680     5.3030    -0.7360 H     1 <1>   0.0800 
 37 H        4.4410     4.3800    -2.0640 H     1 <1>   0.0800 
 38 H        6.6820     4.5520    -1.0800 H     1 <1>   0.0800 
 39 H        6.0230     5.3690     0.3240 H     1 <1>   0.0800 
 40 H        5.2720     7.2360    -1.1480 H     1 <1>   0.0800 
 41 H        6.0020     6.4390    -2.5150 H     1 <1>   0.0800 
 42 H        8.6700     5.9280    -2.2630 H     1 <1>   0.1500 
 43 H        5.7440     9.1870    -0.2300 H     1 <1>   0.0800 
 44 H       10.5630     7.5480    -1.2390 H     1 <1>   0.1500 
 45 H        7.9530    10.4720     1.3690 H     1 <1>   0.0800 
 46 H        6.3240    11.0840     1.1780 H     1 <1>   0.0800 
 47 H        7.3990    11.0000    -0.1980 H     1 <1>   0.0800 
 48 H        7.0710     8.2530     2.3250 H     1 <1>   0.0800 
 49 H        5.7880     7.4170     1.4910 H     1 <1>   0.0800 
 50 H        5.4760     8.9660     2.2290 H     1 <1>   0.0800 
@<TRIPOS>BOND
  1   1   2  1   
  2   2   3  ar  
  3   2   4  ar  
  4   3   5  ar  
  5   3   6  1   
  6   4   7  ar  
  7   4  26  1   
  8   5   8  ar  
  9   6   9  1   
 10   6  10  1   
 11   7   8  ar  
 12   8  11  1   
 13   9  12  1   
 14   9  27  1   
 15   9  28  1   
 16  10  13  1   
 17  10  29  1   
 18  10  30  1   
 19  11  14  1   
 20  11  31  1   
 21  12  15  1   
 22  12  32  1   
 23  12  33  1   
 24  13  15  1   
 25  13  34  1   
 26  13  35  1   
 27  14  16  1   
 28  14  36  1   
 29  14  37  1   
 30  16  17  1   
 31  16  38  1   
 32  16  39  1   
 33  17  18  1   
 34  17  40  1   
 35  17  41  1   
 36  18  19  1   
 37  18  20  1   
 38  19  21  2   
 39  19  22  1   
 40  20  23  2   
 41  20  42  1   
 42  21  23  1   
 43  22  24  1   
 44  22  25  1   
 45  22  43  1   
 46  23  44  1   
 47  24  45  1   
 48  24  46  1   
 49  24  47  1   
 50  25  48  1   
 51  25  49  1   
 52  25  50  1   
@<TRIPOS>SUBSTRUCTURE
  1 ****  11 GROUP 4 **** **** 0

# MOE 2024.06 (io_trps.svl 2023.06)
