@<TRIPOS>MOLECULE
NONAME
43 45 1 0 0 
SMALL
USER_CHARGES


@<TRIPOS>ATOM
  1 S       -0.1160     0.2210     1.6050 S.o2  1 <1>   1.2950 
  2 O       -1.2970     0.8970     2.1150 O.2   1 <1>  -0.6500 
  3 O        0.8620    -0.2070     2.5900 O.2   1 <1>  -0.6500 
  4 N        0.6490     1.2360     0.3550 N.pl3 1 <1>   0.5840 
  5 C       -0.6570    -1.2200     0.6560 C.ar  1 <1>  -0.0090 
  6 N        0.0470     1.6060    -0.8120 N.2   1 <1>  -0.4180 
  7 C        1.9180     1.7360     0.3550 C.ar  1 <1>  -0.1520 
  8 C        0.2350    -1.8930    -0.1720 C.ar  1 <1>   0.0830 
  9 C       -1.9650    -1.6830     0.7400 C.ar  1 <1>  -0.1500 
 10 N        0.8610     2.2900    -1.5180 N.2   1 <1>  -0.2270 
 11 C        2.0260     2.3950    -0.8410 C.ar  1 <1>   0.2270 
 12 C        2.9980     1.6920     1.2460 C.ar  1 <1>  -0.1500 
 13 O        1.5060    -1.4250    -0.2330 O.3   1 <1>  -0.3620 
 14 C       -0.1880    -3.0000    -0.9020 C.ar  1 <1>  -0.1500 
 15 C       -2.3980    -2.7840     0.0170 C.ar  1 <1>  -0.1440 
 16 C        3.2140     3.0380    -1.1920 C.ar  1 <1>  -0.1500 
 17 C        4.1680     2.3260     0.8960 C.ar  1 <1>  -0.1500 
 18 C        2.4300    -1.8820    -1.1960 C.3   1 <1>   0.0400 
 19 C       -1.4950    -3.4380    -0.8060 C.ar  1 <1>  -0.1500 
 20 C       -3.8470    -3.2520     0.1380 C.3   1 <1>   0.0630 
 21 C        4.2840     3.0040    -0.3250 C.ar  1 <1>  -0.1430 
 22 C       -3.9170    -4.6790     0.6910 C.3   1 <1>  -0.2400 
 23 C       -4.5650    -3.1560    -1.2120 C.3   1 <1>  -0.2400 
 24 C        5.5940     3.6900    -0.6680 C.3   1 <1>  -0.0970 
 25 H       -2.6570    -1.1680     1.3840 H     1 <1>   0.1500 
 26 H        2.9200     1.1720     2.1870 H     1 <1>   0.1500 
 27 H        0.4830    -3.5350    -1.5470 H     1 <1>   0.1500 
 28 H        3.2600     3.5460    -2.1380 H     1 <1>   0.1500 
 29 H        5.0100     2.3050     1.5670 H     1 <1>   0.1500 
 30 H        3.3290    -1.2990    -1.0990 H     1 <1>   0.0800 
 31 H        2.0100    -1.7440    -2.1770 H     1 <1>   0.0800 
 32 H        2.6460    -2.9190    -1.0100 H     1 <1>   0.0800 
 33 H       -1.8070    -4.2940    -1.3780 H     1 <1>   0.1500 
 34 H       -4.3640    -2.6080     0.8290 H     1 <1>   0.0800 
 35 H       -3.4600    -5.3780     0.0130 H     1 <1>   0.0800 
 36 H       -4.9410    -4.9690     0.8440 H     1 <1>   0.0800 
 37 H       -3.4030    -4.7310     1.6340 H     1 <1>   0.0800 
 38 H       -4.1210    -3.8190    -1.9320 H     1 <1>   0.0800 
 39 H       -4.5020    -2.1500    -1.5880 H     1 <1>   0.0800 
 40 H       -5.6030    -3.4140    -1.1010 H     1 <1>   0.0800 
 41 H        5.5390     4.1660    -1.6310 H     1 <1>   0.0800 
 42 H        6.3920     2.9700    -0.6870 H     1 <1>   0.0800 
 43 H        5.8190     4.4390     0.0710 H     1 <1>   0.0800 
@<TRIPOS>BOND
  1   1   2  2   
  2   1   3  2   
  3   1   4  1   
  4   1   5  1   
  5   4   6  1   
  6   4   7  1   
  7   5   8  ar  
  8   5   9  ar  
  9   6  10  2   
 10   7  11  ar  
 11   7  12  ar  
 12   8  13  1   
 13   8  14  ar  
 14   9  15  ar  
 15   9  25  1   
 16  10  11  1   
 17  11  16  ar  
 18  12  17  ar  
 19  12  26  1   
 20  13  18  1   
 21  14  19  ar  
 22  14  27  1   
 23  15  19  ar  
 24  15  20  1   
 25  16  21  ar  
 26  16  28  1   
 27  17  21  ar  
 28  17  29  1   
 29  18  30  1   
 30  18  31  1   
 31  18  32  1   
 32  19  33  1   
 33  20  22  1   
 34  20  23  1   
 35  20  34  1   
 36  21  24  1   
 37  22  35  1   
 38  22  36  1   
 39  22  37  1   
 40  23  38  1   
 41  23  39  1   
 42  23  40  1   
 43  24  41  1   
 44  24  42  1   
 45  24  43  1   
@<TRIPOS>SUBSTRUCTURE
  1 ****   4 GROUP 4 **** **** 0

# MOE 2024.06 (io_trps.svl 2023.06)
