@<TRIPOS>MOLECULE
NONAME
44 46 1 0 0 
SMALL
USER_CHARGES


@<TRIPOS>ATOM
  1 S        0.6100     0.1790    -1.3410 S.o2  1 <1>   1.3330 
  2 O        1.0310    -0.8980    -2.2090 O.2   1 <1>  -0.6500 
  3 O       -0.4950     1.0200    -1.7440 O.2   1 <1>  -0.6500 
  4 N        0.1950    -0.4980     0.1600 N.am  1 <1>  -0.8490 
  5 C        2.0350     1.2150    -1.0030 C.3   1 <1>  -0.0550 
  6 C       -0.6610    -1.6770     0.0080 C.3   1 <1>   0.1160 
  7 C       -0.4300     0.4590     1.0810 C.3   1 <1>   0.1160 
  8 C        3.3080     0.4530    -0.5700 C.3   1 <1>  -0.0800 
  9 C        4.5820     1.2900    -0.4210 C.3   1 <1>   0.2200 
 10 C        3.2060    -0.2450     0.7830 C.3   1 <1>   0.1200 
 11 N        4.3600     2.7600    -0.2980 N.am  1 <1>  -0.7300 
 12 C        5.2630     0.7070     0.8260 C.3   1 <1>   0.1200 
 13 O        4.5220    -0.4140     1.1930 O.3   1 <1>  -0.5600 
 14 C        3.7410     3.4640     0.6880 C.2   1 <1>   0.5690 
 15 O        3.1190     2.9280     1.5740 O.2   1 <1>  -0.5700 
 16 C        3.8050     4.9810     0.6580 C.3   1 <1>   0.0820 
 17 C        5.1630     5.5120     0.2220 C.2   1 <1>   0.0460 
 18 N        5.6260     5.3020    -1.0360 N.2   1 <1>  -0.5650 
 19 C        6.0450     6.2310     0.9640 C.2   1 <1>  -0.3020 
 20 C        6.7660     5.9070    -0.9910 C.2   1 <1>   0.2420 
 21 N        7.1060     6.4970     0.1710 N.pl3 1 <1>   0.3340 
 22 S        8.0510     6.1360    -2.1930 S.3   1 <1>  -0.1570 
 23 C        8.3610     7.1410     0.1620 C.2   1 <1>  -0.1810 
 24 C        9.0150     7.0590    -1.0090 C.2   1 <1>  -0.0490 
 25 H        2.2670     1.7620    -1.8960 H     1 <1>   0.0800 
 26 H        1.7670     1.9300    -0.2550 H     1 <1>   0.0800 
 27 H       -0.8850    -2.1020     0.9710 H     1 <1>   0.0800 
 28 H       -0.1560    -2.4240    -0.5810 H     1 <1>   0.0800 
 29 H       -1.5810    -1.4100    -0.4860 H     1 <1>   0.0800 
 30 H       -0.6190    -0.0120     2.0300 H     1 <1>   0.0800 
 31 H       -1.3610     0.8210     0.6760 H     1 <1>   0.0800 
 32 H        0.2240     1.2980     1.2500 H     1 <1>   0.0800 
 33 H        3.5070    -0.3140    -1.2980 H     1 <1>   0.0800 
 34 H        5.2170     1.1200    -1.2730 H     1 <1>   0.0800 
 35 H        2.7300    -1.2080     0.7210 H     1 <1>   0.0800 
 36 H        2.7070     0.3700     1.5130 H     1 <1>   0.0800 
 37 H        4.9160     3.3340    -0.9520 H     1 <1>   0.3700 
 38 H        5.2470     1.3950     1.6520 H     1 <1>   0.0800 
 39 H        6.2710     0.3940     0.6230 H     1 <1>   0.0800 
 40 H        3.0530     5.3420    -0.0170 H     1 <1>   0.0800 
 41 H        3.5780     5.3530     1.6400 H     1 <1>   0.0800 
 42 H        5.9890     6.5670     1.9830 H     1 <1>   0.1500 
 43 H        8.6830     7.6310     1.0630 H     1 <1>   0.1500 
 44 H        9.9680     7.4300    -1.3460 H     1 <1>   0.1500 
@<TRIPOS>BOND
  1   1   2  2   
  2   1   3  2   
  3   1   4  am  
  4   1   5  1   
  5   4   6  1   
  6   4   7  1   
  7   5   8  1   
  8   5  25  1   
  9   5  26  1   
 10   6  27  1   
 11   6  28  1   
 12   6  29  1   
 13   7  30  1   
 14   7  31  1   
 15   7  32  1   
 16   8   9  1   
 17   8  10  1   
 18   8  33  1   
 19   9  11  1   
 20   9  12  1   
 21   9  34  1   
 22  10  13  1   
 23  10  35  1   
 24  10  36  1   
 25  11  14  am  
 26  11  37  1   
 27  12  13  1   
 28  12  38  1   
 29  12  39  1   
 30  14  15  2   
 31  14  16  1   
 32  16  17  1   
 33  16  40  1   
 34  16  41  1   
 35  17  18  1   
 36  17  19  2   
 37  18  20  2   
 38  19  21  1   
 39  19  42  1   
 40  20  21  1   
 41  20  22  1   
 42  21  23  1   
 43  22  24  1   
 44  23  24  2   
 45  23  43  1   
 46  24  44  1   
@<TRIPOS>SUBSTRUCTURE
  1 ****  11 GROUP 4 **** **** 0

# MOE 2024.06 (io_trps.svl 2023.06)
