@<TRIPOS>MOLECULE
NONAME
51 54 1 0 0 
SMALL
USER_CHARGES


@<TRIPOS>ATOM
  1 O       -1.3630     0.1790     0.7270 O.2   1 <1>  -0.5700 
  2 C       -2.1770     1.0700     0.9040 C.2   1 <1>   0.5440 
  3 N       -3.4850     0.7020     1.1310 N.am  1 <1>  -0.6600 
  4 C       -1.7670     2.4610     0.8400 C.ar  1 <1>   0.0860 
  5 C       -3.8030    -0.6960     1.5390 C.3   1 <1>   0.1400 
  6 C       -4.6190     1.3790     0.4400 C.3   1 <1>   0.1400 
  7 C       -0.7490     2.8700    -0.0100 C.ar  1 <1>  -0.1500 
  8 C       -2.3860     3.4430     1.6440 C.ar  1 <1>  -0.1500 
  9 C       -4.0930    -1.5220     0.2640 C.3   1 <1>   0.4230 
 10 C       -4.9870     0.5670    -0.8120 C.3   1 <1>  -0.1600 
 11 C       -0.3720     4.2120    -0.0740 C.ar  1 <1>  -0.1520 
 12 C       -2.0240     4.7670     1.5880 C.ar  1 <1>  -0.1500 
 13 N       -4.3010    -2.9890     0.5070 N.4   1 <1>  -0.9590 
 14 C       -5.3060    -0.9200    -0.4810 C.3   1 <1>  -0.1060 
 15 N        0.5880     4.8450    -0.8280 N.pl3 1 <1>   0.0480 
 16 C       -1.0070     5.1650     0.7160 C.ar  1 <1>   0.0000 
 17 C       -4.4530    -3.7440    -0.7620 C.3   1 <1>   0.3430 
 18 C       -3.3160    -3.6180     1.4260 C.3   1 <1>   0.2630 
 19 C       -6.5430    -1.0240     0.4320 C.2   1 <1>   0.9060 
 20 C       -5.5340    -1.6860    -1.8060 C.3   1 <1>  -0.1600 
 21 C        0.5520     6.1740    -0.5190 C.2   1 <1>  -0.3020 
 22 C        1.5020     4.2000    -1.7840 C.3   1 <1>   0.0160 
 23 C       -0.4040     6.4010     0.4140 C.2   1 <1>  -0.1500 
 24 C       -5.6350    -3.2010    -1.5700 C.3   1 <1>  -0.1600 
 25 O       -6.6370    -1.9890     1.2090 O.co2 1 <1>  -0.9000 
 26 O       -7.4060    -0.1490     0.3880 O.co2 1 <1>  -0.9000 
 27 H       -2.9610    -1.1000     2.0700 H     1 <1>   0.0800 
 28 H       -4.6510    -0.6900     2.2010 H     1 <1>   0.0800 
 29 H       -5.4640     1.4400     1.1080 H     1 <1>   0.0800 
 30 H       -4.3510     2.3800     0.1510 H     1 <1>   0.0800 
 31 H       -0.2460     2.1450    -0.6240 H     1 <1>   0.1500 
 32 H       -3.1630     3.1330     2.3210 H     1 <1>   0.1500 
 33 H       -3.2270    -1.4140    -0.3680 H     1 <1>   0.0800 
 34 H       -5.8440     1.0250    -1.2760 H     1 <1>   0.0800 
 35 H       -4.1720     0.6310    -1.5100 H     1 <1>   0.0800 
 36 H       -2.5030     5.5080     2.2020 H     1 <1>   0.1500 
 37 H       -5.2550    -2.9780     0.9620 H     1 <1>   0.4500 
 38 H       -3.5500    -3.6560    -1.3430 H     1 <1>   0.0800 
 39 H       -4.6230    -4.7860    -0.5480 H     1 <1>   0.0800 
 40 H       -2.3200    -3.5200     1.0280 H     1 <1>   0.0800 
 41 H       -3.5440    -4.6640     1.5520 H     1 <1>   0.0800 
 42 H       -3.3560    -3.1450     2.3930 H     1 <1>   0.0800 
 43 H       -6.4410    -1.3340    -2.2690 H     1 <1>   0.0800 
 44 H       -4.7210    -1.4920    -2.4840 H     1 <1>   0.0800 
 45 H        1.2120     6.8860    -0.9810 H     1 <1>   0.1500 
 46 H        2.1500     4.9390    -2.2190 H     1 <1>   0.0800 
 47 H        0.9280     3.7250    -2.5570 H     1 <1>   0.0800 
 48 H        2.0920     3.4650    -1.2670 H     1 <1>   0.0800 
 49 H       -0.6820     7.3360     0.8670 H     1 <1>   0.1500 
 50 H       -5.6770    -3.7080    -2.5180 H     1 <1>   0.0800 
 51 H       -6.5490    -3.4280    -1.0480 H     1 <1>   0.0800 
@<TRIPOS>BOND
  1   1   2  2   
  2   2   3  am  
  3   2   4  1   
  4   3   5  1   
  5   3   6  1   
  6   4   7  ar  
  7   4   8  ar  
  8   5   9  1   
  9   5  27  1   
 10   5  28  1   
 11   6  10  1   
 12   6  29  1   
 13   6  30  1   
 14   7  11  ar  
 15   7  31  1   
 16   8  12  ar  
 17   8  32  1   
 18   9  13  1   
 19   9  14  1   
 20   9  33  1   
 21  10  14  1   
 22  10  34  1   
 23  10  35  1   
 24  11  15  1   
 25  11  16  ar  
 26  12  16  ar  
 27  12  36  1   
 28  13  17  1   
 29  13  18  1   
 30  13  37  1   
 31  14  19  1   
 32  14  20  1   
 33  15  21  1   
 34  15  22  1   
 35  16  23  1   
 36  17  24  1   
 37  17  38  1   
 38  17  39  1   
 39  18  40  1   
 40  18  41  1   
 41  18  42  1   
 42  19  25  ar  
 43  19  26  ar  
 44  20  24  1   
 45  20  43  1   
 46  20  44  1   
 47  21  23  2   
 48  21  45  1   
 49  22  46  1   
 50  22  47  1   
 51  22  48  1   
 52  23  49  1   
 53  24  50  1   
 54  24  51  1   
@<TRIPOS>SUBSTRUCTURE
  1 ****   3 GROUP 4 **** **** 0

# MOE 2024.06 (io_trps.svl 2023.06)
