@<TRIPOS>MOLECULE
NONAME
48 50 1 0 0 
SMALL
USER_CHARGES


@<TRIPOS>ATOM
  1 O       -0.5820     0.2940    -0.2520 O.2   1 <1>  -0.5700 
  2 C       -1.5290     0.9580     0.1380 C.2   1 <1>   0.7160 
  3 N       -2.7200     0.2900     0.3690 N.am  1 <1>  -0.6600 
  4 C       -1.3480     2.3940     0.3230 C.2   1 <1>   0.2030 
  5 C       -2.7800    -1.1960     0.5460 C.3   1 <1>   0.1400 
  6 C       -4.0710     0.9340     0.3640 C.3   1 <1>   0.1400 
  7 N       -2.1150     3.2310     0.9630 N.2   1 <1>  -0.4100 
  8 C       -0.2650     3.1080    -0.1700 C.2   1 <1>  -0.1500 
  9 C       -3.8160    -1.8310    -0.3950 C.3   1 <1>   0.3440 
 10 C       -5.0570     0.1740    -0.5570 C.3   1 <1>   0.2000 
 11 O       -1.6160     4.4420     0.9180 O.3   1 <1>  -0.0190 
 12 C       -0.4970     4.3590     0.2340 C.2   1 <1>  -0.0400 
 13 O       -5.0540    -1.1930    -0.2360 O.3   1 <1>  -0.5600 
 14 C       -3.9690    -3.3210    -0.1010 C.ar  1 <1>  -0.1430 
 15 C       -6.5220     0.7060    -0.5200 C.3   1 <1>   0.0000 
 16 C        0.3170     5.6170     0.0180 C.3   1 <1>  -0.0600 
 17 C       -4.8590    -3.7820     0.8590 C.ar  1 <1>  -0.1500 
 18 C       -3.1940    -4.2400    -0.7950 C.ar  1 <1>  -0.1500 
 19 C       -7.1680     0.5340     0.8690 C.3   1 <1>  -0.2400 
 20 C       -6.5770     2.1970    -0.9000 C.3   1 <1>  -0.2400 
 21 C       -7.3740    -0.0660    -1.5450 C.3   1 <1>  -0.2400 
 22 C       -4.9730    -5.1360     1.1220 C.ar  1 <1>  -0.1500 
 23 C       -3.3060    -5.5940    -0.5340 C.ar  1 <1>  -0.1500 
 24 C       -4.1950    -6.0440     0.4250 C.ar  1 <1>  -0.1500 
 25 H       -1.8200    -1.6460     0.3630 H     1 <1>   0.0800 
 26 H       -3.0530    -1.4190     1.5630 H     1 <1>   0.0800 
 27 H       -4.4480     0.9570     1.3700 H     1 <1>   0.0800 
 28 H       -3.9980     1.9450     0.0110 H     1 <1>   0.0800 
 29 H        0.5500     2.6970    -0.7390 H     1 <1>   0.1500 
 30 H       -3.5050    -1.7020    -1.4170 H     1 <1>   0.0800 
 31 H       -4.7020     0.2650    -1.5700 H     1 <1>   0.0800 
 32 H        1.2000     5.3980    -0.5540 H     1 <1>   0.0800 
 33 H        0.6100     6.0290     0.9680 H     1 <1>   0.0800 
 34 H       -0.2700     6.3460    -0.5110 H     1 <1>   0.0800 
 35 H       -5.4710    -3.0830     1.4040 H     1 <1>   0.1500 
 36 H       -2.4960    -3.9060    -1.5440 H     1 <1>   0.1500 
 37 H       -8.1960     0.8500     0.8470 H     1 <1>   0.0800 
 38 H       -6.6580     1.1180     1.6130 H     1 <1>   0.0800 
 39 H       -7.1410    -0.4980     1.1700 H     1 <1>   0.0800 
 40 H       -7.5970     2.5310    -0.9680 H     1 <1>   0.0800 
 41 H       -6.1060     2.3630    -1.8530 H     1 <1>   0.0800 
 42 H       -6.0850     2.8070    -0.1640 H     1 <1>   0.0800 
 43 H       -8.3840     0.3030    -1.5600 H     1 <1>   0.0800 
 44 H       -7.4050    -1.1130    -1.2970 H     1 <1>   0.0800 
 45 H       -6.9600     0.0330    -2.5320 H     1 <1>   0.0800 
 46 H       -5.6680    -5.4820     1.8670 H     1 <1>   0.1500 
 47 H       -2.7010    -6.2990    -1.0780 H     1 <1>   0.1500 
 48 H       -4.2840    -7.0970     0.6290 H     1 <1>   0.1500 
@<TRIPOS>BOND
  1   1   2  2   
  2   2   3  am  
  3   2   4  1   
  4   3   5  1   
  5   3   6  1   
  6   4   7  2   
  7   4   8  1   
  8   5   9  1   
  9   5  25  1   
 10   5  26  1   
 11   6  10  1   
 12   6  27  1   
 13   6  28  1   
 14   7  11  1   
 15   8  12  2   
 16   8  29  1   
 17   9  13  1   
 18   9  14  1   
 19   9  30  1   
 20  10  13  1   
 21  10  15  1   
 22  10  31  1   
 23  11  12  1   
 24  12  16  1   
 25  14  17  ar  
 26  14  18  ar  
 27  15  19  1   
 28  15  20  1   
 29  15  21  1   
 30  16  32  1   
 31  16  33  1   
 32  16  34  1   
 33  17  22  ar  
 34  17  35  1   
 35  18  23  ar  
 36  18  36  1   
 37  19  37  1   
 38  19  38  1   
 39  19  39  1   
 40  20  40  1   
 41  20  41  1   
 42  20  42  1   
 43  21  43  1   
 44  21  44  1   
 45  21  45  1   
 46  22  24  ar  
 47  22  46  1   
 48  23  24  ar  
 49  23  47  1   
 50  24  48  1   
@<TRIPOS>SUBSTRUCTURE
  1 ****   3 GROUP 4 **** **** 0

# MOE 2024.06 (io_trps.svl 2023.06)
