@<TRIPOS>MOLECULE
NONAME
55 57 1 0 0 
SMALL
USER_CHARGES


@<TRIPOS>ATOM
  1 O       -0.1420     1.1830    -1.3770 O.2   1 <1>  -0.5700 
  2 C       -0.2800     2.3840    -1.3580 C.2   1 <1>   0.5690 
  3 N       -1.0660     3.0430    -0.4430 N.am  1 <1>  -0.6600 
  4 C        0.4680     3.1880    -2.4200 C.3   1 <1>   0.1810 
  5 C       -1.1650     4.5430    -0.4640 C.3   1 <1>   0.3640 
  6 C       -1.7200     2.3930     0.7290 C.3   1 <1>   0.2200 
  7 O        0.7850     4.4820    -1.9790 O.3   1 <1>  -0.5600 
  8 C       -2.6270     4.9780    -0.5600 C.ar  1 <1>  -0.1440 
  9 C       -0.3470     5.2320    -1.5840 C.3   1 <1>   0.2610 
 10 C       -0.6590     1.8350     1.6770 C.3   1 <1>  -0.2400 
 11 C       -2.7210     1.3230     0.2920 C.3   1 <1>  -0.2400 
 12 C       -3.4890     4.3980    -1.4810 C.ar  1 <1>  -0.1500 
 13 C       -3.1070     5.9750     0.2780 C.ar  1 <1>  -0.1500 
 14 C        0.0290     6.6590    -1.1550 C.2   1 <1>   0.5690 
 15 C       -4.8100     4.8050    -1.5600 C.ar  1 <1>  -0.1500 
 16 C       -4.4270     6.3830     0.1990 C.ar  1 <1>  -0.1500 
 17 O       -0.5320     7.5540    -1.7450 O.2   1 <1>  -0.5700 
 18 N        0.9310     6.9440    -0.1470 N.am  1 <1>  -0.6600 
 19 C       -5.2790     5.7970    -0.7200 C.ar  1 <1>  -0.1500 
 20 C        1.2840     8.3700     0.1400 C.3   1 <1>   0.2840 
 21 C        1.7700     5.9310     0.5660 C.3   1 <1>   0.1400 
 22 C        2.6900     8.6780    -0.3470 C.ar  1 <1>  -0.1430 
 23 C        1.4550     5.9260     2.0620 C.3   1 <1>  -0.2400 
 24 C        2.9790     8.6220    -1.7030 C.ar  1 <1>   0.1600 
 25 C        3.6970     9.0170     0.5360 C.ar  1 <1>  -0.1500 
 26 N        4.1660     8.8740    -2.2350 N.ar  1 <1>  -0.6200 
 27 C        4.9380     9.2810    -0.0030 C.ar  1 <1>  -0.1500 
 28 C        5.1150     9.1970    -1.3730 C.ar  1 <1>   0.1600 
 29 H       -0.1270     3.2620    -3.3120 H     1 <1>   0.0800 
 30 H        1.3910     2.6910    -2.6580 H     1 <1>   0.0800 
 31 H       -0.7840     4.8880     0.4790 H     1 <1>   0.0800 
 32 H       -2.2760     3.1390     1.2730 H     1 <1>   0.0800 
 33 H       -0.9720     5.3200    -2.4550 H     1 <1>   0.0800 
 34 H       -0.1190     1.0280     1.2140 H     1 <1>   0.0800 
 35 H       -1.1300     1.4540     2.5650 H     1 <1>   0.0800 
 36 H        0.0310     2.6070     1.9620 H     1 <1>   0.0800 
 37 H       -2.2260     0.4900    -0.1720 H     1 <1>   0.0800 
 38 H       -3.4350     1.7400    -0.3930 H     1 <1>   0.0800 
 39 H       -3.2530     0.9560     1.1500 H     1 <1>   0.0800 
 40 H       -3.1390     3.6230    -2.1400 H     1 <1>   0.1500 
 41 H       -2.4580     6.4480     0.9950 H     1 <1>   0.1500 
 42 H       -5.4710     4.3490    -2.2760 H     1 <1>   0.1500 
 43 H       -4.7920     7.1570     0.8510 H     1 <1>   0.1500 
 44 H       -6.3060     6.1150    -0.7810 H     1 <1>   0.1500 
 45 H        0.5970     9.0440    -0.3420 H     1 <1>   0.0800 
 46 H        1.2080     8.5540     1.1960 H     1 <1>   0.0800 
 47 H        1.5990     4.9440     0.1810 H     1 <1>   0.0800 
 48 H        2.8130     6.1510     0.4100 H     1 <1>   0.0800 
 49 H        0.4020     5.7950     2.2310 H     1 <1>   0.0800 
 50 H        1.7830     6.8370     2.5260 H     1 <1>   0.0800 
 51 H        1.9780     5.1110     2.5300 H     1 <1>   0.0800 
 52 H        2.1890     8.3540    -2.3850 H     1 <1>   0.1500 
 53 H        3.5290     9.0760     1.5970 H     1 <1>   0.1500 
 54 H        5.7640     9.5520     0.6300 H     1 <1>   0.1500 
 55 H        6.0890     9.4060    -1.7820 H     1 <1>   0.1500 
@<TRIPOS>BOND
  1   1   2  2   
  2   2   3  am  
  3   2   4  1   
  4   3   5  1   
  5   3   6  1   
  6   4   7  1   
  7   4  29  1   
  8   4  30  1   
  9   5   8  1   
 10   5   9  1   
 11   5  31  1   
 12   6  10  1   
 13   6  11  1   
 14   6  32  1   
 15   7   9  1   
 16   8  12  ar  
 17   8  13  ar  
 18   9  14  1   
 19   9  33  1   
 20  10  34  1   
 21  10  35  1   
 22  10  36  1   
 23  11  37  1   
 24  11  38  1   
 25  11  39  1   
 26  12  15  ar  
 27  12  40  1   
 28  13  16  ar  
 29  13  41  1   
 30  14  17  2   
 31  14  18  am  
 32  15  19  ar  
 33  15  42  1   
 34  16  19  ar  
 35  16  43  1   
 36  18  20  1   
 37  18  21  1   
 38  19  44  1   
 39  20  22  1   
 40  20  45  1   
 41  20  46  1   
 42  21  23  1   
 43  21  47  1   
 44  21  48  1   
 45  22  24  ar  
 46  22  25  ar  
 47  23  49  1   
 48  23  50  1   
 49  23  51  1   
 50  24  26  ar  
 51  24  52  1   
 52  25  27  ar  
 53  25  53  1   
 54  26  28  ar  
 55  27  28  ar  
 56  27  54  1   
 57  28  55  1   
@<TRIPOS>SUBSTRUCTURE
  1 ****   9 GROUP 4 **** **** 0

# MOE 2024.06 (io_trps.svl 2023.06)
