@<TRIPOS>MOLECULE
NONAME
44 46 1 0 0 
SMALL
USER_CHARGES


@<TRIPOS>ATOM
  1 S       -0.6290    -0.6880    -0.3280 S.3   1 <1>  -0.0800 
  2 C       -1.9070    -1.3440     0.6390 C.2   1 <1>   0.4420 
  3 C       -0.9050     0.8250     0.4660 C.2   1 <1>   0.1980 
  4 N       -2.4230    -0.4690     1.4230 N.2   1 <1>  -0.3380 
  5 N       -2.1970    -2.6780     0.4480 N.am  1 <1>  -0.4940 
  6 N       -1.8460     0.7670     1.3190 N.2   1 <1>  -0.3380 
  7 C       -0.0420     2.0090     0.0790 C.3   1 <1>   0.1640 
  8 C       -3.1370    -3.4650     1.0530 C.2   1 <1>   0.5690 
  9 C        1.4290     1.7430     0.3700 C.ar  1 <1>  -0.1440 
 10 O       -3.8850    -3.0760     1.9110 O.2   1 <1>  -0.5700 
 11 C       -3.2410    -4.9240     0.6280 C.3   1 <1>  -0.0190 
 12 C        2.3490     1.6310    -0.6620 C.ar  1 <1>  -0.1500 
 13 C        1.8580     1.6070     1.6810 C.ar  1 <1>  -0.1500 
 14 C       -1.8860    -5.6170     0.8330 C.3   1 <1>   0.1400 
 15 C       -3.5220    -5.0520    -0.8830 C.3   1 <1>  -0.0990 
 16 C        3.6860     1.3890    -0.3930 C.ar  1 <1>  -0.1430 
 17 C        3.1920     1.3640     1.9560 C.ar  1 <1>  -0.1500 
 18 N       -1.2500    -5.5000    -0.4930 N.am  1 <1>  -0.6600 
 19 C       -2.1420    -5.1910    -1.4620 C.2   1 <1>   0.5690 
 20 C        4.1030     1.2550     0.9210 C.ar  1 <1>  -0.1500 
 21 C        4.6850     1.2680    -1.5300 C.3   1 <1>  -0.0970 
 22 C        0.1910    -5.7730    -0.6990 C.3   1 <1>   0.1400 
 23 O       -1.8870    -4.9840    -2.6200 O.2   1 <1>  -0.5700 
 24 C        0.4660    -7.2610    -0.5020 C.3   1 <1>  -0.2400 
 25 H       -1.6120    -3.1490    -0.2430 H     1 <1>   0.3700 
 26 H       -0.3620     2.8710     0.6380 H     1 <1>   0.0800 
 27 H       -0.1870     2.2220    -0.9640 H     1 <1>   0.0800 
 28 H       -4.0080    -5.4030     1.2110 H     1 <1>   0.0800 
 29 H        2.0280     1.7310    -1.6840 H     1 <1>   0.1500 
 30 H        1.1560     1.6860     2.4940 H     1 <1>   0.1500 
 31 H       -2.0220    -6.6580     1.0740 H     1 <1>   0.0800 
 32 H       -1.2950    -5.1400     1.5990 H     1 <1>   0.0800 
 33 H       -4.0360    -4.1970    -1.2860 H     1 <1>   0.0800 
 34 H       -4.0780    -5.9460    -1.0980 H     1 <1>   0.0800 
 35 H        3.5200     1.2580     2.9750 H     1 <1>   0.1500 
 36 H        5.1380     1.0650     1.1450 H     1 <1>   0.1500 
 37 H        4.4120     1.9200    -2.3400 H     1 <1>   0.0800 
 38 H        4.7050     0.2550    -1.8890 H     1 <1>   0.0800 
 39 H        5.6710     1.5380    -1.1960 H     1 <1>   0.0800 
 40 H        0.7730    -5.1890    -0.0060 H     1 <1>   0.0800 
 41 H        0.4690    -5.4860    -1.7000 H     1 <1>   0.0800 
 42 H        0.2500    -7.5590     0.5080 H     1 <1>   0.0800 
 43 H        1.5030    -7.4630    -0.7000 H     1 <1>   0.0800 
 44 H       -0.1290    -7.8400    -1.1860 H     1 <1>   0.0800 
@<TRIPOS>BOND
  1   1   2  1   
  2   1   3  1   
  3   2   4  2   
  4   2   5  1   
  5   3   6  2   
  6   3   7  1   
  7   4   6  1   
  8   5   8  am  
  9   5  25  1   
 10   7   9  1   
 11   7  26  1   
 12   7  27  1   
 13   8  10  2   
 14   8  11  1   
 15   9  12  ar  
 16   9  13  ar  
 17  11  14  1   
 18  11  15  1   
 19  11  28  1   
 20  12  16  ar  
 21  12  29  1   
 22  13  17  ar  
 23  13  30  1   
 24  14  18  1   
 25  14  31  1   
 26  14  32  1   
 27  15  19  1   
 28  15  33  1   
 29  15  34  1   
 30  16  20  ar  
 31  16  21  1   
 32  17  20  ar  
 33  17  35  1   
 34  18  19  am  
 35  18  22  1   
 36  19  23  2   
 37  20  36  1   
 38  21  37  1   
 39  21  38  1   
 40  21  39  1   
 41  22  24  1   
 42  22  40  1   
 43  22  41  1   
 44  24  42  1   
 45  24  43  1   
 46  24  44  1   
@<TRIPOS>SUBSTRUCTURE
  1 ****   1 GROUP 4 **** **** 0

# MOE 2024.06 (io_trps.svl 2023.06)
