@<TRIPOS>MOLECULE
NONAME
46 48 1 0 0 
SMALL
USER_CHARGES


@<TRIPOS>ATOM
  1 F        1.5560    -0.4750     1.0040 F     1 <1>  -0.3400 
  2 C        1.6040    -0.9210    -0.2490 C.3   1 <1>   0.7810 
  3 F        0.4810    -0.4710    -0.8040 F     1 <1>  -0.3400 
  4 C        1.6310    -2.4550    -0.2730 C.2   1 <1>   0.1080 
  5 N        2.4480    -3.1620    -1.0080 N.2   1 <1>  -0.7070 
  6 C        0.8010    -3.2680     0.4810 C.2   1 <1>  -0.1500 
  7 N        2.1550    -4.4410    -0.7250 N.pl3 1 <1>   0.3140 
  8 C        1.1420    -4.5500     0.1710 C.2   1 <1>  -0.2370 
  9 C        2.8990    -5.5370    -1.3700 C.3   1 <1>   0.0160 
 10 C        0.6220    -5.8030     0.6460 C.2   1 <1>   0.7150 
 11 O        1.3940    -6.7180     0.8720 O.2   1 <1>  -0.5700 
 12 N       -0.7270    -6.0130     0.8470 N.am  1 <1>  -0.6600 
 13 C       -1.7640    -5.2220     0.1170 C.3   1 <1>   0.2200 
 14 C       -1.1650    -7.2070     1.6360 C.3   1 <1>   0.0600 
 15 C       -2.6950    -6.0780    -0.7380 C.3   1 <1>  -0.1600 
 16 C       -2.6980    -4.4550     1.0500 C.3   1 <1>  -0.1600 
 17 C       -3.9240    -5.1900    -0.9700 C.3   1 <1>  -0.0800 
 18 C       -3.9650    -4.2040     0.2200 C.3   1 <1>  -0.0800 
 19 C       -5.2120    -6.0070    -1.1960 C.3   1 <1>   0.1400 
 20 C       -5.2580    -4.2980     1.0510 C.3   1 <1>  -0.0990 
 21 N       -6.4100    -5.1670    -0.9510 N.am  1 <1>  -0.6600 
 22 C       -6.4700    -4.3470     0.1430 C.2   1 <1>   0.5690 
 23 C       -7.5460    -5.3220    -1.8990 C.3   1 <1>   0.0600 
 24 O       -7.4340    -3.6740     0.4170 O.2   1 <1>  -0.5700 
 25 H        2.4410    -0.4650    -0.7450 H     1 <1>   0.0800 
 26 H        0.0510    -2.9300     1.1730 H     1 <1>   0.1500 
 27 H        2.2050    -6.2340    -1.8000 H     1 <1>   0.0800 
 28 H        3.5010    -6.0330    -0.6320 H     1 <1>   0.0800 
 29 H        3.5310    -5.1330    -2.1390 H     1 <1>   0.0800 
 30 H       -1.2940    -4.5130    -0.5430 H     1 <1>   0.0800 
 31 H       -2.1340    -7.0510     2.0730 H     1 <1>   0.0800 
 32 H       -0.4630    -7.3990     2.4300 H     1 <1>   0.0800 
 33 H       -1.2000    -8.0700     0.9950 H     1 <1>   0.0800 
 34 H       -2.2280    -6.3590    -1.6650 H     1 <1>   0.0800 
 35 H       -2.9930    -6.9610    -0.2050 H     1 <1>   0.0800 
 36 H       -2.9350    -5.0460     1.9140 H     1 <1>   0.0800 
 37 H       -2.2570    -3.5280     1.3710 H     1 <1>   0.0800 
 38 H       -3.7480    -4.6110    -1.8620 H     1 <1>   0.0800 
 39 H       -3.9140    -3.2080    -0.1890 H     1 <1>   0.0800 
 40 H       -5.2470    -6.8420    -0.5180 H     1 <1>   0.0800 
 41 H       -5.2250    -6.3900    -2.2020 H     1 <1>   0.0800 
 42 H       -5.3360    -3.4520     1.7090 H     1 <1>   0.0800 
 43 H       -5.2610    -5.1920     1.6470 H     1 <1>   0.0800 
 44 H       -7.2320    -5.0470    -2.8900 H     1 <1>   0.0800 
 45 H       -8.3680    -4.6890    -1.6110 H     1 <1>   0.0800 
 46 H       -7.8820    -6.3440    -1.9000 H     1 <1>   0.0800 
@<TRIPOS>BOND
  1   1   2  1   
  2   2   3  1   
  3   2   4  1   
  4   2  25  1   
  5   4   5  2   
  6   4   6  1   
  7   5   7  1   
  8   6   8  2   
  9   6  26  1   
 10   7   8  1   
 11   7   9  1   
 12   8  10  1   
 13   9  27  1   
 14   9  28  1   
 15   9  29  1   
 16  10  11  2   
 17  10  12  am  
 18  12  13  1   
 19  12  14  1   
 20  13  15  1   
 21  13  16  1   
 22  13  30  1   
 23  14  31  1   
 24  14  32  1   
 25  14  33  1   
 26  15  17  1   
 27  15  34  1   
 28  15  35  1   
 29  16  18  1   
 30  16  36  1   
 31  16  37  1   
 32  17  18  1   
 33  17  19  1   
 34  17  38  1   
 35  18  20  1   
 36  18  39  1   
 37  19  21  1   
 38  19  40  1   
 39  19  41  1   
 40  20  22  1   
 41  20  42  1   
 42  20  43  1   
 43  21  22  am  
 44  21  23  1   
 45  22  24  2   
 46  23  44  1   
 47  23  45  1   
 48  23  46  1   
@<TRIPOS>SUBSTRUCTURE
  1 ****  13 GROUP 4 **** **** 0

# MOE 2024.06 (io_trps.svl 2023.06)
