@<TRIPOS>MOLECULE
NONAME
54 57 1 0 0 
SMALL
USER_CHARGES


@<TRIPOS>ATOM
  1 O        0.1320    -0.3050    -0.7450 O.3   1 <1>  -0.6800 
  2 C        1.4830    -0.4330    -1.0370 C.3   1 <1>   0.2000 
  3 C        2.0170    -1.6240    -0.2310 C.3   1 <1>  -0.0800 
  4 C        2.1950     0.8090    -0.4800 C.3   1 <1>   0.3430 
  5 C        2.4330    -0.9730     1.0880 C.3   1 <1>   0.3430 
  6 C        3.1690    -2.3880    -0.9330 C.3   1 <1>  -0.0170 
  7 N        2.9820     0.3480     0.7030 N.4   1 <1>  -0.9590 
  8 C        4.5470    -1.7410    -0.8320 C.ar  1 <1>   0.1670 
  9 C        3.0940     1.3460     1.7910 C.3   1 <1>   0.4860 
 10 N        4.7020    -0.5810    -1.4510 N.ar  1 <1>  -0.6200 
 11 C        5.5490    -2.3670    -0.1040 C.ar  1 <1>  -0.1500 
 12 C        3.7740     2.5810     1.2350 C.ar  1 <1>  -0.1440 
 13 C        5.9070    -0.0320    -1.3650 C.ar  1 <1>   0.1600 
 14 C        6.7890    -1.7760    -0.0010 C.ar  1 <1>  -0.1500 
 15 C        5.1270     2.5560     0.9330 C.ar  1 <1>  -0.1500 
 16 C        3.0470     3.7400     1.0070 C.ar  1 <1>  -0.1500 
 17 C        6.9620    -0.5770    -0.6560 C.ar  1 <1>  -0.1500 
 18 C        5.7620     3.6690     0.3930 C.ar  1 <1>  -0.0230 
 19 C        3.6660     4.8540     0.4690 C.ar  1 <1>  -0.1500 
 20 N        7.1480     3.6180     0.0770 N.pl3 1 <1>   0.5930 
 21 C        5.0120     4.8160     0.1580 C.ar  1 <1>  -0.1500 
 22 N        7.6590     2.6900    -0.7720 N.2   1 <1>  -0.7070 
 23 C        8.1490     4.4050     0.5600 C.2   1 <1>  -0.3320 
 24 C        8.9300     2.9260    -0.8210 C.2   1 <1>   0.1080 
 25 C        9.2990     3.9860    -0.0040 C.2   1 <1>  -0.1500 
 26 C        7.9630     5.5310     1.5660 C.3   1 <1>  -0.0600 
 27 C        9.8820     2.1220    -1.6770 C.3   1 <1>  -0.0590 
 28 H       -0.4060    -0.9320    -1.2730 H     1 <1>   0.4000 
 29 H        1.6020    -0.5270    -2.1040 H     1 <1>   0.0800 
 30 H        1.2280    -2.3340    -0.0530 H     1 <1>   0.0800 
 31 H        1.4660     1.5510    -0.2010 H     1 <1>   0.0800 
 32 H        2.8620     1.2210    -1.2200 H     1 <1>   0.0800 
 33 H        3.1590    -1.5680     1.6190 H     1 <1>   0.0800 
 34 H        1.5580    -0.8340     1.7030 H     1 <1>   0.0800 
 35 H        2.9320    -2.5250    -1.9740 H     1 <1>   0.0800 
 36 H        3.2260    -3.3740    -0.5050 H     1 <1>   0.0800 
 37 H        3.9280     0.1820     0.3040 H     1 <1>   0.4500 
 38 H        2.1160     1.5990     2.1640 H     1 <1>   0.0800 
 39 H        3.6820     0.9460     2.6010 H     1 <1>   0.0800 
 40 H        5.3750    -3.3120     0.3790 H     1 <1>   0.1500 
 41 H        6.0670     0.9030    -1.8790 H     1 <1>   0.1500 
 42 H        7.5920    -2.2320     0.5550 H     1 <1>   0.1500 
 43 H        5.7150     1.6690     1.1060 H     1 <1>   0.1500 
 44 H        1.9960     3.7900     1.2410 H     1 <1>   0.1500 
 45 H        7.9060    -0.0610    -0.6250 H     1 <1>   0.1500 
 46 H        3.0990     5.7520     0.2870 H     1 <1>   0.1500 
 47 H        5.4830     5.6830    -0.2750 H     1 <1>   0.1500 
 48 H       10.2980     4.3630     0.1300 H     1 <1>   0.1500 
 49 H        8.9180     5.9270     1.8600 H     1 <1>   0.0800 
 50 H        7.4600     5.1680     2.4450 H     1 <1>   0.0800 
 51 H        7.3830     6.3290     1.1360 H     1 <1>   0.0800 
 52 H       10.7700     2.6910    -1.8790 H     1 <1>   0.0800 
 53 H        9.4090     1.8740    -2.6100 H     1 <1>   0.0800 
 54 H       10.1510     1.2160    -1.1680 H     1 <1>   0.0800 
@<TRIPOS>BOND
  1   1   2  1   
  2   1  28  1   
  3   2   3  1   
  4   2   4  1   
  5   2  29  1   
  6   3   5  1   
  7   3   6  1   
  8   3  30  1   
  9   4   7  1   
 10   4  31  1   
 11   4  32  1   
 12   5   7  1   
 13   5  33  1   
 14   5  34  1   
 15   6   8  1   
 16   6  35  1   
 17   6  36  1   
 18   7   9  1   
 19   7  37  1   
 20   8  10  ar  
 21   8  11  ar  
 22   9  12  1   
 23   9  38  1   
 24   9  39  1   
 25  10  13  ar  
 26  11  14  ar  
 27  11  40  1   
 28  12  15  ar  
 29  12  16  ar  
 30  13  17  ar  
 31  13  41  1   
 32  14  17  ar  
 33  14  42  1   
 34  15  18  ar  
 35  15  43  1   
 36  16  19  ar  
 37  16  44  1   
 38  17  45  1   
 39  18  20  1   
 40  18  21  ar  
 41  19  21  ar  
 42  19  46  1   
 43  20  22  1   
 44  20  23  1   
 45  21  47  1   
 46  22  24  2   
 47  23  25  2   
 48  23  26  1   
 49  24  25  1   
 50  24  27  1   
 51  25  48  1   
 52  26  49  1   
 53  26  50  1   
 54  26  51  1   
 55  27  52  1   
 56  27  53  1   
 57  27  54  1   
@<TRIPOS>SUBSTRUCTURE
  1 ****  15 GROUP 4 **** **** 0

# MOE 2024.06 (io_trps.svl 2023.06)
