@<TRIPOS>MOLECULE
NONAME
47 48 1 0 0 
SMALL
USER_CHARGES


@<TRIPOS>ATOM
  1 O        1.3880    -0.0350    -1.9900 O.co2 1 <1>  -0.9000 
  2 C        2.6120     0.0420    -1.8610 C.2   1 <1>   0.9060 
  3 O        3.3980    -0.6270    -2.5500 O.co2 1 <1>  -0.9000 
  4 C        3.1860     0.9630    -0.8020 C.3   1 <1>  -0.1860 
  5 C        4.1030     0.1860     0.1440 C.3   1 <1>   0.2000 
  6 C        3.8960     2.2060    -1.3930 C.3   1 <1>  -0.1600 
  7 O        5.1420    -0.3610    -0.5970 O.3   1 <1>  -0.6800 
  8 C        4.6790     1.1020     1.2470 C.3   1 <1>   0.1100 
  9 C        5.1180     2.6760    -0.5890 C.3   1 <1>   0.1100 
 10 N        4.8970     2.5270     0.8600 N.3   1 <1>  -0.8100 
 11 C        5.9890     3.1080     1.6930 C.3   1 <1>   0.1710 
 12 C        6.2440     4.6190     1.5800 C.2   1 <1>   0.5690 
 13 O        5.8770     5.3520     2.4690 O.2   1 <1>  -0.5700 
 14 N        6.9460     5.0970     0.5150 N.am  1 <1>  -0.7300 
 15 C        7.2620     6.5230     0.2690 C.3   1 <1>   0.1400 
 16 C        8.7180     6.8040     0.6360 C.3   1 <1>  -0.0170 
 17 C        9.0680     8.2560     0.3330 C.ar  1 <1>  -0.1430 
 18 C        9.3850     8.6660    -0.9610 C.ar  1 <1>   0.0820 
 19 C        9.0630     9.1830     1.3630 C.ar  1 <1>  -0.1500 
 20 O        9.3680     7.7270    -1.9460 O.3   1 <1>  -0.3630 
 21 C        9.7010    10.0020    -1.2000 C.ar  1 <1>  -0.1500 
 22 C        9.3760    10.5080     1.1190 C.ar  1 <1>  -0.1500 
 23 C        9.7120     8.0440    -3.2770 C.3   1 <1>   0.0400 
 24 C        9.6960    10.9170    -0.1620 C.ar  1 <1>  -0.1500 
 25 H        2.3590     1.3130    -0.2140 H     1 <1>   0.0800 
 26 H        3.5680    -0.6370     0.5850 H     1 <1>   0.0800 
 27 H        3.1840     3.0090    -1.4640 H     1 <1>   0.0800 
 28 H        4.2250     1.9850    -2.3930 H     1 <1>   0.0800 
 29 H        4.7260    -0.6330    -1.4700 H     1 <1>   0.4000 
 30 H        5.5970     0.6580     1.5940 H     1 <1>   0.0800 
 31 H        3.9870     1.1000     2.0700 H     1 <1>   0.0800 
 32 H        5.2960     3.7050    -0.8370 H     1 <1>   0.0800 
 33 H        5.9800     2.0970    -0.8770 H     1 <1>   0.0800 
 34 H        5.7600     2.9120     2.7260 H     1 <1>   0.0800 
 35 H        6.9080     2.5980     1.4670 H     1 <1>   0.0800 
 36 H        7.2280     4.4460    -0.2190 H     1 <1>   0.3700 
 37 H        7.0930     6.7520    -0.7700 H     1 <1>   0.0800 
 38 H        6.6150     7.1500     0.8610 H     1 <1>   0.0800 
 39 H        8.8600     6.6040     1.6830 H     1 <1>   0.0800 
 40 H        9.3680     6.1530     0.0800 H     1 <1>   0.0800 
 41 H        8.8120     8.8770     2.3650 H     1 <1>   0.1500 
 42 H        9.9520    10.3510    -2.1830 H     1 <1>   0.1500 
 43 H        9.3700    11.2190     1.9270 H     1 <1>   0.1500 
 44 H        9.6420     7.1460    -3.8630 H     1 <1>   0.0800 
 45 H       10.7210     8.4160    -3.2970 H     1 <1>   0.0800 
 46 H        9.0210     8.7790    -3.6500 H     1 <1>   0.0800 
 47 H        9.9400    11.9480    -0.3510 H     1 <1>   0.1500 
@<TRIPOS>BOND
  1   1   2  ar  
  2   2   3  ar  
  3   2   4  1   
  4   4   5  1   
  5   4   6  1   
  6   4  25  1   
  7   5   7  1   
  8   5   8  1   
  9   5  26  1   
 10   6   9  1   
 11   6  27  1   
 12   6  28  1   
 13   7  29  1   
 14   8  10  1   
 15   8  30  1   
 16   8  31  1   
 17   9  10  1   
 18   9  32  1   
 19   9  33  1   
 20  10  11  1   
 21  11  12  1   
 22  11  34  1   
 23  11  35  1   
 24  12  13  2   
 25  12  14  am  
 26  14  15  1   
 27  14  36  1   
 28  15  16  1   
 29  15  37  1   
 30  15  38  1   
 31  16  17  1   
 32  16  39  1   
 33  16  40  1   
 34  17  18  ar  
 35  17  19  ar  
 36  18  20  1   
 37  18  21  ar  
 38  19  22  ar  
 39  19  41  1   
 40  20  23  1   
 41  21  24  ar  
 42  21  42  1   
 43  22  24  ar  
 44  22  43  1   
 45  23  44  1   
 46  23  45  1   
 47  23  46  1   
 48  24  47  1   
@<TRIPOS>SUBSTRUCTURE
  1 ****  14 GROUP 4 **** **** 0

# MOE 2024.06 (io_trps.svl 2023.06)
