@<TRIPOS>MOLECULE
NONAME
48 50 1 0 0 
SMALL
USER_CHARGES


@<TRIPOS>ATOM
  1 O       -1.9440     0.4190    -2.0870 O.2   1 <1>  -0.5700 
  2 C       -1.7780     0.3940    -0.8910 C.2   1 <1>   0.5690 
  3 N       -1.7530    -0.7770    -0.2090 N.am  1 <1>  -0.7300 
  4 C       -1.6190     1.6980    -0.1110 C.3   1 <1>  -0.0190 
  5 C       -1.8920    -2.1170    -0.8230 C.3   1 <1>   0.2200 
  6 C       -2.9480     2.4750    -0.0590 C.3   1 <1>  -0.1600 
  7 C       -0.5000     2.5810    -0.6950 C.3   1 <1>  -0.1600 
  8 C       -3.2870    -2.6870    -0.5980 C.3   1 <1>  -0.0800 
  9 C       -1.0560    -3.1090    -0.0280 C.3   1 <1>   0.1200 
 10 C       -2.8020     3.7910     0.7180 C.3   1 <1>  -0.1600 
 11 C       -0.3550     3.8960     0.0840 C.3   1 <1>  -0.1600 
 12 C       -3.1830    -3.3180     0.7950 C.3   1 <1>   0.1200 
 13 C       -4.4540    -1.6950    -0.7610 C.3   1 <1>  -0.0170 
 14 O       -1.8200    -3.4000     1.1020 O.3   1 <1>  -0.5600 
 15 C       -1.6840     4.6670     0.1310 C.3   1 <1>  -0.0800 
 16 C       -5.7920    -2.4020    -0.6090 C.ar  1 <1>  -0.1440 
 17 C       -1.5270     5.9550     0.9470 C.3   1 <1>  -0.2400 
 18 C       -6.5010    -2.3860     0.5750 C.ar  1 <1>  -0.1500 
 19 C       -6.3650    -3.0990    -1.6530 C.ar  1 <1>  -0.1500 
 20 C       -7.7120    -3.0550     0.6570 C.ar  1 <1>   0.1600 
 21 C       -7.5820    -3.7340    -1.4670 C.ar  1 <1>   0.1600 
 22 N       -8.2680    -3.7300    -0.3360 N.ar  1 <1>  -0.6200 
 23 H       -1.6480    -0.7950     0.8070 H     1 <1>   0.3700 
 24 H       -1.3430     1.4480     0.8980 H     1 <1>   0.0800 
 25 H       -1.6160    -2.0890    -1.8640 H     1 <1>   0.0800 
 26 H       -3.2700     2.6900    -1.0640 H     1 <1>   0.0800 
 27 H       -3.7050     1.8660     0.4050 H     1 <1>   0.0800 
 28 H        0.4320     2.0440    -0.6720 H     1 <1>   0.0800 
 29 H       -0.7230     2.8030    -1.7260 H     1 <1>   0.0800 
 30 H       -3.4300    -3.4880    -1.3020 H     1 <1>   0.0800 
 31 H       -0.1020    -2.7090     0.2690 H     1 <1>   0.0800 
 32 H       -0.9170    -4.0230    -0.5790 H     1 <1>   0.0800 
 33 H       -2.5840     3.5730     1.7500 H     1 <1>   0.0800 
 34 H       -3.7350     4.3270     0.6850 H     1 <1>   0.0800 
 35 H        0.3990     4.5040    -0.3860 H     1 <1>   0.0800 
 36 H       -0.0270     3.6810     1.0860 H     1 <1>   0.0800 
 37 H       -3.6080    -4.3070     0.8170 H     1 <1>   0.0800 
 38 H       -3.6480    -2.7050     1.5470 H     1 <1>   0.0800 
 39 H       -4.4000    -1.2380    -1.7340 H     1 <1>   0.0800 
 40 H       -4.3840    -0.9070    -0.0320 H     1 <1>   0.0800 
 41 H       -1.9560     4.9360    -0.8770 H     1 <1>   0.0800 
 42 H       -1.2540     5.7310     1.9630 H     1 <1>   0.0800 
 43 H       -2.4510     6.5060     0.9520 H     1 <1>   0.0800 
 44 H       -0.7650     6.5780     0.5150 H     1 <1>   0.0800 
 45 H       -6.1270    -1.8620     1.4340 H     1 <1>   0.1500 
 46 H       -5.8780    -3.1540    -2.6090 H     1 <1>   0.1500 
 47 H       -8.2510    -3.0330     1.5880 H     1 <1>   0.1500 
 48 H       -8.0140    -4.2720    -2.2930 H     1 <1>   0.1500 
@<TRIPOS>BOND
  1   1   2  2   
  2   2   3  am  
  3   2   4  1   
  4   3   5  1   
  5   3  23  1   
  6   4   6  1   
  7   4   7  1   
  8   4  24  1   
  9   5   8  1   
 10   5   9  1   
 11   5  25  1   
 12   6  10  1   
 13   6  26  1   
 14   6  27  1   
 15   7  11  1   
 16   7  28  1   
 17   7  29  1   
 18   8  12  1   
 19   8  13  1   
 20   8  30  1   
 21   9  14  1   
 22   9  31  1   
 23   9  32  1   
 24  10  15  1   
 25  10  33  1   
 26  10  34  1   
 27  11  15  1   
 28  11  35  1   
 29  11  36  1   
 30  12  14  1   
 31  12  37  1   
 32  12  38  1   
 33  13  16  1   
 34  13  39  1   
 35  13  40  1   
 36  15  17  1   
 37  15  41  1   
 38  16  18  ar  
 39  16  19  ar  
 40  17  42  1   
 41  17  43  1   
 42  17  44  1   
 43  18  20  ar  
 44  18  45  1   
 45  19  21  ar  
 46  19  46  1   
 47  20  22  ar  
 48  20  47  1   
 49  21  22  ar  
 50  21  48  1   
@<TRIPOS>SUBSTRUCTURE
  1 ****   3 GROUP 4 **** **** 0

# MOE 2024.06 (io_trps.svl 2023.06)
