@<TRIPOS>MOLECULE
NONAME
40 41 1 0 0 
SMALL
USER_CHARGES


@<TRIPOS>ATOM
  1 O        0.4650     0.6660     0.7200 O.co2 1 <1>  -0.9000 
  2 C       -0.5970     1.2890     0.9260 C.2   1 <1>   0.9790 
  3 O       -1.5620     0.6320     1.3750 O.co2 1 <1>  -0.9000 
  4 C       -0.7610     2.7280     0.6420 C.ar  1 <1>   0.1310 
  5 N        0.2610     3.5510     0.3830 N.ar  1 <1>  -0.6200 
  6 C       -2.0380     3.2650     0.6420 C.ar  1 <1>  -0.1500 
  7 C       -0.0010     4.8260     0.1350 C.ar  1 <1>   0.7200 
  8 C       -2.2130     4.5990     0.3750 C.ar  1 <1>   0.1660 
  9 N       -1.2060     5.3920     0.1180 N.ar  1 <1>  -0.6200 
 10 N        1.0720     5.6520    -0.1350 N.pl3 1 <1>  -0.8380 
 11 C       -3.5940     5.2160     0.3660 C.3   1 <1>  -0.0970 
 12 C        0.9010     7.1420    -0.0960 C.3   1 <1>   0.3890 
 13 C        2.3860     5.1110    -0.5960 C.3   1 <1>   0.2090 
 14 C        2.1360     7.9070     0.3690 C.2   1 <1>   0.2980 
 15 C        2.5590     5.3930    -2.0850 C.3   1 <1>  -0.2400 
 16 O        2.5500     7.7350     1.5990 O.3   1 <1>  -0.0190 
 17 N        2.8230     8.7240    -0.3300 N.2   1 <1>  -0.5650 
 18 N        3.5900     8.5060     1.6910 N.2   1 <1>  -0.4100 
 19 C        3.7410     9.0760     0.5610 C.2   1 <1>   0.3350 
 20 C        4.8370    10.0800     0.1970 C.3   1 <1>   0.1010 
 21 C        6.1190     9.8780     1.0220 C.3   1 <1>  -0.2400 
 22 C        4.3290    11.5190     0.3620 C.3   1 <1>  -0.2400 
 23 H       -2.8760     2.6270     0.8520 H     1 <1>   0.1500 
 24 H       -4.3440     4.4790     0.5880 H     1 <1>   0.0800 
 25 H       -3.7920     5.6360    -0.6030 H     1 <1>   0.0800 
 26 H       -3.6420     5.9960     1.1020 H     1 <1>   0.0800 
 27 H        0.0990     7.4040     0.5710 H     1 <1>   0.0800 
 28 H        0.6330     7.4800    -1.0810 H     1 <1>   0.0800 
 29 H        2.4480     4.0480    -0.4360 H     1 <1>   0.0800 
 30 H        3.1870     5.5590    -0.0340 H     1 <1>   0.0800 
 31 H        1.7410     4.9590    -2.6330 H     1 <1>   0.0800 
 32 H        3.4740     4.9480    -2.4280 H     1 <1>   0.0800 
 33 H        2.6030     6.4490    -2.2740 H     1 <1>   0.0800 
 34 H        5.0830     9.9240    -0.8390 H     1 <1>   0.0800 
 35 H        5.9240    10.0460     2.0660 H     1 <1>   0.0800 
 36 H        6.8860    10.5570     0.6980 H     1 <1>   0.0800 
 37 H        6.4770     8.8710     0.9000 H     1 <1>   0.0800 
 38 H        4.0630    11.7040     1.3870 H     1 <1>   0.0800 
 39 H        3.4570    11.6710    -0.2500 H     1 <1>   0.0800 
 40 H        5.0850    12.2230     0.0630 H     1 <1>   0.0800 
@<TRIPOS>BOND
  1   1   2  ar  
  2   2   3  ar  
  3   2   4  1   
  4   4   5  ar  
  5   4   6  ar  
  6   5   7  ar  
  7   6   8  ar  
  8   6  23  1   
  9   7   9  ar  
 10   7  10  1   
 11   8   9  ar  
 12   8  11  1   
 13  10  12  1   
 14  10  13  1   
 15  11  24  1   
 16  11  25  1   
 17  11  26  1   
 18  12  14  1   
 19  12  27  1   
 20  12  28  1   
 21  13  15  1   
 22  13  29  1   
 23  13  30  1   
 24  14  16  1   
 25  14  17  2   
 26  15  31  1   
 27  15  32  1   
 28  15  33  1   
 29  16  18  1   
 30  17  19  1   
 31  18  19  2   
 32  19  20  1   
 33  20  21  1   
 34  20  22  1   
 35  20  34  1   
 36  21  35  1   
 37  21  36  1   
 38  21  37  1   
 39  22  38  1   
 40  22  39  1   
 41  22  40  1   
@<TRIPOS>SUBSTRUCTURE
  1 ****  10 GROUP 4 **** **** 0

# MOE 2024.06 (io_trps.svl 2023.06)
