@<TRIPOS>MOLECULE
NONAME
47 49 1 0 0 
SMALL
USER_CHARGES


@<TRIPOS>ATOM
  1 S        0.8610     0.3930    -1.7520 S.o2  1 <1>   1.3330 
  2 O        1.1570    -0.9540    -2.1860 O.2   1 <1>  -0.6500 
  3 O        0.2270     1.3170    -2.6640 O.2   1 <1>  -0.6500 
  4 N       -0.1290     0.2900    -0.3740 N.am  1 <1>  -0.8490 
  5 C        2.3760     1.1140    -1.1210 C.3   1 <1>  -0.0550 
  6 C       -1.0930    -0.8110    -0.4670 C.3   1 <1>   0.1160 
  7 C       -0.8360     1.5400    -0.0730 C.3   1 <1>   0.1160 
  8 C        3.1820     0.1790    -0.1910 C.3   1 <1>  -0.0800 
  9 C        4.5500     0.7020     0.2190 C.3   1 <1>   0.2200 
 10 C        2.5270    -0.1380     1.1590 C.3   1 <1>   0.1200 
 11 N        4.4790     2.1310     0.6130 N.am  1 <1>  -0.7300 
 12 C        4.7950    -0.1320     1.4680 C.3   1 <1>   0.1200 
 13 O        3.5560    -0.1800     2.1060 O.3   1 <1>  -0.5600 
 14 C        4.7360     3.1890    -0.2060 C.2   1 <1>   0.5440 
 15 O        4.9760     2.9580    -1.3720 O.2   1 <1>  -0.5700 
 16 C        4.7180     4.5450     0.3030 C.ar  1 <1>   0.0860 
 17 C        5.6720     5.5100    -0.0680 C.ar  1 <1>  -0.0230 
 18 C        3.7130     4.9250     1.1970 C.ar  1 <1>  -0.1500 
 19 N        6.7480     5.2080    -0.9510 N.pl3 1 <1>   0.5930 
 20 C        5.5770     6.8000     0.4490 C.ar  1 <1>  -0.1500 
 21 C        3.6390     6.2050     1.7090 C.ar  1 <1>  -0.1500 
 22 N        7.1550     6.0290    -1.9270 N.2   1 <1>  -0.7070 
 23 C        7.6340     4.1960    -0.8990 C.2   1 <1>   0.0360 
 24 C        4.5740     7.1480     1.3310 C.ar  1 <1>  -0.1500 
 25 C        8.2100     5.4440    -2.3850 C.2   1 <1>   0.3660 
 26 N        8.5620     4.3030    -1.7790 N.2   1 <1>  -0.5650 
 27 H        2.9980     1.3610    -1.9600 H     1 <1>   0.0800 
 28 H        2.1470     2.0280    -0.6130 H     1 <1>   0.0800 
 29 H       -1.6990    -0.8550     0.4220 H     1 <1>   0.0800 
 30 H       -0.5730    -1.7500    -0.5650 H     1 <1>   0.0800 
 31 H       -1.7310    -0.6790    -1.3260 H     1 <1>   0.0800 
 32 H       -1.3700     1.4490     0.8570 H     1 <1>   0.0800 
 33 H       -1.5380     1.7750    -0.8580 H     1 <1>   0.0800 
 34 H       -0.1350     2.3520     0.0150 H     1 <1>   0.0800 
 35 H        3.3320    -0.7550    -0.7050 H     1 <1>   0.0800 
 36 H        5.3030     0.5490    -0.5380 H     1 <1>   0.0800 
 37 H        2.0220    -1.0900     1.1450 H     1 <1>   0.0800 
 38 H        1.8390     0.6320     1.4620 H     1 <1>   0.0800 
 39 H        4.2160     2.2710     1.5920 H     1 <1>   0.3700 
 40 H        5.5300     0.2980     2.1250 H     1 <1>   0.0800 
 41 H        5.0750    -1.1390     1.2090 H     1 <1>   0.0800 
 42 H        2.9670     4.2080     1.4920 H     1 <1>   0.1500 
 43 H        6.3000     7.5440     0.1540 H     1 <1>   0.1500 
 44 H        2.8540     6.4740     2.3960 H     1 <1>   0.1500 
 45 H        7.5490     3.3980    -0.1870 H     1 <1>   0.1500 
 46 H        4.5200     8.1510     1.7210 H     1 <1>   0.1500 
 47 H        8.7960     5.8330    -3.2030 H     1 <1>   0.1500 
@<TRIPOS>BOND
  1   1   2  2   
  2   1   3  2   
  3   1   4  am  
  4   1   5  1   
  5   4   6  1   
  6   4   7  1   
  7   5   8  1   
  8   5  27  1   
  9   5  28  1   
 10   6  29  1   
 11   6  30  1   
 12   6  31  1   
 13   7  32  1   
 14   7  33  1   
 15   7  34  1   
 16   8   9  1   
 17   8  10  1   
 18   8  35  1   
 19   9  11  1   
 20   9  12  1   
 21   9  36  1   
 22  10  13  1   
 23  10  37  1   
 24  10  38  1   
 25  11  14  am  
 26  11  39  1   
 27  12  13  1   
 28  12  40  1   
 29  12  41  1   
 30  14  15  2   
 31  14  16  1   
 32  16  17  ar  
 33  16  18  ar  
 34  17  19  1   
 35  17  20  ar  
 36  18  21  ar  
 37  18  42  1   
 38  19  22  1   
 39  19  23  1   
 40  20  24  ar  
 41  20  43  1   
 42  21  24  ar  
 43  21  44  1   
 44  22  25  2   
 45  23  26  2   
 46  23  45  1   
 47  24  46  1   
 48  25  26  1   
 49  25  47  1   
@<TRIPOS>SUBSTRUCTURE
  1 ****  14 GROUP 4 **** **** 0

# MOE 2024.06 (io_trps.svl 2023.06)
