@<TRIPOS>MOLECULE
NONAME
44 46 1 0 0 
SMALL
USER_CHARGES


@<TRIPOS>ATOM
  1 O       -0.5100     0.4030    -0.1500 O.2   1 <1>  -0.5700 
  2 C       -1.5770     0.9840    -0.0250 C.2   1 <1>   0.7160 
  3 N       -2.7240     0.2170    -0.1440 N.am  1 <1>  -0.6600 
  4 C       -1.5840     2.4260     0.2370 C.2   1 <1>   0.2030 
  5 C       -4.1180     0.7120    -0.0270 C.3   1 <1>   0.1400 
  6 C       -2.7060    -1.2500    -0.3560 C.3   1 <1>   0.1400 
  7 N       -2.6260     3.2150     0.4590 N.2   1 <1>  -0.7070 
  8 C       -0.4060     3.1870     0.2890 C.2   1 <1>  -0.1500 
  9 C       -4.9980    -0.5250    -0.2140 C.3   1 <1>   0.2000 
 10 C       -4.0940    -1.7210     0.0780 C.3   1 <1>  -0.0800 
 11 N       -2.1190     4.4410     0.6450 N.pl3 1 <1>   0.3000 
 12 C       -0.7770     4.4550     0.5470 C.2   1 <1>  -0.3320 
 13 O       -6.0750    -0.5270     0.6590 O.3   1 <1>  -0.6800 
 14 C       -4.5700    -3.0070    -0.6190 C.3   1 <1>  -0.0170 
 15 C        0.0810     5.6960     0.7120 C.3   1 <1>   0.0200 
 16 C       -3.6660    -4.1840    -0.2930 C.ar  1 <1>   0.1670 
 17 C       -0.1710     6.6870    -0.4290 C.3   1 <1>  -0.1600 
 18 N       -2.6060    -4.3490    -1.0670 N.ar  1 <1>  -0.6200 
 19 C       -3.9720    -5.0180     0.7810 C.ar  1 <1>   0.1600 
 20 C        0.7090     7.9350    -0.2960 C.3   1 <1>  -0.2400 
 21 C       -1.8790    -5.3910    -0.6980 C.ar  1 <1>   0.1600 
 22 N       -3.2470    -6.0590     1.1530 N.ar  1 <1>  -0.6200 
 23 C       -2.1890    -6.2180     0.3750 C.ar  1 <1>   0.1600 
 24 H       -4.2600     1.1480     0.9460 H     1 <1>   0.0800 
 25 H       -4.3170     1.4440    -0.7910 H     1 <1>   0.0800 
 26 H       -2.5380    -1.4510    -1.4010 H     1 <1>   0.0800 
 27 H       -1.9290    -1.7190     0.2240 H     1 <1>   0.0800 
 28 H        0.5840     2.7900     0.1450 H     1 <1>   0.1500 
 29 H       -5.3760    -0.5550    -1.2220 H     1 <1>   0.0800 
 30 H       -4.0520    -1.8850     1.1410 H     1 <1>   0.0800 
 31 H       -2.7100     5.2600     0.8360 H     1 <1>   0.2700 
 32 H       -5.7640    -0.4050     1.5780 H     1 <1>   0.4000 
 33 H       -4.5900    -2.8630    -1.6850 H     1 <1>   0.0800 
 34 H       -5.5740    -3.2290    -0.3040 H     1 <1>   0.0800 
 35 H       -0.1320     6.1600     1.6600 H     1 <1>   0.0800 
 36 H        1.1190     5.4080     0.7120 H     1 <1>   0.0800 
 37 H        0.0380     6.2030    -1.3680 H     1 <1>   0.0800 
 38 H       -1.2060     6.9840    -0.4330 H     1 <1>   0.0800 
 39 H       -4.8550    -4.8120     1.3610 H     1 <1>   0.1500 
 40 H        1.7500     7.6650    -0.3200 H     1 <1>   0.0800 
 41 H        0.5030     8.4470     0.6270 H     1 <1>   0.0800 
 42 H        0.5140     8.6100    -1.1120 H     1 <1>   0.0800 
 43 H       -0.9940    -5.6010    -1.2730 H     1 <1>   0.1500 
 44 H       -1.5350    -7.0420     0.5980 H     1 <1>   0.1500 
@<TRIPOS>BOND
  1   1   2  2   
  2   2   3  am  
  3   2   4  1   
  4   3   5  1   
  5   3   6  1   
  6   4   7  2   
  7   4   8  1   
  8   5   9  1   
  9   5  24  1   
 10   5  25  1   
 11   6  10  1   
 12   6  26  1   
 13   6  27  1   
 14   7  11  1   
 15   8  12  2   
 16   8  28  1   
 17   9  10  1   
 18   9  13  1   
 19   9  29  1   
 20  10  14  1   
 21  10  30  1   
 22  11  12  1   
 23  11  31  1   
 24  12  15  1   
 25  13  32  1   
 26  14  16  1   
 27  14  33  1   
 28  14  34  1   
 29  15  17  1   
 30  15  35  1   
 31  15  36  1   
 32  16  18  ar  
 33  16  19  ar  
 34  17  20  1   
 35  17  37  1   
 36  17  38  1   
 37  18  21  ar  
 38  19  22  ar  
 39  19  39  1   
 40  20  40  1   
 41  20  41  1   
 42  20  42  1   
 43  21  23  ar  
 44  21  43  1   
 45  22  23  ar  
 46  23  44  1   
@<TRIPOS>SUBSTRUCTURE
  1 ****   3 GROUP 4 **** **** 0

# MOE 2024.06 (io_trps.svl 2023.06)
