@<TRIPOS>MOLECULE
NONAME
55 58 1 0 0 
SMALL
USER_CHARGES


@<TRIPOS>ATOM
  1 O        3.1040     0.2430     1.2420 O.2   1 <1>  -0.5700 
  2 C        2.9940    -0.3330     0.1860 C.2   1 <1>   0.6300 
  3 N        3.7530     0.0000    -0.8860 N.am  1 <1>  -0.7300 
  4 C        1.9030    -1.3840    -0.0010 C.3   1 <1>   0.0320 
  5 C        4.5960     1.2100    -0.9690 C.3   1 <1>   0.3200 
  6 C        0.5860    -0.7160    -0.3740 C.ar  1 <1>  -0.0320 
  7 C        1.8810    -2.6400     0.8270 C.3   1 <1>  -0.1900 
  8 C        2.2560    -2.7170    -0.6190 C.3   1 <1>  -0.2000 
  9 C        4.0640     2.1230    -2.0620 C.2   1 <1>   0.0070 
 10 C       -0.1920    -0.1410     0.6180 C.ar  1 <1>  -0.1500 
 11 C        0.1730    -0.6310    -1.6950 C.ar  1 <1>  -0.1500 
 12 C        0.6180    -3.3800     1.2560 C.3   1 <1>  -0.0650 
 13 C        2.9580    -2.9930     1.8540 C.3   1 <1>  -0.0650 
 14 N        4.7110     2.3870    -3.1450 N.2   1 <1>  -0.3380 
 15 N        2.8780     2.7500    -2.0340 N.pl3 1 <1>   0.0480 
 16 C       -1.3720     0.5080     0.2980 C.ar  1 <1>  -0.1500 
 17 C       -1.0050     0.0190    -2.0190 C.ar  1 <1>  -0.1500 
 18 C        1.1580    -4.6740     1.8540 C.3   1 <1>  -0.1600 
 19 C        2.4930    -4.3010     2.5070 C.3   1 <1>  -0.1600 
 20 N        3.9520     3.2120    -3.8670 N.2   1 <1>  -0.3380 
 21 C        2.8750     3.4130    -3.1910 C.2   1 <1>   0.0360 
 22 C        1.7920     2.7150    -1.0300 C.3   1 <1>   0.0960 
 23 C       -1.7780     0.5890    -1.0220 C.ar  1 <1>  -0.1500 
 24 C        2.0910     3.6410     0.1510 C.3   1 <1>  -0.1600 
 25 C        1.1390     3.3440     1.3060 C.3   1 <1>   0.1200 
 26 O        1.3430     4.3150     2.2760 O.3   1 <1>  -0.5600 
 27 C        0.6400     4.0900     3.4540 C.3   1 <1>   0.0400 
 28 H        3.6100    -0.4790    -1.7750 H     1 <1>   0.3700 
 29 H        5.6060     0.9220    -1.2050 H     1 <1>   0.0800 
 30 H        4.6090     1.7320    -0.0280 H     1 <1>   0.0800 
 31 H        3.2800    -2.9170    -0.8790 H     1 <1>   0.1000 
 32 H        1.5660    -3.1720    -1.3070 H     1 <1>   0.1000 
 33 H        0.1290    -0.2010     1.6450 H     1 <1>   0.1500 
 34 H        0.7690    -1.0680    -2.4760 H     1 <1>   0.1500 
 35 H       -0.0640    -3.5590     0.4430 H     1 <1>   0.0800 
 36 H        0.1160    -2.8120     2.0200 H     1 <1>   0.0800 
 37 H        3.0060    -2.2190     2.6010 H     1 <1>   0.0800 
 38 H        3.9300    -3.0980     1.4040 H     1 <1>   0.0800 
 39 H       -1.9730     0.9470     1.0760 H     1 <1>   0.1500 
 40 H       -1.3230     0.0790    -3.0460 H     1 <1>   0.1500 
 41 H        1.3370    -5.3780     1.0590 H     1 <1>   0.0800 
 42 H        0.4700    -5.1090     2.5580 H     1 <1>   0.0800 
 43 H        2.3520    -4.1420     3.5620 H     1 <1>   0.0800 
 44 H        3.2180    -5.0850     2.3680 H     1 <1>   0.0800 
 45 H        2.0600     4.0360    -3.5110 H     1 <1>   0.1500 
 46 H        1.6770     1.7080    -0.6850 H     1 <1>   0.0800 
 47 H        0.8690     3.0040    -1.5000 H     1 <1>   0.0800 
 48 H       -2.6970     1.0910    -1.2730 H     1 <1>   0.1500 
 49 H        1.9740     4.6650    -0.1570 H     1 <1>   0.0800 
 50 H        3.0960     3.4860     0.5000 H     1 <1>   0.0800 
 51 H        1.3500     2.3740     1.7280 H     1 <1>   0.0800 
 52 H        0.1110     3.3930     0.9870 H     1 <1>   0.0800 
 53 H        0.8560     4.8980     4.1310 H     1 <1>   0.0800 
 54 H        0.9630     3.1590     3.8870 H     1 <1>   0.0800 
 55 H       -0.4140     4.0660     3.2410 H     1 <1>   0.0800 
@<TRIPOS>BOND
  1   1   2  2   
  2   2   3  am  
  3   2   4  1   
  4   3   5  1   
  5   3  28  1   
  6   4   6  1   
  7   4   7  1   
  8   4   8  1   
  9   5   9  1   
 10   5  29  1   
 11   5  30  1   
 12   6  10  ar  
 13   6  11  ar  
 14   7   8  1   
 15   7  12  1   
 16   7  13  1   
 17   8  31  1   
 18   8  32  1   
 19   9  14  2   
 20   9  15  1   
 21  10  16  ar  
 22  10  33  1   
 23  11  17  ar  
 24  11  34  1   
 25  12  18  1   
 26  12  35  1   
 27  12  36  1   
 28  13  19  1   
 29  13  37  1   
 30  13  38  1   
 31  14  20  1   
 32  15  21  1   
 33  15  22  1   
 34  16  23  ar  
 35  16  39  1   
 36  17  23  ar  
 37  17  40  1   
 38  18  19  1   
 39  18  41  1   
 40  18  42  1   
 41  19  43  1   
 42  19  44  1   
 43  20  21  2   
 44  21  45  1   
 45  22  24  1   
 46  22  46  1   
 47  22  47  1   
 48  23  48  1   
 49  24  25  1   
 50  24  49  1   
 51  24  50  1   
 52  25  26  1   
 53  25  51  1   
 54  25  52  1   
 55  26  27  1   
 56  27  53  1   
 57  27  54  1   
 58  27  55  1   
@<TRIPOS>SUBSTRUCTURE
  1 ****   2 GROUP 4 **** **** 0

# MOE 2024.06 (io_trps.svl 2023.06)
