@<TRIPOS>MOLECULE
NONAME
56 59 1 0 0 
SMALL
USER_CHARGES


@<TRIPOS>ATOM
  1 O       -0.8700     2.3290    -2.9030 O.3   1 <1>  -0.6800 
  2 C       -0.4030     2.6930    -1.6570 C.3   1 <1>   0.2000 
  3 C       -1.4120     3.6390    -1.0090 C.3   1 <1>  -0.1600 
  4 C        0.9520     3.3730    -1.8350 C.3   1 <1>  -0.1600 
  5 C       -0.8820     4.1290     0.3400 C.3   1 <1>   0.2090 
  6 C        1.4850     3.8730    -0.4920 C.3   1 <1>   0.2090 
  7 N        0.4690     4.7350     0.1710 N.pl3 1 <1>  -0.8380 
  8 C        0.6350     6.1090     0.2100 C.ar  1 <1>   0.4100 
  9 N       -0.3700     6.8630    -0.1960 N.ar  1 <1>  -0.6200 
 10 C        1.8040     6.6770     0.6590 C.ar  1 <1>  -0.1500 
 11 C       -0.1580     8.1610    -0.1460 C.ar  1 <1>   0.4700 
 12 C        1.9210     8.0480     0.6610 C.ar  1 <1>   0.4100 
 13 N        0.9180     8.8070     0.2550 N.ar  1 <1>  -0.6200 
 14 N        3.0750     8.6930     1.0860 N.pl3 1 <1>  -0.8380 
 15 C        2.9970    10.0800     1.6460 C.3   1 <1>   0.2090 
 16 C        4.4170     8.0690     0.9340 C.3   1 <1>   0.2090 
 17 C        3.1340    11.1550     0.5530 C.3   1 <1>   0.2090 
 18 C        5.5120     9.0610     0.5230 C.3   1 <1>  -0.1600 
 19 N        4.5210    11.2740    -0.0140 N.pl3 1 <1>  -0.8380 
 20 C        5.0870    10.0220    -0.5910 C.3   1 <1>   0.2090 
 21 C        5.1600    12.4650    -0.1390 C.ar  1 <1>   0.1000 
 22 C        4.6460    13.5520    -0.8760 C.ar  1 <1>  -0.1440 
 23 C        6.4000    12.6400     0.4840 C.ar  1 <1>  -0.1500 
 24 C        5.3530    14.7280    -0.9340 C.ar  1 <1>   0.2110 
 25 C        3.3290    13.4310    -1.6380 C.3   1 <1>  -0.0970 
 26 C        7.0740    13.8280     0.3990 C.ar  1 <1>   0.2110 
 27 N        6.5460    14.8610    -0.3010 N.ar  1 <1>  -0.1790 
 28 H       -1.7800     1.9850    -2.8370 H     1 <1>   0.4000 
 29 H       -0.2960     1.7980    -1.0670 H     1 <1>   0.0800 
 30 H       -2.3490     3.1370    -0.8540 H     1 <1>   0.0800 
 31 H       -1.5740     4.4950    -1.6400 H     1 <1>   0.0800 
 32 H        0.8520     4.2130    -2.4990 H     1 <1>   0.0800 
 33 H        1.6530     2.6780    -2.2600 H     1 <1>   0.0800 
 34 H       -0.8090     3.3040     1.0270 H     1 <1>   0.0800 
 35 H       -1.5650     4.8470     0.7630 H     1 <1>   0.0800 
 36 H        2.3940     4.4240    -0.6570 H     1 <1>   0.0800 
 37 H        1.7080     3.0380     0.1500 H     1 <1>   0.0800 
 38 H        2.5940     6.0550     1.0160 H     1 <1>   0.1500 
 39 H       -0.9760     8.7770    -0.4780 H     1 <1>   0.1500 
 40 H        3.7530    10.2220     2.3970 H     1 <1>   0.0800 
 41 H        2.0420    10.2030     2.1260 H     1 <1>   0.0800 
 42 H        4.3590     7.3050     0.1780 H     1 <1>   0.0800 
 43 H        4.6910     7.5960     1.8620 H     1 <1>   0.0800 
 44 H        2.8550    12.0990     0.9840 H     1 <1>   0.0800 
 45 H        2.4400    10.9360    -0.2380 H     1 <1>   0.0800 
 46 H        6.3460     8.4830     0.1690 H     1 <1>   0.0800 
 47 H        5.8530     9.6110     1.3800 H     1 <1>   0.0800 
 48 H        4.3600     9.5560    -1.2360 H     1 <1>   0.0800 
 49 H        5.9450    10.2730    -1.1890 H     1 <1>   0.0800 
 50 H        6.8090    11.8170     1.0410 H     1 <1>   0.1500 
 51 H        4.9760    15.5710    -1.4900 H     1 <1>   0.1500 
 52 H        3.2840    12.4860    -2.1510 H     1 <1>   0.0800 
 53 H        3.2250    14.2110    -2.3720 H     1 <1>   0.0800 
 54 H        2.4970    13.4920    -0.9590 H     1 <1>   0.0800 
 55 H        8.0270    13.9600     0.8860 H     1 <1>   0.1500 
 56 H        7.0550    15.7490    -0.3590 H     1 <1>   0.4570 
@<TRIPOS>BOND
  1   1   2  1   
  2   1  28  1   
  3   2   3  1   
  4   2   4  1   
  5   2  29  1   
  6   3   5  1   
  7   3  30  1   
  8   3  31  1   
  9   4   6  1   
 10   4  32  1   
 11   4  33  1   
 12   5   7  1   
 13   5  34  1   
 14   5  35  1   
 15   6   7  1   
 16   6  36  1   
 17   6  37  1   
 18   7   8  1   
 19   8   9  ar  
 20   8  10  ar  
 21   9  11  ar  
 22  10  12  ar  
 23  10  38  1   
 24  11  13  ar  
 25  11  39  1   
 26  12  13  ar  
 27  12  14  1   
 28  14  15  1   
 29  14  16  1   
 30  15  17  1   
 31  15  40  1   
 32  15  41  1   
 33  16  18  1   
 34  16  42  1   
 35  16  43  1   
 36  17  19  1   
 37  17  44  1   
 38  17  45  1   
 39  18  20  1   
 40  18  46  1   
 41  18  47  1   
 42  19  20  1   
 43  19  21  1   
 44  20  48  1   
 45  20  49  1   
 46  21  22  ar  
 47  21  23  ar  
 48  22  24  ar  
 49  22  25  1   
 50  23  26  ar  
 51  23  50  1   
 52  24  27  ar  
 53  24  51  1   
 54  25  52  1   
 55  25  53  1   
 56  25  54  1   
 57  26  27  ar  
 58  26  55  1   
 59  27  56  1   
@<TRIPOS>SUBSTRUCTURE
  1 ****  12 GROUP 4 **** **** 0

# MOE 2024.06 (io_trps.svl 2023.06)
