@<TRIPOS>MOLECULE
NONAME
51 55 1 0 0 
SMALL
USER_CHARGES


@<TRIPOS>ATOM
  1 S       -1.4490     1.6330     0.5030 S.3   1 <1>  -0.0800 
  2 C       -0.3200     2.9090     0.9060 C.2   1 <1>  -0.1400 
  3 C       -0.5000     1.2150    -0.9150 C.2   1 <1>  -0.1100 
  4 C        0.6900     2.9800     0.0290 C.2   1 <1>  -0.1810 
  5 C       -0.5010     3.8040     2.1020 C.3   1 <1>   0.0200 
  6 C        0.5840     2.0100    -1.0240 C.2   1 <1>  -0.1500 
  7 C        1.8080     4.0130     0.1960 C.3   1 <1>   0.4610 
  8 C        0.3910     5.0360     1.8850 C.3   1 <1>   0.1200 
  9 O        1.6780     4.6640     1.4480 O.3   1 <1>  -0.5600 
 10 C        3.1730     3.3190     0.2240 C.3   1 <1>  -0.1600 
 11 C        1.7620     5.0600    -0.9250 C.3   1 <1>  -0.1600 
 12 C        4.3100     4.3330     0.3220 C.3   1 <1>   0.2090 
 13 C        2.9240     6.0450    -0.8170 C.3   1 <1>   0.2090 
 14 N        4.2010     5.2830    -0.8150 N.pl3 1 <1>  -0.8380 
 15 C        5.3600     5.8950    -1.2670 C.ar  1 <1>   0.4100 
 16 N        5.4470     7.2030    -1.0990 N.ar  1 <1>  -0.6200 
 17 C        6.3840     5.1430    -1.8630 C.ar  1 <1>   0.1600 
 18 C        6.5990     7.7390    -1.5380 C.ar  1 <1>   0.3960 
 19 N        7.5250     5.6300    -2.3030 N.ar  1 <1>  -0.6200 
 20 C        6.8600     9.1780    -1.4250 C.2   1 <1>   0.5440 
 21 C        7.5890     6.9430    -2.1240 C.ar  1 <1>   0.1600 
 22 O        7.6150     9.7060    -2.2260 O.2   1 <1>  -0.5700 
 23 N        6.3220     9.9920    -0.4440 N.am  1 <1>  -0.6600 
 24 C        6.5780    11.4480    -0.3830 C.3   1 <1>   0.1400 
 25 C        5.4990     9.5530     0.7060 C.3   1 <1>   0.1400 
 26 C        5.6840    11.9580     0.7410 C.3   1 <1>  -0.1600 
 27 C        5.4790    10.7490     1.6500 C.3   1 <1>  -0.1600 
 28 H       -0.8600     0.4070    -1.5260 H     1 <1>   0.1500 
 29 H       -0.2100     3.2840     2.9970 H     1 <1>   0.0800 
 30 H       -1.5280     4.1080     2.1930 H     1 <1>   0.0800 
 31 H        1.3170     1.9520    -1.8090 H     1 <1>   0.1500 
 32 H        0.5020     5.5810     2.8060 H     1 <1>   0.0800 
 33 H       -0.0440     5.6890     1.1490 H     1 <1>   0.0800 
 34 H        3.3090     2.7420    -0.6710 H     1 <1>   0.0800 
 35 H        3.2090     2.6440     1.0590 H     1 <1>   0.0800 
 36 H        0.8270     5.5860    -0.9080 H     1 <1>   0.0800 
 37 H        1.8300     4.5640    -1.8750 H     1 <1>   0.0800 
 38 H        5.2580     3.8240     0.2970 H     1 <1>   0.0800 
 39 H        4.2430     4.8770     1.2490 H     1 <1>   0.0800 
 40 H        2.8470     6.6190     0.0920 H     1 <1>   0.0800 
 41 H        2.9040     6.7250    -1.6530 H     1 <1>   0.0800 
 42 H        6.2180     4.0880    -1.9690 H     1 <1>   0.1500 
 43 H        8.4880     7.4280    -2.4630 H     1 <1>   0.1500 
 44 H        6.3440    11.9160    -1.3240 H     1 <1>   0.0800 
 45 H        7.6160    11.6100    -0.1480 H     1 <1>   0.0800 
 46 H        5.9220     8.6820     1.1780 H     1 <1>   0.0800 
 47 H        4.5040     9.3310     0.3600 H     1 <1>   0.0800 
 48 H        4.7420    12.2660     0.3230 H     1 <1>   0.0800 
 49 H        6.1280    12.7910     1.2570 H     1 <1>   0.0800 
 50 H        6.3030    10.6650     2.3370 H     1 <1>   0.0800 
 51 H        4.5610    10.8040     2.2070 H     1 <1>   0.0800 
@<TRIPOS>BOND
  1   1   2  1   
  2   1   3  1   
  3   2   4  2   
  4   2   5  1   
  5   3   6  2   
  6   3  28  1   
  7   4   6  1   
  8   4   7  1   
  9   5   8  1   
 10   5  29  1   
 11   5  30  1   
 12   6  31  1   
 13   7   9  1   
 14   7  10  1   
 15   7  11  1   
 16   8   9  1   
 17   8  32  1   
 18   8  33  1   
 19  10  12  1   
 20  10  34  1   
 21  10  35  1   
 22  11  13  1   
 23  11  36  1   
 24  11  37  1   
 25  12  14  1   
 26  12  38  1   
 27  12  39  1   
 28  13  14  1   
 29  13  40  1   
 30  13  41  1   
 31  14  15  1   
 32  15  16  ar  
 33  15  17  ar  
 34  16  18  ar  
 35  17  19  ar  
 36  17  42  1   
 37  18  20  1   
 38  18  21  ar  
 39  19  21  ar  
 40  20  22  2   
 41  20  23  am  
 42  21  43  1   
 43  23  24  1   
 44  23  25  1   
 45  24  26  1   
 46  24  44  1   
 47  24  45  1   
 48  25  27  1   
 49  25  46  1   
 50  25  47  1   
 51  26  27  1   
 52  26  48  1   
 53  26  49  1   
 54  27  50  1   
 55  27  51  1   
@<TRIPOS>SUBSTRUCTURE
  1 ****  13 GROUP 4 **** **** 0

# MOE 2024.06 (io_trps.svl 2023.06)
