@<TRIPOS>MOLECULE
NONAME
45 48 1 0 0 
SMALL
USER_CHARGES


@<TRIPOS>ATOM
  1 O        4.2700    -1.7490    -1.6510 O.2   1 <1>  -0.5700 
  2 C        3.3330    -1.6520    -0.8800 C.2   1 <1>   0.5440 
  3 N        3.0940    -0.3960    -0.3870 N.am  1 <1>  -0.6600 
  4 C        2.5500    -2.8060    -0.4630 C.ar  1 <1>   0.0860 
  5 C        3.7840    -0.0240     0.8990 C.3   1 <1>   0.2200 
  6 C        2.7390     0.6810    -1.3630 C.3   1 <1>   0.1400 
  7 C        1.3810    -2.6880     0.2650 C.ar  1 <1>  -0.1500 
  8 C        2.9680    -4.1120    -0.7940 C.ar  1 <1>  -0.1500 
  9 C        3.1000     1.1430     1.6290 C.3   1 <1>   0.1200 
 10 C        5.2900     0.2780     0.6710 C.3   1 <1>   0.3430 
 11 C        3.5310     1.9940    -1.2140 C.3   1 <1>  -0.0800 
 12 C        0.6280    -3.8030     0.6790 C.ar  1 <1>   0.0000 
 13 C        2.2550    -5.2130    -0.4040 C.ar  1 <1>  -0.1500 
 14 O        3.5930     2.3670     1.1740 O.3   1 <1>  -0.5600 
 15 N        5.6220     0.5710    -0.7670 N.4   1 <1>  -0.9590 
 16 C        3.0530     2.8310    -0.0170 C.3   1 <1>   0.1200 
 17 C        5.0690     1.8680    -1.2690 C.3   1 <1>   0.3430 
 18 C        1.0730    -5.1000     0.3430 C.ar  1 <1>   0.3100 
 19 C       -0.5610    -3.6910     1.4210 C.ar  1 <1>  -0.1500 
 20 C        7.0830     0.4550    -1.0290 C.3   1 <1>   0.2630 
 21 N        0.4110    -6.2250     0.7070 N.ar  1 <1>  -0.6200 
 22 C       -1.2110    -4.8360     1.7730 C.ar  1 <1>  -0.1500 
 23 C       -0.6820    -6.0770     1.3920 C.ar  1 <1>   0.1600 
 24 H        3.7190    -0.8710     1.5590 H     1 <1>   0.0800 
 25 H        2.8850     0.3050    -2.3630 H     1 <1>   0.0800 
 26 H        1.6870     0.8910    -1.2640 H     1 <1>   0.0800 
 27 H        1.0110    -1.7150     0.5310 H     1 <1>   0.1500 
 28 H        3.8700    -4.2350    -1.3700 H     1 <1>   0.1500 
 29 H        3.3390     1.0920     2.6770 H     1 <1>   0.0800 
 30 H        2.0280     1.1100     1.5270 H     1 <1>   0.0800 
 31 H        5.8460    -0.5880     0.9860 H     1 <1>   0.0800 
 32 H        5.5930     1.1010     1.2980 H     1 <1>   0.0800 
 33 H        3.2610     2.5850    -2.0700 H     1 <1>   0.0800 
 34 H        2.5810    -6.2050    -0.6600 H     1 <1>   0.1500 
 35 H        5.1340    -0.1910    -1.2930 H     1 <1>   0.4500 
 36 H        1.9780     2.8400     0.0630 H     1 <1>   0.0800 
 37 H        3.3850     3.8500    -0.1300 H     1 <1>   0.0800 
 38 H        5.5040     2.6830    -0.7130 H     1 <1>   0.0800 
 39 H        5.3700     1.9820    -2.2970 H     1 <1>   0.0800 
 40 H       -0.9370    -2.7220     1.6950 H     1 <1>   0.1500 
 41 H        7.6240     1.2050    -0.4770 H     1 <1>   0.0800 
 42 H        7.2830     0.5840    -2.0810 H     1 <1>   0.0800 
 43 H        7.4370    -0.5200    -0.7340 H     1 <1>   0.0800 
 44 H       -2.1240    -4.8130     2.3400 H     1 <1>   0.1500 
 45 H       -1.2180    -6.9640     1.6870 H     1 <1>   0.1500 
@<TRIPOS>BOND
  1   1   2  2   
  2   2   3  am  
  3   2   4  1   
  4   3   5  1   
  5   3   6  1   
  6   4   7  ar  
  7   4   8  ar  
  8   5   9  1   
  9   5  10  1   
 10   5  24  1   
 11   6  11  1   
 12   6  25  1   
 13   6  26  1   
 14   7  12  ar  
 15   7  27  1   
 16   8  13  ar  
 17   8  28  1   
 18   9  14  1   
 19   9  29  1   
 20   9  30  1   
 21  10  15  1   
 22  10  31  1   
 23  10  32  1   
 24  11  16  1   
 25  11  17  1   
 26  11  33  1   
 27  12  18  ar  
 28  12  19  ar  
 29  13  18  ar  
 30  13  34  1   
 31  14  16  1   
 32  15  17  1   
 33  15  20  1   
 34  15  35  1   
 35  16  36  1   
 36  16  37  1   
 37  17  38  1   
 38  17  39  1   
 39  18  21  ar  
 40  19  22  ar  
 41  19  40  1   
 42  20  41  1   
 43  20  42  1   
 44  20  43  1   
 45  21  23  ar  
 46  22  23  ar  
 47  22  44  1   
 48  23  45  1   
@<TRIPOS>SUBSTRUCTURE
  1 ****   2 GROUP 4 **** **** 0

# MOE 2024.06 (io_trps.svl 2023.06)
