@<TRIPOS>MOLECULE
NONAME
55 58 1 0 0 
SMALL
USER_CHARGES


@<TRIPOS>ATOM
  1 S       -0.9350     0.1090    -0.2190 S.o2  1 <1>   1.0900 
  2 O       -1.1660     1.3310     0.5140 O.2   1 <1>  -0.6500 
  3 O        0.3900    -0.3010    -0.6230 O.2   1 <1>  -0.6500 
  4 C       -1.6890    -1.2660     0.6000 C.3   1 <1>  -0.0550 
  5 C       -1.9970     0.0230    -1.6530 C.3   1 <1>  -0.0550 
  6 C       -2.0870    -2.2030    -0.5370 C.3   1 <1>   0.1760 
  7 C       -2.7230    -1.3350    -1.6430 C.3   1 <1>  -0.1600 
  8 N       -3.0110    -3.2630    -0.0610 N.pl3 1 <1>   0.3140 
  9 N       -4.1420    -2.9490     0.5950 N.2   1 <1>  -0.7070 
 10 C       -2.8640    -4.6080    -0.1820 C.2   1 <1>  -0.3320 
 11 C       -4.6870    -4.0870     0.8900 C.2   1 <1>   0.1080 
 12 C       -3.9300    -5.1690     0.4290 C.2   1 <1>   0.0630 
 13 C       -1.6890    -5.2880    -0.8720 C.3   1 <1>  -0.0600 
 14 C       -6.0010    -4.1620     1.6370 C.3   1 <1>  -0.0590 
 15 N       -4.1890    -6.5600     0.5320 N.am  1 <1>  -0.4930 
 16 C       -4.6250    -7.2750     1.6060 C.2   1 <1>   0.5690 
 17 O       -4.8750    -6.7860     2.6800 O.2   1 <1>  -0.5700 
 18 C       -4.7890    -8.7730     1.4400 C.3   1 <1>  -0.0990 
 19 C       -5.9960    -9.1310     0.5560 C.3   1 <1>  -0.1600 
 20 C       -6.1580   -10.6490     0.4110 C.3   1 <1>   0.0210 
 21 C       -7.3160   -11.0260    -0.4970 C.2   1 <1>  -0.1810 
 22 C       -7.6080   -12.3630    -0.8550 C.ar  1 <1>   0.0000 
 23 C       -8.2350   -10.2350    -1.1040 C.2   1 <1>  -0.3020 
 24 C       -8.7210   -12.3160    -1.6880 C.ar  1 <1>  -0.1520 
 25 C       -7.0300   -13.6000    -0.5480 C.ar  1 <1>  -0.1500 
 26 N       -9.0960   -11.0060    -1.8310 N.pl3 1 <1>   0.0330 
 27 C       -9.2690   -13.4840    -2.2240 C.ar  1 <1>  -0.1500 
 28 C       -7.5690   -14.7510    -1.0760 C.ar  1 <1>  -0.1500 
 29 C       -8.6890   -14.6930    -1.9140 C.ar  1 <1>  -0.1500 
 30 H       -2.5660    -0.9360     1.1260 H     1 <1>   0.0800 
 31 H       -1.0120    -1.7390     1.2830 H     1 <1>   0.0800 
 32 H       -1.4110     0.1310    -2.5470 H     1 <1>   0.0800 
 33 H       -2.7210     0.8170    -1.6260 H     1 <1>   0.0800 
 34 H       -1.1950    -2.6620    -0.9240 H     1 <1>   0.0800 
 35 H       -2.6500    -1.8200    -2.6010 H     1 <1>   0.0800 
 36 H       -3.7630    -1.1650    -1.4170 H     1 <1>   0.0800 
 37 H       -1.6440    -4.9970    -1.9070 H     1 <1>   0.0800 
 38 H       -1.7860    -6.3570    -0.8230 H     1 <1>   0.0800 
 39 H       -0.7670    -5.0160    -0.3900 H     1 <1>   0.0800 
 40 H       -6.5760    -3.2740     1.4560 H     1 <1>   0.0800 
 41 H       -5.8080    -4.2450     2.6910 H     1 <1>   0.0800 
 42 H       -6.5650    -5.0160     1.3150 H     1 <1>   0.0800 
 43 H       -3.9560    -7.0910    -0.3030 H     1 <1>   0.3700 
 44 H       -4.9180    -9.2090     2.4150 H     1 <1>   0.0800 
 45 H       -3.8870    -9.1760     1.0180 H     1 <1>   0.0800 
 46 H       -5.8740    -8.6970    -0.4210 H     1 <1>   0.0800 
 47 H       -6.8900    -8.7210     0.9950 H     1 <1>   0.0800 
 48 H       -6.3250   -11.0890     1.3790 H     1 <1>   0.0800 
 49 H       -5.2560   -11.0700     0.0030 H     1 <1>   0.0800 
 50 H       -8.3360    -9.1650    -1.0660 H     1 <1>   0.1500 
 51 H       -6.1720   -13.6340     0.0960 H     1 <1>   0.1500 
 52 H       -9.8900   -10.6790    -2.3890 H     1 <1>   0.2700 
 53 H      -10.1290   -13.4300    -2.8660 H     1 <1>   0.1500 
 54 H       -7.1350   -15.7080    -0.8490 H     1 <1>   0.1500 
 55 H       -9.0920   -15.6070    -2.3140 H     1 <1>   0.1500 
@<TRIPOS>BOND
  1   1   2  2   
  2   1   3  2   
  3   1   4  1   
  4   1   5  1   
  5   4   6  1   
  6   4  30  1   
  7   4  31  1   
  8   5   7  1   
  9   5  32  1   
 10   5  33  1   
 11   6   7  1   
 12   6   8  1   
 13   6  34  1   
 14   7  35  1   
 15   7  36  1   
 16   8   9  1   
 17   8  10  1   
 18   9  11  2   
 19  10  12  2   
 20  10  13  1   
 21  11  12  1   
 22  11  14  1   
 23  12  15  1   
 24  13  37  1   
 25  13  38  1   
 26  13  39  1   
 27  14  40  1   
 28  14  41  1   
 29  14  42  1   
 30  15  16  am  
 31  15  43  1   
 32  16  17  2   
 33  16  18  1   
 34  18  19  1   
 35  18  44  1   
 36  18  45  1   
 37  19  20  1   
 38  19  46  1   
 39  19  47  1   
 40  20  21  1   
 41  20  48  1   
 42  20  49  1   
 43  21  22  1   
 44  21  23  2   
 45  22  24  ar  
 46  22  25  ar  
 47  23  26  1   
 48  23  50  1   
 49  24  26  1   
 50  24  27  ar  
 51  25  28  ar  
 52  25  51  1   
 53  26  52  1   
 54  27  29  ar  
 55  27  53  1   
 56  28  29  ar  
 57  28  54  1   
 58  29  55  1   
@<TRIPOS>SUBSTRUCTURE
  1 ****  15 GROUP 4 **** **** 0

# MOE 2024.06 (io_trps.svl 2023.06)
