@<TRIPOS>MOLECULE
NONAME
34 35 1 0 0 
SMALL
USER_CHARGES


@<TRIPOS>ATOM
  1 O        0.3640    -0.9200     2.4860 O.2   1 <1>  -0.5700 
  2 C        0.2860    -1.3540     1.3550 C.2   1 <1>   0.7800 
  3 O        1.3460    -1.8630     0.7470 O.3   1 <1>  -0.4300 
  4 N       -0.8560    -1.3530     0.6370 N.am  1 <1>  -0.7300 
  5 C        2.5850    -1.9060     1.4170 C.3   1 <1>   0.2630 
  6 C       -2.1580    -0.8440     1.0950 C.3   1 <1>   0.2200 
  7 C        3.6170    -2.5180     0.4840 C.ar  1 <1>  -0.1440 
  8 C       -2.6030     0.2960     0.1700 C.3   1 <1>  -0.1600 
  9 C       -3.1960    -1.9500     0.9220 C.3   1 <1>  -0.1600 
 10 C        4.0150    -3.8370     0.6430 C.ar  1 <1>  -0.1500 
 11 C        4.1720    -1.7580    -0.5350 C.ar  1 <1>  -0.1500 
 12 C       -3.7210    -0.2600    -0.7170 C.3   1 <1>   0.2000 
 13 C       -3.7190    -1.7700    -0.5040 C.3   1 <1>  -0.1600 
 14 C        4.9600    -4.3890    -0.2050 C.ar  1 <1>  -0.1500 
 15 C        5.1170    -2.3090    -1.3830 C.ar  1 <1>  -0.1500 
 16 O       -4.9250     0.2280    -0.2540 O.3   1 <1>  -0.6800 
 17 C        5.5120    -3.6250    -1.2190 C.ar  1 <1>  -0.1500 
 18 H       -0.8170    -1.7540    -0.2970 H     1 <1>   0.3700 
 19 H        2.8640    -0.9010     1.6850 H     1 <1>   0.0800 
 20 H        2.4700    -2.4950     2.3100 H     1 <1>   0.0800 
 21 H       -2.0920    -0.5210     2.1220 H     1 <1>   0.0800 
 22 H       -1.7820     0.6310    -0.4400 H     1 <1>   0.0800 
 23 H       -2.9530     1.1340     0.7470 H     1 <1>   0.0800 
 24 H       -2.7880    -2.9310     1.0960 H     1 <1>   0.0800 
 25 H       -4.0000    -1.7850     1.6180 H     1 <1>   0.0800 
 26 H        3.5900    -4.4410     1.4250 H     1 <1>   0.1500 
 27 H        3.8660    -0.7360    -0.6720 H     1 <1>   0.1500 
 28 H       -3.6190     0.0200    -1.7520 H     1 <1>   0.0800 
 29 H       -4.6900    -2.2120    -0.6560 H     1 <1>   0.0800 
 30 H       -3.0250    -2.2170    -1.1940 H     1 <1>   0.0800 
 31 H        5.2650    -5.4130    -0.0780 H     1 <1>   0.1500 
 32 H        5.5430    -1.7140    -2.1720 H     1 <1>   0.1500 
 33 H       -5.0730    -0.0710     0.6620 H     1 <1>   0.4000 
 34 H        6.2460    -4.0530    -1.8780 H     1 <1>   0.1500 
@<TRIPOS>BOND
  1   1   2  2   
  2   2   3  1   
  3   2   4  am  
  4   3   5  1   
  5   4   6  1   
  6   4  18  1   
  7   5   7  1   
  8   5  19  1   
  9   5  20  1   
 10   6   8  1   
 11   6   9  1   
 12   6  21  1   
 13   7  10  ar  
 14   7  11  ar  
 15   8  12  1   
 16   8  22  1   
 17   8  23  1   
 18   9  13  1   
 19   9  24  1   
 20   9  25  1   
 21  10  14  ar  
 22  10  26  1   
 23  11  15  ar  
 24  11  27  1   
 25  12  13  1   
 26  12  16  1   
 27  12  28  1   
 28  13  29  1   
 29  13  30  1   
 30  14  17  ar  
 31  14  31  1   
 32  15  17  ar  
 33  15  32  1   
 34  16  33  1   
 35  17  34  1   
@<TRIPOS>SUBSTRUCTURE
  1 ****   3 GROUP 4 **** **** 0

# MOE 2024.06 (io_trps.svl 2023.06)
