@<TRIPOS>MOLECULE
NONAME
54 57 1 0 0 
SMALL
USER_CHARGES


@<TRIPOS>ATOM
  1 O        0.4950    -1.6590    -1.2410 O.3   1 <1>  -0.3630 
  2 C        0.3060    -2.7730    -0.4930 C.ar  1 <1>   0.0820 
  3 C        0.4420    -0.3520    -0.7040 C.3   1 <1>   0.2000 
  4 C       -0.0200    -2.7620     0.8600 C.ar  1 <1>  -0.1500 
  5 C        0.4540    -3.9860    -1.1440 C.ar  1 <1>  -0.1500 
  6 C        0.4180     0.6270    -1.8720 C.3   1 <1>  -0.1600 
  7 C        1.7620    -0.0340    -0.0030 C.3   1 <1>  -0.1600 
  8 C       -0.1990    -3.9540     1.5410 C.ar  1 <1>  -0.1500 
  9 C        0.2760    -5.1770    -0.4650 C.ar  1 <1>  -0.1500 
 10 C        1.8770     0.7790    -2.3150 C.3   1 <1>  -0.1600 
 11 C        2.7380     0.3390    -1.1230 C.3   1 <1>  -0.1600 
 12 C       -0.0570    -5.1670     0.8820 C.ar  1 <1>  -0.1430 
 13 C       -0.2740    -6.4720     1.6220 C.3   1 <1>   0.4860 
 14 N       -1.5070    -7.0970     1.0860 N.4   1 <1>  -0.9590 
 15 C       -2.7550    -6.2840     1.2500 C.3   1 <1>   0.3430 
 16 C       -1.8090    -8.4630     1.5660 C.3   1 <1>   0.3430 
 17 C       -3.8750    -7.2930     1.5620 C.3   1 <1>   0.2000 
 18 C       -3.2810    -8.6540     1.1900 C.3   1 <1>  -0.0800 
 19 O       -4.1550    -7.2820     2.9230 O.3   1 <1>  -0.6800 
 20 C       -3.5160    -8.9450    -0.3200 C.3   1 <1>  -0.0170 
 21 C       -2.3110    -9.5040    -1.0670 C.ar  1 <1>   0.1670 
 22 N       -1.3690    -8.6280    -1.4020 N.ar  1 <1>  -0.6200 
 23 C       -2.2450   -10.8630    -1.3690 C.ar  1 <1>   0.1600 
 24 C       -0.3850    -9.2010    -2.0830 C.ar  1 <1>   0.1600 
 25 N       -1.2460   -11.4320    -2.0180 N.ar  1 <1>  -0.6200 
 26 C       -0.3240   -10.5580    -2.3770 C.ar  1 <1>   0.1600 
 27 H       -0.4290    -0.2540    -0.0800 H     1 <1>   0.0800 
 28 H       -0.1340    -1.8380     1.3950 H     1 <1>   0.1500 
 29 H        0.7110    -3.9820    -2.1890 H     1 <1>   0.1500 
 30 H       -0.2230     0.2880    -2.6680 H     1 <1>   0.0800 
 31 H        0.0590     1.5770    -1.5180 H     1 <1>   0.0800 
 32 H        1.6160     0.8220     0.6310 H     1 <1>   0.0800 
 33 H        2.1220    -0.8520     0.5950 H     1 <1>   0.0800 
 34 H       -0.4480    -3.9180     2.5880 H     1 <1>   0.1500 
 35 H        0.4020    -6.1010    -1.0020 H     1 <1>   0.1500 
 36 H        2.0700     0.1320    -3.1540 H     1 <1>   0.0800 
 37 H        2.0890     1.7940    -2.6020 H     1 <1>   0.0800 
 38 H        3.4110     1.1180    -0.8090 H     1 <1>   0.0800 
 39 H        3.3130    -0.5280    -1.4020 H     1 <1>   0.0800 
 40 H       -0.3750    -6.2870     2.6790 H     1 <1>   0.0800 
 41 H        0.5720    -7.1200     1.4610 H     1 <1>   0.0800 
 42 H       -1.3570    -7.2110     0.0630 H     1 <1>   0.4500 
 43 H       -2.6660    -5.5690     2.0510 H     1 <1>   0.0800 
 44 H       -2.9660    -5.7600     0.3310 H     1 <1>   0.0800 
 45 H       -1.1700    -9.2000     1.1060 H     1 <1>   0.0800 
 46 H       -1.6960    -8.5140     2.6370 H     1 <1>   0.0800 
 47 H       -4.7900    -7.0630     1.0420 H     1 <1>   0.0800 
 48 H       -3.7160    -9.4510     1.7690 H     1 <1>   0.0800 
 49 H       -3.3940    -7.5180     3.4860 H     1 <1>   0.4000 
 50 H       -3.8120    -8.0490    -0.8380 H     1 <1>   0.0800 
 51 H       -4.3440    -9.6270    -0.4140 H     1 <1>   0.0800 
 52 H       -3.0490   -11.5100    -1.0640 H     1 <1>   0.1500 
 53 H        0.4180    -8.5730    -2.4290 H     1 <1>   0.1500 
 54 H        0.5190   -10.9340    -2.9320 H     1 <1>   0.1500 
@<TRIPOS>BOND
  1   1   2  1   
  2   1   3  1   
  3   2   4  ar  
  4   2   5  ar  
  5   3   6  1   
  6   3   7  1   
  7   3  27  1   
  8   4   8  ar  
  9   4  28  1   
 10   5   9  ar  
 11   5  29  1   
 12   6  10  1   
 13   6  30  1   
 14   6  31  1   
 15   7  11  1   
 16   7  32  1   
 17   7  33  1   
 18   8  12  ar  
 19   8  34  1   
 20   9  12  ar  
 21   9  35  1   
 22  10  11  1   
 23  10  36  1   
 24  10  37  1   
 25  11  38  1   
 26  11  39  1   
 27  12  13  1   
 28  13  14  1   
 29  13  40  1   
 30  13  41  1   
 31  14  15  1   
 32  14  16  1   
 33  14  42  1   
 34  15  17  1   
 35  15  43  1   
 36  15  44  1   
 37  16  18  1   
 38  16  45  1   
 39  16  46  1   
 40  17  18  1   
 41  17  19  1   
 42  17  47  1   
 43  18  20  1   
 44  18  48  1   
 45  19  49  1   
 46  20  21  1   
 47  20  50  1   
 48  20  51  1   
 49  21  22  ar  
 50  21  23  ar  
 51  22  24  ar  
 52  23  25  ar  
 53  23  52  1   
 54  24  26  ar  
 55  24  53  1   
 56  25  26  ar  
 57  26  54  1   
@<TRIPOS>SUBSTRUCTURE
  1 ****   9 GROUP 4 **** **** 0

# MOE 2024.06 (io_trps.svl 2023.06)
