@<TRIPOS>MOLECULE
NONAME
49 52 1 0 0 
SMALL
USER_CHARGES


@<TRIPOS>ATOM
  1 O        2.0690     0.7180     1.1190 O.3   1 <1>  -0.6800 
  2 C        1.5480     0.0800    -0.0040 C.3   1 <1>   0.2000 
  3 C        2.0190    -1.3740    -0.0590 C.3   1 <1>  -0.0800 
  4 C        2.2130     0.6770    -1.2450 C.3   1 <1>   0.3430 
  5 C        3.4250    -1.3070    -0.6710 C.3   1 <1>   0.3430 
  6 C        1.9690    -2.1700     1.2630 C.3   1 <1>  -0.0160 
  7 N        3.5700     0.0330    -1.3350 N.4   1 <1>  -0.9590 
  8 C        2.6770    -3.5110     1.1010 C.ar  1 <1>  -0.1430 
  9 C        4.6300     0.8140    -0.6070 C.3   1 <1>   0.3430 
 10 C        2.1240    -4.5800     0.3550 C.ar  1 <1>   0.0000 
 11 C        3.9030    -3.7050     1.6680 C.ar  1 <1>  -0.1500 
 12 C        4.8960     2.2020    -1.2010 C.3   1 <1>   0.0960 
 13 C        2.9170    -5.7410     0.1870 C.ar  1 <1>   0.3100 
 14 C        0.8350    -4.5710    -0.2280 C.ar  1 <1>  -0.1500 
 15 C        4.5920    -4.9070     1.4650 C.ar  1 <1>   0.1600 
 16 N        5.9600     2.8350    -0.4090 N.pl3 1 <1>   0.0480 
 17 N        4.1460    -5.8820     0.7420 N.ar  1 <1>  -0.6200 
 18 C        2.4180    -6.8010    -0.5870 C.ar  1 <1>  -0.1500 
 19 C        0.3750    -5.6240    -0.9710 C.ar  1 <1>  -0.1500 
 20 C        5.8860     3.4330     0.7850 C.2   1 <1>   0.0060 
 21 C        7.2660     2.8760    -0.6810 C.2   1 <1>   0.0360 
 22 C        1.1770    -6.7510    -1.1600 C.ar  1 <1>  -0.1500 
 23 N        7.0500     3.7920     1.1990 N.2   1 <1>  -0.3380 
 24 C        4.6100     3.6710     1.5710 C.3   1 <1>  -0.0600 
 25 N        7.9310     3.4370     0.2640 N.2   1 <1>  -0.3380 
 26 H        1.5180     0.5400     1.9130 H     1 <1>   0.4000 
 27 H        0.4760     0.1950    -0.0100 H     1 <1>   0.0800 
 28 H        1.4030    -1.8830    -0.7780 H     1 <1>   0.0800 
 29 H        2.2620     1.7500    -1.1780 H     1 <1>   0.0800 
 30 H        1.6320     0.4060    -2.1120 H     1 <1>   0.0800 
 31 H        3.5580    -2.1110    -1.3790 H     1 <1>   0.0800 
 32 H        4.1600    -1.4170     0.1090 H     1 <1>   0.0800 
 33 H        0.9500    -2.3250     1.5750 H     1 <1>   0.0800 
 34 H        2.4570    -1.6200     2.0490 H     1 <1>   0.0800 
 35 H        3.8400    -0.1030    -2.3200 H     1 <1>   0.4500 
 36 H        4.3360     0.9320     0.4240 H     1 <1>   0.0800 
 37 H        5.5530     0.2560    -0.6240 H     1 <1>   0.0800 
 38 H        4.3790    -2.9570     2.2770 H     1 <1>   0.1500 
 39 H        4.0210     2.8230    -1.1490 H     1 <1>   0.0800 
 40 H        5.2240     2.1230    -2.2220 H     1 <1>   0.0800 
 41 H        0.1880    -3.7280    -0.0800 H     1 <1>   0.1500 
 42 H        5.5560    -5.0250     1.9320 H     1 <1>   0.1500 
 43 H        3.0480    -7.6630    -0.7100 H     1 <1>   0.1500 
 44 H       -0.6070    -5.6060    -1.4130 H     1 <1>   0.1500 
 45 H        7.7060     2.4830    -1.5800 H     1 <1>   0.1500 
 46 H        0.8070    -7.5730    -1.7500 H     1 <1>   0.1500 
 47 H        3.9250     4.2700     0.9990 H     1 <1>   0.0800 
 48 H        4.8410     4.2010     2.4790 H     1 <1>   0.0800 
 49 H        4.1450     2.7400     1.8330 H     1 <1>   0.0800 
@<TRIPOS>BOND
  1   1   2  1   
  2   1  26  1   
  3   2   3  1   
  4   2   4  1   
  5   2  27  1   
  6   3   5  1   
  7   3   6  1   
  8   3  28  1   
  9   4   7  1   
 10   4  29  1   
 11   4  30  1   
 12   5   7  1   
 13   5  31  1   
 14   5  32  1   
 15   6   8  1   
 16   6  33  1   
 17   6  34  1   
 18   7   9  1   
 19   7  35  1   
 20   8  10  ar  
 21   8  11  ar  
 22   9  12  1   
 23   9  36  1   
 24   9  37  1   
 25  10  13  ar  
 26  10  14  ar  
 27  11  15  ar  
 28  11  38  1   
 29  12  16  1   
 30  12  39  1   
 31  12  40  1   
 32  13  17  ar  
 33  13  18  ar  
 34  14  19  ar  
 35  14  41  1   
 36  15  17  ar  
 37  15  42  1   
 38  16  20  1   
 39  16  21  1   
 40  18  22  ar  
 41  18  43  1   
 42  19  22  ar  
 43  19  44  1   
 44  20  23  2   
 45  20  24  1   
 46  21  25  2   
 47  21  45  1   
 48  22  46  1   
 49  23  25  1   
 50  24  47  1   
 51  24  48  1   
 52  24  49  1   
@<TRIPOS>SUBSTRUCTURE
  1 ****   5 GROUP 4 **** **** 0

# MOE 2024.06 (io_trps.svl 2023.06)
