@<TRIPOS>MOLECULE
NONAME
44 46 1 0 0 
SMALL
USER_CHARGES


@<TRIPOS>ATOM
  1 CL      -3.7850     0.4250     2.5330 Cl    1 <1>  -0.1770 
  2 C       -3.0200     1.4540     1.3320 C.ar  1 <1>   0.1770 
  3 C       -2.6360     2.7450     1.6780 C.ar  1 <1>   0.0830 
  4 C       -2.8210     0.9670     0.0480 C.ar  1 <1>  -0.1440 
  5 O       -2.8460     3.2140     2.9210 O.3   1 <1>  -0.5320 
  6 C       -2.0340     3.5570     0.7310 C.ar  1 <1>  -0.1500 
  7 C       -2.2150     1.7890    -0.8930 C.ar  1 <1>  -0.1500 
  8 C       -3.2560    -0.4390    -0.3200 C.3   1 <1>   0.4860 
  9 C       -1.8250     3.0750    -0.5510 C.ar  1 <1>  -0.1500 
 10 N       -4.7360    -0.5380    -0.1970 N.4   1 <1>  -0.9590 
 11 C       -5.2120    -1.9600    -0.2860 C.3   1 <1>   0.3430 
 12 C       -5.4450     0.3500    -1.1640 C.3   1 <1>   0.3430 
 13 C       -6.6450    -2.1880     0.2510 C.3   1 <1>   0.1400 
 14 C       -6.6010     1.0720    -0.4750 C.3   1 <1>  -0.1600 
 15 N       -7.6430    -1.1710    -0.2280 N.am  1 <1>  -0.6600 
 16 C       -7.4900     0.1770     0.3920 C.3   1 <1>   0.1400 
 17 C       -8.7570    -1.4300    -0.9990 C.2   1 <1>   0.5690 
 18 O       -9.4290    -0.5280    -1.4340 O.2   1 <1>  -0.5700 
 19 C       -9.2170    -2.8300    -1.3420 C.3   1 <1>   0.1570 
 20 N       -9.6840    -3.4860    -0.1200 N.pl3 1 <1>   0.3140 
 21 N       -9.0470    -4.4910     0.4390 N.2   1 <1>  -0.4180 
 22 C      -10.7170    -3.1930     0.6460 C.2   1 <1>   0.0360 
 23 N       -9.6970    -4.7800     1.5090 N.2   1 <1>   0.0000 
 24 N      -10.7440    -3.9750     1.6550 N.2   1 <1>  -0.3380 
 25 H       -2.4980     4.1120     3.0730 H     1 <1>   0.4500 
 26 H       -1.7280     4.5570     0.9820 H     1 <1>   0.1500 
 27 H       -2.0330     1.4450    -1.8980 H     1 <1>   0.1500 
 28 H       -2.7830    -1.1360     0.3530 H     1 <1>   0.0800 
 29 H       -2.9470    -0.6710    -1.3260 H     1 <1>   0.0800 
 30 H       -1.3530     3.7070    -1.2860 H     1 <1>   0.1500 
 31 H       -4.9510    -0.1860     0.7480 H     1 <1>   0.4500 
 32 H       -4.5470    -2.5970     0.2740 H     1 <1>   0.0800 
 33 H       -5.1750    -2.2830    -1.3130 H     1 <1>   0.0800 
 34 H       -5.8300    -0.2360    -1.9830 H     1 <1>   0.0800 
 35 H       -4.7710     1.0870    -1.5700 H     1 <1>   0.0800 
 36 H       -6.6260    -2.1800     1.3280 H     1 <1>   0.0800 
 37 H       -6.9380    -3.1780    -0.0410 H     1 <1>   0.0800 
 38 H       -7.2150     1.5190    -1.2370 H     1 <1>   0.0800 
 39 H       -6.2200     1.8800     0.1250 H     1 <1>   0.0800 
 40 H       -8.4550     0.6430     0.5150 H     1 <1>   0.0800 
 41 H       -7.0650     0.0750     1.3770 H     1 <1>   0.0800 
 42 H       -8.4160    -3.3970    -1.7740 H     1 <1>   0.0800 
 43 H      -10.0300    -2.7850    -2.0430 H     1 <1>   0.0800 
 44 H      -11.4180    -2.4040     0.4420 H     1 <1>   0.1500 
@<TRIPOS>BOND
  1   1   2  1   
  2   2   3  ar  
  3   2   4  ar  
  4   3   5  1   
  5   3   6  ar  
  6   4   7  ar  
  7   4   8  1   
  8   5  25  1   
  9   6   9  ar  
 10   6  26  1   
 11   7   9  ar  
 12   7  27  1   
 13   8  10  1   
 14   8  28  1   
 15   8  29  1   
 16   9  30  1   
 17  10  11  1   
 18  10  12  1   
 19  10  31  1   
 20  11  13  1   
 21  11  32  1   
 22  11  33  1   
 23  12  14  1   
 24  12  34  1   
 25  12  35  1   
 26  13  15  1   
 27  13  36  1   
 28  13  37  1   
 29  14  16  1   
 30  14  38  1   
 31  14  39  1   
 32  15  16  1   
 33  15  17  am  
 34  16  40  1   
 35  16  41  1   
 36  17  18  2   
 37  17  19  1   
 38  19  20  1   
 39  19  42  1   
 40  19  43  1   
 41  20  21  1   
 42  20  22  1   
 43  21  23  2   
 44  22  24  2   
 45  22  44  1   
 46  23  24  1   
@<TRIPOS>SUBSTRUCTURE
  1 ****  10 GROUP 4 **** **** 0

# MOE 2024.06 (io_trps.svl 2023.06)
