@<TRIPOS>MOLECULE
NONAME
47 49 1 0 0 
SMALL
USER_CHARGES


@<TRIPOS>ATOM
  1 O        1.7890    -0.6520    -2.5330 O.2   1 <1>  -0.5700 
  2 C        2.2800    -0.8860    -1.4480 C.2   1 <1>   0.5440 
  3 N        3.0730     0.0810    -0.8600 N.am  1 <1>  -0.6600 
  4 C        2.0270    -2.1590    -0.8020 C.ar  1 <1>   0.0860 
  5 C        3.3720     0.0750     0.6210 C.3   1 <1>   0.2200 
  6 C        3.5450     1.2260    -1.7040 C.3   1 <1>   0.1400 
  7 C        0.7310    -2.5790    -0.5150 C.ar  1 <1>  -0.1500 
  8 C        3.0770    -2.9940    -0.4300 C.ar  1 <1>  -0.1500 
  9 C        2.9420     1.3820     1.3080 C.3   1 <1>   0.1200 
 10 C        4.8570    -0.2500     0.9100 C.3   1 <1>   0.3430 
 11 C        4.6190     2.1290    -1.0690 C.3   1 <1>  -0.0800 
 12 C        0.4830    -3.7710     0.1470 C.ar  1 <1>   0.0820 
 13 C        2.8380    -4.1760     0.2430 C.ar  1 <1>   0.0820 
 14 O        3.9530     2.3400     1.2480 O.3   1 <1>  -0.5600 
 15 N        5.7430    -0.0190    -0.2710 N.4   1 <1>  -0.9590 
 16 C        4.0590     3.0260     0.0450 C.3   1 <1>   0.1200 
 17 C        5.9210     1.4190    -0.6540 C.3   1 <1>   0.3430 
 18 O       -0.8170    -4.0740     0.3820 O.3   1 <1>  -0.3630 
 19 C        1.5460    -4.5790     0.5350 C.ar  1 <1>  -0.1500 
 20 O        3.8860    -4.9270     0.6110 O.3   1 <1>  -0.5330 
 21 C        7.1080    -0.6750    -0.1230 C.3   1 <1>   0.2370 
 22 C       -1.1990    -5.3090     0.9460 C.3   1 <1>   0.0400 
 23 C        8.0020    -0.5540    -1.3600 C.2   1 <1>   0.9060 
 24 O        8.6760     0.4730    -1.4860 O.co2 1 <1>  -0.9000 
 25 O        7.9000    -1.4170    -2.2320 O.co2 1 <1>  -0.9000 
 26 H        2.7820    -0.6910     1.0900 H     1 <1>   0.0800 
 27 H        3.9370     0.8240    -2.6240 H     1 <1>   0.0800 
 28 H        2.6890     1.8250    -1.9680 H     1 <1>   0.0800 
 29 H       -0.1000    -1.9660    -0.8140 H     1 <1>   0.1500 
 30 H        4.0900    -2.7290    -0.6720 H     1 <1>   0.1500 
 31 H        2.7700     1.1890     2.3520 H     1 <1>   0.0800 
 32 H        2.0320     1.7730     0.8840 H     1 <1>   0.0800 
 33 H        4.9200    -1.2870     1.1930 H     1 <1>   0.0800 
 34 H        5.1990     0.3360     1.7470 H     1 <1>   0.0800 
 35 H        4.9060     2.8160    -1.8450 H     1 <1>   0.0800 
 36 H        5.2940    -0.4630    -1.0880 H     1 <1>   0.4500 
 37 H        3.0970     3.4330    -0.2170 H     1 <1>   0.0800 
 38 H        4.7330     3.8490     0.2180 H     1 <1>   0.0800 
 39 H        6.3830     1.9570     0.1570 H     1 <1>   0.0800 
 40 H        6.5980     1.4680    -1.4920 H     1 <1>   0.0800 
 41 H        1.3830    -5.5020     1.0550 H     1 <1>   0.1500 
 42 H        3.6370    -5.7920     0.9850 H     1 <1>   0.4500 
 43 H        7.6410    -0.2300     0.6970 H     1 <1>   0.0800 
 44 H        6.9890    -1.7250     0.0730 H     1 <1>   0.0800 
 45 H       -2.2730    -5.3360     0.9920 H     1 <1>   0.0800 
 46 H       -0.7900    -5.3830     1.9380 H     1 <1>   0.0800 
 47 H       -0.8410    -6.1060     0.3180 H     1 <1>   0.0800 
@<TRIPOS>BOND
  1   1   2  2   
  2   2   3  am  
  3   2   4  1   
  4   3   5  1   
  5   3   6  1   
  6   4   7  ar  
  7   4   8  ar  
  8   5   9  1   
  9   5  10  1   
 10   5  26  1   
 11   6  11  1   
 12   6  27  1   
 13   6  28  1   
 14   7  12  ar  
 15   7  29  1   
 16   8  13  ar  
 17   8  30  1   
 18   9  14  1   
 19   9  31  1   
 20   9  32  1   
 21  10  15  1   
 22  10  33  1   
 23  10  34  1   
 24  11  16  1   
 25  11  17  1   
 26  11  35  1   
 27  12  18  1   
 28  12  19  ar  
 29  13  19  ar  
 30  13  20  1   
 31  14  16  1   
 32  15  17  1   
 33  15  21  1   
 34  15  36  1   
 35  16  37  1   
 36  16  38  1   
 37  17  39  1   
 38  17  40  1   
 39  18  22  1   
 40  19  41  1   
 41  20  42  1   
 42  21  23  1   
 43  21  43  1   
 44  21  44  1   
 45  22  45  1   
 46  22  46  1   
 47  22  47  1   
 48  23  24  ar  
 49  23  25  ar  
@<TRIPOS>SUBSTRUCTURE
  1 ****   3 GROUP 4 **** **** 0

# MOE 2024.06 (io_trps.svl 2023.06)
