@<TRIPOS>MOLECULE
NONAME
49 51 1 0 0 
SMALL
USER_CHARGES


@<TRIPOS>ATOM
  1 O       -1.1210     0.1860    -1.0520 O.2   1 <1>  -0.5700 
  2 C       -1.7910     0.9650    -0.3970 C.2   1 <1>   0.6900 
  3 N       -2.7480     0.4780     0.4530 N.am  1 <1>  -0.6600 
  4 N       -1.6000     2.3160    -0.5240 N.am  1 <1>  -0.6600 
  5 C       -2.6920    -0.9480     0.9000 C.3   1 <1>   0.1400 
  6 C       -4.1500     0.9750     0.3500 C.3   1 <1>   0.1400 
  7 C       -1.7180     3.2420     0.6400 C.3   1 <1>   0.1400 
  8 C       -0.7760     2.8790    -1.6340 C.3   1 <1>   0.1400 
  9 C       -3.6140    -1.8300     0.0390 C.3   1 <1>   0.3440 
 10 C       -5.0030     0.0020    -0.4950 C.3   1 <1>   0.2000 
 11 C       -0.3320     3.7700     1.0500 C.3   1 <1>   0.1200 
 12 C        0.5580     3.4170    -1.0920 C.3   1 <1>   0.1200 
 13 O       -4.9140    -1.2960     0.0300 O.3   1 <1>  -0.5600 
 14 C       -3.6470    -3.2580     0.5750 C.ar  1 <1>  -0.1440 
 15 C       -6.4920     0.4140    -0.5860 C.3   1 <1>  -0.0800 
 16 O        0.3330     4.3260    -0.0490 O.3   1 <1>  -0.5600 
 17 C       -2.7120    -4.1770     0.1190 C.ar  1 <1>  -0.1500 
 18 C       -4.5810    -3.6610     1.5200 C.ar  1 <1>  -0.1500 
 19 C       -7.2230     0.3800     0.7680 C.3   1 <1>  -0.2400 
 20 C       -7.2410    -0.4770    -1.5890 C.3   1 <1>  -0.2400 
 21 C       -2.7100    -5.4760     0.5990 C.ar  1 <1>  -0.1500 
 22 C       -4.5810    -4.9590     2.0010 C.ar  1 <1>  -0.1500 
 23 C       -3.6440    -5.8680     1.5410 C.ar  1 <1>  -0.1500 
 24 H       -1.6840    -1.3180     0.8350 H     1 <1>   0.0800 
 25 H       -3.0000    -1.0130     1.9270 H     1 <1>   0.0800 
 26 H       -4.5610     1.0640     1.3380 H     1 <1>   0.0800 
 27 H       -4.1670     1.9470    -0.1110 H     1 <1>   0.0800 
 28 H       -2.3490     4.0700     0.3730 H     1 <1>   0.0800 
 29 H       -2.1610     2.7390     1.4810 H     1 <1>   0.0800 
 30 H       -0.5840     2.1300    -2.3820 H     1 <1>   0.0800 
 31 H       -1.3160     3.6820    -2.1030 H     1 <1>   0.0800 
 32 H       -3.2550    -1.8400    -0.9760 H     1 <1>   0.0800 
 33 H       -4.5990    -0.0220    -1.4930 H     1 <1>   0.0800 
 34 H        0.2710     2.9740     1.4500 H     1 <1>   0.0800 
 35 H       -0.4320     4.5380     1.7960 H     1 <1>   0.0800 
 36 H        1.0940     3.9320    -1.8680 H     1 <1>   0.0800 
 37 H        1.1670     2.6100    -0.7240 H     1 <1>   0.0800 
 38 H       -6.5300     1.4230    -0.9600 H     1 <1>   0.0800 
 39 H       -1.9790    -3.8850    -0.6130 H     1 <1>   0.1500 
 40 H       -5.3160    -2.9620     1.8810 H     1 <1>   0.1500 
 41 H       -7.1800    -0.6080     1.1930 H     1 <1>   0.0800 
 42 H       -8.2570     0.6480     0.6400 H     1 <1>   0.0800 
 43 H       -6.7860     1.0720     1.4640 H     1 <1>   0.0800 
 44 H       -7.2460    -1.4990    -1.2520 H     1 <1>   0.0800 
 45 H       -6.7650    -0.4390    -2.5530 H     1 <1>   0.0800 
 46 H       -8.2590    -0.1480    -1.7000 H     1 <1>   0.0800 
 47 H       -1.9810    -6.1800     0.2380 H     1 <1>   0.1500 
 48 H       -5.3110    -5.2600     2.7320 H     1 <1>   0.1500 
 49 H       -3.6440    -6.8770     1.9140 H     1 <1>   0.1500 
@<TRIPOS>BOND
  1   1   2  2   
  2   2   3  am  
  3   2   4  am  
  4   3   5  1   
  5   3   6  1   
  6   4   7  1   
  7   4   8  1   
  8   5   9  1   
  9   5  24  1   
 10   5  25  1   
 11   6  10  1   
 12   6  26  1   
 13   6  27  1   
 14   7  11  1   
 15   7  28  1   
 16   7  29  1   
 17   8  12  1   
 18   8  30  1   
 19   8  31  1   
 20   9  13  1   
 21   9  14  1   
 22   9  32  1   
 23  10  13  1   
 24  10  15  1   
 25  10  33  1   
 26  11  16  1   
 27  11  34  1   
 28  11  35  1   
 29  12  16  1   
 30  12  36  1   
 31  12  37  1   
 32  14  17  ar  
 33  14  18  ar  
 34  15  19  1   
 35  15  20  1   
 36  15  38  1   
 37  17  21  ar  
 38  17  39  1   
 39  18  22  ar  
 40  18  40  1   
 41  19  41  1   
 42  19  42  1   
 43  19  43  1   
 44  20  44  1   
 45  20  45  1   
 46  20  46  1   
 47  21  23  ar  
 48  21  47  1   
 49  22  23  ar  
 50  22  48  1   
 51  23  49  1   
@<TRIPOS>SUBSTRUCTURE
  1 ****   3 GROUP 4 **** **** 0

# MOE 2024.06 (io_trps.svl 2023.06)
