@<TRIPOS>MOLECULE
NONAME
42 44 1 0 0 
SMALL
USER_CHARGES


@<TRIPOS>ATOM
  1 S        1.4460     0.6690    -0.1000 S.o2  1 <1>   1.5000 
  2 O        2.8620     0.3820    -0.0460 O.2   1 <1>  -0.6500 
  3 O        0.9690     1.7650    -0.9070 O.2   1 <1>  -0.6500 
  4 N        0.9640     1.0450     1.4610 N.am  1 <1>  -0.9140 
  5 C        0.5000    -0.8230    -0.4850 C.2   1 <1>  -0.0220 
  6 C        1.8810     1.9820     2.1340 C.3   1 <1>   0.2570 
  7 S        0.9990    -2.3400     0.2620 S.3   1 <1>  -0.0800 
  8 C       -0.5890    -1.0420    -1.2520 C.2   1 <1>  -0.1500 
  9 C        1.7850     3.4230     1.6100 C.2   1 <1>   0.5690 
 10 C       -0.3020    -3.2240    -0.5130 C.2   1 <1>  -0.1100 
 11 C       -1.0440    -2.4000    -1.2720 C.2   1 <1>  -0.1500 
 12 O        0.7530     4.0130     1.8350 O.2   1 <1>  -0.5700 
 13 N        2.8080     4.0120     0.9170 N.am  1 <1>  -0.6600 
 14 C        2.6930     5.3790     0.3490 C.3   1 <1>   0.1400 
 15 C        4.0610     3.3700     0.4360 C.3   1 <1>   0.1400 
 16 C        3.7800     5.4320    -0.7220 C.3   1 <1>  -0.0800 
 17 C        4.8750     4.5240    -0.1510 C.3   1 <1>  -0.0800 
 18 C        4.2390     6.8480    -1.1140 C.3   1 <1>  -0.0220 
 19 C        5.7090     5.2000     0.9610 C.3   1 <1>  -0.0220 
 20 C        5.3340     7.4030    -0.2180 C.2   1 <1>  -0.2760 
 21 C        5.9760     6.6690     0.6930 C.2   1 <1>  -0.2880 
 22 C        5.6400     8.8710    -0.4580 C.3   1 <1>  -0.1020 
 23 H        0.1050     1.5830     1.3240 H     1 <1>   0.4200 
 24 H        1.6150     2.0140     3.1760 H     1 <1>   0.0800 
 25 H        2.8920     1.6210     2.0820 H     1 <1>   0.0800 
 26 H       -1.1020    -0.2830    -1.8190 H     1 <1>   0.1500 
 27 H       -0.3730    -4.2790    -0.3140 H     1 <1>   0.1500 
 28 H       -1.9020    -2.6880    -1.8540 H     1 <1>   0.1500 
 29 H        1.7140     5.5440    -0.0690 H     1 <1>   0.0800 
 30 H        2.8840     6.1030     1.1230 H     1 <1>   0.0800 
 31 H        4.5850     2.8670     1.2310 H     1 <1>   0.0800 
 32 H        3.8220     2.6690    -0.3440 H     1 <1>   0.0800 
 33 H        3.3690     4.9660    -1.6010 H     1 <1>   0.0800 
 34 H        5.5300     4.1850    -0.9330 H     1 <1>   0.0800 
 35 H        3.3880     7.5070    -1.1100 H     1 <1>   0.0800 
 36 H        4.6210     6.8180    -2.1200 H     1 <1>   0.0800 
 37 H        5.2000     5.1330     1.9080 H     1 <1>   0.0800 
 38 H        6.6450     4.6790     1.0560 H     1 <1>   0.0800 
 39 H        6.7450     7.0730     1.3300 H     1 <1>   0.1500 
 40 H        4.7660     9.4680    -0.2680 H     1 <1>   0.0800 
 41 H        5.9530     9.0220    -1.4760 H     1 <1>   0.0800 
 42 H        6.4280     9.2050     0.1930 H     1 <1>   0.0800 
@<TRIPOS>BOND
  1   1   2  2   
  2   1   3  2   
  3   1   4  am  
  4   1   5  1   
  5   4   6  1   
  6   4  23  1   
  7   5   7  1   
  8   5   8  2   
  9   6   9  1   
 10   6  24  1   
 11   6  25  1   
 12   7  10  1   
 13   8  11  1   
 14   8  26  1   
 15   9  12  2   
 16   9  13  am  
 17  10  11  2   
 18  10  27  1   
 19  11  28  1   
 20  13  14  1   
 21  13  15  1   
 22  14  16  1   
 23  14  29  1   
 24  14  30  1   
 25  15  17  1   
 26  15  31  1   
 27  15  32  1   
 28  16  17  1   
 29  16  18  1   
 30  16  33  1   
 31  17  19  1   
 32  17  34  1   
 33  18  20  1   
 34  18  35  1   
 35  18  36  1   
 36  19  21  1   
 37  19  37  1   
 38  19  38  1   
 39  20  21  2   
 40  20  22  1   
 41  21  39  1   
 42  22  40  1   
 43  22  41  1   
 44  22  42  1   
@<TRIPOS>SUBSTRUCTURE
  1 ****  13 GROUP 4 **** **** 0

# MOE 2024.06 (io_trps.svl 2023.06)
