@<TRIPOS>MOLECULE
NONAME
44 47 1 0 0 
SMALL
USER_CHARGES


@<TRIPOS>ATOM
  1 F        0.3200    -0.9950     0.8590 F     1 <1>  -0.1900 
  2 C       -0.4460    -2.0070     0.5380 C.ar  1 <1>   0.1900 
  3 C        0.0740    -3.1930     0.0090 C.ar  1 <1>   0.0820 
  4 C       -1.8000    -1.8460     0.7540 C.ar  1 <1>  -0.1500 
  5 O        1.3850    -3.4720    -0.2490 O.3   1 <1>  -0.3630 
  6 C       -0.8210    -4.2070    -0.2930 C.ar  1 <1>  -0.1500 
  7 C       -2.6630    -2.8790     0.4420 C.ar  1 <1>  -0.1500 
  8 C        2.4200    -2.5310    -0.0710 C.3   1 <1>   0.0400 
  9 C       -2.2000    -4.0860    -0.0890 C.ar  1 <1>   0.0530 
 10 C       -3.0920    -5.1780    -0.4150 C.2   1 <1>   0.0870 
 11 O       -2.6070    -6.3820    -0.6080 O.3   1 <1>  -0.0190 
 12 C       -4.4370    -5.2740    -0.5800 C.2   1 <1>  -0.2330 
 13 N       -3.5280    -7.2640    -0.8880 N.2   1 <1>  -0.4100 
 14 C       -4.6490    -6.6240    -0.8760 C.2   1 <1>   0.3720 
 15 C       -5.4190    -4.2430    -0.4920 C.2   1 <1>   1.0330 
 16 N       -5.8880    -7.2370    -1.1460 N.pl3 1 <1>  -0.8210 
 17 O       -5.4580    -3.3310    -1.3360 O.co2 1 <1>  -0.9000 
 18 O       -6.1810    -4.1720     0.4900 O.co2 1 <1>  -0.9000 
 19 C       -5.9280    -8.6960    -1.4550 C.3   1 <1>   0.2090 
 20 C       -6.9790    -6.9330    -0.1750 C.3   1 <1>   0.2090 
 21 C       -6.8360    -9.3100    -0.3890 C.3   1 <1>  -0.0800 
 22 C       -7.8470    -8.1880    -0.1420 C.3   1 <1>  -0.0800 
 23 C       -6.0060    -9.6690     0.8640 C.3   1 <1>  -0.0220 
 24 C       -8.7200    -8.3430     1.1180 C.3   1 <1>  -0.0220 
 25 C       -6.8490    -9.7040     2.1240 C.2   1 <1>  -0.2880 
 26 C       -8.0430    -9.1190     2.2340 C.2   1 <1>  -0.2880 
 27 H       -2.1790    -0.9250     1.1580 H     1 <1>   0.1500 
 28 H       -0.4300    -5.1200    -0.7040 H     1 <1>   0.1500 
 29 H       -3.7160    -2.7380     0.6170 H     1 <1>   0.1500 
 30 H        3.3430    -2.9860    -0.3810 H     1 <1>   0.0800 
 31 H        2.4770    -2.2660     0.9700 H     1 <1>   0.0800 
 32 H        2.2160    -1.6680    -0.6800 H     1 <1>   0.0800 
 33 H       -6.3680    -8.8200    -2.4290 H     1 <1>   0.0800 
 34 H       -4.9550    -9.1550    -1.4580 H     1 <1>   0.0800 
 35 H       -6.5600    -6.7350     0.7980 H     1 <1>   0.0800 
 36 H       -7.5460    -6.0760    -0.4990 H     1 <1>   0.0800 
 37 H       -7.3290   -10.1920    -0.7560 H     1 <1>   0.0800 
 38 H       -8.5040    -8.1210    -0.9920 H     1 <1>   0.0800 
 39 H       -5.5440   -10.6280     0.7110 H     1 <1>   0.0800 
 40 H       -5.2190    -8.9480     1.0140 H     1 <1>   0.0800 
 41 H       -9.0070    -7.3690     1.4760 H     1 <1>   0.0800 
 42 H       -9.6190    -8.8700     0.8510 H     1 <1>   0.0800 
 43 H       -6.3790   -10.2340     2.9350 H     1 <1>   0.1500 
 44 H       -8.6260    -9.1510     3.1380 H     1 <1>   0.1500 
@<TRIPOS>BOND
  1   1   2  1   
  2   2   3  ar  
  3   2   4  ar  
  4   3   5  1   
  5   3   6  ar  
  6   4   7  ar  
  7   4  27  1   
  8   5   8  1   
  9   6   9  ar  
 10   6  28  1   
 11   7   9  ar  
 12   7  29  1   
 13   8  30  1   
 14   8  31  1   
 15   8  32  1   
 16   9  10  1   
 17  10  11  1   
 18  10  12  2   
 19  11  13  1   
 20  12  14  1   
 21  12  15  1   
 22  13  14  2   
 23  14  16  1   
 24  15  17  ar  
 25  15  18  ar  
 26  16  19  1   
 27  16  20  1   
 28  19  21  1   
 29  19  33  1   
 30  19  34  1   
 31  20  22  1   
 32  20  35  1   
 33  20  36  1   
 34  21  22  1   
 35  21  23  1   
 36  21  37  1   
 37  22  24  1   
 38  22  38  1   
 39  23  25  1   
 40  23  39  1   
 41  23  40  1   
 42  24  26  1   
 43  24  41  1   
 44  24  42  1   
 45  25  26  2   
 46  25  43  1   
 47  26  44  1   
@<TRIPOS>SUBSTRUCTURE
  1 ****  12 GROUP 4 **** **** 0

# MOE 2024.06 (io_trps.svl 2023.06)
