@<TRIPOS>MOLECULE
NONAME
48 50 1 0 0 
SMALL
USER_CHARGES


@<TRIPOS>ATOM
  1 S        1.0300    -0.3410    -1.0480 S.3   1 <1>  -0.0800 
  2 C        1.4730     1.2050    -0.3150 C.2   1 <1>  -0.0450 
  3 C        0.5350    -1.0150     0.4890 C.2   1 <1>  -0.1100 
  4 C        1.9950     2.2450    -1.1710 C.2   1 <1>   0.7150 
  5 C        1.2210     1.1350     1.0190 C.2   1 <1>  -0.1500 
  6 C        0.6980    -0.1120     1.4710 C.2   1 <1>  -0.1500 
  7 O        1.5990     2.3510    -2.3180 O.2   1 <1>  -0.5700 
  8 N        2.9380     3.1480    -0.7240 N.am  1 <1>  -0.6600 
  9 C        3.2930     4.3360    -1.5610 C.3   1 <1>   0.1400 
 10 C        3.8240     2.8840     0.4530 C.3   1 <1>   0.1400 
 11 C        3.9770     5.4360    -0.7340 C.3   1 <1>   0.1400 
 12 C        5.2310     3.4720     0.2650 C.3   1 <1>   0.1400 
 13 N        5.2100     4.9440    -0.0340 N.am  1 <1>  -0.6600 
 14 C        6.3000     5.7110     0.3160 C.2   1 <1>   0.5690 
 15 O        7.2530     5.2060     0.8620 O.2   1 <1>  -0.5700 
 16 C        6.4020     7.2220     0.0560 C.3   1 <1>  -0.0190 
 17 C        5.2800     8.0600     0.7060 C.3   1 <1>  -0.1600 
 18 C        6.6300     7.5660    -1.4380 C.3   1 <1>  -0.1600 
 19 C        5.5480     9.5750     0.5960 C.3   1 <1>   0.2000 
 20 C        6.1440     8.9760    -1.8220 C.3   1 <1>  -0.1600 
 21 O        4.3000    10.2250     0.5650 O.3   1 <1>  -0.5600 
 22 C        6.3600     9.9610    -0.6700 C.3   1 <1>   0.2000 
 23 C        3.7240    10.4590     1.8130 C.3   1 <1>   0.0400 
 24 O        5.9660    11.2120    -1.1010 O.3   1 <1>  -0.6800 
 25 H        0.1690    -2.0270     0.4940 H     1 <1>   0.1500 
 26 H        1.3800     1.9400     1.7140 H     1 <1>   0.1500 
 27 H        0.4650    -0.2760     2.5100 H     1 <1>   0.1500 
 28 H        3.9490     4.0250    -2.3560 H     1 <1>   0.0800 
 29 H        2.3990     4.7360    -2.0090 H     1 <1>   0.0800 
 30 H        3.3820     3.3180     1.3320 H     1 <1>   0.0800 
 31 H        3.9150     1.8230     0.6110 H     1 <1>   0.0800 
 32 H        3.2770     5.7930     0.0010 H     1 <1>   0.0800 
 33 H        4.2130     6.2520    -1.3890 H     1 <1>   0.0800 
 34 H        5.7250     2.9600    -0.5420 H     1 <1>   0.0800 
 35 H        5.8000     3.2910     1.1620 H     1 <1>   0.0800 
 36 H        7.3020     7.5300     0.5620 H     1 <1>   0.0800 
 37 H        5.1930     7.7900     1.7430 H     1 <1>   0.0800 
 38 H        4.3460     7.8510     0.2230 H     1 <1>   0.0800 
 39 H        7.6870     7.4940    -1.6350 H     1 <1>   0.0800 
 40 H        6.1540     6.8470    -2.0790 H     1 <1>   0.0800 
 41 H        6.1000     9.9190     1.4550 H     1 <1>   0.0800 
 42 H        5.0940     8.9410    -2.0540 H     1 <1>   0.0800 
 43 H        6.6740     9.3130    -2.6960 H     1 <1>   0.0800 
 44 H        7.4110    10.0090    -0.4380 H     1 <1>   0.0800 
 45 H        2.7840    10.9590     1.6590 H     1 <1>   0.0800 
 46 H        4.3760    11.0900     2.3920 H     1 <1>   0.0800 
 47 H        3.5570     9.5230     2.3160 H     1 <1>   0.0800 
 48 H        5.0380    11.3180    -0.7900 H     1 <1>   0.4000 
@<TRIPOS>BOND
  1   1   2  1   
  2   1   3  1   
  3   2   4  1   
  4   2   5  2   
  5   3   6  2   
  6   3  25  1   
  7   4   7  2   
  8   4   8  am  
  9   5   6  1   
 10   5  26  1   
 11   6  27  1   
 12   8   9  1   
 13   8  10  1   
 14   9  11  1   
 15   9  28  1   
 16   9  29  1   
 17  10  12  1   
 18  10  30  1   
 19  10  31  1   
 20  11  13  1   
 21  11  32  1   
 22  11  33  1   
 23  12  13  1   
 24  12  34  1   
 25  12  35  1   
 26  13  14  am  
 27  14  15  2   
 28  14  16  1   
 29  16  17  1   
 30  16  18  1   
 31  16  36  1   
 32  17  19  1   
 33  17  37  1   
 34  17  38  1   
 35  18  20  1   
 36  18  39  1   
 37  18  40  1   
 38  19  21  1   
 39  19  22  1   
 40  19  41  1   
 41  20  22  1   
 42  20  42  1   
 43  20  43  1   
 44  21  23  1   
 45  22  24  1   
 46  22  44  1   
 47  23  45  1   
 48  23  46  1   
 49  23  47  1   
 50  24  48  1   
@<TRIPOS>SUBSTRUCTURE
  1 ****  11 GROUP 4 **** **** 0

# MOE 2024.06 (io_trps.svl 2023.06)
