@<TRIPOS>MOLECULE
NONAME
40 41 1 0 0 
SMALL
USER_CHARGES


@<TRIPOS>ATOM
  1 CL       1.2620    -0.7750    -2.5540 Cl    1 <1>  -0.1770 
  2 C        1.6590    -1.7700    -1.1640 C.ar  1 <1>   0.1770 
  3 C        0.6850    -2.4970    -0.4890 C.ar  1 <1>   0.4100 
  4 C        2.9490    -1.8580    -0.7240 C.ar  1 <1>   0.1600 
  5 N        1.0050    -3.2770     0.5340 N.ar  1 <1>  -0.6200 
  6 N       -0.6490    -2.4690    -0.8480 N.pl3 1 <1>  -0.8380 
  7 N        3.2770    -2.6080     0.3150 N.ar  1 <1>  -0.6200 
  8 C        2.2820    -3.2610     0.8890 C.ar  1 <1>   0.4770 
  9 C       -1.1450    -3.4750    -1.8140 C.3   1 <1>   0.2090 
 10 C       -1.6970    -2.2670     0.1860 C.3   1 <1>   0.2090 
 11 C        2.6590    -4.0920     2.0930 C.3   1 <1>  -0.0960 
 12 C       -2.0110    -4.4050    -0.9480 C.3   1 <1>   0.4230 
 13 C       -2.7280    -3.3670    -0.0770 C.3   1 <1>  -0.1600 
 14 N       -1.1260    -5.3050    -0.1210 N.4   1 <1>  -0.9590 
 15 C       -0.4090    -6.3030    -0.9660 C.3   1 <1>   0.3430 
 16 C       -1.8110    -5.9720     1.0200 C.3   1 <1>   0.3430 
 17 C        0.8060    -6.8540    -0.2310 C.3   1 <1>  -0.2400 
 18 C       -1.2010    -5.4670     2.3200 C.3   1 <1>  -0.2400 
 19 H        3.7280    -1.3080    -1.2230 H     1 <1>   0.1500 
 20 H       -0.3370    -3.9760    -2.3160 H     1 <1>   0.0800 
 21 H       -1.7530    -2.9780    -2.5510 H     1 <1>   0.0800 
 22 H       -2.1370    -1.2880     0.0790 H     1 <1>   0.0800 
 23 H       -1.2800    -2.3510     1.1760 H     1 <1>   0.0800 
 24 H        1.8210    -4.1980     2.7550 H     1 <1>   0.0800 
 25 H        3.4580    -3.6130     2.6290 H     1 <1>   0.0800 
 26 H        2.9900    -5.0620     1.7740 H     1 <1>   0.0800 
 27 H       -2.7010    -4.9830    -1.5400 H     1 <1>   0.0800 
 28 H       -3.5270    -2.9340    -0.6520 H     1 <1>   0.0800 
 29 H       -3.1610    -3.7400     0.8310 H     1 <1>   0.0800 
 30 H       -0.4090    -4.6490     0.2620 H     1 <1>   0.4500 
 31 H       -0.0670    -5.8420    -1.8770 H     1 <1>   0.0800 
 32 H       -1.0750    -7.1080    -1.2320 H     1 <1>   0.0800 
 33 H       -1.6840    -7.0410     0.9580 H     1 <1>   0.0800 
 34 H       -2.8680    -5.7650     1.0030 H     1 <1>   0.0800 
 35 H        1.4780    -6.0600     0.0350 H     1 <1>   0.0800 
 36 H        1.3340    -7.5280    -0.8820 H     1 <1>   0.0800 
 37 H        0.5240    -7.4050     0.6480 H     1 <1>   0.0800 
 38 H       -0.1570    -5.7170     2.3730 H     1 <1>   0.0800 
 39 H       -1.6960    -5.9360     3.1510 H     1 <1>   0.0800 
 40 H       -1.3190    -4.4040     2.4180 H     1 <1>   0.0800 
@<TRIPOS>BOND
  1   1   2  1   
  2   2   3  ar  
  3   2   4  ar  
  4   3   5  ar  
  5   3   6  1   
  6   4   7  ar  
  7   4  19  1   
  8   5   8  ar  
  9   6   9  1   
 10   6  10  1   
 11   7   8  ar  
 12   8  11  1   
 13   9  12  1   
 14   9  20  1   
 15   9  21  1   
 16  10  13  1   
 17  10  22  1   
 18  10  23  1   
 19  11  24  1   
 20  11  25  1   
 21  11  26  1   
 22  12  13  1   
 23  12  14  1   
 24  12  27  1   
 25  13  28  1   
 26  13  29  1   
 27  14  15  1   
 28  14  16  1   
 29  14  30  1   
 30  15  17  1   
 31  15  31  1   
 32  15  32  1   
 33  16  18  1   
 34  16  33  1   
 35  16  34  1   
 36  17  35  1   
 37  17  36  1   
 38  17  37  1   
 39  18  38  1   
 40  18  39  1   
 41  18  40  1   
@<TRIPOS>SUBSTRUCTURE
  1 ****   5 GROUP 4 **** **** 0

# MOE 2024.06 (io_trps.svl 2023.06)
