@<TRIPOS>MOLECULE
NONAME
50 52 1 0 0 
SMALL
USER_CHARGES


@<TRIPOS>ATOM
  1 O        1.0300     0.4170    -1.1170 O.2   1 <1>  -0.5700 
  2 C        1.9510    -0.2210    -0.6430 C.2   1 <1>   0.7030 
  3 N        2.9340     0.4530     0.0590 N.am  1 <1>  -0.6600 
  4 C        1.9620    -1.6670    -0.8220 C.2   1 <1>   0.2770 
  5 C        3.6590    -0.1700     1.2140 C.3   1 <1>   0.1400 
  6 C        2.9830     1.9480    -0.0280 C.3   1 <1>   0.1400 
  7 N        0.8860    -2.5430    -0.6510 N.pl3 1 <1>  -0.7640 
  8 C        3.0030    -2.4460    -1.2140 C.2   1 <1>   0.2000 
  9 C        5.1330    -0.4600     0.8950 C.3   1 <1>   0.1400 
 10 C        4.3490     2.5680     0.2970 C.3   1 <1>  -0.1600 
 11 C        1.3010    -3.7710    -0.9270 C.cat 1 <1>   0.6500 
 12 C       -0.4920    -2.1040    -0.2820 C.3   1 <1>   0.2740 
 13 N        2.5820    -3.7460    -1.2620 N.pl3 1 <1>  -0.7000 
 14 N        5.9630     0.7770     0.8180 N.am  1 <1>  -0.6600 
 15 C        5.5480     1.7670    -0.2170 C.3   1 <1>   0.1400 
 16 C        7.0620     0.9280     1.6370 C.2   1 <1>   0.5690 
 17 O        7.3220     0.1030     2.4840 O.2   1 <1>  -0.5700 
 18 C        7.9970     2.1300     1.5420 C.3   1 <1>   0.0820 
 19 C        8.7760     2.2010     0.2310 C.2   1 <1>  -0.1810 
 20 C        9.4950     1.1620    -0.3610 C.2   1 <1>   0.1080 
 21 C        8.9290     3.2480    -0.6140 C.2   1 <1>  -0.3320 
 22 N       10.0340     1.5170    -1.4830 N.2   1 <1>  -0.7070 
 23 C        9.6720    -0.2350     0.1920 C.3   1 <1>  -0.0590 
 24 N        9.6930     2.8060    -1.6350 N.pl3 1 <1>   0.3000 
 25 C        8.4120     4.6760    -0.5410 C.3   1 <1>  -0.0600 
 26 H        3.1790    -1.0930     1.4860 H     1 <1>   0.0800 
 27 H        3.6050     0.4760     2.0750 H     1 <1>   0.0800 
 28 H        2.2380     2.3630     0.6290 H     1 <1>   0.0800 
 29 H        2.7190     2.2380    -1.0320 H     1 <1>   0.0800 
 30 H        4.0050    -2.1390    -1.4700 H     1 <1>   0.1500 
 31 H        5.2190    -0.9910    -0.0340 H     1 <1>   0.0800 
 32 H        5.5130    -1.1100     1.6640 H     1 <1>   0.0800 
 33 H        4.4400     2.7260     1.3570 H     1 <1>   0.0800 
 34 H        4.3720     3.5410    -0.1600 H     1 <1>   0.0800 
 35 H        0.6840    -4.6600    -0.8930 H     1 <1>   0.1500 
 36 H       -0.4690    -1.5540     0.6440 H     1 <1>   0.0800 
 37 H       -1.1430    -2.9530    -0.1670 H     1 <1>   0.0800 
 38 H       -0.8900    -1.4630    -1.0530 H     1 <1>   0.0800 
 39 H        3.1480    -4.5580    -1.5340 H     1 <1>   0.4500 
 40 H        6.3500     2.4460    -0.4330 H     1 <1>   0.0800 
 41 H        5.3080     1.2630    -1.1370 H     1 <1>   0.0800 
 42 H        8.7040     2.0780     2.3500 H     1 <1>   0.0800 
 43 H        7.4170     3.0200     1.6840 H     1 <1>   0.0800 
 44 H        9.8450    -0.1980     1.2510 H     1 <1>   0.0800 
 45 H       10.5160    -0.7080    -0.2780 H     1 <1>   0.0800 
 46 H        8.7930    -0.8180    -0.0060 H     1 <1>   0.0800 
 47 H       10.0030     3.3560    -2.4450 H     1 <1>   0.2700 
 48 H        7.8490     4.8390     0.3590 H     1 <1>   0.0800 
 49 H        7.7770     4.8840    -1.3840 H     1 <1>   0.0800 
 50 H        9.2370     5.3660    -0.5510 H     1 <1>   0.0800 
@<TRIPOS>BOND
  1   1   2  2   
  2   2   3  am  
  3   2   4  1   
  4   3   5  1   
  5   3   6  1   
  6   4   7  1   
  7   4   8  2   
  8   5   9  1   
  9   5  26  1   
 10   5  27  1   
 11   6  10  1   
 12   6  28  1   
 13   6  29  1   
 14   7  11  ar  
 15   7  12  1   
 16   8  13  1   
 17   8  30  1   
 18   9  14  1   
 19   9  31  1   
 20   9  32  1   
 21  10  15  1   
 22  10  33  1   
 23  10  34  1   
 24  11  13  ar  
 25  11  35  1   
 26  12  36  1   
 27  12  37  1   
 28  12  38  1   
 29  13  39  1   
 30  14  15  1   
 31  14  16  am  
 32  15  40  1   
 33  15  41  1   
 34  16  17  2   
 35  16  18  1   
 36  18  19  1   
 37  18  42  1   
 38  18  43  1   
 39  19  20  1   
 40  19  21  2   
 41  20  22  2   
 42  20  23  1   
 43  21  24  1   
 44  21  25  1   
 45  22  24  1   
 46  23  44  1   
 47  23  45  1   
 48  23  46  1   
 49  24  47  1   
 50  25  48  1   
 51  25  49  1   
 52  25  50  1   
@<TRIPOS>SUBSTRUCTURE
  1 ****  14 GROUP 4 **** **** 0

# MOE 2024.06 (io_trps.svl 2023.06)
