@<TRIPOS>MOLECULE
NONAME
54 58 1 0 0 
SMALL
USER_CHARGES


@<TRIPOS>ATOM
  1 O        0.0540     1.4830     2.2300 O.2   1 <1>  -0.5700 
  2 C       -0.2690     2.0330     1.1950 C.2   1 <1>   0.5440 
  3 N       -1.4880     1.7280     0.6210 N.am  1 <1>  -0.6600 
  4 C        0.6160     3.0160     0.6210 C.ar  1 <1>   0.0860 
  5 C       -2.0840     2.4710    -0.5360 C.3   1 <1>   0.1400 
  6 C       -2.4100     0.7170     1.2080 C.3   1 <1>   0.1400 
  7 C        1.2680     2.8250    -0.6070 C.ar  1 <1>   0.0000 
  8 C        0.8690     4.2240     1.2370 C.ar  1 <1>  -0.1500 
  9 C       -3.3530     3.2260    -0.0970 C.3   1 <1>   0.1440 
 10 C       -3.6900     1.4090     1.6880 C.3   1 <1>  -0.1600 
 11 C        2.0330     3.8520    -1.1180 C.ar  1 <1>   0.1050 
 12 C        1.3860     1.8020    -1.5670 C.2   1 <1>   0.1080 
 13 C        1.6810     5.1910     0.6340 C.ar  1 <1>   0.1660 
 14 C       -4.0220     3.8940    -1.2850 C.ar  1 <1>   0.1660 
 15 C       -4.3460     2.2500     0.5760 C.3   1 <1>  -0.1600 
 16 C       -3.0230     4.4370     0.8170 C.3   1 <1>  -0.1600 
 17 N        2.2560     5.0410    -0.5310 N.ar  1 <1>  -0.5670 
 18 N        2.5120     3.4060    -2.3130 N.pl3 1 <1>   0.3140 
 19 N        2.1080     2.1440    -2.5810 N.2   1 <1>  -0.7070 
 20 C        0.7730     0.4220    -1.4600 C.3   1 <1>  -0.0590 
 21 C        1.9290     6.5060     1.3430 C.3   1 <1>  -0.0970 
 22 N       -4.2780     3.3190    -2.4360 N.ar  1 <1>  -0.6200 
 23 C       -4.3440     5.1920    -1.0150 C.ar  1 <1>  -0.1430 
 24 C       -3.9410     5.5920     0.3810 C.3   1 <1>  -0.0170 
 25 C        3.3810     4.1590    -3.2250 C.3   1 <1>   0.0160 
 26 C       -4.8880     4.1080    -3.3080 C.ar  1 <1>   0.7200 
 27 C       -4.9630     5.9170    -2.0050 C.ar  1 <1>   0.1600 
 28 N       -5.2390     5.3790    -3.1720 N.ar  1 <1>  -0.6200 
 29 N       -5.1620     3.5590    -4.4920 N.pl3 1 <1>  -0.9000 
 30 H       -2.3460     1.7610    -1.3020 H     1 <1>   0.0800 
 31 H       -1.3840     3.1630    -0.9660 H     1 <1>   0.0800 
 32 H       -1.9430     0.2030     2.0320 H     1 <1>   0.0800 
 33 H       -2.6490    -0.0150     0.4560 H     1 <1>   0.0800 
 34 H        0.4280     4.4210     2.1970 H     1 <1>   0.1500 
 35 H       -3.4470     2.0290     2.5330 H     1 <1>   0.0800 
 36 H       -4.3850     0.6630     2.0290 H     1 <1>   0.0800 
 37 H       -4.7260     1.5800    -0.1770 H     1 <1>   0.0800 
 38 H       -5.1860     2.7930     0.9730 H     1 <1>   0.0800 
 39 H       -2.0050     4.7420     0.6480 H     1 <1>   0.0800 
 40 H       -3.1340     4.2150     1.8630 H     1 <1>   0.0800 
 41 H        0.8680     0.0480    -0.4580 H     1 <1>   0.0800 
 42 H        1.2780    -0.2520    -2.1270 H     1 <1>   0.0800 
 43 H       -0.2650     0.4600    -1.7310 H     1 <1>   0.0800 
 44 H        1.4190     6.5430     2.2880 H     1 <1>   0.0800 
 45 H        1.5840     7.3170     0.7290 H     1 <1>   0.0800 
 46 H        2.9830     6.6260     1.5130 H     1 <1>   0.0800 
 47 H       -3.4250     6.5360     0.3940 H     1 <1>   0.0800 
 48 H       -4.8140     5.6410     1.0090 H     1 <1>   0.0800 
 49 H        4.2760     4.4390    -2.7020 H     1 <1>   0.0800 
 50 H        2.8620     5.0400    -3.5540 H     1 <1>   0.0800 
 51 H        3.6280     3.5430    -4.0690 H     1 <1>   0.0800 
 52 H       -5.2340     6.9450    -1.8390 H     1 <1>   0.1500 
 53 H       -5.3470     4.2200    -5.2410 H     1 <1>   0.4000 
 54 H       -4.6130     2.7380    -4.7270 H     1 <1>   0.4000 
@<TRIPOS>BOND
  1   1   2  2   
  2   2   3  am  
  3   2   4  1   
  4   3   5  1   
  5   3   6  1   
  6   4   7  ar  
  7   4   8  ar  
  8   5   9  1   
  9   5  30  1   
 10   5  31  1   
 11   6  10  1   
 12   6  32  1   
 13   6  33  1   
 14   7  11  ar  
 15   7  12  1   
 16   8  13  ar  
 17   8  34  1   
 18   9  14  1   
 19   9  15  1   
 20   9  16  1   
 21  10  15  1   
 22  10  35  1   
 23  10  36  1   
 24  11  17  ar  
 25  11  18  1   
 26  12  19  2   
 27  12  20  1   
 28  13  17  ar  
 29  13  21  1   
 30  14  22  ar  
 31  14  23  ar  
 32  15  37  1   
 33  15  38  1   
 34  16  24  1   
 35  16  39  1   
 36  16  40  1   
 37  18  19  1   
 38  18  25  1   
 39  20  41  1   
 40  20  42  1   
 41  20  43  1   
 42  21  44  1   
 43  21  45  1   
 44  21  46  1   
 45  22  26  ar  
 46  23  24  1   
 47  23  27  ar  
 48  24  47  1   
 49  24  48  1   
 50  25  49  1   
 51  25  50  1   
 52  25  51  1   
 53  26  28  ar  
 54  26  29  1   
 55  27  28  ar  
 56  27  52  1   
 57  29  53  1   
 58  29  54  1   
@<TRIPOS>SUBSTRUCTURE
  1 ****   5 GROUP 4 **** **** 0

# MOE 2024.06 (io_trps.svl 2023.06)
