@<TRIPOS>MOLECULE
NONAME
29 30 1 0 0 
SMALL
USER_CHARGES


@<TRIPOS>ATOM
  1 BR      -0.6670    -0.1130    -2.2340 Br    1 <1>  -0.1430 
  2 C       -2.0710    -0.9300    -1.2060 C.2   1 <1>   0.5930 
  3 N       -3.0310    -0.1570    -0.8480 N.2   1 <1>  -0.6290 
  4 C       -1.9310    -2.3410    -0.9240 C.2   1 <1>   0.6300 
  5 C       -4.0340    -0.7720    -0.1070 C.ar  1 <1>   0.1790 
  6 O       -0.9690    -2.9810    -1.3260 O.2   1 <1>  -0.5700 
  7 N       -2.9370    -2.9480    -0.1750 N.am  1 <1>  -0.4770 
  8 C       -4.0120    -2.1420     0.2340 C.ar  1 <1>   0.4270 
  9 C       -5.1360    -0.0520     0.3430 C.ar  1 <1>   0.1660 
 10 C       -2.8810    -4.4060     0.1970 C.3   1 <1>   0.2200 
 11 N       -4.9910    -2.6910     0.9360 N.ar  1 <1>  -0.6200 
 12 N       -6.0970    -0.5990     1.0390 N.ar  1 <1>  -0.6200 
 13 C       -5.2750     1.4300     0.0380 C.3   1 <1>  -0.0970 
 14 C       -1.6690    -4.7120     1.0830 C.3   1 <1>  -0.2400 
 15 C       -2.9330    -5.3010    -1.0450 C.3   1 <1>  -0.2400 
 16 C       -5.9580    -1.8870     1.2990 C.ar  1 <1>   0.7200 
 17 N       -6.9430    -2.4340     2.0080 N.pl3 1 <1>  -0.9000 
 18 H       -3.7430    -4.6670     0.7830 H     1 <1>   0.0800 
 19 H       -4.4280     1.9640     0.4290 H     1 <1>   0.0800 
 20 H       -6.1690     1.8280     0.4840 H     1 <1>   0.0800 
 21 H       -5.3230     1.5800    -1.0250 H     1 <1>   0.0800 
 22 H       -0.7460    -4.6170     0.5420 H     1 <1>   0.0800 
 23 H       -1.7350    -5.7220     1.4450 H     1 <1>   0.0800 
 24 H       -1.6570    -4.0520     1.9310 H     1 <1>   0.0800 
 25 H       -2.0390    -5.2150    -1.6340 H     1 <1>   0.0800 
 26 H       -3.7850    -5.0460    -1.6480 H     1 <1>   0.0800 
 27 H       -3.0300    -6.3280    -0.7430 H     1 <1>   0.0800 
 28 H       -7.7990    -1.8910     2.0920 H     1 <1>   0.4000 
 29 H       -7.0250    -3.4460     1.9970 H     1 <1>   0.4000 
@<TRIPOS>BOND
  1   1   2  1   
  2   2   3  2   
  3   2   4  1   
  4   3   5  1   
  5   4   6  2   
  6   4   7  am  
  7   5   8  ar  
  8   5   9  ar  
  9   7   8  1   
 10   7  10  1   
 11   8  11  ar  
 12   9  12  ar  
 13   9  13  1   
 14  10  14  1   
 15  10  15  1   
 16  10  18  1   
 17  11  16  ar  
 18  12  16  ar  
 19  13  19  1   
 20  13  20  1   
 21  13  21  1   
 22  14  22  1   
 23  14  23  1   
 24  14  24  1   
 25  15  25  1   
 26  15  26  1   
 27  15  27  1   
 28  16  17  1   
 29  17  28  1   
 30  17  29  1   
@<TRIPOS>SUBSTRUCTURE
  1 ****   8 GROUP 4 **** **** 0

# MOE 2024.06 (io_trps.svl 2023.06)
