@<TRIPOS>MOLECULE
NONAME
49 52 1 0 0 
SMALL
USER_CHARGES


@<TRIPOS>ATOM
  1 CL      -3.1520    -1.5520    -4.3600 Cl    1 <1>  -0.1770 
  2 C       -3.1880    -1.2900    -2.6360 C.ar  1 <1>   0.1770 
  3 C       -4.2600    -0.6180    -2.0790 C.ar  1 <1>  -0.1500 
  4 C       -2.1400    -1.7600    -1.8620 C.ar  1 <1>  -0.1500 
  5 C       -4.3120    -0.3920    -0.7040 C.ar  1 <1>   0.0860 
  6 C       -2.1680    -1.5480    -0.4940 C.ar  1 <1>  -0.1500 
  7 C       -3.2450    -0.8720     0.0540 C.ar  1 <1>   0.1900 
  8 C       -5.4260     0.3040    -0.1080 C.2   1 <1>   0.5440 
  9 F       -3.2370    -0.6700     1.3440 F     1 <1>  -0.1900 
 10 O       -6.3650    -0.3510     0.3000 O.2   1 <1>  -0.5700 
 11 N       -5.4610     1.6820    -0.0290 N.am  1 <1>  -0.6600 
 12 C       -6.6900     2.3910     0.4870 C.3   1 <1>   0.2200 
 13 C       -4.2090     2.5000    -0.0990 C.3   1 <1>   0.1400 
 14 C       -6.4820     3.9060     0.8060 C.3   1 <1>   0.1380 
 15 C       -7.9530     2.1220    -0.3520 C.3   1 <1>  -0.1600 
 16 C       -3.9990     3.3460     1.1700 C.3   1 <1>  -0.1600 
 17 C       -6.1890     4.8570    -0.3990 C.2   1 <1>  -0.2760 
 18 C       -7.7800     4.3890     1.5210 C.3   1 <1>   0.1200 
 19 C       -5.2870     3.9350     1.7870 C.3   1 <1>  -0.1600 
 20 C       -8.9990     3.2220    -0.1420 C.3   1 <1>   0.1200 
 21 C       -6.2290     4.5430    -1.7030 C.2   1 <1>  -0.2880 
 22 C       -5.7910     6.2950    -0.0420 C.3   1 <1>  -0.0220 
 23 O       -8.9290     3.6520     1.1810 O.3   1 <1>  -0.5600 
 24 C       -5.9120     5.5080    -2.8380 C.3   1 <1>   0.2580 
 25 C       -5.9200     7.2310    -1.2510 C.3   1 <1>   0.1200 
 26 O       -5.2860     6.6560    -2.3490 O.3   1 <1>  -0.5600 
 27 H       -5.0610    -0.2710    -2.7060 H     1 <1>   0.1500 
 28 H       -1.3210    -2.2810    -2.3270 H     1 <1>   0.1500 
 29 H       -1.3720    -1.8990     0.1400 H     1 <1>   0.1500 
 30 H       -6.9000     1.9340     1.4400 H     1 <1>   0.0800 
 31 H       -3.3440     1.8780    -0.2380 H     1 <1>   0.0800 
 32 H       -4.2620     3.1450    -0.9570 H     1 <1>   0.0800 
 33 H       -8.3850     1.1920    -0.0300 H     1 <1>   0.0800 
 34 H       -7.7300     2.0200    -1.3950 H     1 <1>   0.0800 
 35 H       -3.5040     2.7410     1.9090 H     1 <1>   0.0800 
 36 H       -3.3280     4.1480     0.9200 H     1 <1>   0.0800 
 37 H       -7.9940     5.4160     1.2990 H     1 <1>   0.0800 
 38 H       -7.6730     4.2980     2.5870 H     1 <1>   0.0800 
 39 H       -5.1010     4.9260     2.1560 H     1 <1>   0.0800 
 40 H       -5.5390     3.3350     2.6450 H     1 <1>   0.0800 
 41 H       -9.9900     2.8430    -0.3210 H     1 <1>   0.0800 
 42 H       -8.8260     4.0670    -0.7870 H     1 <1>   0.0800 
 43 H       -6.4760     3.5730    -2.0840 H     1 <1>   0.1500 
 44 H       -4.7690     6.3140     0.2890 H     1 <1>   0.0800 
 45 H       -6.3970     6.6950     0.7490 H     1 <1>   0.0800 
 46 H       -6.8090     5.8000    -3.3550 H     1 <1>   0.0800 
 47 H       -5.2350     5.0520    -3.5390 H     1 <1>   0.0800 
 48 H       -5.4460     8.1760    -1.0510 H     1 <1>   0.0800 
 49 H       -6.9540     7.4000    -1.5000 H     1 <1>   0.0800 
@<TRIPOS>BOND
  1   1   2  1   
  2   2   3  ar  
  3   2   4  ar  
  4   3   5  ar  
  5   3  27  1   
  6   4   6  ar  
  7   4  28  1   
  8   5   7  ar  
  9   5   8  1   
 10   6   7  ar  
 11   6  29  1   
 12   7   9  1   
 13   8  10  2   
 14   8  11  am  
 15  11  12  1   
 16  11  13  1   
 17  12  14  1   
 18  12  15  1   
 19  12  30  1   
 20  13  16  1   
 21  13  31  1   
 22  13  32  1   
 23  14  17  1   
 24  14  18  1   
 25  14  19  1   
 26  15  20  1   
 27  15  33  1   
 28  15  34  1   
 29  16  19  1   
 30  16  35  1   
 31  16  36  1   
 32  17  21  2   
 33  17  22  1   
 34  18  23  1   
 35  18  37  1   
 36  18  38  1   
 37  19  39  1   
 38  19  40  1   
 39  20  23  1   
 40  20  41  1   
 41  20  42  1   
 42  21  24  1   
 43  21  43  1   
 44  22  25  1   
 45  22  44  1   
 46  22  45  1   
 47  24  26  1   
 48  24  46  1   
 49  24  47  1   
 50  25  26  1   
 51  25  48  1   
 52  25  49  1   
@<TRIPOS>SUBSTRUCTURE
  1 ****  11 GROUP 4 **** **** 0

# MOE 2024.06 (io_trps.svl 2023.06)
