@<TRIPOS>MOLECULE
NONAME
55 58 1 0 0 
SMALL
USER_CHARGES


@<TRIPOS>ATOM
  1 O        0.1130    -2.9910    -1.2660 O.3   1 <1>  -0.6800 
  2 C        0.4200    -1.7660    -0.6910 C.3   1 <1>   0.1200 
  3 C        1.6150    -1.8550     0.3040 C.3   1 <1>   0.0000 
  4 C        2.9740    -2.2460    -0.3600 C.3   1 <1>   0.4230 
  5 C        1.7970    -0.4320     0.9050 C.3   1 <1>  -0.1600 
  6 C        1.2800    -2.8320     1.4710 C.3   1 <1>  -0.1600 
  7 N        3.1290    -3.6990    -0.7840 N.4   1 <1>  -0.9590 
  8 C        3.3970    -1.2080    -1.4190 C.3   1 <1>   0.2090 
  9 C        2.3070     0.6210    -0.0950 C.3   1 <1>   0.2090 
 10 C        2.1150    -4.1250     1.4530 C.3   1 <1>  -0.1600 
 11 C        2.3010    -4.6440     0.0280 C.3   1 <1>   0.3430 
 12 C        2.8880    -3.9520    -2.2390 C.3   1 <1>   0.2630 
 13 N        3.5400     0.1090    -0.7460 N.pl3 1 <1>  -0.8380 
 14 C        4.7630     0.4930    -0.2420 C.ar  1 <1>   0.7200 
 15 N        5.6270    -0.4800     0.0320 N.ar  1 <1>  -0.6200 
 16 N        4.9450     1.7900    -0.0570 N.ar  1 <1>  -0.6200 
 17 C        6.7840    -0.0990     0.5210 C.ar  1 <1>   0.1670 
 18 C        6.1050     2.1540     0.4290 C.ar  1 <1>   0.1670 
 19 C        7.0830     1.2310     0.7510 C.ar  1 <1>  -0.1430 
 20 C        7.7710    -1.2150     0.8360 C.3   1 <1>  -0.0170 
 21 C        6.2980     3.6480     0.6120 C.3   1 <1>  -0.0970 
 22 C        8.4350     1.6620     1.3240 C.3   1 <1>  -0.0170 
 23 C        9.2050    -0.7160     1.0520 C.3   1 <1>  -0.1600 
 24 C        9.2060     0.5070     1.9710 C.3   1 <1>  -0.1600 
 25 H       -0.7610    -2.9470    -1.7100 H     1 <1>   0.4000 
 26 H        0.6120    -1.0720    -1.4890 H     1 <1>   0.0800 
 27 H       -0.4600    -1.4330    -0.1660 H     1 <1>   0.0800 
 28 H        3.6960    -2.1130     0.4290 H     1 <1>   0.0800 
 29 H        2.5120    -0.4680     1.7100 H     1 <1>   0.0800 
 30 H        0.8700    -0.0850     1.3280 H     1 <1>   0.0800 
 31 H        1.4290    -2.3610     2.4280 H     1 <1>   0.0800 
 32 H        0.2370    -3.0980     1.4300 H     1 <1>   0.0800 
 33 H        4.1140    -3.9220    -0.5880 H     1 <1>   0.4500 
 34 H        2.6670    -1.1270    -2.2030 H     1 <1>   0.0800 
 35 H        4.3380    -1.4880    -1.8600 H     1 <1>   0.0800 
 36 H        2.5080     1.5420     0.4270 H     1 <1>   0.0800 
 37 H        1.5690     0.8340    -0.8490 H     1 <1>   0.0800 
 38 H        1.6100    -4.8750     2.0370 H     1 <1>   0.0800 
 39 H        3.0770    -3.9610     1.9060 H     1 <1>   0.0800 
 40 H        1.3290    -4.7560    -0.4230 H     1 <1>   0.0800 
 41 H        2.7710    -5.6140     0.0500 H     1 <1>   0.0800 
 42 H        1.8840    -3.6750    -2.5090 H     1 <1>   0.0800 
 43 H        3.0240    -4.9970    -2.4630 H     1 <1>   0.0800 
 44 H        3.5770    -3.3830    -2.8420 H     1 <1>   0.0800 
 45 H        7.4320    -1.7140     1.7260 H     1 <1>   0.0800 
 46 H        7.7660    -1.9310     0.0340 H     1 <1>   0.0800 
 47 H        7.2770     3.9480     0.2890 H     1 <1>   0.0800 
 48 H        6.1660     3.9050     1.6470 H     1 <1>   0.0800 
 49 H        5.5750     4.1900     0.0290 H     1 <1>   0.0800 
 50 H        9.0260     2.0710     0.5220 H     1 <1>   0.0800 
 51 H        8.2960     2.4330     2.0610 H     1 <1>   0.0800 
 52 H        9.8010    -1.5020     1.4820 H     1 <1>   0.0800 
 53 H        9.6380    -0.4500     0.1030 H     1 <1>   0.0800 
 54 H       10.2180     0.8160     2.1700 H     1 <1>   0.0800 
 55 H        8.7470     0.2510     2.9110 H     1 <1>   0.0800 
@<TRIPOS>BOND
  1   1   2  1   
  2   1  25  1   
  3   2   3  1   
  4   2  26  1   
  5   2  27  1   
  6   3   4  1   
  7   3   5  1   
  8   3   6  1   
  9   4   7  1   
 10   4   8  1   
 11   4  28  1   
 12   5   9  1   
 13   5  29  1   
 14   5  30  1   
 15   6  10  1   
 16   6  31  1   
 17   6  32  1   
 18   7  11  1   
 19   7  12  1   
 20   7  33  1   
 21   8  13  1   
 22   8  34  1   
 23   8  35  1   
 24   9  13  1   
 25   9  36  1   
 26   9  37  1   
 27  10  11  1   
 28  10  38  1   
 29  10  39  1   
 30  11  40  1   
 31  11  41  1   
 32  12  42  1   
 33  12  43  1   
 34  12  44  1   
 35  13  14  1   
 36  14  15  ar  
 37  14  16  ar  
 38  15  17  ar  
 39  16  18  ar  
 40  17  19  ar  
 41  17  20  1   
 42  18  19  ar  
 43  18  21  1   
 44  19  22  1   
 45  20  23  1   
 46  20  45  1   
 47  20  46  1   
 48  21  47  1   
 49  21  48  1   
 50  21  49  1   
 51  22  24  1   
 52  22  50  1   
 53  22  51  1   
 54  23  24  1   
 55  23  52  1   
 56  23  53  1   
 57  24  54  1   
 58  24  55  1   
@<TRIPOS>SUBSTRUCTURE
  1 ****  15 GROUP 4 **** **** 0

# MOE 2024.06 (io_trps.svl 2023.06)
