@<TRIPOS>MOLECULE
NONAME
64 67 1 0 0 
SMALL
USER_CHARGES


@<TRIPOS>ATOM
  1 S       -0.0180     0.9200     0.5190 S.3   1 <1>  -0.0800 
  2 C        0.6000    -0.5670    -0.1890 C.2   1 <1>  -0.1400 
  3 C        0.1460     1.7770    -1.0080 C.2   1 <1>  -0.1400 
  4 C        0.8960    -0.3760    -1.4890 C.2   1 <1>  -0.1500 
  5 C        0.7270    -1.7850     0.7070 C.3   1 <1>   0.5230 
  6 C        0.6330     0.9520    -1.9550 C.2   1 <1>  -0.1500 
  7 C       -0.2560     3.2410    -1.0460 C.3   1 <1>   0.5230 
  8 N       -0.4950    -2.6290     0.5670 N.4   1 <1>  -0.9590 
  9 N        0.6550     4.0180    -0.1650 N.4   1 <1>  -0.9590 
 10 C       -0.3190    -4.0320     1.0760 C.3   1 <1>   0.3430 
 11 C       -1.7260    -1.9420     1.0620 C.3   1 <1>   0.3430 
 12 C        0.1540     5.4060     0.0470 C.3   1 <1>   0.3430 
 13 C        2.0590     4.0020    -0.6730 C.3   1 <1>   0.3430 
 14 C       -1.5540    -4.9680     0.8420 C.3   1 <1>   0.4230 
 15 C       -2.9380    -2.8880     1.1290 C.3   1 <1>  -0.1600 
 16 C        1.0370     6.1180     1.0740 C.3   1 <1>  -0.1600 
 17 C        2.9790     4.6880     0.3380 C.3   1 <1>  -0.1600 
 18 N       -1.3010    -6.2860     0.1130 N.4   1 <1>  -0.9590 
 19 C       -2.8230    -4.2200     0.3370 C.3   1 <1>   0.0000 
 20 C        2.5130     6.1150     0.6550 C.3   1 <1>  -0.1600 
 21 C       -2.5690    -7.0120    -0.2520 C.3   1 <1>   0.3430 
 22 C       -0.4240    -6.1980    -1.1040 C.3   1 <1>   0.2630 
 23 C       -4.0420    -5.1160     0.6950 C.3   1 <1>  -0.1600 
 24 C       -2.8970    -3.9390    -1.1990 C.3   1 <1>   0.1200 
 25 C       -3.7260    -6.6310     0.6800 C.3   1 <1>  -0.1600 
 26 O       -1.7200    -3.4210    -1.7300 O.3   1 <1>  -0.6800 
 27 H        1.3000    -1.1110    -2.1670 H     1 <1>   0.1500 
 28 H        0.8670    -1.4800     1.7320 H     1 <1>   0.0800 
 29 H        1.5930    -2.3480     0.3980 H     1 <1>   0.0800 
 30 H        0.8300     1.2110    -2.9830 H     1 <1>   0.1500 
 31 H       -1.2740     3.3370    -0.7040 H     1 <1>   0.0800 
 32 H       -0.1990     3.6110    -2.0560 H     1 <1>   0.0800 
 33 H       -0.6650    -2.7170    -0.4570 H     1 <1>   0.4500 
 34 H        0.6640     3.5460     0.7470 H     1 <1>   0.4500 
 35 H        0.5490    -4.4730     0.6180 H     1 <1>   0.0800 
 36 H       -0.1390    -3.9850     2.1380 H     1 <1>   0.0800 
 37 H       -1.5500    -1.5220     2.0400 H     1 <1>   0.0800 
 38 H       -1.9600    -1.1260     0.3950 H     1 <1>   0.0800 
 39 H        0.1780     5.9510    -0.8840 H     1 <1>   0.0800 
 40 H       -0.8630     5.3860     0.4040 H     1 <1>   0.0800 
 41 H        2.3910     2.9860    -0.8240 H     1 <1>   0.0800 
 42 H        2.1140     4.5200    -1.6170 H     1 <1>   0.0800 
 43 H       -1.8210    -5.2630     1.8440 H     1 <1>   0.0800 
 44 H       -3.0970    -3.1060     2.1710 H     1 <1>   0.0800 
 45 H       -3.8110    -2.3430     0.8090 H     1 <1>   0.0800 
 46 H        0.7010     7.1360     1.1810 H     1 <1>   0.0800 
 47 H        0.9260     5.6430     2.0330 H     1 <1>   0.0800 
 48 H        3.0150     4.1040     1.2420 H     1 <1>   0.0800 
 49 H        3.9780     4.7210    -0.0610 H     1 <1>   0.0800 
 50 H       -0.8210    -6.9090     0.7820 H     1 <1>   0.4500 
 51 H        3.1180     6.5310     1.4440 H     1 <1>   0.0800 
 52 H        2.6410     6.7360    -0.2160 H     1 <1>   0.0800 
 53 H       -2.8510    -6.7670    -1.2630 H     1 <1>   0.0800 
 54 H       -2.4070    -8.0780    -0.2110 H     1 <1>   0.0800 
 55 H       -0.8950    -5.6050    -1.8690 H     1 <1>   0.0800 
 56 H       -0.2470    -7.1840    -1.5050 H     1 <1>   0.0800 
 57 H        0.5290    -5.7590    -0.8620 H     1 <1>   0.0800 
 58 H       -4.4160    -4.8820     1.6790 H     1 <1>   0.0800 
 59 H       -4.8570    -4.9160     0.0180 H     1 <1>   0.0800 
 60 H       -3.6870    -3.2330    -1.4050 H     1 <1>   0.0800 
 61 H       -3.1230    -4.8370    -1.7480 H     1 <1>   0.0800 
 62 H       -4.6090    -7.1700     0.3780 H     1 <1>   0.0800 
 63 H       -3.4910    -6.9660     1.6750 H     1 <1>   0.0800 
 64 H       -1.8700    -3.1690    -2.6730 H     1 <1>   0.4000 
@<TRIPOS>BOND
  1   1   2  1   
  2   1   3  1   
  3   2   4  2   
  4   2   5  1   
  5   3   6  2   
  6   3   7  1   
  7   4   6  1   
  8   4  27  1   
  9   5   8  1   
 10   5  28  1   
 11   5  29  1   
 12   6  30  1   
 13   7   9  1   
 14   7  31  1   
 15   7  32  1   
 16   8  10  1   
 17   8  11  1   
 18   8  33  1   
 19   9  12  1   
 20   9  13  1   
 21   9  34  1   
 22  10  14  1   
 23  10  35  1   
 24  10  36  1   
 25  11  15  1   
 26  11  37  1   
 27  11  38  1   
 28  12  16  1   
 29  12  39  1   
 30  12  40  1   
 31  13  17  1   
 32  13  41  1   
 33  13  42  1   
 34  14  18  1   
 35  14  19  1   
 36  14  43  1   
 37  15  19  1   
 38  15  44  1   
 39  15  45  1   
 40  16  20  1   
 41  16  46  1   
 42  16  47  1   
 43  17  20  1   
 44  17  48  1   
 45  17  49  1   
 46  18  21  1   
 47  18  22  1   
 48  18  50  1   
 49  19  23  1   
 50  19  24  1   
 51  20  51  1   
 52  20  52  1   
 53  21  25  1   
 54  21  53  1   
 55  21  54  1   
 56  22  55  1   
 57  22  56  1   
 58  22  57  1   
 59  23  25  1   
 60  23  58  1   
 61  23  59  1   
 62  24  26  1   
 63  24  60  1   
 64  24  61  1   
 65  25  62  1   
 66  25  63  1   
 67  26  64  1   
@<TRIPOS>SUBSTRUCTURE
  1 ****   2 GROUP 4 **** **** 0

# MOE 2024.06 (io_trps.svl 2023.06)
