@<TRIPOS>MOLECULE
NONAME
39 41 1 0 0 
SMALL
USER_CHARGES


@<TRIPOS>ATOM
  1 CL       1.1730     0.4710    -1.0140 Cl    1 <1>  -0.1770 
  2 C        2.2290    -0.4530     0.0330 C.ar  1 <1>   0.1770 
  3 C        2.9880     0.2220     0.9860 C.ar  1 <1>   0.0860 
  4 C        2.2820    -1.8340    -0.1200 C.ar  1 <1>  -0.1440 
  5 C        3.8140    -0.5660     1.7790 C.ar  1 <1>   0.1900 
  6 C        2.9290     1.6510     1.1420 C.2   1 <1>   0.5440 
  7 C        3.1200    -2.5760     0.7010 C.ar  1 <1>  -0.1500 
  8 C        1.4360    -2.5420    -1.1700 C.3   1 <1>  -0.0970 
  9 F        4.5680     0.0050     2.6770 F     1 <1>  -0.1900 
 10 C        3.8930    -1.9400     1.6570 C.ar  1 <1>  -0.1500 
 11 O        2.3060     2.1430     2.0630 O.2   1 <1>  -0.5700 
 12 N        3.5690     2.4750     0.2590 N.am  1 <1>  -0.5100 
 13 C        4.0930     3.8330     0.6080 C.3   1 <1>   0.2250 
 14 C        4.8470     2.1670    -0.4600 C.3   1 <1>   0.2250 
 15 C        5.0730     3.6910    -0.5720 C.3   1 <1>   0.0850 
 16 N        6.4410     4.1290    -0.2270 N.pl3 1 <1>   0.4850 
 17 N        7.4970     3.2870    -0.2370 N.2   1 <1>  -0.7070 
 18 C        6.8350     5.3900     0.0830 C.2   1 <1>  -0.3320 
 19 C        8.5170     4.0180     0.0760 C.2   1 <1>   0.1080 
 20 C        8.1680     5.3450     0.2880 C.2   1 <1>  -0.1500 
 21 C        5.9230     6.6050     0.1650 C.3   1 <1>  -0.0600 
 22 C        9.9140     3.4530     0.1850 C.3   1 <1>  -0.0590 
 23 H        3.1760    -3.6480     0.6020 H     1 <1>   0.1500 
 24 H        1.6870    -2.1810    -2.1510 H     1 <1>   0.0800 
 25 H        0.3920    -2.3550    -0.9890 H     1 <1>   0.0800 
 26 H        1.5970    -3.6050    -1.1480 H     1 <1>   0.0800 
 27 H        4.5500    -2.4990     2.3000 H     1 <1>   0.1500 
 28 H        4.5590     3.8340     1.5790 H     1 <1>   0.0000 
 29 H        3.3470     4.5940     0.4650 H     1 <1>   0.0000 
 30 H        4.6610     1.6840    -1.4020 H     1 <1>   0.0000 
 31 H        5.5270     1.6410     0.1880 H     1 <1>   0.0000 
 32 H        4.7140     4.1210    -1.4910 H     1 <1>   0.0000 
 33 H        8.8400     6.1410     0.5540 H     1 <1>   0.1500 
 34 H        5.3870     6.7340    -0.7580 H     1 <1>   0.0800 
 35 H        6.5050     7.4910     0.3470 H     1 <1>   0.0800 
 36 H        5.2180     6.4930     0.9700 H     1 <1>   0.0800 
 37 H       10.2050     3.0310    -0.7590 H     1 <1>   0.0800 
 38 H        9.9310     2.6810     0.9320 H     1 <1>   0.0800 
 39 H       10.6120     4.2230     0.4570 H     1 <1>   0.0800 
@<TRIPOS>BOND
  1   1   2  1   
  2   2   3  ar  
  3   2   4  ar  
  4   3   5  ar  
  5   3   6  1   
  6   4   7  ar  
  7   4   8  1   
  8   5   9  1   
  9   5  10  ar  
 10   6  11  2   
 11   6  12  am  
 12   7  10  ar  
 13   7  23  1   
 14   8  24  1   
 15   8  25  1   
 16   8  26  1   
 17  10  27  1   
 18  12  13  1   
 19  12  14  1   
 20  13  15  1   
 21  13  28  1   
 22  13  29  1   
 23  14  15  1   
 24  14  30  1   
 25  14  31  1   
 26  15  16  1   
 27  15  32  1   
 28  16  17  1   
 29  16  18  1   
 30  17  19  2   
 31  18  20  2   
 32  18  21  1   
 33  19  20  1   
 34  19  22  1   
 35  20  33  1   
 36  21  34  1   
 37  21  35  1   
 38  21  36  1   
 39  22  37  1   
 40  22  38  1   
 41  22  39  1   
@<TRIPOS>SUBSTRUCTURE
  1 ****  14 GROUP 4 **** **** 0

# MOE 2024.06 (io_trps.svl 2023.06)
