@<TRIPOS>MOLECULE
NONAME
53 56 1 0 0 
SMALL
USER_CHARGES


@<TRIPOS>ATOM
  1 O        0.0840     0.4720     1.4940 O.3   1 <1>  -0.6800 
  2 C        0.9920    -0.3380     0.8240 C.3   1 <1>   0.2000 
  3 C        1.2750    -1.5450     1.7240 C.3   1 <1>  -0.0800 
  4 C        2.3140     0.4350     0.7300 C.3   1 <1>   0.3430 
  5 C        2.3990    -1.0320     2.6230 C.3   1 <1>   0.3430 
  6 C        1.6450    -2.8360     0.9540 C.3   1 <1>  -0.0170 
  7 N        3.2260    -0.1440     1.7660 N.4   1 <1>  -0.9590 
  8 C        3.0650    -2.8900     0.4030 C.ar  1 <1>   0.1670 
  9 C        3.9970     0.8700     2.5180 C.3   1 <1>   0.5240 
 10 N        3.3670    -2.0780    -0.5630 N.ar  1 <1>  -0.6200 
 11 C        3.9780    -3.8020     0.9590 C.ar  1 <1>  -0.1500 
 12 C        4.8680     1.6340     1.5500 C.2   1 <1>  -0.1810 
 13 C        4.6140    -2.1580    -1.0990 C.ar  1 <1>   0.3100 
 14 C        5.2470    -3.8740     0.4720 C.ar  1 <1>  -0.1500 
 15 C        4.5900     2.8970     1.0410 C.2   1 <1>   0.1390 
 16 C        6.0560     1.2980     1.0010 C.2   1 <1>  -0.3020 
 17 C        5.6000    -3.0360    -0.5980 C.ar  1 <1>   0.0000 
 18 C        4.9390    -1.3420    -2.1940 C.ar  1 <1>  -0.1500 
 19 N        5.5170     3.3120     0.2410 N.2   1 <1>  -0.7070 
 20 N        6.4390     2.3310     0.2180 N.pl3 1 <1>   0.3140 
 21 C        6.8740    -3.0490    -1.1980 C.ar  1 <1>  -0.1500 
 22 C        6.1800    -1.3820    -2.7730 C.ar  1 <1>  -0.1500 
 23 C        7.7090     2.4750    -0.5490 C.3   1 <1>   0.1760 
 24 C        7.1590    -2.2420    -2.2650 C.ar  1 <1>  -0.1500 
 25 C        7.8330     1.3810    -1.6160 C.3   1 <1>  -0.2400 
 26 C        8.9190     2.4580     0.3960 C.3   1 <1>  -0.2400 
 27 H       -0.8350     0.1530     1.3690 H     1 <1>   0.4000 
 28 H        0.5900    -0.5860    -0.1450 H     1 <1>   0.0800 
 29 H        0.4080    -1.7720     2.3210 H     1 <1>   0.0800 
 30 H        2.1350     1.4830     0.8990 H     1 <1>   0.0800 
 31 H        2.7510     0.3040    -0.2470 H     1 <1>   0.0800 
 32 H        2.9810    -1.8380     3.0400 H     1 <1>   0.0800 
 33 H        1.9630    -0.4530     3.4220 H     1 <1>   0.0800 
 34 H        0.9580    -2.9750     0.1370 H     1 <1>   0.0800 
 35 H        1.5020    -3.6740     1.6130 H     1 <1>   0.0800 
 36 H        3.8860    -0.7300     1.2260 H     1 <1>   0.4500 
 37 H        3.3300     1.5470     3.0250 H     1 <1>   0.0800 
 38 H        4.6230     0.3870     3.2500 H     1 <1>   0.0800 
 39 H        3.6700    -4.4480     1.7620 H     1 <1>   0.1500 
 40 H        5.9740    -4.5610     0.8710 H     1 <1>   0.1500 
 41 H        3.7160     3.4850     1.2700 H     1 <1>   0.1500 
 42 H        6.6550     0.4120     1.1170 H     1 <1>   0.1500 
 43 H        4.1780    -0.6870    -2.5770 H     1 <1>   0.1500 
 44 H        7.6220    -3.7170    -0.8080 H     1 <1>   0.1500 
 45 H        6.4150    -0.7600    -3.6200 H     1 <1>   0.1500 
 46 H        7.6730     3.4310    -1.0420 H     1 <1>   0.0800 
 47 H        8.1310    -2.2610    -2.7290 H     1 <1>   0.1500 
 48 H        7.8860     0.4090    -1.1600 H     1 <1>   0.0800 
 49 H        8.7240     1.5350    -2.1990 H     1 <1>   0.0800 
 50 H        6.9860     1.4220    -2.2780 H     1 <1>   0.0800 
 51 H        9.0030     1.5100     0.8960 H     1 <1>   0.0800 
 52 H        8.8210     3.2400     1.1290 H     1 <1>   0.0800 
 53 H        9.8220     2.6310    -0.1620 H     1 <1>   0.0800 
@<TRIPOS>BOND
  1   1   2  1   
  2   1  27  1   
  3   2   3  1   
  4   2   4  1   
  5   2  28  1   
  6   3   5  1   
  7   3   6  1   
  8   3  29  1   
  9   4   7  1   
 10   4  30  1   
 11   4  31  1   
 12   5   7  1   
 13   5  32  1   
 14   5  33  1   
 15   6   8  1   
 16   6  34  1   
 17   6  35  1   
 18   7   9  1   
 19   7  36  1   
 20   8  10  ar  
 21   8  11  ar  
 22   9  12  1   
 23   9  37  1   
 24   9  38  1   
 25  10  13  ar  
 26  11  14  ar  
 27  11  39  1   
 28  12  15  1   
 29  12  16  2   
 30  13  17  ar  
 31  13  18  ar  
 32  14  17  ar  
 33  14  40  1   
 34  15  19  2   
 35  15  41  1   
 36  16  20  1   
 37  16  42  1   
 38  17  21  ar  
 39  18  22  ar  
 40  18  43  1   
 41  19  20  1   
 42  20  23  1   
 43  21  24  ar  
 44  21  44  1   
 45  22  24  ar  
 46  22  45  1   
 47  23  25  1   
 48  23  26  1   
 49  23  46  1   
 50  24  47  1   
 51  25  48  1   
 52  25  49  1   
 53  25  50  1   
 54  26  51  1   
 55  26  52  1   
 56  26  53  1   
@<TRIPOS>SUBSTRUCTURE
  1 ****   7 GROUP 4 **** **** 0

# MOE 2024.06 (io_trps.svl 2023.06)
