@<TRIPOS>MOLECULE
NONAME
46 47 1 0 0 
SMALL
USER_CHARGES


@<TRIPOS>ATOM
  1 O       -0.9410    -0.0170    -2.0990 O.2   1 <1>  -0.5700 
  2 C       -1.8910     0.6820    -1.8320 C.2   1 <1>   0.5690 
  3 N       -3.1670     0.1770    -1.8210 N.am  1 <1>  -0.6600 
  4 C       -1.5860     2.1310    -1.4810 C.3   1 <1>  -0.0990 
  5 C       -3.3900    -1.2990    -1.9410 C.3   1 <1>   0.3210 
  6 C       -4.4210     0.9980    -1.7080 C.3   1 <1>   0.1400 
  7 C       -0.7080     2.2180    -0.2270 C.3   1 <1>  -0.0170 
  8 C       -3.9450    -1.8580    -0.6370 C.2   1 <1>   0.0460 
  9 C       -4.9330     1.1780    -0.2640 C.3   1 <1>   0.1200 
 10 C       -0.5800     3.6600     0.2300 C.ar  1 <1>  -0.1440 
 11 N       -5.2510    -2.1780    -0.5230 N.2   1 <1>  -0.5650 
 12 C       -3.2890    -2.0850     0.5270 C.2   1 <1>  -0.3320 
 13 O       -3.8910     1.1300     0.6500 O.3   1 <1>  -0.6800 
 14 C        0.4910     4.4400    -0.1750 C.ar  1 <1>  -0.1500 
 15 C       -1.5460     4.2090     1.0590 C.ar  1 <1>  -0.1500 
 16 C       -5.3630    -2.5920     0.6970 C.2   1 <1>   0.0360 
 17 N       -4.2060    -2.5600     1.3890 N.pl3 1 <1>   0.0330 
 18 C       -1.8300    -1.8830     0.9010 C.3   1 <1>  -0.0600 
 19 C        0.6050     5.7580     0.2400 C.ar  1 <1>   0.0820 
 20 C       -1.4410     5.5230     1.4790 C.ar  1 <1>  -0.1500 
 21 O        1.6860     6.4480    -0.2050 O.3   1 <1>  -0.3620 
 22 C       -0.3700     6.3000     1.0730 C.ar  1 <1>  -0.1500 
 23 C        1.9040     7.7890     0.1720 C.3   1 <1>   0.0400 
 24 H       -2.4790     2.6930    -1.3020 H     1 <1>   0.0800 
 25 H       -1.0720     2.5850    -2.3070 H     1 <1>   0.0800 
 26 H       -2.4730    -1.8100    -2.1720 H     1 <1>   0.0800 
 27 H       -4.0820    -1.4970    -2.7400 H     1 <1>   0.0800 
 28 H       -5.2010     0.5350    -2.2880 H     1 <1>   0.0800 
 29 H       -4.2630     1.9660    -2.1470 H     1 <1>   0.0800 
 30 H        0.2650     1.8050    -0.4340 H     1 <1>   0.0800 
 31 H       -1.1470     1.6350     0.5630 H     1 <1>   0.0800 
 32 H       -5.6230     0.3910    -0.0160 H     1 <1>   0.0800 
 33 H       -5.4390     2.1210    -0.1550 H     1 <1>   0.0800 
 34 H       -3.4330     0.2710     0.5160 H     1 <1>   0.4000 
 35 H        1.2490     4.0340    -0.8190 H     1 <1>   0.1500 
 36 H       -2.3840     3.6100     1.3780 H     1 <1>   0.1500 
 37 H       -6.2830    -2.9350     1.1380 H     1 <1>   0.1500 
 38 H       -4.0630    -2.8390     2.3640 H     1 <1>   0.2700 
 39 H       -1.2620    -1.5490     0.0510 H     1 <1>   0.0800 
 40 H       -1.4030    -2.8090     1.2450 H     1 <1>   0.0800 
 41 H       -1.7420    -1.1470     1.6790 H     1 <1>   0.0800 
 42 H       -2.1960     5.9400     2.1230 H     1 <1>   0.1500 
 43 H       -0.3130     7.3160     1.4130 H     1 <1>   0.1500 
 44 H        2.8150     8.1210    -0.2910 H     1 <1>   0.0800 
 45 H        1.9980     7.8390     1.2420 H     1 <1>   0.0800 
 46 H        1.0790     8.3860    -0.1730 H     1 <1>   0.0800 
@<TRIPOS>BOND
  1   1   2  2   
  2   2   3  am  
  3   2   4  1   
  4   3   5  1   
  5   3   6  1   
  6   4   7  1   
  7   4  24  1   
  8   4  25  1   
  9   5   8  1   
 10   5  26  1   
 11   5  27  1   
 12   6   9  1   
 13   6  28  1   
 14   6  29  1   
 15   7  10  1   
 16   7  30  1   
 17   7  31  1   
 18   8  11  1   
 19   8  12  2   
 20   9  13  1   
 21   9  32  1   
 22   9  33  1   
 23  10  14  ar  
 24  10  15  ar  
 25  11  16  2   
 26  12  17  1   
 27  12  18  1   
 28  13  34  1   
 29  14  19  ar  
 30  14  35  1   
 31  15  20  ar  
 32  15  36  1   
 33  16  17  1   
 34  16  37  1   
 35  17  38  1   
 36  18  39  1   
 37  18  40  1   
 38  18  41  1   
 39  19  21  1   
 40  19  22  ar  
 41  20  22  ar  
 42  20  42  1   
 43  21  23  1   
 44  22  43  1   
 45  23  44  1   
 46  23  45  1   
 47  23  46  1   
@<TRIPOS>SUBSTRUCTURE
  1 ****   4 GROUP 4 **** **** 0

# MOE 2024.06 (io_trps.svl 2023.06)
