@<TRIPOS>MOLECULE
NONAME
49 52 1 0 0 
SMALL
USER_CHARGES


@<TRIPOS>ATOM
  1 O        0.8880    -0.0760    -1.8480 O.2   1 <1>  -0.5700 
  2 C       -0.0270     0.7080    -1.7450 C.2   1 <1>   0.5690 
  3 N       -1.3230     0.2650    -1.6740 N.am  1 <1>  -0.6600 
  4 C        0.3130     2.1900    -1.6640 C.3   1 <1>   0.0820 
  5 C       -2.5610     1.0840    -1.5970 C.3   1 <1>   0.1400 
  6 C       -1.6170    -1.1030    -1.1790 C.3   1 <1>   0.1400 
  7 C       -0.1860     2.8390    -0.3740 C.2   1 <1>  -0.1810 
  8 C       -3.3420     0.4550    -0.4490 C.3   1 <1>   0.2000 
  9 C       -3.0360    -1.0420    -0.5910 C.3   1 <1>  -0.0800 
 10 C       -0.9030     4.0590    -0.3440 C.ar  1 <1>   0.0000 
 11 C       -0.0780     2.3930     0.9050 C.2   1 <1>  -0.3320 
 12 O       -2.8280     0.9380     0.7470 O.3   1 <1>  -0.6800 
 13 C       -3.2020    -1.8570     0.7060 C.3   1 <1>   0.0200 
 14 C       -1.2270     4.2910     0.9880 C.ar  1 <1>  -0.1520 
 15 C       -1.3130     4.9790    -1.3170 C.ar  1 <1>  -0.1500 
 16 N       -0.7120     3.2700     1.7400 N.pl3 1 <1>   0.0330 
 17 C        0.6060     1.1540     1.4590 C.3   1 <1>  -0.0600 
 18 C       -3.0370    -3.3540     0.4990 C.2   1 <1>  -0.0400 
 19 C       -1.9620     5.4160     1.3690 C.ar  1 <1>  -0.1500 
 20 C       -2.0360     6.0890    -0.9430 C.ar  1 <1>  -0.1500 
 21 O       -3.0490    -4.1350     1.5470 O.3   1 <1>  -0.0190 
 22 C       -2.8730    -4.1310    -0.5840 C.2   1 <1>  -0.1500 
 23 C       -2.3620     6.3070     0.4010 C.ar  1 <1>  -0.1500 
 24 N       -2.8980    -5.3870     1.2250 N.2   1 <1>  -0.4100 
 25 C       -2.7880    -5.4150    -0.0540 C.2   1 <1>   0.1080 
 26 C       -2.5950    -6.6780    -0.8630 C.3   1 <1>  -0.0590 
 27 H        1.3790     2.3100    -1.7190 H     1 <1>   0.0800 
 28 H       -0.1150     2.6750    -2.5190 H     1 <1>   0.0800 
 29 H       -2.3860     2.1300    -1.4340 H     1 <1>   0.0800 
 30 H       -3.1100     0.9640    -2.5150 H     1 <1>   0.0800 
 31 H       -1.5540    -1.8090    -1.9880 H     1 <1>   0.0800 
 32 H       -0.8980    -1.3690    -0.4220 H     1 <1>   0.0800 
 33 H       -4.3950     0.6770    -0.4800 H     1 <1>   0.0800 
 34 H       -3.7100    -1.4380    -1.3290 H     1 <1>   0.0800 
 35 H       -1.9170     1.2840     0.5930 H     1 <1>   0.4000 
 36 H       -4.1800    -1.6760     1.1170 H     1 <1>   0.0800 
 37 H       -2.4800    -1.5350     1.4350 H     1 <1>   0.0800 
 38 H       -1.0580     4.8140    -2.3460 H     1 <1>   0.1500 
 39 H       -0.8030     3.1870     2.7580 H     1 <1>   0.2700 
 40 H        1.1890     0.6620     0.7030 H     1 <1>   0.0800 
 41 H       -0.1240     0.4590     1.8350 H     1 <1>   0.0800 
 42 H        1.2700     1.4270     2.2600 H     1 <1>   0.0800 
 43 H       -2.2060     5.5740     2.4040 H     1 <1>   0.1500 
 44 H       -2.3570     6.8030    -1.6810 H     1 <1>   0.1500 
 45 H       -2.8150    -3.8750    -1.6250 H     1 <1>   0.1500 
 46 H       -2.9290     7.1810     0.6680 H     1 <1>   0.1500 
 47 H       -1.7060    -6.5960    -1.4610 H     1 <1>   0.0800 
 48 H       -3.4430    -6.8340    -1.5030 H     1 <1>   0.0800 
 49 H       -2.4940    -7.5220    -0.2050 H     1 <1>   0.0800 
@<TRIPOS>BOND
  1   1   2  2   
  2   2   3  am  
  3   2   4  1   
  4   3   5  1   
  5   3   6  1   
  6   4   7  1   
  7   4  27  1   
  8   4  28  1   
  9   5   8  1   
 10   5  29  1   
 11   5  30  1   
 12   6   9  1   
 13   6  31  1   
 14   6  32  1   
 15   7  10  1   
 16   7  11  2   
 17   8   9  1   
 18   8  12  1   
 19   8  33  1   
 20   9  13  1   
 21   9  34  1   
 22  10  14  ar  
 23  10  15  ar  
 24  11  16  1   
 25  11  17  1   
 26  12  35  1   
 27  13  18  1   
 28  13  36  1   
 29  13  37  1   
 30  14  16  1   
 31  14  19  ar  
 32  15  20  ar  
 33  15  38  1   
 34  16  39  1   
 35  17  40  1   
 36  17  41  1   
 37  17  42  1   
 38  18  21  1   
 39  18  22  2   
 40  19  23  ar  
 41  19  43  1   
 42  20  23  ar  
 43  20  44  1   
 44  21  24  1   
 45  22  25  1   
 46  22  45  1   
 47  23  46  1   
 48  24  25  2   
 49  25  26  1   
 50  26  47  1   
 51  26  48  1   
 52  26  49  1   
@<TRIPOS>SUBSTRUCTURE
  1 ****  12 GROUP 4 **** **** 0

# MOE 2024.06 (io_trps.svl 2023.06)
