@<TRIPOS>MOLECULE
NONAME
42 44 1 0 0 
SMALL
USER_CHARGES


@<TRIPOS>ATOM
  1 S       -0.0780     0.0930     0.7040 S.3   1 <1>  -0.0800 
  2 C        1.1270    -1.1390     0.5520 C.2   1 <1>   0.1980 
  3 C        1.2050     1.2410     0.5600 C.2   1 <1>   0.1980 
  4 N        2.3010    -0.6710     0.4150 N.2   1 <1>  -0.3380 
  5 C        0.6870    -2.5860     0.5870 C.3   1 <1>   0.0200 
  6 N        2.3460     0.6980     0.4200 N.2   1 <1>  -0.3380 
  7 C        0.8550     2.7110     0.6140 C.3   1 <1>  -0.0600 
  8 C        0.1250    -2.9980    -0.7720 C.3   1 <1>   0.1400 
  9 N       -0.2930    -4.4190    -0.7430 N.am  1 <1>  -0.7300 
 10 C       -1.5260    -4.8740    -0.3910 C.2   1 <1>   0.5690 
 11 O       -2.3770    -4.1090    -0.0040 O.2   1 <1>  -0.5700 
 12 C       -1.8160    -6.3800    -0.4820 C.3   1 <1>   0.2610 
 13 O       -0.5910    -7.0980    -0.6200 O.3   1 <1>  -0.5600 
 14 C       -2.6510    -6.8530     0.7450 C.3   1 <1>   0.3640 
 15 C       -0.7280    -8.4990    -0.7050 C.3   1 <1>   0.1810 
 16 N       -2.3800    -8.2620     1.1260 N.am  1 <1>  -0.7300 
 17 C       -4.1500    -6.7260     0.4760 C.ar  1 <1>  -0.1430 
 18 C       -1.5290    -9.0720     0.4630 C.2   1 <1>   0.5690 
 19 C       -4.8660    -5.6710     1.0230 C.ar  1 <1>  -0.1500 
 20 C       -4.8210    -7.6510    -0.3160 C.ar  1 <1>  -0.1500 
 21 O       -1.4200   -10.2340     0.7620 O.2   1 <1>  -0.5700 
 22 C       -6.2240    -5.5410     0.7870 C.ar  1 <1>  -0.1500 
 23 C       -6.1790    -7.5230    -0.5530 C.ar  1 <1>  -0.1500 
 24 C       -6.8820    -6.4680    -0.0010 C.ar  1 <1>  -0.1500 
 25 H        1.5350    -3.2000     0.8280 H     1 <1>   0.0800 
 26 H       -0.0630    -2.7100     1.3480 H     1 <1>   0.0800 
 27 H        1.7480     3.3000     0.5090 H     1 <1>   0.0800 
 28 H        0.3920     2.9410     1.5560 H     1 <1>   0.0800 
 29 H        0.1790     2.9540    -0.1840 H     1 <1>   0.0800 
 30 H        0.8700    -2.8580    -1.5380 H     1 <1>   0.0800 
 31 H       -0.7260    -2.3820    -1.0130 H     1 <1>   0.0800 
 32 H        0.4100    -5.1250    -0.9910 H     1 <1>   0.3700 
 33 H       -2.3860    -6.5460    -1.3780 H     1 <1>   0.0800 
 34 H       -2.3950    -6.2340     1.5880 H     1 <1>   0.0800 
 35 H       -1.2150    -8.7410    -1.6320 H     1 <1>   0.0800 
 36 H        0.2580    -8.9270    -0.7050 H     1 <1>   0.0800 
 37 H       -2.9670    -8.6640     1.8590 H     1 <1>   0.3700 
 38 H       -4.3700    -4.9340     1.6320 H     1 <1>   0.1500 
 39 H       -4.2950    -8.4820    -0.7530 H     1 <1>   0.1500 
 40 H       -6.7670    -4.7170     1.2160 H     1 <1>   0.1500 
 41 H       -6.6900    -8.2460    -1.1660 H     1 <1>   0.1500 
 42 H       -7.9370    -6.3670    -0.1840 H     1 <1>   0.1500 
@<TRIPOS>BOND
  1   1   2  1   
  2   1   3  1   
  3   2   4  2   
  4   2   5  1   
  5   3   6  2   
  6   3   7  1   
  7   4   6  1   
  8   5   8  1   
  9   5  25  1   
 10   5  26  1   
 11   7  27  1   
 12   7  28  1   
 13   7  29  1   
 14   8   9  1   
 15   8  30  1   
 16   8  31  1   
 17   9  10  am  
 18   9  32  1   
 19  10  11  2   
 20  10  12  1   
 21  12  13  1   
 22  12  14  1   
 23  12  33  1   
 24  13  15  1   
 25  14  16  1   
 26  14  17  1   
 27  14  34  1   
 28  15  18  1   
 29  15  35  1   
 30  15  36  1   
 31  16  18  am  
 32  16  37  1   
 33  17  19  ar  
 34  17  20  ar  
 35  18  21  2   
 36  19  22  ar  
 37  19  38  1   
 38  20  23  ar  
 39  20  39  1   
 40  22  24  ar  
 41  22  40  1   
 42  23  24  ar  
 43  23  41  1   
 44  24  42  1   
@<TRIPOS>SUBSTRUCTURE
  1 ****  10 GROUP 4 **** **** 0

# MOE 2024.06 (io_trps.svl 2023.06)
