@<TRIPOS>MOLECULE
NONAME
58 61 1 0 0 
SMALL
USER_CHARGES


@<TRIPOS>ATOM
  1 F        3.2240     2.0480     3.2190 F     1 <1>  -0.1900 
  2 C        3.2420     2.3650     1.9540 C.ar  1 <1>   0.1900 
  3 C        2.6870     3.5690     1.5660 C.ar  1 <1>  -0.1500 
  4 C        3.8210     1.4910     1.0580 C.ar  1 <1>  -0.1500 
  5 C        2.6980     3.9360     0.2210 C.ar  1 <1>  -0.1440 
  6 C        3.8390     1.8450    -0.2770 C.ar  1 <1>  -0.1500 
  7 C        3.2870     3.0500    -0.6840 C.ar  1 <1>  -0.1500 
  8 C        2.1280     5.2800    -0.2970 C.3   1 <1>   0.1440 
  9 C        1.0820     5.0360    -1.4110 C.3   1 <1>  -0.1600 
 10 C        1.4410     6.1430     0.7940 C.3   1 <1>  -0.1600 
 11 C        3.3090     6.0790    -0.8890 C.3   1 <1>   0.3430 
 12 C       -0.2280     4.4940    -0.8360 C.3   1 <1>   0.1200 
 13 C        0.0780     5.5740     1.2170 C.3   1 <1>   0.1200 
 14 N        4.4490     6.1650     0.0770 N.4   1 <1>  -0.9060 
 15 O       -0.7070     5.4210     0.0820 O.3   1 <1>  -0.5600 
 16 C        5.7000     6.7290    -0.4660 C.3   1 <1>   0.4230 
 17 C        6.7910     6.5160     0.5850 C.3   1 <1>  -0.1600 
 18 C        5.5010     8.2140    -0.8090 C.3   1 <1>  -0.1600 
 19 C        8.0870     7.2180     0.1840 C.3   1 <1>   0.1400 
 20 C        6.8260     8.8860    -1.1810 C.3   1 <1>   0.1400 
 21 N        7.7850     8.6460    -0.0800 N.am  1 <1>  -0.6600 
 22 C        8.0330     9.5990     0.8850 C.2   1 <1>   0.5440 
 23 O        8.0140     9.2460     2.0490 O.2   1 <1>  -0.5700 
 24 C        8.2700    10.9920     0.5520 C.ar  1 <1>   0.0860 
 25 C        7.8740    12.0280     1.3860 C.ar  1 <1>  -0.1500 
 26 C        8.9150    11.3970    -0.6090 C.ar  1 <1>  -0.1500 
 27 C        8.1070    13.3430     1.0310 C.ar  1 <1>   0.1600 
 28 C        9.1010    12.7400    -0.8750 C.ar  1 <1>   0.1600 
 29 N        8.7050    13.7230    -0.0850 N.ar  1 <1>  -0.6200 
 30 H        2.2620     4.1750     2.3430 H     1 <1>   0.1500 
 31 H        4.2390     0.5600     1.4000 H     1 <1>   0.1500 
 32 H        4.2790     1.1770    -0.9990 H     1 <1>   0.1500 
 33 H        3.3260     3.2730    -1.7360 H     1 <1>   0.1500 
 34 H        1.4400     4.3520    -2.1570 H     1 <1>   0.0800 
 35 H        0.8530     5.9600    -1.9140 H     1 <1>   0.0800 
 36 H        1.2550     7.1310     0.4080 H     1 <1>   0.0800 
 37 H        2.0640     6.2620     1.6600 H     1 <1>   0.0800 
 38 H        2.9740     7.0670    -1.1610 H     1 <1>   0.0800 
 39 H        3.6420     5.5810    -1.7850 H     1 <1>   0.0800 
 40 H       -0.0950     3.5450    -0.3440 H     1 <1>   0.0800 
 41 H       -0.9690     4.3870    -1.6100 H     1 <1>   0.0800 
 42 H       -0.4320     6.2580     1.8750 H     1 <1>   0.0800 
 43 H        0.1580     4.6190     1.7060 H     1 <1>   0.0800 
 44 H        4.6310     5.2100     0.4200 H     1 <1>   0.4500 
 45 H        4.1750     6.7110     0.9020 H     1 <1>   0.4500 
 46 H        5.9830     6.1990    -1.3620 H     1 <1>   0.0800 
 47 H        6.9940     5.4670     0.7050 H     1 <1>   0.0800 
 48 H        6.4850     6.9160     1.5370 H     1 <1>   0.0800 
 49 H        5.0890     8.7390     0.0360 H     1 <1>   0.0800 
 50 H        4.8280     8.3210    -1.6400 H     1 <1>   0.0800 
 51 H        8.5100     6.7720    -0.7010 H     1 <1>   0.0800 
 52 H        8.8140     7.1350     0.9770 H     1 <1>   0.0800 
 53 H        6.6690     9.9430    -1.3230 H     1 <1>   0.0800 
 54 H        7.2220     8.4780    -2.0960 H     1 <1>   0.0800 
 55 H        7.3860    11.8030     2.3180 H     1 <1>   0.1500 
 56 H        9.2790    10.6630    -1.3040 H     1 <1>   0.1500 
 57 H        7.7850    14.1240     1.6990 H     1 <1>   0.1500 
 58 H        9.6030    13.0250    -1.7850 H     1 <1>   0.1500 
@<TRIPOS>BOND
  1   1   2  1   
  2   2   3  ar  
  3   2   4  ar  
  4   3   5  ar  
  5   3  30  1   
  6   4   6  ar  
  7   4  31  1   
  8   5   7  ar  
  9   5   8  1   
 10   6   7  ar  
 11   6  32  1   
 12   7  33  1   
 13   8   9  1   
 14   8  10  1   
 15   8  11  1   
 16   9  12  1   
 17   9  34  1   
 18   9  35  1   
 19  10  13  1   
 20  10  36  1   
 21  10  37  1   
 22  11  14  1   
 23  11  38  1   
 24  11  39  1   
 25  12  15  1   
 26  12  40  1   
 27  12  41  1   
 28  13  15  1   
 29  13  42  1   
 30  13  43  1   
 31  14  16  1   
 32  14  44  1   
 33  14  45  1   
 34  16  17  1   
 35  16  18  1   
 36  16  46  1   
 37  17  19  1   
 38  17  47  1   
 39  17  48  1   
 40  18  20  1   
 41  18  49  1   
 42  18  50  1   
 43  19  21  1   
 44  19  51  1   
 45  19  52  1   
 46  20  21  1   
 47  20  53  1   
 48  20  54  1   
 49  21  22  am  
 50  22  23  2   
 51  22  24  1   
 52  24  25  ar  
 53  24  26  ar  
 54  25  27  ar  
 55  25  55  1   
 56  26  28  ar  
 57  26  56  1   
 58  27  29  ar  
 59  27  57  1   
 60  28  29  ar  
 61  28  58  1   
@<TRIPOS>SUBSTRUCTURE
  1 ****  14 GROUP 4 **** **** 0

# MOE 2024.06 (io_trps.svl 2023.06)
