@<TRIPOS>MOLECULE
NONAME
45 47 1 0 0 
SMALL
USER_CHARGES


@<TRIPOS>ATOM
  1 S       -0.3480    -0.7380    -1.0830 S.3   1 <1>  -0.3320 
  2 C       -1.7950    -1.2310    -0.1340 C.ar  1 <1>   0.1020 
  3 C       -0.3060     1.1090    -1.0680 C.3   1 <1>  -0.0100 
  4 C       -1.9940    -2.5900     0.0270 C.ar  1 <1>  -0.1500 
  5 C       -2.6780    -0.3130     0.4090 C.ar  1 <1>  -0.1500 
  6 C       -3.0960    -3.0480     0.7340 C.ar  1 <1>  -0.1430 
  7 C       -3.7720    -0.7700     1.1230 C.ar  1 <1>  -0.1500 
  8 C       -3.9810    -2.1300     1.2860 C.ar  1 <1>  -0.1500 
  9 C       -3.3350    -4.5360     0.8960 C.3   1 <1>   0.4860 
 10 N       -3.7320    -5.0950    -0.4250 N.4   1 <1>  -0.9590 
 11 C       -5.0770    -4.5760    -0.8380 C.3   1 <1>   0.3430 
 12 C       -3.8440    -6.5850    -0.3610 C.3   1 <1>   0.3430 
 13 C       -6.0770    -5.6680    -0.4520 C.3   1 <1>   0.2000 
 14 C       -5.2840    -6.9400    -0.7470 C.3   1 <1>  -0.0800 
 15 O       -6.3270    -5.5740     0.9150 O.3   1 <1>  -0.6800 
 16 C       -5.7860    -8.2400    -0.0860 C.3   1 <1>   0.0200 
 17 C       -4.7810    -9.3560    -0.2990 C.2   1 <1>  -0.0400 
 18 O       -4.2800    -9.5600    -1.4870 O.3   1 <1>  -0.0190 
 19 C       -4.2290   -10.2450     0.5410 C.2   1 <1>  -0.1500 
 20 N       -3.4100   -10.5240    -1.4860 N.2   1 <1>  -0.4100 
 21 C       -3.3640   -10.9650    -0.2800 C.2   1 <1>   0.1080 
 22 C       -2.4880   -12.1120     0.1740 C.3   1 <1>  -0.0590 
 23 H        0.5690     1.4180    -1.6120 H     1 <1>   0.0800 
 24 H       -0.2500     1.4330    -0.0440 H     1 <1>   0.0800 
 25 H       -1.1980     1.4680    -1.5480 H     1 <1>   0.0800 
 26 H       -1.2760    -3.2650    -0.4030 H     1 <1>   0.1500 
 27 H       -2.5290     0.7430     0.2890 H     1 <1>   0.1500 
 28 H       -4.4610    -0.0630     1.5550 H     1 <1>   0.1500 
 29 H       -4.8390    -2.4610     1.8480 H     1 <1>   0.1500 
 30 H       -4.1130    -4.7100     1.6220 H     1 <1>   0.0800 
 31 H       -2.4290    -5.0050     1.2430 H     1 <1>   0.0800 
 32 H       -3.0250    -4.7990    -1.1110 H     1 <1>   0.4500 
 33 H       -5.3200    -3.6370    -0.3680 H     1 <1>   0.0800 
 34 H       -5.0950    -4.4460    -1.9070 H     1 <1>   0.0800 
 35 H       -3.1450    -7.0640    -1.0290 H     1 <1>   0.0800 
 36 H       -3.6510    -6.9260     0.6440 H     1 <1>   0.0800 
 37 H       -7.0070    -5.5900    -0.9910 H     1 <1>   0.0800 
 38 H       -5.2930    -7.0920    -1.8130 H     1 <1>   0.0800 
 39 H       -7.1740    -6.0090     1.1520 H     1 <1>   0.4000 
 40 H       -6.7270    -8.5280    -0.5200 H     1 <1>   0.0800 
 41 H       -5.9290    -8.1110     0.9720 H     1 <1>   0.0800 
 42 H       -4.3830   -10.4000     1.5930 H     1 <1>   0.1500 
 43 H       -1.8470   -11.7920     0.9740 H     1 <1>   0.0800 
 44 H       -1.8790   -12.4550    -0.6430 H     1 <1>   0.0800 
 45 H       -3.1000   -12.9270     0.5140 H     1 <1>   0.0800 
@<TRIPOS>BOND
  1   1   2  1   
  2   1   3  1   
  3   2   4  ar  
  4   2   5  ar  
  5   3  23  1   
  6   3  24  1   
  7   3  25  1   
  8   4   6  ar  
  9   4  26  1   
 10   5   7  ar  
 11   5  27  1   
 12   6   8  ar  
 13   6   9  1   
 14   7   8  ar  
 15   7  28  1   
 16   8  29  1   
 17   9  10  1   
 18   9  30  1   
 19   9  31  1   
 20  10  11  1   
 21  10  12  1   
 22  10  32  1   
 23  11  13  1   
 24  11  33  1   
 25  11  34  1   
 26  12  14  1   
 27  12  35  1   
 28  12  36  1   
 29  13  14  1   
 30  13  15  1   
 31  13  37  1   
 32  14  16  1   
 33  14  38  1   
 34  15  39  1   
 35  16  17  1   
 36  16  40  1   
 37  16  41  1   
 38  17  18  1   
 39  17  19  2   
 40  18  20  1   
 41  19  21  1   
 42  19  42  1   
 43  20  21  2   
 44  21  22  1   
 45  22  43  1   
 46  22  44  1   
 47  22  45  1   
@<TRIPOS>SUBSTRUCTURE
  1 ****  10 GROUP 4 **** **** 0

# MOE 2024.06 (io_trps.svl 2023.06)
