@<TRIPOS>MOLECULE
NONAME
45 46 1 0 0 
SMALL
USER_CHARGES


@<TRIPOS>ATOM
  1 F       -4.2180    -0.0560    -3.1760 F     1 <1>  -0.1900 
  2 C       -4.0260    -0.9250    -2.2220 C.ar  1 <1>   0.1900 
  3 C       -4.4740    -0.6280    -0.9500 C.ar  1 <1>  -0.1500 
  4 C       -3.3810    -2.1100    -2.5190 C.ar  1 <1>  -0.1500 
  5 C       -4.2710    -1.5550     0.0590 C.ar  1 <1>  -0.1500 
  6 C       -3.1820    -3.0300    -1.5030 C.ar  1 <1>  -0.1500 
  7 C       -3.6290    -2.7590    -0.2130 C.ar  1 <1>  -0.1430 
  8 C       -3.4290    -3.7730     0.8990 C.3   1 <1>   0.4870 
  9 N       -4.2140    -4.9990     0.5990 N.4   1 <1>  -0.9590 
 10 C       -5.6720    -4.7300     0.3820 C.3   1 <1>   0.4860 
 11 C       -4.0240    -6.1010     1.5910 C.3   1 <1>   0.3430 
 12 C       -6.2480    -5.8310    -0.5060 C.ar  1 <1>   0.1670 
 13 C       -2.6520    -6.7750     1.4590 C.3   1 <1>   0.1200 
 14 N       -5.4360    -6.3030    -1.4530 N.ar  1 <1>  -0.6200 
 15 C       -7.5470    -6.2640    -0.2650 C.ar  1 <1>   0.0830 
 16 O       -2.4990    -7.6300     2.5350 O.3   1 <1>  -0.6800 
 17 C       -5.9570    -7.2500    -2.2160 C.ar  1 <1>   0.1600 
 18 O       -8.1950    -5.6400     0.7690 O.3   1 <1>  -0.3630 
 19 C       -8.0660    -7.2780    -1.0790 C.ar  1 <1>   0.0830 
 20 C       -7.2320    -7.7610    -2.0750 C.ar  1 <1>  -0.1500 
 21 C       -9.5740    -5.8010     1.0340 C.3   1 <1>   0.0400 
 22 O       -9.3200    -7.7680    -0.8960 O.3   1 <1>  -0.3630 
 23 C       -9.8680    -8.7900    -1.7020 C.3   1 <1>   0.0400 
 24 H       -4.9670     0.3090    -0.7620 H     1 <1>   0.1500 
 25 H       -3.0460    -2.3000    -3.5230 H     1 <1>   0.1500 
 26 H       -4.6170    -1.3210     1.0520 H     1 <1>   0.1500 
 27 H       -2.6760    -3.9520    -1.7370 H     1 <1>   0.1500 
 28 H       -3.7480    -3.3510     1.8390 H     1 <1>   0.0800 
 29 H       -2.3810    -4.0120     0.9730 H     1 <1>   0.0800 
 30 H       -3.9450    -5.3590    -0.3330 H     1 <1>   0.4500 
 31 H       -5.8080    -3.7930    -0.1330 H     1 <1>   0.0800 
 32 H       -6.1950    -4.6840     1.3220 H     1 <1>   0.0800 
 33 H       -4.7780    -6.8570     1.4400 H     1 <1>   0.0800 
 34 H       -4.1310    -5.7130     2.5910 H     1 <1>   0.0800 
 35 H       -1.8500    -6.0600     1.4940 H     1 <1>   0.0800 
 36 H       -2.5990    -7.3580     0.5550 H     1 <1>   0.0800 
 37 H       -1.6700    -8.1520     2.4720 H     1 <1>   0.4000 
 38 H       -5.3330    -7.6450    -3.0020 H     1 <1>   0.1500 
 39 H       -7.5460    -8.5320    -2.7510 H     1 <1>   0.1500 
 40 H       -9.8520    -5.1160     1.8150 H     1 <1>   0.0800 
 41 H       -9.7530    -6.8110     1.3590 H     1 <1>   0.0800 
 42 H      -10.1320    -5.5820     0.1410 H     1 <1>   0.0800 
 43 H      -10.8650    -8.9920    -1.3540 H     1 <1>   0.0800 
 44 H       -9.2640    -9.6750    -1.6070 H     1 <1>   0.0800 
 45 H       -9.9010    -8.4520    -2.7230 H     1 <1>   0.0800 
@<TRIPOS>BOND
  1   1   2  1   
  2   2   3  ar  
  3   2   4  ar  
  4   3   5  ar  
  5   3  24  1   
  6   4   6  ar  
  7   4  25  1   
  8   5   7  ar  
  9   5  26  1   
 10   6   7  ar  
 11   6  27  1   
 12   7   8  1   
 13   8   9  1   
 14   8  28  1   
 15   8  29  1   
 16   9  10  1   
 17   9  11  1   
 18   9  30  1   
 19  10  12  1   
 20  10  31  1   
 21  10  32  1   
 22  11  13  1   
 23  11  33  1   
 24  11  34  1   
 25  12  14  ar  
 26  12  15  ar  
 27  13  16  1   
 28  13  35  1   
 29  13  36  1   
 30  14  17  ar  
 31  15  18  1   
 32  15  19  ar  
 33  16  37  1   
 34  17  20  ar  
 35  17  38  1   
 36  18  21  1   
 37  19  20  ar  
 38  19  22  1   
 39  20  39  1   
 40  21  40  1   
 41  21  41  1   
 42  21  42  1   
 43  22  23  1   
 44  23  43  1   
 45  23  44  1   
 46  23  45  1   
@<TRIPOS>SUBSTRUCTURE
  1 ****  10 GROUP 4 **** **** 0

# MOE 2024.06 (io_trps.svl 2023.06)
