@<TRIPOS>MOLECULE
NONAME
59 61 1 0 0 
SMALL
USER_CHARGES


@<TRIPOS>ATOM
  1 O        0.0630     2.6020    -1.7240 O.3   1 <1>  -0.3630 
  2 C        1.2510     2.4060    -1.0960 C.ar  1 <1>   0.0830 
  3 C       -0.4910     3.8950    -1.8670 C.3   1 <1>   0.0400 
  4 C        1.8660     1.1860    -1.2420 C.ar  1 <1>  -0.1440 
  5 C        1.8480     3.3990    -0.2990 C.ar  1 <1>  -0.1500 
  6 C        3.0980     0.9020    -0.6040 C.ar  1 <1>   0.0000 
  7 C        1.1980     0.1310    -2.1000 C.3   1 <1>   0.4870 
  8 C        3.0320     3.1450     0.3320 C.ar  1 <1>  -0.1500 
  9 C        3.6820     1.9030     0.2050 C.ar  1 <1>   0.0000 
 10 C        3.7840    -0.3290    -0.7210 C.ar  1 <1>  -0.1500 
 11 N        0.5780    -0.8890    -1.2160 N.4   1 <1>  -0.9590 
 12 C        4.8980     1.6340     0.8640 C.ar  1 <1>  -0.1500 
 13 C        4.9610    -0.5730    -0.0690 C.ar  1 <1>   0.0830 
 14 C        0.0950    -2.0830    -1.9610 C.3   1 <1>   0.3430 
 15 C       -0.4900    -0.3230    -0.3500 C.3   1 <1>   0.3430 
 16 C        5.5280     0.4290     0.7380 C.ar  1 <1>  -0.1500 
 17 O        5.5230    -1.7930    -0.2450 O.3   1 <1>  -0.3630 
 18 C       -0.2340    -3.1960    -0.9560 C.3   1 <1>   0.2000 
 19 C       -0.9340    -1.3690     0.6830 C.3   1 <1>  -0.1600 
 20 C        6.7270    -2.1540     0.3960 C.3   1 <1>   0.0400 
 21 O        0.9690    -3.5050    -0.3230 O.3   1 <1>  -0.6800 
 22 C       -1.2900    -2.7720     0.1130 C.3   1 <1>   0.0000 
 23 C       -1.2500    -3.7710     1.3050 C.3   1 <1>   0.1200 
 24 C       -2.7440    -2.8210    -0.4560 C.3   1 <1>  -0.1600 
 25 O       -1.3360    -5.0810     0.8500 O.3   1 <1>  -0.6800 
 26 C       -3.2350    -1.6920    -1.3800 C.3   1 <1>  -0.1600 
 27 C       -4.6720    -1.9620    -1.8350 C.3   1 <1>  -0.2400 
 28 H       -1.3580     3.8240    -2.5000 H     1 <1>   0.0800 
 29 H        0.2390     4.5420    -2.3230 H     1 <1>   0.0800 
 30 H       -0.7790     4.2650    -0.8990 H     1 <1>   0.0800 
 31 H        1.3830     4.3590    -0.1730 H     1 <1>   0.1500 
 32 H        1.9350    -0.3260    -2.7390 H     1 <1>   0.0800 
 33 H        0.4450     0.5840    -2.7240 H     1 <1>   0.0800 
 34 H        3.4920     3.9020     0.9440 H     1 <1>   0.1500 
 35 H        3.3980    -1.1170    -1.3370 H     1 <1>   0.1500 
 36 H        1.3140    -1.2500    -0.5850 H     1 <1>   0.4500 
 37 H        5.3290     2.4060     1.4770 H     1 <1>   0.1500 
 38 H       -0.7650    -1.8360    -2.5530 H     1 <1>   0.0800 
 39 H        0.8640    -2.4430    -2.6230 H     1 <1>   0.0800 
 40 H       -0.1200     0.5470     0.1700 H     1 <1>   0.0800 
 41 H       -1.3220    -0.0130    -0.9580 H     1 <1>   0.0800 
 42 H        6.4530     0.2570     1.2560 H     1 <1>   0.1500 
 43 H       -0.5570    -4.0800    -1.4810 H     1 <1>   0.0800 
 44 H       -0.1220    -1.4660     1.3830 H     1 <1>   0.0800 
 45 H       -1.7680    -0.9780     1.2380 H     1 <1>   0.0800 
 46 H        6.9670    -3.1630     0.1110 H     1 <1>   0.0800 
 47 H        6.5870    -2.0990     1.4610 H     1 <1>   0.0800 
 48 H        7.5090    -1.4890     0.0730 H     1 <1>   0.0800 
 49 H        0.8370    -4.3230     0.2110 H     1 <1>   0.4000 
 50 H       -2.0540    -3.5980     2.0010 H     1 <1>   0.0800 
 51 H       -0.3230    -3.6860     1.8480 H     1 <1>   0.0800 
 52 H       -2.8750    -3.7580    -0.9720 H     1 <1>   0.0800 
 53 H       -3.4270    -2.8420     0.3770 H     1 <1>   0.0800 
 54 H       -2.2700    -5.3600     0.7580 H     1 <1>   0.4000 
 55 H       -3.2310    -0.7520    -0.8560 H     1 <1>   0.0800 
 56 H       -2.6280    -1.6060    -2.2580 H     1 <1>   0.0800 
 57 H       -5.3350    -2.0240    -0.9890 H     1 <1>   0.0800 
 58 H       -4.7320    -2.8840    -2.3860 H     1 <1>   0.0800 
 59 H       -5.0150    -1.1650    -2.4720 H     1 <1>   0.0800 
@<TRIPOS>BOND
  1   1   2  1   
  2   1   3  1   
  3   2   4  ar  
  4   2   5  ar  
  5   3  28  1   
  6   3  29  1   
  7   3  30  1   
  8   4   6  ar  
  9   4   7  1   
 10   5   8  ar  
 11   5  31  1   
 12   6   9  ar  
 13   6  10  ar  
 14   7  11  1   
 15   7  32  1   
 16   7  33  1   
 17   8   9  ar  
 18   8  34  1   
 19   9  12  ar  
 20  10  13  ar  
 21  10  35  1   
 22  11  14  1   
 23  11  15  1   
 24  11  36  1   
 25  12  16  ar  
 26  12  37  1   
 27  13  16  ar  
 28  13  17  1   
 29  14  18  1   
 30  14  38  1   
 31  14  39  1   
 32  15  19  1   
 33  15  40  1   
 34  15  41  1   
 35  16  42  1   
 36  17  20  1   
 37  18  21  1   
 38  18  22  1   
 39  18  43  1   
 40  19  22  1   
 41  19  44  1   
 42  19  45  1   
 43  20  46  1   
 44  20  47  1   
 45  20  48  1   
 46  21  49  1   
 47  22  23  1   
 48  22  24  1   
 49  23  25  1   
 50  23  50  1   
 51  23  51  1   
 52  24  26  1   
 53  24  52  1   
 54  24  53  1   
 55  25  54  1   
 56  26  27  1   
 57  26  55  1   
 58  26  56  1   
 59  27  57  1   
 60  27  58  1   
 61  27  59  1   
@<TRIPOS>SUBSTRUCTURE
  1 ****  11 GROUP 4 **** **** 0

# MOE 2024.06 (io_trps.svl 2023.06)
