@<TRIPOS>MOLECULE
NONAME
50 53 1 0 0 
SMALL
USER_CHARGES


@<TRIPOS>ATOM
  1 CL       1.2550    -1.6050    -2.7030 Cl    1 <1>  -0.1770 
  2 C        1.6530    -1.8320    -1.0090 C.ar  1 <1>   0.1770 
  3 C        0.9220    -2.7270    -0.2110 C.ar  1 <1>   0.4100 
  4 C        2.6940    -1.1070    -0.4820 C.ar  1 <1>  -0.1500 
  5 N        1.1840    -2.9090     1.0820 N.ar  1 <1>  -0.6200 
  6 N       -0.1370    -3.4650    -0.7230 N.pl3 1 <1>  -0.8380 
  7 C        2.9660    -1.3100     0.8570 C.ar  1 <1>  -0.1500 
  8 C        2.1930    -2.2060     1.5760 C.ar  1 <1>   0.1600 
  9 C       -1.4240    -2.7520    -0.9440 C.3   1 <1>   0.2090 
 10 C       -0.2900    -4.8980    -0.3130 C.3   1 <1>   0.2090 
 11 C       -2.3830    -2.9290     0.2540 C.3   1 <1>   0.2090 
 12 C       -1.2750    -5.0580     0.8630 C.3   1 <1>   0.2090 
 13 N       -2.6020    -4.3850     0.5850 N.pl3 1 <1>  -0.8380 
 14 C       -3.7680    -5.0830     0.5610 C.ar  1 <1>   0.7710 
 15 N       -3.7370    -6.4070     0.5660 N.ar  1 <1>  -0.6200 
 16 N       -4.9300    -4.4080     0.5390 N.ar  1 <1>  -0.1790 
 17 C       -4.8760    -7.0750     0.5430 C.ar  1 <1>   0.4100 
 18 C       -6.1230    -5.0470     0.4940 C.ar  1 <1>   0.2110 
 19 N       -4.8170    -8.4330     0.5700 N.pl3 1 <1>  -0.8380 
 20 C       -6.1100    -6.4000     0.4890 C.ar  1 <1>  -0.1500 
 21 C       -5.8360    -9.3070     1.2220 C.3   1 <1>   0.2090 
 22 C       -3.6260    -9.1910     0.0750 C.3   1 <1>   0.2090 
 23 C       -6.3340   -10.3410     0.2130 C.3   1 <1>  -0.1600 
 24 C       -4.0810   -10.2440    -0.9370 C.3   1 <1>  -0.1600 
 25 C       -5.1540   -11.1470    -0.3300 C.3   1 <1>   0.2000 
 26 O       -5.6180   -11.9980    -1.3070 O.3   1 <1>  -0.6800 
 27 H        3.2620    -0.4220    -1.0860 H     1 <1>   0.1500 
 28 H        3.7690    -0.7790     1.3370 H     1 <1>   0.1500 
 29 H        2.4180    -2.3520     2.6200 H     1 <1>   0.1500 
 30 H       -1.8850    -3.1320    -1.8390 H     1 <1>   0.0800 
 31 H       -1.2330    -1.7030    -1.0940 H     1 <1>   0.0800 
 32 H        0.6690    -5.2950    -0.0280 H     1 <1>   0.0800 
 33 H       -0.6440    -5.4690    -1.1530 H     1 <1>   0.0800 
 34 H       -3.3060    -2.4310     0.0230 H     1 <1>   0.0800 
 35 H       -1.9470    -2.4370     1.1080 H     1 <1>   0.0800 
 36 H       -0.8320    -4.6110     1.7370 H     1 <1>   0.0800 
 37 H       -1.3910    -6.1060     1.0730 H     1 <1>   0.0800 
 38 H       -4.8510    -3.4000     0.5890 H     1 <1>   0.4570 
 39 H       -7.0340    -4.4700     0.4610 H     1 <1>   0.1500 
 40 H       -7.0190    -6.9690     0.4330 H     1 <1>   0.1500 
 41 H       -6.6610    -8.7350     1.6050 H     1 <1>   0.0800 
 42 H       -5.3780    -9.8120     2.0570 H     1 <1>   0.0800 
 43 H       -3.1350    -9.6650     0.9080 H     1 <1>   0.0800 
 44 H       -2.9180    -8.5340    -0.4000 H     1 <1>   0.0800 
 45 H       -6.8420    -9.8320    -0.5860 H     1 <1>   0.0800 
 46 H       -7.0260   -11.0050     0.6990 H     1 <1>   0.0800 
 47 H       -3.2350   -10.8390    -1.2310 H     1 <1>   0.0800 
 48 H       -4.4650    -9.7380    -1.8050 H     1 <1>   0.0800 
 49 H       -4.7280   -11.7530     0.4530 H     1 <1>   0.0800 
 50 H       -5.9840   -11.4860    -2.0530 H     1 <1>   0.4000 
@<TRIPOS>BOND
  1   1   2  1   
  2   2   3  ar  
  3   2   4  ar  
  4   3   5  ar  
  5   3   6  1   
  6   4   7  ar  
  7   4  27  1   
  8   5   8  ar  
  9   6   9  1   
 10   6  10  1   
 11   7   8  ar  
 12   7  28  1   
 13   8  29  1   
 14   9  11  1   
 15   9  30  1   
 16   9  31  1   
 17  10  12  1   
 18  10  32  1   
 19  10  33  1   
 20  11  13  1   
 21  11  34  1   
 22  11  35  1   
 23  12  13  1   
 24  12  36  1   
 25  12  37  1   
 26  13  14  1   
 27  14  15  ar  
 28  14  16  ar  
 29  15  17  ar  
 30  16  18  ar  
 31  16  38  1   
 32  17  19  1   
 33  17  20  ar  
 34  18  20  ar  
 35  18  39  1   
 36  19  21  1   
 37  19  22  1   
 38  20  40  1   
 39  21  23  1   
 40  21  41  1   
 41  21  42  1   
 42  22  24  1   
 43  22  43  1   
 44  22  44  1   
 45  23  25  1   
 46  23  45  1   
 47  23  46  1   
 48  24  25  1   
 49  24  47  1   
 50  24  48  1   
 51  25  26  1   
 52  25  49  1   
 53  26  50  1   
@<TRIPOS>SUBSTRUCTURE
  1 ****  13 GROUP 4 **** **** 0

# MOE 2024.06 (io_trps.svl 2023.06)
