@<TRIPOS>MOLECULE
NONAME
51 53 1 0 0 
SMALL
USER_CHARGES


@<TRIPOS>ATOM
  1 S       -0.8970    -0.1790     0.5790 S.3   1 <1>  -0.0800 
  2 C       -1.1510    -1.3150    -0.7380 C.2   1 <1>  -0.1400 
  3 C       -1.1440     1.1920    -0.4870 C.2   1 <1>  -0.1400 
  4 C       -1.3910    -0.6550    -1.8870 C.2   1 <1>  -0.1500 
  5 C       -1.0570    -2.7880    -0.4140 C.3   1 <1>   0.5230 
  6 C       -1.3910     0.7680    -1.7410 C.2   1 <1>  -0.1500 
  7 C       -1.0370     2.5700     0.1450 C.3   1 <1>   0.0200 
  8 N       -2.4130    -3.2730    -0.0300 N.4   1 <1>  -0.9590 
  9 C       -1.2740     3.6930    -0.8690 C.3   1 <1>  -0.2400 
 10 C       -2.5940    -4.7570    -0.1630 C.3   1 <1>   0.3430 
 11 C       -2.8740    -2.6980     1.2710 C.3   1 <1>   0.3430 
 12 C       -4.0500    -5.2590     0.1270 C.3   1 <1>   0.4230 
 13 C       -4.1530    -3.3780     1.7900 C.3   1 <1>  -0.1600 
 14 N       -4.7300    -6.0930    -0.9560 N.4   1 <1>  -0.9590 
 15 C       -4.9800    -4.1720     0.7420 C.3   1 <1>   0.0000 
 16 C       -6.1890    -6.3430    -0.6780 C.3   1 <1>   0.3430 
 17 C       -4.5850    -5.5780    -2.3600 C.3   1 <1>   0.2630 
 18 C       -6.1210    -4.9280     1.4800 C.3   1 <1>  -0.1600 
 19 C       -5.6580    -3.1850    -0.2630 C.3   1 <1>   0.1200 
 20 C       -6.4980    -6.2770     0.8230 C.3   1 <1>  -0.1600 
 21 O       -4.7860    -2.6910    -1.2280 O.3   1 <1>  -0.6800 
 22 H       -1.5700    -1.0920    -2.8550 H     1 <1>   0.1500 
 23 H       -0.3460    -2.9510     0.3800 H     1 <1>   0.0800 
 24 H       -0.7160    -3.3090    -1.2940 H     1 <1>   0.0800 
 25 H       -1.5730     1.4060    -2.5900 H     1 <1>   0.1500 
 26 H       -1.7600     2.6510     0.9390 H     1 <1>   0.0800 
 27 H       -0.0570     2.6830     0.5750 H     1 <1>   0.0800 
 28 H       -3.0610    -2.8390    -0.7200 H     1 <1>   0.4500 
 29 H       -2.2580     3.6100    -1.2950 H     1 <1>   0.0800 
 30 H       -0.5450     3.6420    -1.6580 H     1 <1>   0.0800 
 31 H       -1.1900     4.6490    -0.3840 H     1 <1>   0.0800 
 32 H       -2.3040    -5.0660    -1.1520 H     1 <1>   0.0800 
 33 H       -1.9320    -5.2410     0.5370 H     1 <1>   0.0800 
 34 H       -2.0970    -2.7840     2.0140 H     1 <1>   0.0800 
 35 H       -3.0740    -1.6470     1.1320 H     1 <1>   0.0800 
 36 H       -3.9020    -5.9500     0.9420 H     1 <1>   0.0800 
 37 H       -3.8480    -4.0420     2.5820 H     1 <1>   0.0800 
 38 H       -4.7680    -2.6270     2.2560 H     1 <1>   0.0800 
 39 H       -4.2900    -7.0260    -0.9340 H     1 <1>   0.4500 
 40 H       -6.7870    -5.6010    -1.1820 H     1 <1>   0.0800 
 41 H       -6.4770    -7.3080    -1.0660 H     1 <1>   0.0800 
 42 H       -5.0850    -4.6300    -2.4710 H     1 <1>   0.0800 
 43 H       -5.0250    -6.2720    -3.0580 H     1 <1>   0.0800 
 44 H       -3.5470    -5.4530    -2.6210 H     1 <1>   0.0800 
 45 H       -5.8440    -5.1400     2.5010 H     1 <1>   0.0800 
 46 H       -6.9980    -4.3030     1.5390 H     1 <1>   0.0800 
 47 H       -6.0670    -2.3420     0.2710 H     1 <1>   0.0800 
 48 H       -6.4710    -3.6570    -0.7850 H     1 <1>   0.0800 
 49 H       -7.5500    -6.4570     0.9710 H     1 <1>   0.0800 
 50 H       -5.9790    -7.0820     1.3160 H     1 <1>   0.0800 
 51 H       -5.2260    -1.9620    -1.7290 H     1 <1>   0.4000 
@<TRIPOS>BOND
  1   1   2  1   
  2   1   3  1   
  3   2   4  2   
  4   2   5  1   
  5   3   6  2   
  6   3   7  1   
  7   4   6  1   
  8   4  22  1   
  9   5   8  1   
 10   5  23  1   
 11   5  24  1   
 12   6  25  1   
 13   7   9  1   
 14   7  26  1   
 15   7  27  1   
 16   8  10  1   
 17   8  11  1   
 18   8  28  1   
 19   9  29  1   
 20   9  30  1   
 21   9  31  1   
 22  10  12  1   
 23  10  32  1   
 24  10  33  1   
 25  11  13  1   
 26  11  34  1   
 27  11  35  1   
 28  12  14  1   
 29  12  15  1   
 30  12  36  1   
 31  13  15  1   
 32  13  37  1   
 33  13  38  1   
 34  14  16  1   
 35  14  17  1   
 36  14  39  1   
 37  15  18  1   
 38  15  19  1   
 39  16  20  1   
 40  16  40  1   
 41  16  41  1   
 42  17  42  1   
 43  17  43  1   
 44  17  44  1   
 45  18  20  1   
 46  18  45  1   
 47  18  46  1   
 48  19  21  1   
 49  19  47  1   
 50  19  48  1   
 51  20  49  1   
 52  20  50  1   
 53  21  51  1   
@<TRIPOS>SUBSTRUCTURE
  1 ****   8 GROUP 4 **** **** 0

# MOE 2024.06 (io_trps.svl 2023.06)
