@<TRIPOS>MOLECULE
NONAME
46 48 1 0 0 
SMALL
USER_CHARGES


@<TRIPOS>ATOM
  1 S        0.2650     0.7910     1.2460 S.3   1 <1>   0.1810 
  2 N        1.0850     1.6990     0.0820 N.2   1 <1>  -0.2210 
  3 C        1.1170    -0.6560     0.8370 C.2   1 <1>  -0.1400 
  4 N        1.9190     0.9880    -0.5340 N.2   1 <1>  -0.2270 
  5 C        1.9740    -0.3340    -0.1410 C.2   1 <1>   0.0460 
  6 C        0.7810    -1.8960     1.6270 C.3   1 <1>   0.5230 
  7 C        3.0040    -1.1990    -0.8690 C.3   1 <1>   0.1010 
  8 N       -0.1810    -2.7370     0.8590 N.4   1 <1>  -0.9590 
  9 C        2.5480    -2.6480    -1.0930 C.3   1 <1>  -0.2400 
 10 C        4.3380    -1.1720    -0.1160 C.3   1 <1>  -0.2400 
 11 C       -1.5060    -2.0710     0.6750 C.3   1 <1>   0.3430 
 12 C       -0.3180    -4.0880     1.4740 C.3   1 <1>   0.3430 
 13 C       -2.3930    -2.9280    -0.2260 C.3   1 <1>  -0.1600 
 14 C       -1.1800    -4.9780     0.5800 C.3   1 <1>  -0.1600 
 15 C       -2.5670    -4.3540     0.3320 C.3   1 <1>  -0.0800 
 16 C       -3.4450    -5.2370    -0.5820 C.3   1 <1>   0.3800 
 17 O       -4.6870    -4.6550    -0.6920 O.3   1 <1>  -0.6800 
 18 C       -3.6450    -6.6480    -0.0540 C.2   1 <1>  -0.1400 
 19 S       -4.3600    -6.8540     1.5420 S.3   1 <1>  -0.0800 
 20 C       -3.3650    -7.8480    -0.5980 C.2   1 <1>  -0.1500 
 21 C       -4.2490    -8.6000     1.4170 C.2   1 <1>  -0.1100 
 22 C       -3.7070    -8.9580     0.2390 C.2   1 <1>  -0.1500 
 23 H        0.3680    -1.6250     2.5850 H     1 <1>   0.0800 
 24 H        1.6890    -2.4510     1.7960 H     1 <1>   0.0800 
 25 H        3.1640    -0.7650    -1.8430 H     1 <1>   0.0800 
 26 H        0.2180    -2.8550    -0.0800 H     1 <1>   0.4500 
 27 H        2.4930    -3.1910    -0.1690 H     1 <1>   0.0800 
 28 H        3.2600    -3.1490    -1.7260 H     1 <1>   0.0800 
 29 H        1.5970    -2.6630    -1.5940 H     1 <1>   0.0800 
 30 H        4.2370    -1.5970     0.8670 H     1 <1>   0.0800 
 31 H        4.6790    -0.1560    -0.0150 H     1 <1>   0.0800 
 32 H        5.0870    -1.7240    -0.6580 H     1 <1>   0.0800 
 33 H       -1.3790    -1.1020     0.2190 H     1 <1>   0.0800 
 34 H       -1.9880    -1.9370     1.6300 H     1 <1>   0.0800 
 35 H       -0.7810    -4.0040     2.4450 H     1 <1>   0.0800 
 36 H        0.6520    -4.5420     1.5990 H     1 <1>   0.0800 
 37 H       -1.9770    -2.9600    -1.2180 H     1 <1>   0.0800 
 38 H       -3.3560    -2.4510    -0.3000 H     1 <1>   0.0800 
 39 H       -1.2930    -5.9310     1.0670 H     1 <1>   0.0800 
 40 H       -0.6730    -5.1520    -0.3540 H     1 <1>   0.0800 
 41 H       -3.0690    -4.2820     1.2830 H     1 <1>   0.0800 
 42 H       -3.0240    -5.2850    -1.5730 H     1 <1>   0.0800 
 43 H       -5.3480    -5.3630    -0.8290 H     1 <1>   0.4000 
 44 H       -2.9260    -8.0160    -1.5670 H     1 <1>   0.1500 
 45 H       -4.6070    -9.1810     2.2490 H     1 <1>   0.1500 
 46 H       -3.5310    -9.9700    -0.0840 H     1 <1>   0.1500 
@<TRIPOS>BOND
  1   1   2  1   
  2   1   3  1   
  3   2   4  2   
  4   3   5  2   
  5   3   6  1   
  6   4   5  1   
  7   5   7  1   
  8   6   8  1   
  9   6  23  1   
 10   6  24  1   
 11   7   9  1   
 12   7  10  1   
 13   7  25  1   
 14   8  11  1   
 15   8  12  1   
 16   8  26  1   
 17   9  27  1   
 18   9  28  1   
 19   9  29  1   
 20  10  30  1   
 21  10  31  1   
 22  10  32  1   
 23  11  13  1   
 24  11  33  1   
 25  11  34  1   
 26  12  14  1   
 27  12  35  1   
 28  12  36  1   
 29  13  15  1   
 30  13  37  1   
 31  13  38  1   
 32  14  15  1   
 33  14  39  1   
 34  14  40  1   
 35  15  16  1   
 36  15  41  1   
 37  16  17  1   
 38  16  18  1   
 39  16  42  1   
 40  17  43  1   
 41  18  19  1   
 42  18  20  2   
 43  19  21  1   
 44  20  22  1   
 45  20  44  1   
 46  21  22  2   
 47  21  45  1   
 48  22  46  1   
@<TRIPOS>SUBSTRUCTURE
  1 ****   8 GROUP 4 **** **** 0

# MOE 2024.06 (io_trps.svl 2023.06)
