@<TRIPOS>MOLECULE
NONAME
61 63 1 0 0 
SMALL
USER_CHARGES


@<TRIPOS>ATOM
  1 O       -4.5700     1.1850    -2.1850 O.2   1 <1>  -0.5700 
  2 C       -3.8310     0.7850    -1.3040 C.2   1 <1>   0.5440 
  3 N       -3.9370    -0.5320    -0.8980 N.am  1 <1>  -0.6600 
  4 C       -2.8720     1.7070    -0.7250 C.ar  1 <1>   0.0860 
  5 C       -2.9930    -1.1490     0.1080 C.3   1 <1>   0.3640 
  6 C       -5.1030    -1.3420    -1.3650 C.3   1 <1>   0.1400 
  7 C       -1.8140     2.1980    -1.4850 C.ar  1 <1>  -0.1500 
  8 C       -2.9610     2.1190     0.6030 C.ar  1 <1>  -0.1500 
  9 C       -1.5490    -0.9750    -0.3760 C.ar  1 <1>  -0.1430 
 10 C       -3.2270    -2.6610     0.4280 C.3   1 <1>   0.2000 
 11 C       -4.8660    -2.8450    -1.2310 C.3   1 <1>   0.1200 
 12 C       -0.8630     3.0370    -0.9350 C.ar  1 <1>  -0.1500 
 13 C       -2.0100     2.9560     1.1590 C.ar  1 <1>  -0.1500 
 14 C       -0.5870    -0.4540     0.4800 C.ar  1 <1>  -0.1500 
 15 C       -1.1790    -1.3230    -1.6690 C.ar  1 <1>  -0.1500 
 16 O       -4.5010    -3.1280     0.0780 O.3   1 <1>  -0.5600 
 17 C       -3.0570    -2.9850     1.9220 C.3   1 <1>   0.1200 
 18 C       -0.9500     3.4140     0.3940 C.ar  1 <1>  -0.1430 
 19 C        0.7220    -0.2840     0.0610 C.ar  1 <1>   0.0830 
 20 C        0.1230    -1.1390    -2.1030 C.ar  1 <1>  -0.1500 
 21 O       -1.8180    -2.5720     2.4010 O.3   1 <1>  -0.6800 
 22 C        0.1180     4.3060     1.0050 C.3   1 <1>  -0.0170 
 23 O        1.6110     0.1880     0.9690 O.3   1 <1>  -0.3620 
 24 C        1.0750    -0.6030    -1.2540 C.ar  1 <1>   0.0830 
 25 C        1.3270     3.4610     1.4210 C.3   1 <1>  -0.1600 
 26 C        2.6190    -0.7060     1.3810 C.3   1 <1>   0.0400 
 27 O        2.3180    -0.4040    -1.7570 O.3   1 <1>  -0.3630 
 28 C        2.4440     4.3140     2.0340 C.3   1 <1>  -0.1600 
 29 C        2.7720     0.9320    -1.7980 C.3   1 <1>   0.0400 
 30 C        3.6380     3.4400     2.4270 C.3   1 <1>  -0.2400 
 31 H       -3.1090    -0.6050     1.0290 H     1 <1>   0.0800 
 32 H       -5.9690    -1.0700    -0.7870 H     1 <1>   0.0800 
 33 H       -5.3130    -1.1170    -2.3960 H     1 <1>   0.0800 
 34 H       -1.7380     1.9030    -2.5170 H     1 <1>   0.1500 
 35 H       -3.7830     1.7730     1.2030 H     1 <1>   0.1500 
 36 H       -2.5220    -3.2550    -0.1270 H     1 <1>   0.0800 
 37 H       -4.0950    -3.1810    -1.9020 H     1 <1>   0.0800 
 38 H       -5.7740    -3.3810    -1.4450 H     1 <1>   0.0800 
 39 H       -0.0490     3.3880    -1.5440 H     1 <1>   0.1500 
 40 H       -2.0940     3.2460     2.1920 H     1 <1>   0.1500 
 41 H       -0.8420    -0.1730     1.4860 H     1 <1>   0.1500 
 42 H       -1.9100    -1.7260    -2.3490 H     1 <1>   0.1500 
 43 H       -3.1410    -4.0450     2.0850 H     1 <1>   0.0800 
 44 H       -3.8120    -2.4760     2.4960 H     1 <1>   0.0800 
 45 H        0.4030    -1.4000    -3.1080 H     1 <1>   0.1500 
 46 H       -1.0890    -3.0380     1.9440 H     1 <1>   0.4000 
 47 H        0.4200     5.0480     0.2860 H     1 <1>   0.0800 
 48 H       -0.2800     4.8210     1.8610 H     1 <1>   0.0800 
 49 H        1.0070     2.7180     2.1320 H     1 <1>   0.0800 
 50 H        1.7050     2.9410     0.5580 H     1 <1>   0.0800 
 51 H        3.2090    -0.2200     2.1370 H     1 <1>   0.0800 
 52 H        3.2370    -0.9600     0.5390 H     1 <1>   0.0800 
 53 H        2.1550    -1.5880     1.7850 H     1 <1>   0.0800 
 54 H        2.7660     5.0560     1.3230 H     1 <1>   0.0800 
 55 H        2.0730     4.8230     2.9070 H     1 <1>   0.0800 
 56 H        3.6620     0.9650    -2.3980 H     1 <1>   0.0800 
 57 H        2.9920     1.2640    -0.8000 H     1 <1>   0.0800 
 58 H        2.0060     1.5460    -2.2370 H     1 <1>   0.0800 
 59 H        4.0340     2.9340     1.5650 H     1 <1>   0.0800 
 60 H        3.3400     2.7040     3.1530 H     1 <1>   0.0800 
 61 H        4.4150     4.0490     2.8550 H     1 <1>   0.0800 
@<TRIPOS>BOND
  1   1   2  2   
  2   2   3  am  
  3   2   4  1   
  4   3   5  1   
  5   3   6  1   
  6   4   7  ar  
  7   4   8  ar  
  8   5   9  1   
  9   5  10  1   
 10   5  31  1   
 11   6  11  1   
 12   6  32  1   
 13   6  33  1   
 14   7  12  ar  
 15   7  34  1   
 16   8  13  ar  
 17   8  35  1   
 18   9  14  ar  
 19   9  15  ar  
 20  10  16  1   
 21  10  17  1   
 22  10  36  1   
 23  11  16  1   
 24  11  37  1   
 25  11  38  1   
 26  12  18  ar  
 27  12  39  1   
 28  13  18  ar  
 29  13  40  1   
 30  14  19  ar  
 31  14  41  1   
 32  15  20  ar  
 33  15  42  1   
 34  17  21  1   
 35  17  43  1   
 36  17  44  1   
 37  18  22  1   
 38  19  23  1   
 39  19  24  ar  
 40  20  24  ar  
 41  20  45  1   
 42  21  46  1   
 43  22  25  1   
 44  22  47  1   
 45  22  48  1   
 46  23  26  1   
 47  24  27  1   
 48  25  28  1   
 49  25  49  1   
 50  25  50  1   
 51  26  51  1   
 52  26  52  1   
 53  26  53  1   
 54  27  29  1   
 55  28  30  1   
 56  28  54  1   
 57  28  55  1   
 58  29  56  1   
 59  29  57  1   
 60  29  58  1   
 61  30  59  1   
 62  30  60  1   
 63  30  61  1   
@<TRIPOS>SUBSTRUCTURE
  1 ****  14 GROUP 4 **** **** 0

# MOE 2024.06 (io_trps.svl 2023.06)
