@<TRIPOS>MOLECULE
NONAME
51 54 1 0 0 
SMALL
USER_CHARGES


@<TRIPOS>ATOM
  1 O       -2.7180     0.7150    -1.9360 O.2   1 <1>  -0.5700 
  2 C       -2.3800     0.6460    -0.7810 C.2   1 <1>   0.5690 
  3 N       -2.0700    -0.5320    -0.1920 N.am  1 <1>  -0.7300 
  4 C       -2.3070     1.9130     0.0310 C.3   1 <1>  -0.0990 
  5 C       -2.0630    -1.8490    -0.8740 C.3   1 <1>   0.2200 
  6 C       -1.1790     2.8010    -0.4990 C.3   1 <1>   0.0960 
  7 C       -3.2900    -2.6760    -0.5060 C.3   1 <1>  -0.0800 
  8 C       -0.9620    -2.7050    -0.2660 C.3   1 <1>   0.1200 
  9 N       -1.1030     4.0440     0.2890 N.pl3 1 <1>   0.3140 
 10 C       -2.8840    -3.2940     0.8390 C.3   1 <1>   0.1200 
 11 C       -4.6230    -1.8980    -0.4790 C.3   1 <1>  -0.0170 
 12 O       -1.4930    -3.1800     0.9330 O.3   1 <1>  -0.5600 
 13 N       -0.5190     4.0540     1.5010 N.2   1 <1>  -0.7070 
 14 C       -1.5910     5.2640    -0.0320 C.2   1 <1>  -0.3320 
 15 C       -5.8940    -2.7170    -0.2230 C.ar  1 <1>  -0.1440 
 16 C       -0.6410     5.2760     1.9190 C.2   1 <1>   0.1390 
 17 C       -1.3040     6.0810     1.0030 C.2   1 <1>  -0.1500 
 18 C       -2.3190     5.6040    -1.3230 C.3   1 <1>  -0.0600 
 19 C       -7.1220    -2.0470     0.0050 C.ar  1 <1>   0.0000 
 20 C       -5.9240    -4.0840    -0.2060 C.ar  1 <1>  -0.1500 
 21 C       -8.2710    -2.8330     0.2660 C.ar  1 <1>   0.3100 
 22 C       -7.2800    -0.6400    -0.0180 C.ar  1 <1>  -0.1500 
 23 C       -7.1190    -4.7650     0.0530 C.ar  1 <1>   0.1600 
 24 N       -8.2530    -4.1880     0.2880 N.ar  1 <1>  -0.6200 
 25 C       -9.4960    -2.1910     0.5120 C.ar  1 <1>  -0.1500 
 26 C       -8.4880    -0.0460     0.2220 C.ar  1 <1>  -0.1500 
 27 C       -9.6120    -0.8280     0.4940 C.ar  1 <1>  -0.1500 
 28 H       -1.8100    -0.5780     0.7970 H     1 <1>   0.3700 
 29 H       -3.2460     2.4280    -0.0530 H     1 <1>   0.0800 
 30 H       -2.1290     1.6780     1.0650 H     1 <1>   0.0800 
 31 H       -1.9480    -1.7260    -1.9380 H     1 <1>   0.0800 
 32 H       -1.3460     3.0450    -1.5320 H     1 <1>   0.0800 
 33 H       -0.2360     2.2920    -0.4140 H     1 <1>   0.0800 
 34 H       -3.3670    -3.4650    -1.2320 H     1 <1>   0.0800 
 35 H       -0.0590    -2.1520    -0.0720 H     1 <1>   0.0800 
 36 H       -0.7460    -3.5530    -0.8920 H     1 <1>   0.0800 
 37 H       -3.1510    -4.3340     0.9050 H     1 <1>   0.0800 
 38 H       -3.3120    -2.7560     1.6670 H     1 <1>   0.0800 
 39 H       -4.7370    -1.3870    -1.4200 H     1 <1>   0.0800 
 40 H       -4.5560    -1.1500     0.2910 H     1 <1>   0.0800 
 41 H       -0.2670     5.6170     2.8700 H     1 <1>   0.1500 
 42 H       -1.5250     7.1260     1.1250 H     1 <1>   0.1500 
 43 H       -2.6250     6.6350    -1.3140 H     1 <1>   0.0800 
 44 H       -3.1940     4.9890    -1.4320 H     1 <1>   0.0800 
 45 H       -1.6720     5.4480    -2.1680 H     1 <1>   0.0800 
 46 H       -5.0580    -4.6880    -0.3870 H     1 <1>   0.1500 
 47 H       -6.4340    -0.0140    -0.2340 H     1 <1>   0.1500 
 48 H       -7.0920    -5.8420     0.0590 H     1 <1>   0.1500 
 49 H      -10.3470    -2.8150     0.7150 H     1 <1>   0.1500 
 50 H       -8.5900     1.0260     0.2030 H     1 <1>   0.1500 
 51 H      -10.5580    -0.3500     0.6840 H     1 <1>   0.1500 
@<TRIPOS>BOND
  1   1   2  2   
  2   2   3  am  
  3   2   4  1   
  4   3   5  1   
  5   3  28  1   
  6   4   6  1   
  7   4  29  1   
  8   4  30  1   
  9   5   7  1   
 10   5   8  1   
 11   5  31  1   
 12   6   9  1   
 13   6  32  1   
 14   6  33  1   
 15   7  10  1   
 16   7  11  1   
 17   7  34  1   
 18   8  12  1   
 19   8  35  1   
 20   8  36  1   
 21   9  13  1   
 22   9  14  1   
 23  10  12  1   
 24  10  37  1   
 25  10  38  1   
 26  11  15  1   
 27  11  39  1   
 28  11  40  1   
 29  13  16  2   
 30  14  17  2   
 31  14  18  1   
 32  15  19  ar  
 33  15  20  ar  
 34  16  17  1   
 35  16  41  1   
 36  17  42  1   
 37  18  43  1   
 38  18  44  1   
 39  18  45  1   
 40  19  21  ar  
 41  19  22  ar  
 42  20  23  ar  
 43  20  46  1   
 44  21  24  ar  
 45  21  25  ar  
 46  22  26  ar  
 47  22  47  1   
 48  23  24  ar  
 49  23  48  1   
 50  25  27  ar  
 51  25  49  1   
 52  26  27  ar  
 53  26  50  1   
 54  27  51  1   
@<TRIPOS>SUBSTRUCTURE
  1 ****  11 GROUP 4 **** **** 0

# MOE 2024.06 (io_trps.svl 2023.06)
