@<TRIPOS>MOLECULE
NONAME
58 61 1 0 0 
SMALL
USER_CHARGES


@<TRIPOS>ATOM
  1 O       -3.6050     0.3280    -2.9180 O.2   1 <1>  -0.5700 
  2 C       -2.7120     0.4520    -2.1090 C.2   1 <1>   0.5690 
  3 N       -2.1030    -0.6470    -1.5860 N.am  1 <1>  -0.7300 
  4 C       -2.2800     1.8680    -1.6400 C.3   1 <1>   0.3410 
  5 C       -2.4430    -2.0580    -1.8830 C.3   1 <1>   0.2200 
  6 O       -1.2590     1.7120    -0.6450 O.3   1 <1>  -0.3630 
  7 C       -3.4810     2.6070    -1.0210 C.3   1 <1>  -0.2400 
  8 C       -1.7120     2.6670    -2.8250 C.3   1 <1>  -0.2400 
  9 C       -3.2960    -2.6670    -0.7770 C.3   1 <1>  -0.0800 
 10 C       -1.1830    -2.9050    -1.7650 C.3   1 <1>   0.1200 
 11 C       -0.7210     2.7700     0.0050 C.ar  1 <1>   0.0820 
 12 C       -2.2450    -3.0560     0.2700 C.3   1 <1>   0.1200 
 13 C       -4.4240    -1.7580    -0.2460 C.3   1 <1>  -0.0160 
 14 O       -1.0200    -3.1470    -0.3990 O.3   1 <1>  -0.5600 
 15 C       -1.2560     3.1790     1.2170 C.ar  1 <1>  -0.1500 
 16 C        0.3940     3.4110    -0.5100 C.ar  1 <1>  -0.1500 
 17 C       -5.3820    -2.3690     0.7820 C.ar  1 <1>  -0.1440 
 18 C       -0.6980     4.2500     1.8930 C.ar  1 <1>  -0.1500 
 19 C        0.9500     4.4820     0.1680 C.ar  1 <1>  -0.1500 
 20 C       -6.3260    -1.5380     1.4350 C.ar  1 <1>   0.0000 
 21 C       -5.3920    -3.6960     1.1150 C.ar  1 <1>  -0.1500 
 22 C        0.4030     4.9100     1.3690 C.ar  1 <1>  -0.1440 
 23 C       -7.1790    -2.1280     2.4000 C.ar  1 <1>   0.3100 
 24 C       -6.4800    -0.1540     1.1810 C.ar  1 <1>  -0.1500 
 25 C       -6.2850    -4.1800     2.0780 C.ar  1 <1>   0.1600 
 26 C        1.0150     6.0840     2.1110 C.3   1 <1>  -0.0970 
 27 N       -7.1450    -3.4480     2.7100 N.ar  1 <1>  -0.6200 
 28 C       -8.1100    -1.3210     3.0730 C.ar  1 <1>  -0.1500 
 29 C       -7.4010     0.6050     1.8520 C.ar  1 <1>  -0.1500 
 30 C       -8.2260     0.0170     2.8130 C.ar  1 <1>  -0.1500 
 31 H       -1.3720    -0.5110    -0.8790 H     1 <1>   0.3700 
 32 H       -2.9010    -2.1380    -2.8540 H     1 <1>   0.0800 
 33 H       -4.2800     2.6640    -1.7390 H     1 <1>   0.0800 
 34 H       -3.2170     3.6110    -0.7430 H     1 <1>   0.0800 
 35 H       -3.8400     2.0730    -0.1610 H     1 <1>   0.0800 
 36 H       -2.4430     2.7160    -3.6120 H     1 <1>   0.0800 
 37 H       -0.8350     2.1810    -3.2120 H     1 <1>   0.0800 
 38 H       -1.4720     3.6740    -2.5340 H     1 <1>   0.0800 
 39 H       -3.7320    -3.5670    -1.1720 H     1 <1>   0.0800 
 40 H       -0.3100    -2.4120    -2.1540 H     1 <1>   0.0800 
 41 H       -1.3170    -3.8550    -2.2530 H     1 <1>   0.0800 
 42 H       -2.4580    -4.0020     0.7340 H     1 <1>   0.0800 
 43 H       -2.1440    -2.2950     1.0260 H     1 <1>   0.0800 
 44 H       -5.0070    -1.4180    -1.0860 H     1 <1>   0.0800 
 45 H       -3.9720    -0.8930     0.2060 H     1 <1>   0.0800 
 46 H       -2.1010     2.6590     1.6290 H     1 <1>   0.1500 
 47 H        0.8260     3.0720    -1.4330 H     1 <1>   0.1500 
 48 H       -1.1220     4.5650     2.8300 H     1 <1>   0.1500 
 49 H        1.8120     4.9790    -0.2400 H     1 <1>   0.1500 
 50 H       -4.7350    -4.4130     0.6660 H     1 <1>   0.1500 
 51 H       -5.8650     0.3220     0.4400 H     1 <1>   0.1500 
 52 H       -6.2540    -5.2310     2.3090 H     1 <1>   0.1500 
 53 H        0.2630     6.6060     2.6760 H     1 <1>   0.0800 
 54 H        1.4590     6.7770     1.4190 H     1 <1>   0.0800 
 55 H        1.7740     5.7320     2.7860 H     1 <1>   0.0800 
 56 H       -8.7370    -1.7970     3.8040 H     1 <1>   0.1500 
 57 H       -7.5040     1.6570     1.6480 H     1 <1>   0.1500 
 58 H       -8.9460     0.6230     3.3360 H     1 <1>   0.1500 
@<TRIPOS>BOND
  1   1   2  2   
  2   2   3  am  
  3   2   4  1   
  4   3   5  1   
  5   3  31  1   
  6   4   6  1   
  7   4   7  1   
  8   4   8  1   
  9   5   9  1   
 10   5  10  1   
 11   5  32  1   
 12   6  11  1   
 13   7  33  1   
 14   7  34  1   
 15   7  35  1   
 16   8  36  1   
 17   8  37  1   
 18   8  38  1   
 19   9  12  1   
 20   9  13  1   
 21   9  39  1   
 22  10  14  1   
 23  10  40  1   
 24  10  41  1   
 25  11  15  ar  
 26  11  16  ar  
 27  12  14  1   
 28  12  42  1   
 29  12  43  1   
 30  13  17  1   
 31  13  44  1   
 32  13  45  1   
 33  15  18  ar  
 34  15  46  1   
 35  16  19  ar  
 36  16  47  1   
 37  17  20  ar  
 38  17  21  ar  
 39  18  22  ar  
 40  18  48  1   
 41  19  22  ar  
 42  19  49  1   
 43  20  23  ar  
 44  20  24  ar  
 45  21  25  ar  
 46  21  50  1   
 47  22  26  1   
 48  23  27  ar  
 49  23  28  ar  
 50  24  29  ar  
 51  24  51  1   
 52  25  27  ar  
 53  25  52  1   
 54  26  53  1   
 55  26  54  1   
 56  26  55  1   
 57  28  30  ar  
 58  28  56  1   
 59  29  30  ar  
 60  29  57  1   
 61  30  58  1   
@<TRIPOS>SUBSTRUCTURE
  1 ****  13 GROUP 4 **** **** 0

# MOE 2024.06 (io_trps.svl 2023.06)
