@<TRIPOS>MOLECULE
NONAME
38 40 1 0 0 
SMALL
USER_CHARGES


@<TRIPOS>ATOM
  1 N        5.1270     0.8160     1.4700 N.2   1 <1>  -0.3460 
  2 N        5.5520     0.8700     0.2170 N.2   1 <1>  -0.3460 
  3 C        3.8530     0.5140     1.4300 C.2   1 <1>   0.1320 
  4 C        4.5390     0.6270    -0.5490 C.2   1 <1>  -0.0040 
  5 N        3.4230     0.3790     0.1510 N.pl3 1 <1>   0.3260 
  6 C        2.9270     0.3420     2.4910 C.2   1 <1>  -0.1150 
  7 C        4.6080     0.6480    -2.0670 C.3   1 <1>   0.0090 
  8 C        2.0910     0.1020    -0.1420 C.2   1 <1>  -0.1900 
  9 C        1.6210     0.0660     2.2160 C.2   1 <1>  -0.1590 
 10 C        4.3670     2.0620    -2.6210 C.3   1 <1>  -0.1690 
 11 C        1.1930    -0.0530     0.8670 C.2   1 <1>  -0.1590 
 12 C        5.4620     3.0590    -2.2080 C.3   1 <1>   0.1580 
 13 N        4.8690     4.2220    -1.5040 N.pl3 1 <1>  -0.7190 
 14 C        4.9550     4.5220    -0.1970 C.cat 1 <1>   1.0690 
 15 N        5.3480     3.7200     0.7570 N.pl3 1 <1>  -0.7050 
 16 N        4.6420     5.6840     0.3800 N.pl3 1 <1>  -0.4640 
 17 C        5.2570     4.4090     1.9200 C.2   1 <1>   0.4790 
 18 N        4.8380     5.6030     1.7330 N.2   1 <1>  -0.2680 
 19 C        4.1580     6.9500    -0.2180 C.3   1 <1>   0.2660 
 20 C        5.6170     3.7770     3.2460 C.3   1 <1>  -0.0820 
 21 H        3.2920     0.4320     3.4980 H     1 <1>   0.1410 
 22 H        3.8780    -0.0310    -2.4720 H     1 <1>   0.0700 
 23 H        5.5770     0.2970    -2.3790 H     1 <1>   0.0700 
 24 H        1.8250     0.0180    -1.1800 H     1 <1>   0.1410 
 25 H        0.8940    -0.0710     3.0000 H     1 <1>   0.1410 
 26 H        3.3950     2.4020    -2.3070 H     1 <1>   0.0700 
 27 H        4.3550     1.9980    -3.6960 H     1 <1>   0.0700 
 28 H        0.1550    -0.2710     0.6780 H     1 <1>   0.1410 
 29 H        5.9720     3.4110    -3.0900 H     1 <1>   0.0700 
 30 H        6.2050     2.5890    -1.5860 H     1 <1>   0.0700 
 31 H        4.4020     4.8870    -2.1170 H     1 <1>   0.4430 
 32 H        5.5760     2.7200     0.6730 H     1 <1>   0.4430 
 33 H        4.2470     6.9280    -1.2890 H     1 <1>   0.0700 
 34 H        4.7420     7.7710     0.1630 H     1 <1>   0.0700 
 35 H        3.1280     7.1050     0.0520 H     1 <1>   0.0700 
 36 H        6.6210     3.3960     3.2100 H     1 <1>   0.0700 
 37 H        4.9440     2.9660     3.4590 H     1 <1>   0.0700 
 38 H        5.5470     4.5030     4.0350 H     1 <1>   0.0700 
@<TRIPOS>BOND
  1   1   2  1   
  2   1   3  2   
  3   2   4  2   
  4   3   5  1   
  5   3   6  1   
  6   4   5  1   
  7   4   7  1   
  8   5   8  1   
  9   6   9  2   
 10   6  21  1   
 11   7  10  1   
 12   7  22  1   
 13   7  23  1   
 14   8  11  2   
 15   8  24  1   
 16   9  11  1   
 17   9  25  1   
 18  10  12  1   
 19  10  26  1   
 20  10  27  1   
 21  11  28  1   
 22  12  13  1   
 23  12  29  1   
 24  12  30  1   
 25  13  14  ar  
 26  13  31  1   
 27  14  15  ar  
 28  14  16  ar  
 29  15  17  1   
 30  15  32  1   
 31  16  18  1   
 32  16  19  1   
 33  17  18  2   
 34  17  20  1   
 35  19  33  1   
 36  19  34  1   
 37  19  35  1   
 38  20  36  1   
 39  20  37  1   
 40  20  38  1   
@<TRIPOS>SUBSTRUCTURE
  1 ****  15 GROUP 4 **** **** 0

# MOE 2024.06 (io_trps.svl 2023.06)
