@<TRIPOS>MOLECULE
NONAME
57 59 1 0 0 
SMALL
USER_CHARGES


@<TRIPOS>ATOM
  1 F       -0.6160     0.2460     0.5920 F     1 <1>  -0.1900 
  2 C       -1.8710     0.6020     0.4840 C.ar  1 <1>   0.1900 
  3 C       -2.2540     1.9400     0.3440 C.ar  1 <1>   0.0830 
  4 C       -2.8030    -0.4170     0.5180 C.ar  1 <1>  -0.1500 
  5 O       -1.4340     3.0290     0.2970 O.3   1 <1>  -0.3630 
  6 C       -3.6090     2.2120     0.2400 C.ar  1 <1>  -0.1500 
  7 C       -4.1470    -0.1090     0.4130 C.ar  1 <1>  -0.1500 
  8 C       -0.0270     2.9350     0.3380 C.3   1 <1>   0.0400 
  9 C       -4.5830     1.2110     0.2690 C.ar  1 <1>   0.0530 
 10 C       -5.9840     1.5460     0.1600 C.2   1 <1>   0.0870 
 11 O       -6.3990     2.7440     0.4860 O.3   1 <1>  -0.0190 
 12 C       -7.0830     0.8460    -0.2290 C.2   1 <1>  -0.0860 
 13 N       -7.6880     2.8980     0.3410 N.2   1 <1>  -0.4100 
 14 C       -8.1250     1.7710    -0.1010 C.2   1 <1>   0.3720 
 15 C       -7.2030    -0.5040    -0.6800 C.2   1 <1>   0.7160 
 16 N       -9.4720     1.5260    -0.4160 N.pl3 1 <1>  -0.8210 
 17 O       -6.5950    -0.8490    -1.6780 O.2   1 <1>  -0.5700 
 18 N       -7.9490    -1.4480    -0.0030 N.am  1 <1>  -0.6600 
 19 C       -9.7310     1.3470    -1.8710 C.3   1 <1>   0.1290 
 20 C      -10.4570     2.4510     0.2130 C.3   1 <1>   0.1290 
 21 C       -8.1310    -2.8210    -0.5650 C.3   1 <1>   0.1400 
 22 C       -8.6510    -1.1330     1.2780 C.3   1 <1>   0.1400 
 23 C       -9.4660    -3.4290    -0.1090 C.3   1 <1>  -0.0800 
 24 C       -8.7720    -2.3920     2.1410 C.3   1 <1>  -0.1600 
 25 C       -9.5350    -3.5250     1.4320 C.3   1 <1>  -0.1600 
 26 C       -9.6880    -4.7890    -0.7850 C.3   1 <1>   0.1400 
 27 N      -11.0100    -5.3430    -0.4100 N.am  1 <1>  -0.7300 
 28 C      -11.3090    -6.5090     0.2050 C.2   1 <1>   0.5690 
 29 O      -12.4550    -6.7790     0.4530 O.2   1 <1>  -0.5700 
 30 C      -10.2260    -7.4860     0.5890 C.3   1 <1>  -0.1790 
 31 H       -2.4780    -1.4360     0.6250 H     1 <1>   0.1500 
 32 H       -3.9100     3.2380     0.1290 H     1 <1>   0.1500 
 33 H       -4.8610    -0.9120     0.4450 H     1 <1>   0.1500 
 34 H        0.3760     3.9280     0.2580 H     1 <1>   0.0800 
 35 H        0.3090     2.3370    -0.4910 H     1 <1>   0.0800 
 36 H        0.2680     2.4970     1.2750 H     1 <1>   0.0800 
 37 H       -9.0350     0.6450    -2.2950 H     1 <1>   0.0800 
 38 H       -9.6250     2.2900    -2.3810 H     1 <1>   0.0800 
 39 H      -10.7280     0.9720    -2.0220 H     1 <1>   0.0800 
 40 H      -10.2490     2.5450     1.2650 H     1 <1>   0.0800 
 41 H      -11.4540     2.0660     0.0910 H     1 <1>   0.0800 
 42 H      -10.3920     3.4260    -0.2410 H     1 <1>   0.0800 
 43 H       -7.3130    -3.4400    -0.2370 H     1 <1>   0.0800 
 44 H       -8.1080    -2.7750    -1.6410 H     1 <1>   0.0800 
 45 H       -9.6330    -0.7490     1.0550 H     1 <1>   0.0800 
 46 H       -8.1110    -0.3780     1.8240 H     1 <1>   0.0800 
 47 H      -10.2410    -2.7650    -0.4530 H     1 <1>   0.0800 
 48 H       -9.2660    -2.1490     3.0650 H     1 <1>   0.0800 
 49 H       -7.7780    -2.7250     2.3870 H     1 <1>   0.0800 
 50 H       -9.1300    -4.4650     1.7660 H     1 <1>   0.0800 
 51 H      -10.5700    -3.5000     1.7290 H     1 <1>   0.0800 
 52 H       -8.9030    -5.4680    -0.5010 H     1 <1>   0.0800 
 53 H       -9.6560    -4.6720    -1.8560 H     1 <1>   0.0800 
 54 H      -11.8190    -4.7570    -0.6260 H     1 <1>   0.3700 
 55 H       -9.5550    -7.0280     1.2900 H     1 <1>   0.0800 
 56 H       -9.6870    -7.7950    -0.2860 H     1 <1>   0.0800 
 57 H      -10.6680    -8.3520     1.0470 H     1 <1>   0.0800 
@<TRIPOS>BOND
  1   1   2  1   
  2   2   3  ar  
  3   2   4  ar  
  4   3   5  1   
  5   3   6  ar  
  6   4   7  ar  
  7   4  31  1   
  8   5   8  1   
  9   6   9  ar  
 10   6  32  1   
 11   7   9  ar  
 12   7  33  1   
 13   8  34  1   
 14   8  35  1   
 15   8  36  1   
 16   9  10  1   
 17  10  11  1   
 18  10  12  2   
 19  11  13  1   
 20  12  14  1   
 21  12  15  1   
 22  13  14  2   
 23  14  16  1   
 24  15  17  2   
 25  15  18  am  
 26  16  19  1   
 27  16  20  1   
 28  18  21  1   
 29  18  22  1   
 30  19  37  1   
 31  19  38  1   
 32  19  39  1   
 33  20  40  1   
 34  20  41  1   
 35  20  42  1   
 36  21  23  1   
 37  21  43  1   
 38  21  44  1   
 39  22  24  1   
 40  22  45  1   
 41  22  46  1   
 42  23  25  1   
 43  23  26  1   
 44  23  47  1   
 45  24  25  1   
 46  24  48  1   
 47  24  49  1   
 48  25  50  1   
 49  25  51  1   
 50  26  27  1   
 51  26  52  1   
 52  26  53  1   
 53  27  28  am  
 54  27  54  1   
 55  28  29  2   
 56  28  30  1   
 57  30  55  1   
 58  30  56  1   
 59  30  57  1   
@<TRIPOS>SUBSTRUCTURE
  1 ****  15 GROUP 4 **** **** 0

# MOE 2024.06 (io_trps.svl 2023.06)
