@<TRIPOS>MOLECULE
NONAME
51 54 1 0 0 
SMALL
USER_CHARGES


@<TRIPOS>ATOM
  1 O       -0.7160     0.6500    -0.9400 O.2   1 <1>  -0.5700 
  2 C       -1.7840     1.1450    -0.6070 C.2   1 <1>   0.7160 
  3 N       -2.9270     0.3860    -0.8200 N.am  1 <1>  -0.6600 
  4 C       -1.7850     2.4790    -0.0030 C.2   1 <1>   0.2030 
  5 C       -2.9650    -0.7100    -1.8290 C.3   1 <1>   0.1400 
  6 C       -4.2150     0.5960    -0.1050 C.3   1 <1>   0.1400 
  7 N       -2.7930     3.3340     0.0920 N.2   1 <1>  -0.7070 
  8 C       -0.6370     3.0510     0.5610 C.2   1 <1>  -0.1500 
  9 C       -3.3720    -2.0190    -1.1510 C.3   1 <1>  -0.1600 
 10 C       -4.6380    -0.7070     0.5780 C.3   1 <1>  -0.1600 
 11 N       -2.3010     4.4180     0.7000 N.pl3 1 <1>   0.3140 
 12 C       -0.9940     4.2730     0.9980 C.2   1 <1>  -0.3320 
 13 C       -4.7090    -1.8850    -0.4080 C.3   1 <1>   0.4240 
 14 C       -3.1420     5.5910     0.9680 C.3   1 <1>   0.0160 
 15 C       -0.1340     5.3180     1.6890 C.3   1 <1>  -0.0600 
 16 O       -5.6570    -1.5720    -1.4020 O.3   1 <1>  -0.5600 
 17 C       -5.0590    -3.2030     0.3190 C.ar  1 <1>  -0.1430 
 18 C       -6.9980    -1.8140    -1.1120 C.3   1 <1>   0.1200 
 19 C       -6.2420    -3.8840     0.0460 C.ar  1 <1>  -0.1430 
 20 C       -4.1960    -3.7330     1.2720 C.ar  1 <1>  -0.1500 
 21 C       -7.2070    -3.3190    -0.9780 C.3   1 <1>  -0.0170 
 22 C       -6.5460    -5.0670     0.7010 C.ar  1 <1>  -0.1500 
 23 C       -4.4990    -4.9120     1.9270 C.ar  1 <1>  -0.1500 
 24 C       -5.6720    -5.5890     1.6480 C.ar  1 <1>   0.0830 
 25 O       -5.8940    -6.7390     2.3320 O.3   1 <1>  -0.3630 
 26 C       -7.0480    -7.5160     2.1060 C.3   1 <1>   0.0400 
 27 H       -2.0060    -0.8300    -2.3030 H     1 <1>   0.0800 
 28 H       -3.6800    -0.4550    -2.5920 H     1 <1>   0.0800 
 29 H       -4.9640     0.9100    -0.8120 H     1 <1>   0.0800 
 30 H       -4.1200     1.3560     0.6490 H     1 <1>   0.0800 
 31 H        0.3240     2.5690     0.6090 H     1 <1>   0.1500 
 32 H       -2.5910    -2.2960    -0.4690 H     1 <1>   0.0800 
 33 H       -3.4540    -2.8000    -1.8840 H     1 <1>   0.0800 
 34 H       -5.5840    -0.5750     1.0660 H     1 <1>   0.0800 
 35 H       -3.9190    -0.9270     1.3440 H     1 <1>   0.0800 
 36 H       -4.1350     5.4030     0.6040 H     1 <1>   0.0800 
 37 H       -2.7290     6.4420     0.4620 H     1 <1>   0.0800 
 38 H       -3.1730     5.7680     2.0260 H     1 <1>   0.0800 
 39 H        0.8700     4.9510     1.8060 H     1 <1>   0.0800 
 40 H       -0.5310     5.5430     2.6630 H     1 <1>   0.0800 
 41 H       -0.1020     6.2190     1.1030 H     1 <1>   0.0800 
 42 H       -7.5860    -1.4230    -1.9240 H     1 <1>   0.0800 
 43 H       -7.2640    -1.3020    -0.2050 H     1 <1>   0.0800 
 44 H       -3.2750    -3.2330     1.5140 H     1 <1>   0.1500 
 45 H       -7.0390    -3.7890    -1.9300 H     1 <1>   0.0800 
 46 H       -8.2220    -3.5090    -0.6790 H     1 <1>   0.0800 
 47 H       -7.4630    -5.5700     0.4650 H     1 <1>   0.1500 
 48 H       -3.8250    -5.3170     2.6610 H     1 <1>   0.1500 
 49 H       -7.0020    -8.3770     2.7490 H     1 <1>   0.0800 
 50 H       -7.0620    -7.8290     1.0770 H     1 <1>   0.0800 
 51 H       -7.9170    -6.9280     2.3440 H     1 <1>   0.0800 
@<TRIPOS>BOND
  1   1   2  2   
  2   2   3  am  
  3   2   4  1   
  4   3   5  1   
  5   3   6  1   
  6   4   7  2   
  7   4   8  1   
  8   5   9  1   
  9   5  27  1   
 10   5  28  1   
 11   6  10  1   
 12   6  29  1   
 13   6  30  1   
 14   7  11  1   
 15   8  12  2   
 16   8  31  1   
 17   9  13  1   
 18   9  32  1   
 19   9  33  1   
 20  10  13  1   
 21  10  34  1   
 22  10  35  1   
 23  11  12  1   
 24  11  14  1   
 25  12  15  1   
 26  13  16  1   
 27  13  17  1   
 28  14  36  1   
 29  14  37  1   
 30  14  38  1   
 31  15  39  1   
 32  15  40  1   
 33  15  41  1   
 34  16  18  1   
 35  17  19  ar  
 36  17  20  ar  
 37  18  21  1   
 38  18  42  1   
 39  18  43  1   
 40  19  21  1   
 41  19  22  ar  
 42  20  23  ar  
 43  20  44  1   
 44  21  45  1   
 45  21  46  1   
 46  22  24  ar  
 47  22  47  1   
 48  23  24  ar  
 49  23  48  1   
 50  24  25  1   
 51  25  26  1   
 52  26  49  1   
 53  26  50  1   
 54  26  51  1   
@<TRIPOS>SUBSTRUCTURE
  1 ****  10 GROUP 4 **** **** 0

# MOE 2024.06 (io_trps.svl 2023.06)
