@<TRIPOS>MOLECULE
NONAME
50 53 1 0 0 
SMALL
USER_CHARGES


@<TRIPOS>ATOM
  1 O        1.6040     0.0710     1.6020 O.2   1 <1>  -0.5700 
  2 C        2.2940    -0.8590     1.2160 C.2   1 <1>   0.5440 
  3 N        3.6280    -0.5680     0.9800 N.am  1 <1>  -0.6600 
  4 C        1.7160    -2.1920     0.9920 C.ar  1 <1>   0.3960 
  5 C        4.3330     0.4930     1.7700 C.3   1 <1>   0.1400 
  6 C        4.4750    -1.3150     0.0040 C.3   1 <1>   0.1400 
  7 N        2.4350    -3.2400     1.3810 N.ar  1 <1>  -0.6200 
  8 C        0.4730    -2.3840     0.3870 C.ar  1 <1>  -0.1430 
  9 C        4.9110     1.6700     0.9370 C.3   1 <1>   0.4230 
 10 C        4.9510    -0.3940    -1.1400 C.3   1 <1>  -0.0800 
 11 C        1.9110    -4.4190     1.1550 C.ar  1 <1>   0.7200 
 12 C        0.0340    -3.6850     0.2300 C.ar  1 <1>   0.1660 
 13 C       -0.3920    -1.2080    -0.0840 C.3   1 <1>  -0.0170 
 14 N        4.2000     1.9670    -0.3720 N.4   1 <1>  -0.9590 
 15 C        6.4350     1.5310     0.7310 C.3   1 <1>   0.1200 
 16 C        6.4420    -0.0330    -1.0590 C.3   1 <1>   0.1200 
 17 C        4.0290     0.8210    -1.3360 C.3   1 <1>   0.3430 
 18 N        0.7540    -4.7080     0.6090 N.ar  1 <1>  -0.6200 
 19 N        2.6440    -5.4620     1.5410 N.pl3 1 <1>  -0.9000 
 20 C       -1.3050    -4.0330    -0.4080 C.3   1 <1>  -0.0170 
 21 C       -1.4990    -1.6170    -1.0600 C.3   1 <1>  -0.1600 
 22 C        2.8560     2.5620    -0.0860 C.3   1 <1>   0.2630 
 23 O        6.8110     0.2820     0.2420 O.3   1 <1>  -0.5600 
 24 C       -2.2530    -2.8340    -0.5240 C.3   1 <1>  -0.1600 
 25 H        3.6590     0.9030     2.5010 H     1 <1>   0.0800 
 26 H        5.1270     0.0290     2.3310 H     1 <1>   0.0800 
 27 H        5.3120    -1.7600     0.5180 H     1 <1>   0.0800 
 28 H        3.9070    -2.1210    -0.4260 H     1 <1>   0.0800 
 29 H        4.8020     2.5440     1.5550 H     1 <1>   0.0800 
 30 H        4.8530    -0.9760    -2.0390 H     1 <1>   0.0800 
 31 H       -0.8440    -0.7540     0.7820 H     1 <1>   0.0800 
 32 H        0.2190    -0.4630    -0.5630 H     1 <1>   0.0800 
 33 H        4.7640     2.6780    -0.8520 H     1 <1>   0.4500 
 34 H        6.9230     1.6380     1.6840 H     1 <1>   0.0800 
 35 H        6.8190     2.2950     0.0780 H     1 <1>   0.0800 
 36 H        6.7050     0.7790    -1.7160 H     1 <1>   0.0800 
 37 H        7.0300    -0.8920    -1.3390 H     1 <1>   0.0800 
 38 H        3.0150     0.4620    -1.2690 H     1 <1>   0.0800 
 39 H        4.1640     1.1940    -2.3380 H     1 <1>   0.0800 
 40 H        3.3250    -5.2790     2.2710 H     1 <1>   0.4000 
 41 H        2.1300    -6.3360     1.6140 H     1 <1>   0.4000 
 42 H       -1.1100    -4.4300    -1.3890 H     1 <1>   0.0800 
 43 H       -1.7820    -4.8060     0.1670 H     1 <1>   0.0800 
 44 H       -2.1820    -0.7960    -1.1960 H     1 <1>   0.0800 
 45 H       -1.0690    -1.8550    -2.0190 H     1 <1>   0.0800 
 46 H        2.2280     1.8440     0.4130 H     1 <1>   0.0800 
 47 H        2.3730     2.8580    -1.0030 H     1 <1>   0.0800 
 48 H        2.9530     3.4280     0.5470 H     1 <1>   0.0800 
 49 H       -3.0700    -3.0830    -1.1790 H     1 <1>   0.0800 
 50 H       -2.6610    -2.6060     0.4460 H     1 <1>   0.0800 
@<TRIPOS>BOND
  1   1   2  2   
  2   2   3  am  
  3   2   4  1   
  4   3   5  1   
  5   3   6  1   
  6   4   7  ar  
  7   4   8  ar  
  8   5   9  1   
  9   5  25  1   
 10   5  26  1   
 11   6  10  1   
 12   6  27  1   
 13   6  28  1   
 14   7  11  ar  
 15   8  12  ar  
 16   8  13  1   
 17   9  14  1   
 18   9  15  1   
 19   9  29  1   
 20  10  16  1   
 21  10  17  1   
 22  10  30  1   
 23  11  18  ar  
 24  11  19  1   
 25  12  18  ar  
 26  12  20  1   
 27  13  21  1   
 28  13  31  1   
 29  13  32  1   
 30  14  17  1   
 31  14  22  1   
 32  14  33  1   
 33  15  23  1   
 34  15  34  1   
 35  15  35  1   
 36  16  23  1   
 37  16  36  1   
 38  16  37  1   
 39  17  38  1   
 40  17  39  1   
 41  19  40  1   
 42  19  41  1   
 43  20  24  1   
 44  20  42  1   
 45  20  43  1   
 46  21  24  1   
 47  21  44  1   
 48  21  45  1   
 49  22  46  1   
 50  22  47  1   
 51  22  48  1   
 52  24  49  1   
 53  24  50  1   
@<TRIPOS>SUBSTRUCTURE
  1 ****   2 GROUP 4 **** **** 0

# MOE 2024.06 (io_trps.svl 2023.06)
