@<TRIPOS>MOLECULE
NONAME
50 52 1 0 0 
SMALL
USER_CHARGES


@<TRIPOS>ATOM
  1 S       -0.1430     0.7600    -1.2290 S.o2  1 <1>   1.2040 
  2 O        0.1230     0.0130    -0.0210 O.2   1 <1>  -0.6500 
  3 O        0.4960     0.3880    -2.4710 O.2   1 <1>  -0.6500 
  4 C        0.1680     2.5160    -0.9130 C.ar  1 <1>  -0.0090 
  5 C       -1.9030     0.7240    -1.5030 C.3   1 <1>  -0.1350 
  6 C        0.1070     3.0360     0.3730 C.ar  1 <1>  -0.1500 
  7 C        0.4600     3.3920    -1.9510 C.ar  1 <1>  -0.1500 
  8 C        0.3400     4.3780     0.6210 C.ar  1 <1>  -0.1500 
  9 C        0.6950     4.7350    -1.7160 C.ar  1 <1>  -0.1500 
 10 C        0.6470     5.2360    -0.4240 C.ar  1 <1>  -0.1430 
 11 C        0.9390     6.7030    -0.1610 C.3   1 <1>   0.4860 
 12 N        2.2530     6.8440     0.5250 N.4   1 <1>  -0.9590 
 13 C        2.5960     8.2570     0.8930 C.3   1 <1>   0.4230 
 14 C        3.3250     6.2240    -0.3180 C.3   1 <1>   0.3430 
 15 C        3.9300     8.2590     1.6600 C.3   1 <1>  -0.1600 
 16 C        1.5250     8.9530     1.7670 C.3   1 <1>  -0.1600 
 17 C        4.6490     6.1910     0.4400 C.3   1 <1>  -0.1600 
 18 C        5.0660     7.5960     0.8760 C.3   1 <1>  -0.1600 
 19 C        0.2910     9.5430     1.0510 C.3   1 <1>   0.0200 
 20 C        0.5770     9.9820    -0.3740 C.2   1 <1>  -0.1400 
 21 S        1.8430    11.1780    -0.6220 S.3   1 <1>  -0.0800 
 22 C        0.0180     9.6400    -1.5500 C.2   1 <1>  -0.1500 
 23 C        1.5830    11.1590    -2.3560 C.2   1 <1>  -0.1100 
 24 C        0.5960    10.3040    -2.6790 C.2   1 <1>  -0.1500 
 25 H       -2.2200    -0.2810    -1.7060 H     1 <1>   0.0800 
 26 H       -2.1660     1.3380    -2.3420 H     1 <1>   0.0800 
 27 H       -2.4260     1.0760    -0.6350 H     1 <1>   0.0800 
 28 H       -0.1210     2.3760     1.1960 H     1 <1>   0.1500 
 29 H        0.5100     3.0130    -2.9600 H     1 <1>   0.1500 
 30 H        0.2800     4.7350     1.6350 H     1 <1>   0.1500 
 31 H        0.9190     5.3770    -2.5520 H     1 <1>   0.1500 
 32 H        0.1530     7.0920     0.4590 H     1 <1>   0.0800 
 33 H        0.9480     7.2500    -1.0900 H     1 <1>   0.0800 
 34 H        2.2100     6.2980     1.3910 H     1 <1>   0.4500 
 35 H        2.7390     8.8280    -0.0100 H     1 <1>   0.0800 
 36 H        3.4460     6.7900    -1.2280 H     1 <1>   0.0800 
 37 H        3.0560     5.2130    -0.5830 H     1 <1>   0.0800 
 38 H        3.8060     7.7620     2.6070 H     1 <1>   0.0800 
 39 H        4.2180     9.2750     1.8690 H     1 <1>   0.0800 
 40 H        2.0040     9.7980     2.2310 H     1 <1>   0.0800 
 41 H        1.2160     8.3090     2.5710 H     1 <1>   0.0800 
 42 H        5.4100     5.7760    -0.1990 H     1 <1>   0.0800 
 43 H        4.5590     5.5450     1.2960 H     1 <1>   0.0800 
 44 H        5.9530     7.5430     1.4870 H     1 <1>   0.0800 
 45 H        5.3010     8.1900     0.0080 H     1 <1>   0.0800 
 46 H       -0.0590    10.3970     1.6060 H     1 <1>   0.0800 
 47 H       -0.5200     8.8370     1.0480 H     1 <1>   0.0800 
 48 H       -0.7980     8.9520    -1.6900 H     1 <1>   0.1500 
 49 H        2.2010    11.8020    -2.9590 H     1 <1>   0.1500 
 50 H        0.2370    10.1170    -3.6770 H     1 <1>   0.1500 
@<TRIPOS>BOND
  1   1   2  2   
  2   1   3  2   
  3   1   4  1   
  4   1   5  1   
  5   4   6  ar  
  6   4   7  ar  
  7   5  25  1   
  8   5  26  1   
  9   5  27  1   
 10   6   8  ar  
 11   6  28  1   
 12   7   9  ar  
 13   7  29  1   
 14   8  10  ar  
 15   8  30  1   
 16   9  10  ar  
 17   9  31  1   
 18  10  11  1   
 19  11  12  1   
 20  11  32  1   
 21  11  33  1   
 22  12  13  1   
 23  12  14  1   
 24  12  34  1   
 25  13  15  1   
 26  13  16  1   
 27  13  35  1   
 28  14  17  1   
 29  14  36  1   
 30  14  37  1   
 31  15  18  1   
 32  15  38  1   
 33  15  39  1   
 34  16  19  1   
 35  16  40  1   
 36  16  41  1   
 37  17  18  1   
 38  17  42  1   
 39  17  43  1   
 40  18  44  1   
 41  18  45  1   
 42  19  20  1   
 43  19  46  1   
 44  19  47  1   
 45  20  21  1   
 46  20  22  2   
 47  21  23  1   
 48  22  24  1   
 49  22  48  1   
 50  23  24  2   
 51  23  49  1   
 52  24  50  1   
@<TRIPOS>SUBSTRUCTURE
  1 ****  11 GROUP 4 **** **** 0

# MOE 2024.06 (io_trps.svl 2023.06)
