@<TRIPOS>MOLECULE
NONAME
54 56 1 0 0 
SMALL
USER_CHARGES


@<TRIPOS>ATOM
  1 S       -0.9590     0.2860     0.6070 S.o2  1 <1>   1.0900 
  2 O        0.3210    -0.0750     1.1710 O.2   1 <1>  -0.6500 
  3 O       -1.5870     1.5550     0.8870 O.2   1 <1>  -0.6500 
  4 C       -2.0740    -1.0500     0.9230 C.3   1 <1>  -0.0550 
  5 C       -0.8820    -0.0040    -1.1550 C.3   1 <1>  -0.0550 
  6 C       -1.6780    -2.1150    -0.0960 C.3   1 <1>   0.1760 
  7 C       -1.4670    -1.3980    -1.4460 C.3   1 <1>  -0.1600 
  8 N       -2.7060    -3.1820    -0.1860 N.pl3 1 <1>   0.3140 
  9 N       -3.9960    -2.8800    -0.4230 N.2   1 <1>  -0.7070 
 10 C       -2.5300    -4.5200    -0.0340 C.2   1 <1>  -0.3320 
 11 C       -4.6170    -4.0170    -0.4060 C.2   1 <1>   0.1080 
 12 C       -3.7500    -5.0870    -0.1660 C.2   1 <1>   0.0630 
 13 C       -1.1900    -5.1870     0.2460 C.3   1 <1>  -0.0600 
 14 C       -6.1100    -4.1020    -0.6390 C.3   1 <1>  -0.0590 
 15 N       -4.0350    -6.4740    -0.0950 N.am  1 <1>  -0.4930 
 16 C       -5.0610    -7.1030     0.5430 C.2   1 <1>   0.5690 
 17 O       -5.8940    -6.5260     1.1990 O.2   1 <1>  -0.5700 
 18 C       -5.1640    -8.6060     0.4200 C.3   1 <1>  -0.0990 
 19 C       -6.3630    -9.0010    -0.4460 C.3   1 <1>   0.0210 
 20 C       -6.4050   -10.5090    -0.6130 C.2   1 <1>  -0.1810 
 21 C       -5.8610   -11.2480    -1.6590 C.2   1 <1>   0.1080 
 22 C       -6.9610   -11.4300     0.2050 C.2   1 <1>  -0.3320 
 23 N       -6.0550   -12.5190    -1.5130 N.2   1 <1>  -0.7070 
 24 C       -5.1240   -10.6890    -2.8550 C.3   1 <1>  -0.0590 
 25 N       -6.7370   -12.6360    -0.3640 N.pl3 1 <1>   0.3140 
 26 C       -7.7040   -11.2340     1.5180 C.3   1 <1>  -0.0600 
 27 C       -7.1500   -13.9500     0.1410 C.3   1 <1>   0.0160 
 28 H       -3.0830    -0.7280     0.7430 H     1 <1>   0.0800 
 29 H       -1.9830    -1.4120     1.9290 H     1 <1>   0.0800 
 30 H        0.1360     0.0550    -1.4900 H     1 <1>   0.0800 
 31 H       -1.4540     0.7400    -1.6770 H     1 <1>   0.0800 
 32 H       -0.7460    -2.5510     0.2170 H     1 <1>   0.0800 
 33 H       -0.8130    -1.9670    -2.0840 H     1 <1>   0.0800 
 34 H       -2.4160    -1.2740    -1.9420 H     1 <1>   0.0800 
 35 H       -0.7760    -4.8140     1.1670 H     1 <1>   0.0800 
 36 H       -0.5000    -4.9910    -0.5550 H     1 <1>   0.0800 
 37 H       -1.3070    -6.2510     0.3420 H     1 <1>   0.0800 
 38 H       -6.4350    -3.2690    -1.2350 H     1 <1>   0.0800 
 39 H       -6.6200    -4.0760     0.3060 H     1 <1>   0.0800 
 40 H       -6.3570    -5.0140    -1.1480 H     1 <1>   0.0800 
 41 H       -3.3340    -7.0660    -0.5320 H     1 <1>   0.3700 
 42 H       -5.2830    -9.0240     1.4030 H     1 <1>   0.0800 
 43 H       -4.2630    -9.0090    -0.0050 H     1 <1>   0.0800 
 44 H       -6.2970    -8.5300    -1.4110 H     1 <1>   0.0800 
 45 H       -7.2730    -8.6630     0.0180 H     1 <1>   0.0800 
 46 H       -4.3530   -10.0170    -2.5320 H     1 <1>   0.0800 
 47 H       -5.8140   -10.1680    -3.4920 H     1 <1>   0.0800 
 48 H       -4.6750   -11.4920    -3.4120 H     1 <1>   0.0800 
 49 H       -7.7370   -10.1930     1.7860 H     1 <1>   0.0800 
 50 H       -7.2080   -11.7690     2.3080 H     1 <1>   0.0800 
 51 H       -8.7130   -11.5940     1.4290 H     1 <1>   0.0800 
 52 H       -6.6930   -14.1200     1.0960 H     1 <1>   0.0800 
 53 H       -6.8320   -14.7070    -0.5520 H     1 <1>   0.0800 
 54 H       -8.2190   -13.9720     0.2320 H     1 <1>   0.0800 
@<TRIPOS>BOND
  1   1   2  2   
  2   1   3  2   
  3   1   4  1   
  4   1   5  1   
  5   4   6  1   
  6   4  28  1   
  7   4  29  1   
  8   5   7  1   
  9   5  30  1   
 10   5  31  1   
 11   6   7  1   
 12   6   8  1   
 13   6  32  1   
 14   7  33  1   
 15   7  34  1   
 16   8   9  1   
 17   8  10  1   
 18   9  11  2   
 19  10  12  2   
 20  10  13  1   
 21  11  12  1   
 22  11  14  1   
 23  12  15  1   
 24  13  35  1   
 25  13  36  1   
 26  13  37  1   
 27  14  38  1   
 28  14  39  1   
 29  14  40  1   
 30  15  16  am  
 31  15  41  1   
 32  16  17  2   
 33  16  18  1   
 34  18  19  1   
 35  18  42  1   
 36  18  43  1   
 37  19  20  1   
 38  19  44  1   
 39  19  45  1   
 40  20  21  1   
 41  20  22  2   
 42  21  23  2   
 43  21  24  1   
 44  22  25  1   
 45  22  26  1   
 46  23  25  1   
 47  24  46  1   
 48  24  47  1   
 49  24  48  1   
 50  25  27  1   
 51  26  49  1   
 52  26  50  1   
 53  26  51  1   
 54  27  52  1   
 55  27  53  1   
 56  27  54  1   
@<TRIPOS>SUBSTRUCTURE
  1 ****  15 GROUP 4 **** **** 0

# MOE 2024.06 (io_trps.svl 2023.06)
