@<TRIPOS>MOLECULE
NONAME
52 55 1 0 0 
SMALL
USER_CHARGES


@<TRIPOS>ATOM
  1 O       -1.6610     0.3060     2.3270 O.2   1 <1>  -0.5700 
  2 C       -2.2650     0.8240     1.4060 C.2   1 <1>   0.5440 
  3 N       -3.4220     0.2320     0.9570 N.am  1 <1>  -0.6600 
  4 C       -1.7670     2.0430     0.8120 C.ar  1 <1>   0.0860 
  5 C       -4.1540     0.6520    -0.2680 C.3   1 <1>   0.1400 
  6 C       -3.8430    -1.1300     1.3660 C.3   1 <1>   0.1400 
  7 C       -1.1100     2.0520    -0.4240 C.ar  1 <1>   0.0820 
  8 C       -1.9470     3.2640     1.4600 C.ar  1 <1>  -0.1500 
  9 C       -5.1810    -0.4560    -0.5120 C.3   1 <1>   0.2000 
 10 C       -4.5680    -1.6980     0.1390 C.3   1 <1>  -0.0800 
 11 O       -0.8820     0.9110    -1.1050 O.3   1 <1>  -0.3630 
 12 C       -0.6900     3.2410    -0.9950 C.ar  1 <1>  -0.1500 
 13 C       -1.5170     4.4550     0.9000 C.ar  1 <1>  -0.1440 
 14 O       -6.3440    -0.1400     0.1730 O.3   1 <1>  -0.6800 
 15 C       -3.5840    -2.3920    -0.8260 C.3   1 <1>  -0.0170 
 16 C        0.1810     0.1000    -0.6530 C.3   1 <1>   0.0400 
 17 C       -0.8910     4.4390    -0.3360 C.ar  1 <1>  -0.1500 
 18 C       -1.7250     5.7750     1.6210 C.3   1 <1>  -0.0970 
 19 C       -2.9940    -3.6620    -0.2210 C.ar  1 <1>  -0.1430 
 20 C       -3.7090    -4.8830    -0.1660 C.ar  1 <1>   0.0000 
 21 C       -1.7310    -3.6480     0.2950 C.ar  1 <1>  -0.1500 
 22 C       -3.0620    -5.9970     0.4240 C.ar  1 <1>   0.3100 
 23 C       -5.0220    -5.0650    -0.6600 C.ar  1 <1>  -0.1500 
 24 C       -1.1850    -4.8070     0.8570 C.ar  1 <1>   0.1600 
 25 N       -1.8040    -5.9430     0.9290 N.ar  1 <1>  -0.6200 
 26 C       -3.7470    -7.2200     0.4960 C.ar  1 <1>  -0.1500 
 27 C       -5.6610    -6.2720    -0.5740 C.ar  1 <1>  -0.1500 
 28 C       -5.0180    -7.3650     0.0110 C.ar  1 <1>  -0.1500 
 29 H       -4.6220     1.6130    -0.1400 H     1 <1>   0.0800 
 30 H       -3.4690     0.6950    -1.0950 H     1 <1>   0.0800 
 31 H       -3.0010    -1.7280     1.6660 H     1 <1>   0.0800 
 32 H       -4.5210    -1.0500     2.1970 H     1 <1>   0.0800 
 33 H       -2.4340     3.2630     2.4200 H     1 <1>   0.1500 
 34 H       -5.4280    -0.5830    -1.5520 H     1 <1>   0.0800 
 35 H       -5.3290    -2.3980     0.4340 H     1 <1>   0.0800 
 36 H       -0.2030     3.2240    -1.9530 H     1 <1>   0.1500 
 37 H       -6.1140     0.1160     1.0880 H     1 <1>   0.4000 
 38 H       -2.7840    -1.7150    -1.0740 H     1 <1>   0.0800 
 39 H       -4.0790    -2.6340    -1.7490 H     1 <1>   0.0800 
 40 H        0.2840    -0.7290    -1.3300 H     1 <1>   0.0800 
 41 H       -0.0390    -0.2590     0.3360 H     1 <1>   0.0800 
 42 H        1.0840     0.6840    -0.6440 H     1 <1>   0.0800 
 43 H       -0.5580     5.3590    -0.7850 H     1 <1>   0.1500 
 44 H       -0.7820     6.2760     1.7470 H     1 <1>   0.0800 
 45 H       -2.1600     5.6200     2.5920 H     1 <1>   0.0800 
 46 H       -2.3800     6.4060     1.0480 H     1 <1>   0.0800 
 47 H       -1.1310    -2.7560     0.2920 H     1 <1>   0.1500 
 48 H       -5.5350    -4.2390    -1.1140 H     1 <1>   0.1500 
 49 H       -0.1860    -4.7500     1.2560 H     1 <1>   0.1500 
 50 H       -3.2330    -8.0470     0.9500 H     1 <1>   0.1500 
 51 H       -6.6610    -6.3960    -0.9540 H     1 <1>   0.1500 
 52 H       -5.5310    -8.3090     0.0730 H     1 <1>   0.1500 
@<TRIPOS>BOND
  1   1   2  2   
  2   2   3  am  
  3   2   4  1   
  4   3   5  1   
  5   3   6  1   
  6   4   7  ar  
  7   4   8  ar  
  8   5   9  1   
  9   5  29  1   
 10   5  30  1   
 11   6  10  1   
 12   6  31  1   
 13   6  32  1   
 14   7  11  1   
 15   7  12  ar  
 16   8  13  ar  
 17   8  33  1   
 18   9  10  1   
 19   9  14  1   
 20   9  34  1   
 21  10  15  1   
 22  10  35  1   
 23  11  16  1   
 24  12  17  ar  
 25  12  36  1   
 26  13  17  ar  
 27  13  18  1   
 28  14  37  1   
 29  15  19  1   
 30  15  38  1   
 31  15  39  1   
 32  16  40  1   
 33  16  41  1   
 34  16  42  1   
 35  17  43  1   
 36  18  44  1   
 37  18  45  1   
 38  18  46  1   
 39  19  20  ar  
 40  19  21  ar  
 41  20  22  ar  
 42  20  23  ar  
 43  21  24  ar  
 44  21  47  1   
 45  22  25  ar  
 46  22  26  ar  
 47  23  27  ar  
 48  23  48  1   
 49  24  25  ar  
 50  24  49  1   
 51  26  28  ar  
 52  26  50  1   
 53  27  28  ar  
 54  27  51  1   
 55  28  52  1   
@<TRIPOS>SUBSTRUCTURE
  1 ****   6 GROUP 4 **** **** 0

# MOE 2024.06 (io_trps.svl 2023.06)
