@<TRIPOS>MOLECULE
NONAME
48 51 1 0 0 
SMALL
USER_CHARGES


@<TRIPOS>ATOM
  1 O       -0.1530     0.2380     0.7120 O.2   1 <1>  -0.5700 
  2 C       -1.1880     0.8740     0.6600 C.2   1 <1>   0.5440 
  3 N       -2.3660     0.2010     0.4290 N.am  1 <1>  -0.6600 
  4 C       -1.1520     2.3130     0.8290 C.ar  1 <1>   0.0860 
  5 C       -3.6230     0.8240    -0.0570 C.3   1 <1>   0.1400 
  6 C       -2.4080    -1.2710     0.2430 C.3   1 <1>   0.1400 
  7 C       -0.2960     3.1030     0.0910 C.ar  1 <1>  -0.1500 
  8 C       -1.9880     2.9550     1.7640 C.ar  1 <1>  -0.1500 
  9 C       -4.4250    -0.3270    -0.6660 C.3   1 <1>   0.2000 
 10 C       -3.8800    -1.5970    -0.0180 C.3   1 <1>  -0.0800 
 11 C       -0.2500     4.4960     0.2250 C.ar  1 <1>   0.3100 
 12 C       -1.9650     4.3160     1.9220 C.ar  1 <1>  -0.1500 
 13 O       -5.7800    -0.2050    -0.4000 O.3   1 <1>  -0.6800 
 14 C       -4.1060    -2.8490    -0.8830 C.3   1 <1>  -0.0170 
 15 N        0.6070     5.2090    -0.5470 N.ar  1 <1>  -0.6200 
 16 C       -1.1060     5.1220     1.1610 C.ar  1 <1>   0.3100 
 17 C       -3.5960    -4.1060    -0.1970 C.ar  1 <1>   0.1670 
 18 C        0.5750     6.4900    -0.3510 C.ar  1 <1>   0.1670 
 19 N       -1.1200     6.4650     1.3420 N.ar  1 <1>  -0.6200 
 20 N       -2.3050    -4.3660    -0.3230 N.ar  1 <1>  -0.6200 
 21 C       -4.4770    -4.9140     0.5210 C.ar  1 <1>   0.1600 
 22 C       -0.2870     7.1170     0.5920 C.ar  1 <1>   0.1670 
 23 C        1.5260     7.3190    -1.1970 C.3   1 <1>  -0.0970 
 24 C       -1.9550    -5.4710     0.3130 C.ar  1 <1>   0.1600 
 25 N       -4.1290    -6.0190     1.1590 N.ar  1 <1>  -0.6200 
 26 C       -0.2700     8.6260     0.7690 C.3   1 <1>  -0.0970 
 27 C       -2.8380    -6.2710     1.0290 C.ar  1 <1>   0.1600 
 28 H       -4.1490     1.2580     0.7740 H     1 <1>   0.0800 
 29 H       -3.4110     1.5750    -0.7990 H     1 <1>   0.0800 
 30 H       -1.7960    -1.5360    -0.6030 H     1 <1>   0.0800 
 31 H       -2.0350    -1.7780     1.1170 H     1 <1>   0.0800 
 32 H        0.3720     2.6490    -0.6190 H     1 <1>   0.1500 
 33 H       -2.6440     2.3480     2.3640 H     1 <1>   0.1500 
 34 H       -4.2870    -0.3420    -1.7350 H     1 <1>   0.0800 
 35 H       -4.3460    -1.7370     0.9420 H     1 <1>   0.0800 
 36 H       -2.6020     4.8060     2.6360 H     1 <1>   0.1500 
 37 H       -5.9390    -0.1880     0.5640 H     1 <1>   0.4000 
 38 H       -3.6050    -2.7390    -1.8290 H     1 <1>   0.0800 
 39 H       -5.1570    -2.9530    -1.0860 H     1 <1>   0.0800 
 40 H       -5.5130    -4.6320     0.5730 H     1 <1>   0.1500 
 41 H        0.9740     8.0100    -1.8060 H     1 <1>   0.0800 
 42 H        2.1000     6.6810    -1.8470 H     1 <1>   0.0800 
 43 H        2.2080     7.8580    -0.5670 H     1 <1>   0.0800 
 44 H       -0.9200    -5.7590     0.2640 H     1 <1>   0.1500 
 45 H       -0.5300     9.1100    -0.1540 H     1 <1>   0.0800 
 46 H        0.7030     8.9510     1.0850 H     1 <1>   0.0800 
 47 H       -0.9840     8.9230     1.5170 H     1 <1>   0.0800 
 48 H       -2.4580    -7.1520     1.5140 H     1 <1>   0.1500 
@<TRIPOS>BOND
  1   1   2  2   
  2   2   3  am  
  3   2   4  1   
  4   3   5  1   
  5   3   6  1   
  6   4   7  ar  
  7   4   8  ar  
  8   5   9  1   
  9   5  28  1   
 10   5  29  1   
 11   6  10  1   
 12   6  30  1   
 13   6  31  1   
 14   7  11  ar  
 15   7  32  1   
 16   8  12  ar  
 17   8  33  1   
 18   9  10  1   
 19   9  13  1   
 20   9  34  1   
 21  10  14  1   
 22  10  35  1   
 23  11  15  ar  
 24  11  16  ar  
 25  12  16  ar  
 26  12  36  1   
 27  13  37  1   
 28  14  17  1   
 29  14  38  1   
 30  14  39  1   
 31  15  18  ar  
 32  16  19  ar  
 33  17  20  ar  
 34  17  21  ar  
 35  18  22  ar  
 36  18  23  1   
 37  19  22  ar  
 38  20  24  ar  
 39  21  25  ar  
 40  21  40  1   
 41  22  26  1   
 42  23  41  1   
 43  23  42  1   
 44  23  43  1   
 45  24  27  ar  
 46  24  44  1   
 47  25  27  ar  
 48  26  45  1   
 49  26  46  1   
 50  26  47  1   
 51  27  48  1   
@<TRIPOS>SUBSTRUCTURE
  1 ****   2 GROUP 4 **** **** 0

# MOE 2024.06 (io_trps.svl 2023.06)
