@<TRIPOS>MOLECULE
NONAME
41 43 1 0 0 
SMALL
USER_CHARGES


@<TRIPOS>ATOM
  1 O       -0.9500     0.7040    -2.0060 O.2   1 <1>  -0.5700 
  2 C       -1.4460     1.6420    -1.3900 C.2   1 <1>   0.5440 
  3 N       -2.8140     1.8490    -1.5830 N.am  1 <1>  -0.6600 
  4 C       -0.5970     2.4610    -0.5480 C.ar  1 <1>   0.3960 
  5 C       -3.6900     0.7760    -2.1360 C.3   1 <1>   0.1400 
  6 C       -3.5200     3.0870    -1.1770 C.3   1 <1>   0.1400 
  7 N       -1.0580     2.9930     0.6170 N.ar  1 <1>  -0.6200 
  8 C        0.7240     2.6940    -0.9620 C.ar  1 <1>   0.1600 
  9 C       -4.3200    -0.0380    -0.9990 C.3   1 <1>   0.1400 
 10 C       -4.4300     2.8210     0.0240 C.3   1 <1>  -0.1600 
 11 C       -0.1740     3.7250     1.2390 C.ar  1 <1>   0.1600 
 12 N        1.6160     3.4320    -0.3500 N.ar  1 <1>  -0.6200 
 13 N       -5.5520     0.5710    -0.3920 N.am  1 <1>  -0.6600 
 14 C       -5.7080     2.0600    -0.3450 C.3   1 <1>   0.1400 
 15 C        1.1440     3.9720     0.7870 C.ar  1 <1>   0.1390 
 16 C       -6.5980    -0.2340     0.0350 C.2   1 <1>   0.7150 
 17 O        1.9010     4.7060     1.4420 O.3   1 <1>  -0.8290 
 18 O       -7.7040     0.2750     0.1290 O.2   1 <1>  -0.5700 
 19 C       -6.4380    -1.6440     0.3530 C.2   1 <1>   0.0550 
 20 O       -5.2780    -2.1170     0.8100 O.3   1 <1>  -0.2800 
 21 C       -7.3220    -2.6860     0.2950 C.2   1 <1>  -0.1810 
 22 C       -5.3960    -3.4040     1.0390 C.2   1 <1>  -0.0100 
 23 C       -6.6430    -3.8210     0.7400 C.2   1 <1>  -0.1500 
 24 C       -8.7750    -2.7020    -0.1490 C.3   1 <1>  -0.0590 
 25 H       -3.1030     0.1110    -2.7450 H     1 <1>   0.0800 
 26 H       -4.4530     1.1950    -2.7660 H     1 <1>   0.0800 
 27 H       -4.1000     3.4530    -2.0070 H     1 <1>   0.0800 
 28 H       -2.8100     3.8570    -0.9290 H     1 <1>   0.0800 
 29 H        1.0420     2.2280    -1.8760 H     1 <1>   0.1500 
 30 H       -3.5840    -0.2010    -0.2300 H     1 <1>   0.0800 
 31 H       -4.5790    -0.9990    -1.4060 H     1 <1>   0.0800 
 32 H       -4.7270     3.7790     0.4080 H     1 <1>   0.0800 
 33 H       -3.8930     2.3190     0.8100 H     1 <1>   0.0800 
 34 H       -0.4340     4.1940     2.1680 H     1 <1>   0.1500 
 35 H       -6.0860     2.4030    -1.2920 H     1 <1>   0.0800 
 36 H       -6.4490     2.3030     0.3980 H     1 <1>   0.0800 
 37 H       -4.5490    -3.9490     1.4170 H     1 <1>   0.1500 
 38 H       -7.0530    -4.8120     0.8190 H     1 <1>   0.1500 
 39 H       -9.0490    -1.7690    -0.6070 H     1 <1>   0.0800 
 40 H       -9.4130    -2.8660     0.7010 H     1 <1>   0.0800 
 41 H       -8.9330    -3.4900    -0.8620 H     1 <1>   0.0800 
@<TRIPOS>BOND
  1   1   2  2   
  2   2   3  am  
  3   2   4  1   
  4   3   5  1   
  5   3   6  1   
  6   4   7  ar  
  7   4   8  ar  
  8   5   9  1   
  9   5  25  1   
 10   5  26  1   
 11   6  10  1   
 12   6  27  1   
 13   6  28  1   
 14   7  11  ar  
 15   8  12  ar  
 16   8  29  1   
 17   9  13  1   
 18   9  30  1   
 19   9  31  1   
 20  10  14  1   
 21  10  32  1   
 22  10  33  1   
 23  11  15  ar  
 24  11  34  1   
 25  12  15  ar  
 26  13  14  1   
 27  13  16  am  
 28  14  35  1   
 29  14  36  1   
 30  15  17  1   
 31  16  18  2   
 32  16  19  1   
 33  19  20  1   
 34  19  21  2   
 35  20  22  1   
 36  21  23  1   
 37  21  24  1   
 38  22  23  2   
 39  22  37  1   
 40  23  38  1   
 41  24  39  1   
 42  24  40  1   
 43  24  41  1   
@<TRIPOS>SUBSTRUCTURE
  1 ****   9 GROUP 4 **** **** 0

# MOE 2024.06 (io_trps.svl 2023.06)
