@<TRIPOS>MOLECULE
NONAME
42 43 1 0 0 
SMALL
USER_CHARGES


@<TRIPOS>ATOM
  1 F        0.5830     1.4310     1.3320 F     1 <1>  -0.1900 
  2 C        1.6260     2.0250     0.8160 C.ar  1 <1>   0.1900 
  3 C        2.8310     1.3490     0.7870 C.ar  1 <1>  -0.1500 
  4 C        1.4860     3.3070     0.3200 C.ar  1 <1>  -0.1500 
  5 C        3.9320     1.9860     0.2390 C.ar  1 <1>  -0.1500 
  6 C        2.5950     3.9320    -0.2250 C.ar  1 <1>  -0.1500 
  7 C        3.8200     3.2750    -0.2680 C.ar  1 <1>  -0.1430 
  8 C        5.0380     3.9640    -0.8730 C.3   1 <1>   0.2540 
  9 N        6.1720     3.9840     0.0760 N.3   1 <1>  -0.8100 
 10 C        7.4180     4.4390    -0.6010 C.3   1 <1>   0.1710 
 11 C        5.8570     4.7510     1.2910 C.3   1 <1>   0.0300 
 12 C        7.3910     5.8670    -1.1640 C.2   1 <1>   0.5690 
 13 O        7.0680     6.0250    -2.3160 O.2   1 <1>  -0.5700 
 14 N        7.7360     6.8920    -0.3260 N.am  1 <1>  -0.4940 
 15 C        7.7730     8.2690    -0.5710 C.2   1 <1>   0.2040 
 16 O        7.4460     8.7850    -1.7320 O.3   1 <1>  -0.0190 
 17 C        8.1140     9.2870     0.2450 C.2   1 <1>  -0.1810 
 18 N        7.5510    10.0890    -1.7330 N.2   1 <1>  -0.4100 
 19 C        7.9520    10.4160    -0.5570 C.2   1 <1>   0.1080 
 20 C        8.5710     9.2630     1.6950 C.3   1 <1>  -0.0590 
 21 C        8.2040    11.8550    -0.1400 C.3   1 <1>   0.0210 
 22 C        9.6760    12.2380    -0.3270 C.3   1 <1>  -0.2400 
 23 H        2.9030     0.3530     1.1830 H     1 <1>   0.1500 
 24 H        0.5320     3.7990     0.3620 H     1 <1>   0.1500 
 25 H        4.8840     1.4840     0.2080 H     1 <1>   0.1500 
 26 H        2.5020     4.9300    -0.6160 H     1 <1>   0.1500 
 27 H        4.7870     4.9700    -1.1650 H     1 <1>   0.0800 
 28 H        5.3250     3.4260    -1.7600 H     1 <1>   0.0800 
 29 H        7.6250     3.7710    -1.4180 H     1 <1>   0.0800 
 30 H        8.2390     4.3520     0.0860 H     1 <1>   0.0800 
 31 H        5.0430     4.2820     1.8190 H     1 <1>   0.0800 
 32 H        5.5690     5.7590     1.0430 H     1 <1>   0.0800 
 33 H        6.7090     4.7700     1.9480 H     1 <1>   0.0800 
 34 H        7.9720     6.6200     0.6230 H     1 <1>   0.3700 
 35 H        8.6200     8.2550     2.0630 H     1 <1>   0.0800 
 36 H        7.8830     9.8200     2.3050 H     1 <1>   0.0800 
 37 H        9.5480     9.7060     1.7790 H     1 <1>   0.0800 
 38 H        7.9170    11.9890     0.8870 H     1 <1>   0.0800 
 39 H        7.5890    12.5020    -0.7410 H     1 <1>   0.0800 
 40 H       10.3080    11.6100     0.2740 H     1 <1>   0.0800 
 41 H        9.8310    13.2640    -0.0420 H     1 <1>   0.0800 
 42 H        9.9550    12.1200    -1.3590 H     1 <1>   0.0800 
@<TRIPOS>BOND
  1   1   2  1   
  2   2   3  ar  
  3   2   4  ar  
  4   3   5  ar  
  5   3  23  1   
  6   4   6  ar  
  7   4  24  1   
  8   5   7  ar  
  9   5  25  1   
 10   6   7  ar  
 11   6  26  1   
 12   7   8  1   
 13   8   9  1   
 14   8  27  1   
 15   8  28  1   
 16   9  10  1   
 17   9  11  1   
 18  10  12  1   
 19  10  29  1   
 20  10  30  1   
 21  11  31  1   
 22  11  32  1   
 23  11  33  1   
 24  12  13  2   
 25  12  14  am  
 26  14  15  1   
 27  14  34  1   
 28  15  16  1   
 29  15  17  2   
 30  16  18  1   
 31  17  19  1   
 32  17  20  1   
 33  18  19  2   
 34  19  21  1   
 35  20  35  1   
 36  20  36  1   
 37  20  37  1   
 38  21  22  1   
 39  21  38  1   
 40  21  39  1   
 41  22  40  1   
 42  22  41  1   
 43  22  42  1   
@<TRIPOS>SUBSTRUCTURE
  1 ****  12 GROUP 4 **** **** 0

# MOE 2024.06 (io_trps.svl 2023.06)
