@<TRIPOS>MOLECULE
NONAME
47 50 1 0 0 
SMALL
USER_CHARGES


@<TRIPOS>ATOM
  1 CL      -0.5450     0.8210     1.2310 Cl    1 <1>  -0.1770 
  2 C        0.5520     2.0960     0.7630 C.ar  1 <1>   0.1770 
  3 C        0.0570     3.3400     0.4570 C.ar  1 <1>  -0.1500 
  4 C        1.9200     1.8120     0.7110 C.ar  1 <1>  -0.1500 
  5 C        0.9600     4.3450     0.0870 C.ar  1 <1>  -0.1520 
  6 C        2.8080     2.7970     0.3460 C.ar  1 <1>  -0.1500 
  7 N        0.7610     5.6560    -0.2700 N.pl3 1 <1>   0.0480 
  8 C        2.3240     4.0750     0.0320 C.ar  1 <1>   0.0000 
  9 C        1.9880     6.2280    -0.5370 C.2   1 <1>  -0.2370 
 10 C       -0.5580     6.3070    -0.4330 C.3   1 <1>   0.0160 
 11 C        2.9450     5.2670    -0.3710 C.2   1 <1>  -0.1500 
 12 C        2.1400     7.6050    -0.9310 C.2   1 <1>   0.7150 
 13 O        1.4830     8.0490    -1.8500 O.2   1 <1>  -0.5700 
 14 N        3.0340     8.4420    -0.2950 N.am  1 <1>  -0.6600 
 15 C        3.6060     8.1070     1.0630 C.3   1 <1>   0.2200 
 16 C        3.3030     9.7900    -0.8920 C.3   1 <1>   0.1400 
 17 C        3.3660     9.2160     2.1010 C.3   1 <1>   0.1200 
 18 C        5.1120     7.7680     0.9590 C.3   1 <1>   0.3430 
 19 C        4.5300    10.5300    -0.3250 C.3   1 <1>  -0.0800 
 20 O        4.3820    10.1710     2.0520 O.3   1 <1>  -0.5600 
 21 N        5.7270     8.2650    -0.3240 N.4   1 <1>  -0.9590 
 22 C        4.2550    11.1320     1.0600 C.3   1 <1>   0.1200 
 23 C        5.8650     9.7570    -0.3670 C.3   1 <1>   0.3430 
 24 C        7.0280     7.5910    -0.6060 C.3   1 <1>   0.2630 
 25 H       -0.9980     3.5290     0.5010 H     1 <1>   0.1500 
 26 H        2.2540     0.8200     0.9580 H     1 <1>   0.1500 
 27 H        3.8630     2.6010     0.2930 H     1 <1>   0.1500 
 28 H       -0.5120     7.3150    -0.0660 H     1 <1>   0.0800 
 29 H       -1.3070     5.7670     0.1140 H     1 <1>   0.0800 
 30 H       -0.8150     6.3210    -1.4770 H     1 <1>   0.0800 
 31 H        4.0030     5.3510    -0.5290 H     1 <1>   0.1500 
 32 H        3.1010     7.2430     1.4540 H     1 <1>   0.0800 
 33 H        3.4360     9.6700    -1.9550 H     1 <1>   0.0800 
 34 H        2.4250    10.4020    -0.7590 H     1 <1>   0.0800 
 35 H        3.4010     8.7870     3.0880 H     1 <1>   0.0800 
 36 H        2.4040     9.6840     1.9750 H     1 <1>   0.0800 
 37 H        5.2100     6.6960     1.0060 H     1 <1>   0.0800 
 38 H        5.6360     8.1770     1.8080 H     1 <1>   0.0800 
 39 H        4.6660    11.3860    -0.9630 H     1 <1>   0.0800 
 40 H        5.0340     8.0220    -1.0520 H     1 <1>   0.4500 
 41 H        3.2740    11.5770     1.1200 H     1 <1>   0.0800 
 42 H        4.9800    11.8990     1.2770 H     1 <1>   0.0800 
 43 H        6.4860    10.0870     0.4500 H     1 <1>   0.0800 
 44 H        6.3690    10.0220    -1.2830 H     1 <1>   0.0800 
 45 H        7.7480     7.8340     0.1580 H     1 <1>   0.0800 
 46 H        7.4150     7.9110    -1.5600 H     1 <1>   0.0800 
 47 H        6.8990     6.5210    -0.6310 H     1 <1>   0.0800 
@<TRIPOS>BOND
  1   1   2  1   
  2   2   3  ar  
  3   2   4  ar  
  4   3   5  ar  
  5   3  25  1   
  6   4   6  ar  
  7   4  26  1   
  8   5   7  1   
  9   5   8  ar  
 10   6   8  ar  
 11   6  27  1   
 12   7   9  1   
 13   7  10  1   
 14   8  11  1   
 15   9  11  2   
 16   9  12  1   
 17  10  28  1   
 18  10  29  1   
 19  10  30  1   
 20  11  31  1   
 21  12  13  2   
 22  12  14  am  
 23  14  15  1   
 24  14  16  1   
 25  15  17  1   
 26  15  18  1   
 27  15  32  1   
 28  16  19  1   
 29  16  33  1   
 30  16  34  1   
 31  17  20  1   
 32  17  35  1   
 33  17  36  1   
 34  18  21  1   
 35  18  37  1   
 36  18  38  1   
 37  19  22  1   
 38  19  23  1   
 39  19  39  1   
 40  20  22  1   
 41  21  23  1   
 42  21  24  1   
 43  21  40  1   
 44  22  41  1   
 45  22  42  1   
 46  23  43  1   
 47  23  44  1   
 48  24  45  1   
 49  24  46  1   
 50  24  47  1   
@<TRIPOS>SUBSTRUCTURE
  1 ****   9 GROUP 4 **** **** 0

# MOE 2024.06 (io_trps.svl 2023.06)
