@<TRIPOS>MOLECULE
NONAME
34 35 1 0 0 
SMALL
USER_CHARGES


@<TRIPOS>ATOM
  1 CL       1.0300     0.9980     0.1130 Cl    1 <1>  -0.1770 
  2 C       -0.6260     1.4750    -0.2150 C.ar  1 <1>   0.1770 
  3 C       -0.9610     2.8310    -0.3290 C.ar  1 <1>   0.4100 
  4 C       -1.5810     0.4980    -0.3520 C.ar  1 <1>  -0.1500 
  5 N       -2.2030     3.2440    -0.5650 N.ar  1 <1>  -0.6200 
  6 N       -0.0010     3.8140    -0.2030 N.pl3 1 <1>  -0.8690 
  7 C       -2.8680     0.9340    -0.6020 C.ar  1 <1>  -0.1500 
  8 C       -3.1170     2.2930    -0.6970 C.ar  1 <1>   0.1600 
  9 C       -0.3710     5.1860     0.2020 C.3   1 <1>   0.3890 
 10 C        0.8700     5.9200     0.6640 C.2   1 <1>  -0.0400 
 11 O        1.4680     5.5570     1.7670 O.3   1 <1>  -0.0190 
 12 C        1.5520     6.9530     0.1460 C.2   1 <1>  -0.1500 
 13 N        2.5150     6.2910     2.0150 N.2   1 <1>  -0.4100 
 14 C        2.5930     7.1400     1.0520 C.2   1 <1>   0.1080 
 15 C        3.6760     8.1990     0.9320 C.3   1 <1>   0.0210 
 16 C        4.5960     7.9730    -0.2830 C.3   1 <1>  -0.0800 
 17 C        5.3510     6.6400    -0.1830 C.3   1 <1>  -0.2400 
 18 C        5.6010     9.1250    -0.4130 C.3   1 <1>  -0.2400 
 19 H       -1.3340    -0.5450    -0.2670 H     1 <1>   0.1500 
 20 H        0.8840     3.5120     0.2160 H     1 <1>   0.4000 
 21 H       -3.6700     0.2270    -0.7230 H     1 <1>   0.1500 
 22 H       -4.1250     2.6180    -0.8930 H     1 <1>   0.1500 
 23 H       -1.0920     5.1530     1.0010 H     1 <1>   0.0800 
 24 H       -0.8090     5.6940    -0.6390 H     1 <1>   0.0800 
 25 H        1.3730     7.5170    -0.7500 H     1 <1>   0.1500 
 26 H        4.2620     8.2010     1.8340 H     1 <1>   0.0800 
 27 H        3.1990     9.1580     0.8510 H     1 <1>   0.0800 
 28 H        3.9910     7.9540    -1.1740 H     1 <1>   0.0800 
 29 H        5.9540     6.6110     0.7080 H     1 <1>   0.0800 
 30 H        5.9920     6.5060    -1.0360 H     1 <1>   0.0800 
 31 H        4.6610     5.8150    -0.1520 H     1 <1>   0.0800 
 32 H        6.2340     9.1770     0.4560 H     1 <1>   0.0800 
 33 H        5.0860    10.0640    -0.5210 H     1 <1>   0.0800 
 34 H        6.2230     8.9820    -1.2790 H     1 <1>   0.0800 
@<TRIPOS>BOND
  1   1   2  1   
  2   2   3  ar  
  3   2   4  ar  
  4   3   5  ar  
  5   3   6  1   
  6   4   7  ar  
  7   4  19  1   
  8   5   8  ar  
  9   6   9  1   
 10   6  20  1   
 11   7   8  ar  
 12   7  21  1   
 13   8  22  1   
 14   9  10  1   
 15   9  23  1   
 16   9  24  1   
 17  10  11  1   
 18  10  12  2   
 19  11  13  1   
 20  12  14  1   
 21  12  25  1   
 22  13  14  2   
 23  14  15  1   
 24  15  16  1   
 25  15  26  1   
 26  15  27  1   
 27  16  17  1   
 28  16  18  1   
 29  16  28  1   
 30  17  29  1   
 31  17  30  1   
 32  17  31  1   
 33  18  32  1   
 34  18  33  1   
 35  18  34  1   
@<TRIPOS>SUBSTRUCTURE
  1 ****  10 GROUP 4 **** **** 0

# MOE 2024.06 (io_trps.svl 2023.06)
