@<TRIPOS>MOLECULE
NONAME
45 46 1 0 0 
SMALL
USER_CHARGES


@<TRIPOS>ATOM
  1 S       -1.0910     0.5520     0.1320 S.o2  1 <1>   1.4470 
  2 O       -2.0110     1.6270    -0.1730 O.2   1 <1>  -0.6500 
  3 O       -0.9970     0.0770     1.4970 O.2   1 <1>  -0.6500 
  4 N       -1.5010    -0.7760    -0.8370 N.am  1 <1>  -0.8490 
  5 C        0.5610     1.0110    -0.4660 C.ar  1 <1>  -0.0090 
  6 C       -0.6850    -1.9990    -0.6280 C.3   1 <1>   0.1960 
  7 C       -2.9350    -1.0290    -0.9880 C.3   1 <1>   0.1960 
  8 C        1.5510     1.4230     0.4180 C.ar  1 <1>  -0.1500 
  9 C        0.8720     0.9790    -1.8200 C.ar  1 <1>  -0.1500 
 10 C       -1.4530    -3.2560    -0.1400 C.3   1 <1>  -0.1060 
 11 C       -3.5240    -1.7550     0.2280 C.3   1 <1>  -0.1600 
 12 C        2.8140     1.7840    -0.0220 C.ar  1 <1>  -0.1440 
 13 C        2.1290     1.3380    -2.2750 C.ar  1 <1>  -0.1500 
 14 C       -2.0720    -3.9400    -1.3730 C.2   1 <1>   0.9060 
 15 C       -2.5980    -2.8340     0.8210 C.3   1 <1>   0.2000 
 16 C       -0.4750    -4.3200     0.4620 C.3   1 <1>  -0.1600 
 17 C        3.0990     1.7410    -1.3760 C.ar  1 <1>  -0.1500 
 18 C        3.8740     2.2280     0.9700 C.3   1 <1>  -0.0960 
 19 O       -1.3740    -4.1030    -2.3830 O.co2 1 <1>  -0.9000 
 20 O       -3.2450    -4.3350    -1.3480 O.co2 1 <1>  -0.9000 
 21 O       -2.1040    -2.3190     2.0120 O.3   1 <1>  -0.6800 
 22 C        0.3740    -3.9640     1.7000 C.3   1 <1>  -0.1600 
 23 C        1.4020    -5.0620     1.9860 C.3   1 <1>  -0.2400 
 24 H       -0.1770    -2.2260    -1.5500 H     1 <1>   0.0800 
 25 H        0.0880    -1.7710     0.0810 H     1 <1>   0.0800 
 26 H       -3.4660    -0.1080    -1.1610 H     1 <1>   0.0800 
 27 H       -3.0810    -1.6370    -1.8660 H     1 <1>   0.0800 
 28 H        1.3240     1.4570     1.4710 H     1 <1>   0.1500 
 29 H        0.1200     0.6650    -2.5260 H     1 <1>   0.1500 
 30 H       -4.4220    -2.2420    -0.1060 H     1 <1>   0.0800 
 31 H       -3.8170    -1.0420     0.9780 H     1 <1>   0.0800 
 32 H        2.3490     1.3030    -3.3280 H     1 <1>   0.1500 
 33 H       -3.1800    -3.7020     1.0850 H     1 <1>   0.0800 
 34 H       -1.0540    -5.1960     0.6990 H     1 <1>   0.0800 
 35 H        0.2020    -4.6090    -0.3250 H     1 <1>   0.0800 
 36 H        4.0740     2.0210    -1.7350 H     1 <1>   0.1500 
 37 H        4.8540     1.9640     0.6170 H     1 <1>   0.0800 
 38 H        3.7190     1.7560     1.9240 H     1 <1>   0.0800 
 39 H        3.8270     3.2950     1.0990 H     1 <1>   0.0800 
 40 H       -1.6670    -1.4460     1.8410 H     1 <1>   0.4000 
 41 H        0.8940    -3.0350     1.5600 H     1 <1>   0.0800 
 42 H       -0.2600    -3.8670     2.5630 H     1 <1>   0.0800 
 43 H        2.0780    -5.1690     1.1560 H     1 <1>   0.0800 
 44 H        0.9060    -6.0020     2.1530 H     1 <1>   0.0800 
 45 H        1.9710    -4.8130     2.8640 H     1 <1>   0.0800 
@<TRIPOS>BOND
  1   1   2  2   
  2   1   3  2   
  3   1   4  am  
  4   1   5  1   
  5   4   6  1   
  6   4   7  1   
  7   5   8  ar  
  8   5   9  ar  
  9   6  10  1   
 10   6  24  1   
 11   6  25  1   
 12   7  11  1   
 13   7  26  1   
 14   7  27  1   
 15   8  12  ar  
 16   8  28  1   
 17   9  13  ar  
 18   9  29  1   
 19  10  14  1   
 20  10  15  1   
 21  10  16  1   
 22  11  15  1   
 23  11  30  1   
 24  11  31  1   
 25  12  17  ar  
 26  12  18  1   
 27  13  17  ar  
 28  13  32  1   
 29  14  19  ar  
 30  14  20  ar  
 31  15  21  1   
 32  15  33  1   
 33  16  22  1   
 34  16  34  1   
 35  16  35  1   
 36  17  36  1   
 37  18  37  1   
 38  18  38  1   
 39  18  39  1   
 40  21  40  1   
 41  22  23  1   
 42  22  41  1   
 43  22  42  1   
 44  23  43  1   
 45  23  44  1   
 46  23  45  1   
@<TRIPOS>SUBSTRUCTURE
  1 ****   6 GROUP 4 **** **** 0

# MOE 2024.06 (io_trps.svl 2023.06)
