@<TRIPOS>MOLECULE
NONAME
37 37 1 0 0 
SMALL
USER_CHARGES


@<TRIPOS>ATOM
  1 O        0.7200     0.3840    -0.4190 O.2   1 <1>  -0.5700 
  2 C        0.6310     1.5890    -0.3080 C.2   1 <1>   0.5690 
  3 N       -0.4950     2.2710    -0.6890 N.am  1 <1>  -0.6600 
  4 C        1.8420     2.3490     0.3070 C.3   1 <1>   0.2510 
  5 C       -0.5520     3.7500    -0.5450 C.3   1 <1>   0.1400 
  6 C       -1.8410     1.5790    -0.8190 C.3   1 <1>   0.0340 
  7 N        1.6840     3.8230     0.5310 N.3   1 <1>  -0.8100 
  8 C        3.0900     2.1690    -0.5680 C.3   1 <1>  -0.2400 
  9 C        0.2560     4.1900     0.6790 C.3   1 <1>   0.1100 
 10 C       -2.9130     1.9080     0.2350 C.2   1 <1>   0.9060 
 11 C        2.4550     4.2790     1.7300 C.3   1 <1>   0.1710 
 12 O       -2.6180     2.5100     1.2800 O.co2 1 <1>  -0.9000 
 13 O       -4.0820     1.5910    -0.0170 O.co2 1 <1>  -0.9000 
 14 C        2.7610     5.7800     1.7540 C.2   1 <1>   0.5690 
 15 O        3.0350     6.3160     2.8020 O.2   1 <1>  -0.5700 
 16 N        2.7320     6.4640     0.5840 N.am  1 <1>  -0.7300 
 17 C        3.0230     7.8890     0.4080 C.3   1 <1>   0.2780 
 18 C        3.7330     8.0490    -0.9190 C.2   1 <1>  -0.2880 
 19 C        3.2800     8.7510    -1.9630 C.2   1 <1>  -0.3000 
 20 H        2.0170     1.8740     1.2570 H     1 <1>   0.0800 
 21 H       -1.5710     4.0750    -0.4240 H     1 <1>   0.0800 
 22 H       -0.1560     4.2110    -1.4310 H     1 <1>   0.0800 
 23 H       -1.7010     0.5150    -0.7900 H     1 <1>   0.0800 
 24 H       -2.2570     1.8200    -1.7770 H     1 <1>   0.0800 
 25 H        2.9230     2.6170    -1.5300 H     1 <1>   0.0800 
 26 H        3.2830     1.1210    -0.7110 H     1 <1>   0.0800 
 27 H        3.9530     2.6130    -0.1110 H     1 <1>   0.0800 
 28 H       -0.1690     3.7240     1.5550 H     1 <1>   0.0800 
 29 H        0.1620     5.2560     0.7900 H     1 <1>   0.0800 
 30 H        3.4020     3.7740     1.7620 H     1 <1>   0.0800 
 31 H        1.9200     4.0210     2.6270 H     1 <1>   0.0800 
 32 H        2.4460     5.9400    -0.2490 H     1 <1>   0.3700 
 33 H        3.6460     8.2420     1.2130 H     1 <1>   0.0800 
 34 H        2.1010     8.4440     0.4130 H     1 <1>   0.0800 
 35 H        4.6730     7.5230    -0.9370 H     1 <1>   0.1500 
 36 H        3.8100     8.8470    -2.8960 H     1 <1>   0.1500 
 37 H        2.3460     9.2860    -1.9770 H     1 <1>   0.1500 
@<TRIPOS>BOND
  1   1   2  2   
  2   2   3  am  
  3   2   4  1   
  4   3   5  1   
  5   3   6  1   
  6   4   7  1   
  7   4   8  1   
  8   4  20  1   
  9   5   9  1   
 10   5  21  1   
 11   5  22  1   
 12   6  10  1   
 13   6  23  1   
 14   6  24  1   
 15   7   9  1   
 16   7  11  1   
 17   8  25  1   
 18   8  26  1   
 19   8  27  1   
 20   9  28  1   
 21   9  29  1   
 22  10  12  ar  
 23  10  13  ar  
 24  11  14  1   
 25  11  30  1   
 26  11  31  1   
 27  14  15  2   
 28  14  16  am  
 29  16  17  1   
 30  16  32  1   
 31  17  18  1   
 32  17  33  1   
 33  17  34  1   
 34  18  19  2   
 35  18  35  1   
 36  19  36  1   
 37  19  37  1   
@<TRIPOS>SUBSTRUCTURE
  1 ****   9 GROUP 4 **** **** 0

# MOE 2024.06 (io_trps.svl 2023.06)
