@<TRIPOS>MOLECULE
NONAME
48 51 1 0 0 
SMALL
USER_CHARGES


@<TRIPOS>ATOM
  1 O       -0.2670     1.0750    -1.1300 O.2   1 <1>  -0.5700 
  2 C       -0.1440     2.1660    -0.6350 C.2   1 <1>   0.5690 
  3 N       -1.2280     2.8730    -0.2510 N.am  1 <1>  -0.7300 
  4 C        1.2490     2.7810    -0.4720 C.3   1 <1>   0.1810 
  5 C       -1.1560     4.2270     0.3510 C.3   1 <1>   0.3640 
  6 O        1.2700     3.8780     0.4170 O.3   1 <1>  -0.5600 
  7 C       -2.2160     5.1040    -0.3070 C.ar  1 <1>  -0.1440 
  8 C        0.2580     4.8480     0.1900 C.3   1 <1>   0.2610 
  9 C       -3.0170     5.9250     0.4750 C.ar  1 <1>   0.1600 
 10 C       -2.4050     5.1120    -1.6780 C.ar  1 <1>  -0.1500 
 11 C        0.4560     6.0680     1.1090 C.2   1 <1>   0.5690 
 12 N       -3.9660     6.7230     0.0130 N.ar  1 <1>  -0.6200 
 13 C       -3.3860     5.9420    -2.1750 C.ar  1 <1>  -0.1500 
 14 O       -0.3080     6.2180     2.0380 O.2   1 <1>  -0.5700 
 15 N        1.4680     6.9730     0.8860 N.am  1 <1>  -0.6600 
 16 C       -4.1270     6.7150    -1.2990 C.ar  1 <1>   0.1600 
 17 C        1.5260     8.2360     1.7060 C.3   1 <1>   0.3210 
 18 C        2.6170     6.7330    -0.0370 C.3   1 <1>   0.1400 
 19 C        1.8440     9.4860     0.8870 C.2   1 <1>   0.3350 
 20 C        3.8420     6.3070     0.7670 C.3   1 <1>  -0.2400 
 21 N        0.9890    10.1760     0.2410 N.2   1 <1>  -0.4100 
 22 N        3.0830     9.9590     0.7910 N.2   1 <1>  -0.5650 
 23 O        1.6330    11.1530    -0.3240 O.3   1 <1>  -0.0190 
 24 C        2.8760    10.9680     0.0420 C.2   1 <1>   0.3930 
 25 C        3.9270    11.9540    -0.4460 C.3   1 <1>  -0.0150 
 26 C        4.4980    11.8330    -1.8270 C.3   1 <1>  -0.2000 
 27 C        5.3590    11.5500    -0.6330 C.3   1 <1>  -0.2000 
 28 H       -2.1530     2.4520    -0.3530 H     1 <1>   0.3700 
 29 H        1.6080     3.1130    -1.4290 H     1 <1>   0.0800 
 30 H        1.9230     2.0370    -0.0880 H     1 <1>   0.0800 
 31 H       -1.3780     4.1260     1.4000 H     1 <1>   0.0800 
 32 H        0.3570     5.1880    -0.8240 H     1 <1>   0.0800 
 33 H       -2.8690     5.9340     1.5440 H     1 <1>   0.1500 
 34 H       -1.8180     4.4970    -2.3400 H     1 <1>   0.1500 
 35 H       -3.5780     5.9920    -3.2310 H     1 <1>   0.1500 
 36 H       -4.8920     7.3600    -1.6970 H     1 <1>   0.1500 
 37 H        0.5830     8.4050     2.1940 H     1 <1>   0.0800 
 38 H        2.2700     8.1220     2.4730 H     1 <1>   0.0800 
 39 H        2.3830     5.9620    -0.7470 H     1 <1>   0.0800 
 40 H        2.8360     7.6240    -0.6000 H     1 <1>   0.0800 
 41 H        3.6190     5.4280     1.3470 H     1 <1>   0.0800 
 42 H        4.1640     7.0980     1.4190 H     1 <1>   0.0800 
 43 H        4.6500     6.0760     0.0970 H     1 <1>   0.0800 
 44 H        3.7440    12.9450    -0.0720 H     1 <1>   0.1000 
 45 H        4.1880    11.0080    -2.4460 H     1 <1>   0.1000 
 46 H        4.6720    12.7320    -2.3930 H     1 <1>   0.1000 
 47 H        6.1300    12.2510    -0.3670 H     1 <1>   0.1000 
 48 H        5.6370    10.5310    -0.4220 H     1 <1>   0.1000 
@<TRIPOS>BOND
  1   1   2  2   
  2   2   3  am  
  3   2   4  1   
  4   3   5  1   
  5   3  28  1   
  6   4   6  1   
  7   4  29  1   
  8   4  30  1   
  9   5   7  1   
 10   5   8  1   
 11   5  31  1   
 12   6   8  1   
 13   7   9  ar  
 14   7  10  ar  
 15   8  11  1   
 16   8  32  1   
 17   9  12  ar  
 18   9  33  1   
 19  10  13  ar  
 20  10  34  1   
 21  11  14  2   
 22  11  15  am  
 23  12  16  ar  
 24  13  16  ar  
 25  13  35  1   
 26  15  17  1   
 27  15  18  1   
 28  16  36  1   
 29  17  19  1   
 30  17  37  1   
 31  17  38  1   
 32  18  20  1   
 33  18  39  1   
 34  18  40  1   
 35  19  21  2   
 36  19  22  1   
 37  20  41  1   
 38  20  42  1   
 39  20  43  1   
 40  21  23  1   
 41  22  24  2   
 42  23  24  1   
 43  24  25  1   
 44  25  26  1   
 45  25  27  1   
 46  25  44  1   
 47  26  27  1   
 48  26  45  1   
 49  26  46  1   
 50  27  47  1   
 51  27  48  1   
@<TRIPOS>SUBSTRUCTURE
  1 ****  15 GROUP 4 **** **** 0

# MOE 2024.06 (io_trps.svl 2023.06)
