@<TRIPOS>MOLECULE
NONAME
55 58 1 0 0 
SMALL
USER_CHARGES


@<TRIPOS>ATOM
  1 O       -0.6430    -0.5040    -0.0040 O.3   1 <1>  -0.5600 
  2 C        0.3070    -1.1380     0.7980 C.3   1 <1>   0.1200 
  3 C       -1.7180    -1.3220    -0.3710 C.3   1 <1>   0.1200 
  4 C        0.9240    -2.3400     0.0560 C.3   1 <1>   0.2090 
  5 C       -1.2220    -2.5370    -1.1740 C.3   1 <1>   0.2090 
  6 N       -0.1430    -3.2860    -0.4270 N.pl3 1 <1>  -0.8380 
  7 C       -0.2100    -4.6330    -0.2360 C.ar  1 <1>   0.7710 
  8 N       -1.3100    -5.2860    -0.5780 N.ar  1 <1>  -0.6200 
  9 N        0.8490    -5.2730     0.2910 N.ar  1 <1>  -0.1790 
 10 C       -1.3570    -6.5930    -0.3970 C.ar  1 <1>   0.4100 
 11 C        0.8460    -6.6070     0.5170 C.ar  1 <1>   0.2180 
 12 N       -2.4870    -7.2450    -0.7780 N.pl3 1 <1>  -0.8380 
 13 C       -0.2730    -7.2870     0.1740 C.ar  1 <1>  -0.1500 
 14 C        2.0760    -7.2590     1.1360 C.3   1 <1>  -0.0170 
 15 C       -2.5120    -8.6320    -1.3230 C.3   1 <1>   0.2090 
 16 C       -3.8260    -6.5840    -0.7740 C.3   1 <1>   0.2090 
 17 C        3.3110    -7.1410     0.2330 C.3   1 <1>  -0.2400 
 18 C       -3.4510    -9.4890    -0.4760 C.3   1 <1>  -0.1600 
 19 C       -4.7930    -7.4180     0.0670 C.3   1 <1>  -0.1600 
 20 C       -4.8520    -8.8640    -0.4310 C.3   1 <1>   0.2000 
 21 O       -5.6570    -9.5890     0.4750 O.3   1 <1>  -0.3630 
 22 C       -6.1900   -10.8060     0.1840 C.ar  1 <1>   0.0820 
 23 C       -6.1790   -11.4040    -1.0770 C.ar  1 <1>   0.1600 
 24 C       -6.7820   -11.4870     1.2280 C.ar  1 <1>  -0.1500 
 25 N       -6.6900   -12.5940    -1.3600 N.ar  1 <1>  -0.6200 
 26 C       -7.3210   -12.7250     0.9520 C.ar  1 <1>  -0.1500 
 27 C       -7.2490   -13.2250    -0.3380 C.ar  1 <1>   0.1600 
 28 H       -0.1680    -1.4510     1.7120 H     1 <1>   0.0800 
 29 H        1.0670    -0.4140     1.0330 H     1 <1>   0.0800 
 30 H       -2.3890    -0.7310    -0.9680 H     1 <1>   0.0800 
 31 H       -2.2350    -1.6380     0.5190 H     1 <1>   0.0800 
 32 H        1.6140    -2.8250     0.7190 H     1 <1>   0.0800 
 33 H        1.4780    -1.9680    -0.7910 H     1 <1>   0.0800 
 34 H       -0.8250    -2.1890    -2.1120 H     1 <1>   0.0800 
 35 H       -2.0690    -3.1610    -1.4000 H     1 <1>   0.0800 
 36 H        1.6600    -4.7040     0.4850 H     1 <1>   0.4570 
 37 H       -0.3640    -8.3430     0.3380 H     1 <1>   0.1500 
 38 H        1.8760    -8.3040     1.3100 H     1 <1>   0.0800 
 39 H        2.2810    -6.8120     2.0940 H     1 <1>   0.0800 
 40 H       -1.5280    -9.0640    -1.3400 H     1 <1>   0.0800 
 41 H       -2.8690    -8.6000    -2.3390 H     1 <1>   0.0800 
 42 H       -4.1850    -6.5030    -1.7860 H     1 <1>   0.0800 
 43 H       -3.7660    -5.5930    -0.3590 H     1 <1>   0.0800 
 44 H        3.1190    -7.5870    -0.7280 H     1 <1>   0.0800 
 45 H        4.1400    -7.6620     0.6810 H     1 <1>   0.0800 
 46 H        3.6010    -6.1160     0.0890 H     1 <1>   0.0800 
 47 H       -3.0540    -9.5630     0.5200 H     1 <1>   0.0800 
 48 H       -3.4980   -10.4760    -0.8980 H     1 <1>   0.0800 
 49 H       -5.7730    -6.9810     0.0170 H     1 <1>   0.0800 
 50 H       -4.4620    -7.3990     1.0910 H     1 <1>   0.0800 
 51 H       -5.3180    -8.8770    -1.4000 H     1 <1>   0.0800 
 52 H       -5.7320   -10.8870    -1.9030 H     1 <1>   0.1500 
 53 H       -6.8130   -11.0590     2.2140 H     1 <1>   0.1500 
 54 H       -7.7930   -13.3000     1.7270 H     1 <1>   0.1500 
 55 H       -7.6730   -14.1940    -0.5400 H     1 <1>   0.1500 
@<TRIPOS>BOND
  1   1   2  1   
  2   1   3  1   
  3   2   4  1   
  4   2  28  1   
  5   2  29  1   
  6   3   5  1   
  7   3  30  1   
  8   3  31  1   
  9   4   6  1   
 10   4  32  1   
 11   4  33  1   
 12   5   6  1   
 13   5  34  1   
 14   5  35  1   
 15   6   7  1   
 16   7   8  ar  
 17   7   9  ar  
 18   8  10  ar  
 19   9  11  ar  
 20   9  36  1   
 21  10  12  1   
 22  10  13  ar  
 23  11  13  ar  
 24  11  14  1   
 25  12  15  1   
 26  12  16  1   
 27  13  37  1   
 28  14  17  1   
 29  14  38  1   
 30  14  39  1   
 31  15  18  1   
 32  15  40  1   
 33  15  41  1   
 34  16  19  1   
 35  16  42  1   
 36  16  43  1   
 37  17  44  1   
 38  17  45  1   
 39  17  46  1   
 40  18  20  1   
 41  18  47  1   
 42  18  48  1   
 43  19  20  1   
 44  19  49  1   
 45  19  50  1   
 46  20  21  1   
 47  20  51  1   
 48  21  22  1   
 49  22  23  ar  
 50  22  24  ar  
 51  23  25  ar  
 52  23  52  1   
 53  24  26  ar  
 54  24  53  1   
 55  25  27  ar  
 56  26  27  ar  
 57  26  54  1   
 58  27  55  1   
@<TRIPOS>SUBSTRUCTURE
  1 ****  12 GROUP 4 **** **** 0

# MOE 2024.06 (io_trps.svl 2023.06)
