@<TRIPOS>MOLECULE
NONAME
53 56 1 0 0 
SMALL
USER_CHARGES


@<TRIPOS>ATOM
  1 O       -0.9770     0.2050     0.8860 O.2   1 <1>  -0.5700 
  2 C       -1.6290     1.2080     0.6370 C.2   1 <1>   0.7150 
  3 N       -3.0080     1.0830     0.5730 N.am  1 <1>  -0.6600 
  4 C       -0.8930     2.4500     0.4300 C.2   1 <1>   0.1010 
  5 C       -3.6650    -0.2560     0.4500 C.3   1 <1>   0.1400 
  6 C       -3.9370     2.2470     0.6510 C.3   1 <1>   0.1400 
  7 N       -1.3000     3.6040    -0.0400 N.2   1 <1>  -0.5650 
  8 N        0.4370     2.4790     0.7340 N.pl3 1 <1>   0.0330 
  9 C       -4.5440    -0.3640    -0.8050 C.3   1 <1>   0.1400 
 10 C       -4.3970     2.6360    -0.7580 C.3   1 <1>  -0.1600 
 11 C       -0.2030     4.4020    -0.0340 C.ar  1 <1>   0.2270 
 12 C        0.8940     3.7180     0.4460 C.ar  1 <1>  -0.1520 
 13 N       -5.7630     0.4980    -0.6990 N.am  1 <1>  -0.6600 
 14 C       -5.6300     1.8740    -1.2670 C.3   1 <1>   0.1400 
 15 C       -0.0720     5.7330    -0.4290 C.ar  1 <1>  -0.1500 
 16 C        2.1470     4.3280     0.5470 C.ar  1 <1>  -0.1500 
 17 C       -6.9580     0.0740    -0.1560 C.2   1 <1>   0.5690 
 18 C        1.1580     6.3460    -0.3340 C.ar  1 <1>  -0.1500 
 19 C        2.2670     5.6420     0.1540 C.ar  1 <1>  -0.1500 
 20 O       -7.9150     0.8120    -0.0830 O.2   1 <1>  -0.5700 
 21 C       -7.1290    -1.3250     0.4340 C.3   1 <1>   0.1810 
 22 O       -7.0190    -2.3330    -0.5590 O.3   1 <1>  -0.3630 
 23 C       -7.0400    -3.6480    -0.2290 C.ar  1 <1>   0.0820 
 24 C       -6.8120    -4.5510    -1.2540 C.ar  1 <1>  -0.1500 
 25 C       -7.2720    -4.1210     1.0600 C.ar  1 <1>  -0.1500 
 26 C       -6.8070    -5.9120    -1.0020 C.ar  1 <1>  -0.1500 
 27 C       -7.2650    -5.4830     1.3070 C.ar  1 <1>  -0.1500 
 28 C       -7.0310    -6.3850     0.2810 C.ar  1 <1>  -0.1430 
 29 C       -7.0270    -7.8780     0.5580 C.3   1 <1>  -0.0970 
 30 H       -4.2560    -0.4440     1.3290 H     1 <1>   0.0800 
 31 H       -2.9190    -1.0290     0.3950 H     1 <1>   0.0800 
 32 H       -3.4390     3.0810     1.1140 H     1 <1>   0.0800 
 33 H       -4.7840     2.0050     1.2700 H     1 <1>   0.0800 
 34 H        0.9670     1.6770     1.0870 H     1 <1>   0.2700 
 35 H       -4.8290    -1.3900    -0.9440 H     1 <1>   0.0800 
 36 H       -3.9690    -0.0810    -1.6690 H     1 <1>   0.0800 
 37 H       -3.5820     2.5170    -1.4500 H     1 <1>   0.0800 
 38 H       -4.6420     3.6820    -0.7580 H     1 <1>   0.0800 
 39 H       -5.5940     1.8080    -2.3410 H     1 <1>   0.0800 
 40 H       -6.5030     2.4520    -1.0160 H     1 <1>   0.0800 
 41 H       -0.9380     6.2480    -0.8000 H     1 <1>   0.1500 
 42 H        2.9920     3.7780     0.9230 H     1 <1>   0.1500 
 43 H        1.2780     7.3720    -0.6350 H     1 <1>   0.1500 
 44 H        3.2180     6.1440     0.2180 H     1 <1>   0.1500 
 45 H       -8.1040    -1.4050     0.8790 H     1 <1>   0.0800 
 46 H       -6.3760    -1.4950     1.1790 H     1 <1>   0.0800 
 47 H       -6.6410    -4.1840    -2.2490 H     1 <1>   0.1500 
 48 H       -7.4630    -3.4550     1.8780 H     1 <1>   0.1500 
 49 H       -6.6290    -6.6000    -1.8090 H     1 <1>   0.1500 
 50 H       -7.4450    -5.8410     2.3060 H     1 <1>   0.1500 
 51 H       -6.3670    -8.3860    -0.1220 H     1 <1>   0.0800 
 52 H       -8.0200    -8.2720     0.4360 H     1 <1>   0.0800 
 53 H       -6.6960    -8.0750     1.5610 H     1 <1>   0.0800 
@<TRIPOS>BOND
  1   1   2  2   
  2   2   3  am  
  3   2   4  1   
  4   3   5  1   
  5   3   6  1   
  6   4   7  2   
  7   4   8  1   
  8   5   9  1   
  9   5  30  1   
 10   5  31  1   
 11   6  10  1   
 12   6  32  1   
 13   6  33  1   
 14   7  11  1   
 15   8  12  1   
 16   8  34  1   
 17   9  13  1   
 18   9  35  1   
 19   9  36  1   
 20  10  14  1   
 21  10  37  1   
 22  10  38  1   
 23  11  12  ar  
 24  11  15  ar  
 25  12  16  ar  
 26  13  14  1   
 27  13  17  am  
 28  14  39  1   
 29  14  40  1   
 30  15  18  ar  
 31  15  41  1   
 32  16  19  ar  
 33  16  42  1   
 34  17  20  2   
 35  17  21  1   
 36  18  19  ar  
 37  18  43  1   
 38  19  44  1   
 39  21  22  1   
 40  21  45  1   
 41  21  46  1   
 42  22  23  1   
 43  23  24  ar  
 44  23  25  ar  
 45  24  26  ar  
 46  24  47  1   
 47  25  27  ar  
 48  25  48  1   
 49  26  28  ar  
 50  26  49  1   
 51  27  28  ar  
 52  27  50  1   
 53  28  29  1   
 54  29  51  1   
 55  29  52  1   
 56  29  53  1   
@<TRIPOS>SUBSTRUCTURE
  1 ****   5 GROUP 4 **** **** 0

# MOE 2024.06 (io_trps.svl 2023.06)
