@<TRIPOS>MOLECULE
NONAME
57 60 1 0 0 
SMALL
USER_CHARGES


@<TRIPOS>ATOM
  1 O       -1.3700     1.4280     2.4500 O.2   1 <1>  -0.5700 
  2 C       -2.2340     1.6240     1.6280 C.2   1 <1>   0.5690 
  3 N       -3.3930     0.8920     1.6040 N.am  1 <1>  -0.6600 
  4 C       -1.9980     2.7060     0.5900 C.3   1 <1>  -0.0990 
  5 C       -3.6250    -0.2250     2.5630 C.3   1 <1>   0.1400 
  6 C       -4.5100     1.0590     0.6320 C.3   1 <1>   0.1400 
  7 C       -0.6110     3.3490     0.7120 C.3   1 <1>   0.0960 
  8 C       -3.7610    -1.5330     1.7800 C.3   1 <1>  -0.1600 
  9 C       -4.6420    -0.2250    -0.1890 C.3   1 <1>  -0.1600 
 10 N       -0.4050     4.3030    -0.3960 N.pl3 1 <1>   0.0480 
 11 C       -4.8630    -1.4540     0.7120 C.3   1 <1>   0.4240 
 12 C        0.1410     4.0910    -1.6210 C.2   1 <1>   0.0060 
 13 C       -0.7970     5.5900    -0.4130 C.2   1 <1>  -0.3020 
 14 O       -6.0580    -1.2530     1.4290 O.3   1 <1>  -0.5600 
 15 C       -4.9000    -2.7550    -0.1190 C.ar  1 <1>  -0.1430 
 16 N        0.1130     5.1340    -2.3860 N.2   1 <1>  -0.5650 
 17 C        0.7290     2.7630    -2.0730 C.3   1 <1>   0.0200 
 18 C       -0.4720     6.0780    -1.6280 C.2   1 <1>   0.0770 
 19 C       -7.2550    -1.6040     0.8060 C.3   1 <1>   0.1200 
 20 C       -6.0450    -3.5440    -0.1710 C.ar  1 <1>  -0.1430 
 21 C       -3.7830    -3.1620    -0.8410 C.ar  1 <1>  -0.1500 
 22 C        2.1620     2.5880    -1.5620 C.3   1 <1>  -0.2400 
 23 C       -7.2780    -3.1150     0.5980 C.3   1 <1>  -0.0170 
 24 C       -6.0680    -4.7120    -0.9170 C.ar  1 <1>  -0.1500 
 25 C       -3.8050    -4.3250    -1.5880 C.ar  1 <1>  -0.1500 
 26 C       -4.9430    -5.1090    -1.6320 C.ar  1 <1>   0.0830 
 27 O       -4.8820    -6.2360    -2.3860 O.3   1 <1>  -0.3630 
 28 C       -5.9800    -7.1150    -2.4810 C.3   1 <1>   0.0400 
 29 H       -2.7490     3.4650     0.7110 H     1 <1>   0.0800 
 30 H       -2.0920     2.2640    -0.3840 H     1 <1>   0.0800 
 31 H       -4.5260    -0.0320     3.1210 H     1 <1>   0.0800 
 32 H       -2.8120    -0.3060     3.2640 H     1 <1>   0.0800 
 33 H       -4.3440     1.8940    -0.0240 H     1 <1>   0.0800 
 34 H       -5.4220     1.2420     1.1750 H     1 <1>   0.0800 
 35 H        0.1530     2.5950     0.6760 H     1 <1>   0.0800 
 36 H       -0.5240     3.8730     1.6480 H     1 <1>   0.0800 
 37 H       -3.9830    -2.3400     2.4540 H     1 <1>   0.0800 
 38 H       -2.8140    -1.7460     1.3240 H     1 <1>   0.0800 
 39 H       -3.7430    -0.3540    -0.7600 H     1 <1>   0.0800 
 40 H       -5.4500    -0.1340    -0.8900 H     1 <1>   0.0800 
 41 H       -1.2730     6.0780     0.4170 H     1 <1>   0.1500 
 42 H        0.7360     2.7430    -3.1490 H     1 <1>   0.0800 
 43 H        0.1110     1.9510    -1.7360 H     1 <1>   0.0800 
 44 H       -0.6320     7.0740    -2.0050 H     1 <1>   0.1500 
 45 H       -7.3340    -1.0830    -0.1310 H     1 <1>   0.0800 
 46 H       -8.0620    -1.3010     1.4490 H     1 <1>   0.0800 
 47 H       -2.8810    -2.5770    -0.8300 H     1 <1>   0.1500 
 48 H        2.7750     3.3960    -1.9220 H     1 <1>   0.0800 
 49 H        2.5720     1.6600    -1.9180 H     1 <1>   0.0800 
 50 H        2.1890     2.5910    -0.4880 H     1 <1>   0.0800 
 51 H       -8.1680    -3.3840     0.0580 H     1 <1>   0.0800 
 52 H       -7.2990    -3.6080     1.5540 H     1 <1>   0.0800 
 53 H       -6.9640    -5.3010    -0.9330 H     1 <1>   0.1500 
 54 H       -2.9380    -4.6350    -2.1420 H     1 <1>   0.1500 
 55 H       -5.6980    -7.9330    -3.1190 H     1 <1>   0.0800 
 56 H       -6.8130    -6.5870    -2.9100 H     1 <1>   0.0800 
 57 H       -6.2190    -7.4820    -1.4990 H     1 <1>   0.0800 
@<TRIPOS>BOND
  1   1   2  2   
  2   2   3  am  
  3   2   4  1   
  4   3   5  1   
  5   3   6  1   
  6   4   7  1   
  7   4  29  1   
  8   4  30  1   
  9   5   8  1   
 10   5  31  1   
 11   5  32  1   
 12   6   9  1   
 13   6  33  1   
 14   6  34  1   
 15   7  10  1   
 16   7  35  1   
 17   7  36  1   
 18   8  11  1   
 19   8  37  1   
 20   8  38  1   
 21   9  11  1   
 22   9  39  1   
 23   9  40  1   
 24  10  12  1   
 25  10  13  1   
 26  11  14  1   
 27  11  15  1   
 28  12  16  2   
 29  12  17  1   
 30  13  18  2   
 31  13  41  1   
 32  14  19  1   
 33  15  20  ar  
 34  15  21  ar  
 35  16  18  1   
 36  17  22  1   
 37  17  42  1   
 38  17  43  1   
 39  18  44  1   
 40  19  23  1   
 41  19  45  1   
 42  19  46  1   
 43  20  23  1   
 44  20  24  ar  
 45  21  25  ar  
 46  21  47  1   
 47  22  48  1   
 48  22  49  1   
 49  22  50  1   
 50  23  51  1   
 51  23  52  1   
 52  24  26  ar  
 53  24  53  1   
 54  25  26  ar  
 55  25  54  1   
 56  26  27  1   
 57  27  28  1   
 58  28  55  1   
 59  28  56  1   
 60  28  57  1   
@<TRIPOS>SUBSTRUCTURE
  1 ****   9 GROUP 4 **** **** 0

# MOE 2024.06 (io_trps.svl 2023.06)
