@<TRIPOS>MOLECULE
NONAME
51 53 1 0 0 
SMALL
USER_CHARGES


@<TRIPOS>ATOM
  1 O        2.9270    -0.4550    -2.3370 O.2   1 <1>  -0.5700 
  2 C        2.2250    -1.0260    -1.5380 C.2   1 <1>   0.5690 
  3 N        1.7000    -0.4570    -0.4130 N.am  1 <1>  -0.5470 
  4 C        1.8710    -2.4960    -1.7730 C.3   1 <1>   0.1710 
  5 C        1.7740     0.8290     0.1460 C.ar  1 <1>   0.1170 
  6 N        0.6430    -2.9390    -1.0420 N.3   1 <1>  -0.8100 
  7 C        2.6290     1.8200    -0.3260 C.ar  1 <1>  -0.1500 
  8 C        0.9560     1.1260     1.2300 C.ar  1 <1>  -0.1500 
  9 C        0.6040    -4.4010    -0.9100 C.3   1 <1>   0.1100 
 10 C       -0.5750    -2.4250    -1.6940 C.3   1 <1>   0.1100 
 11 C        2.6590     3.0690     0.2670 C.ar  1 <1>  -0.1500 
 12 C        0.9810     2.3730     1.8270 C.ar  1 <1>  -0.1500 
 13 C       -0.5810    -4.8100    -0.0320 C.3   1 <1>  -0.1600 
 14 C       -1.7940    -2.7590    -0.8350 C.3   1 <1>  -0.1600 
 15 C        1.8390     3.3580     1.3450 C.ar  1 <1>   0.0830 
 16 C       -1.8940    -4.2650    -0.6040 C.3   1 <1>   0.2000 
 17 O        1.9310     4.6090     1.8680 O.3   1 <1>  -0.3630 
 18 O       -2.9240    -4.4740     0.3070 O.3   1 <1>  -0.5600 
 19 C        1.1340     4.9960     2.9650 C.3   1 <1>   0.0400 
 20 C       -3.5140    -5.7470     0.2660 C.3   1 <1>   0.2630 
 21 C       -4.6490    -5.8970     1.2770 C.ar  1 <1>   0.1670 
 22 N       -5.2680    -7.0720     1.2590 N.ar  1 <1>  -0.6200 
 23 C       -4.9910    -4.8660     2.1440 C.ar  1 <1>  -0.1500 
 24 C       -6.2550    -7.2200     2.1280 C.ar  1 <1>   0.1600 
 25 C       -6.0210    -5.0350     3.0450 C.ar  1 <1>  -0.1500 
 26 C       -6.6650    -6.2520     3.0280 C.ar  1 <1>  -0.1500 
 27 H        1.0840    -1.1220     0.0670 H     1 <1>   0.3700 
 28 H        2.7140    -3.0730    -1.4390 H     1 <1>   0.0800 
 29 H        1.7540    -2.6630    -2.8300 H     1 <1>   0.0800 
 30 H        3.2780     1.6220    -1.1590 H     1 <1>   0.1500 
 31 H        0.2900     0.3730     1.6100 H     1 <1>   0.1500 
 32 H        1.5140    -4.7470    -0.4490 H     1 <1>   0.0800 
 33 H        0.5190    -4.8570    -1.8830 H     1 <1>   0.0800 
 34 H       -0.6820    -2.8630    -2.6720 H     1 <1>   0.0800 
 35 H       -0.5120    -1.3550    -1.8090 H     1 <1>   0.0800 
 36 H        3.3220     3.8290    -0.1050 H     1 <1>   0.1500 
 37 H        0.3320     2.5600     2.6610 H     1 <1>   0.1500 
 38 H       -0.4280    -4.4190     0.9590 H     1 <1>   0.0800 
 39 H       -0.6150    -5.8820     0.0240 H     1 <1>   0.0800 
 40 H       -2.6840    -2.4120    -1.3270 H     1 <1>   0.0800 
 41 H       -1.7050    -2.2510     0.1090 H     1 <1>   0.0800 
 42 H       -2.1350    -4.7520    -1.5350 H     1 <1>   0.0800 
 43 H        1.3710     6.0170     3.2050 H     1 <1>   0.0800 
 44 H        1.3600     4.3610     3.8030 H     1 <1>   0.0800 
 45 H        0.0970     4.9170     2.6880 H     1 <1>   0.0800 
 46 H       -2.7620    -6.4860     0.4790 H     1 <1>   0.0800 
 47 H       -3.9050    -5.9110    -0.7220 H     1 <1>   0.0800 
 48 H       -4.4560    -3.9330     2.1190 H     1 <1>   0.1500 
 49 H       -6.7660    -8.1680     2.1240 H     1 <1>   0.1500 
 50 H       -6.3050    -4.2530     3.7270 H     1 <1>   0.1500 
 51 H       -7.4770    -6.4510     3.7030 H     1 <1>   0.1500 
@<TRIPOS>BOND
  1   1   2  2   
  2   2   3  am  
  3   2   4  1   
  4   3   5  1   
  5   3  27  1   
  6   4   6  1   
  7   4  28  1   
  8   4  29  1   
  9   5   7  ar  
 10   5   8  ar  
 11   6   9  1   
 12   6  10  1   
 13   7  11  ar  
 14   7  30  1   
 15   8  12  ar  
 16   8  31  1   
 17   9  13  1   
 18   9  32  1   
 19   9  33  1   
 20  10  14  1   
 21  10  34  1   
 22  10  35  1   
 23  11  15  ar  
 24  11  36  1   
 25  12  15  ar  
 26  12  37  1   
 27  13  16  1   
 28  13  38  1   
 29  13  39  1   
 30  14  16  1   
 31  14  40  1   
 32  14  41  1   
 33  15  17  1   
 34  16  18  1   
 35  16  42  1   
 36  17  19  1   
 37  18  20  1   
 38  19  43  1   
 39  19  44  1   
 40  19  45  1   
 41  20  21  1   
 42  20  46  1   
 43  20  47  1   
 44  21  22  ar  
 45  21  23  ar  
 46  22  24  ar  
 47  23  25  ar  
 48  23  48  1   
 49  24  26  ar  
 50  24  49  1   
 51  25  26  ar  
 52  25  50  1   
 53  26  51  1   
@<TRIPOS>SUBSTRUCTURE
  1 ****  14 GROUP 4 **** **** 0

# MOE 2024.06 (io_trps.svl 2023.06)
