@<TRIPOS>MOLECULE
NONAME
54 57 1 0 0 
SMALL
USER_CHARGES


@<TRIPOS>ATOM
  1 O        0.3750     0.6020    -0.0230 O.2   1 <1>  -0.5700 
  2 C       -0.2940     1.6110    -0.1680 C.2   1 <1>   0.7150 
  3 N       -1.6610     1.5200     0.0380 N.am  1 <1>  -0.6600 
  4 C        0.3710     2.8390    -0.5570 C.2   1 <1>   0.0550 
  5 C       -2.6530     2.5460    -0.4150 C.3   1 <1>   0.1400 
  6 C       -2.2950     0.2940     0.6060 C.3   1 <1>   0.1400 
  7 O       -0.0080     4.0180    -0.0770 O.3   1 <1>  -0.2800 
  8 C        1.4210     3.0350    -1.3830 C.2   1 <1>   0.0460 
  9 C       -3.5640     2.9820     0.7470 C.3   1 <1>   0.1440 
 10 C       -3.2350     0.6690     1.7590 C.3   1 <1>  -0.1600 
 11 C        0.8360     4.8450    -0.6610 C.2   1 <1>   0.2980 
 12 N        1.7080     4.3290    -1.4460 N.2   1 <1>  -0.5650 
 13 C        2.2450     2.0460    -2.1830 C.3   1 <1>  -0.0590 
 14 C       -4.5460     4.0090     0.2160 C.ar  1 <1>   0.1670 
 15 C       -4.2600     1.7400     1.3440 C.3   1 <1>  -0.1600 
 16 C       -2.7950     3.7880     1.8290 C.3   1 <1>  -0.1600 
 17 C        0.6810     6.3240    -0.3420 C.3   1 <1>   0.0200 
 18 N       -5.5610     3.7510    -0.5700 N.ar  1 <1>  -0.6200 
 19 C       -4.2330     5.2660     0.6380 C.ar  1 <1>  -0.1430 
 20 C       -3.0050     5.2780     1.5130 C.3   1 <1>  -0.0170 
 21 C        1.7340     7.2200    -1.0120 C.3   1 <1>  -0.2400 
 22 C       -6.2880     4.8130    -0.9280 C.ar  1 <1>   0.7200 
 23 C       -5.0360     6.2960     0.2200 C.ar  1 <1>   0.1600 
 24 N       -6.0660     6.0810    -0.5630 N.ar  1 <1>  -0.6200 
 25 N       -7.3680     4.5780    -1.7560 N.pl3 1 <1>  -0.8380 
 26 C       -8.0810     5.6810    -2.4570 C.3   1 <1>   0.1290 
 27 C       -7.9300     3.2140    -1.9570 C.3   1 <1>   0.1290 
 28 H       -3.2660     2.1100    -1.1860 H     1 <1>   0.0800 
 29 H       -2.1730     3.4030    -0.8470 H     1 <1>   0.0800 
 30 H       -1.5480    -0.3920     0.9670 H     1 <1>   0.0800 
 31 H       -2.8510    -0.2010    -0.1720 H     1 <1>   0.0800 
 32 H       -2.6440     1.0240     2.5850 H     1 <1>   0.0800 
 33 H       -3.7540    -0.2130     2.0900 H     1 <1>   0.0800 
 34 H        1.8640     1.0480    -2.0770 H     1 <1>   0.0800 
 35 H        3.2630     2.0680    -1.8400 H     1 <1>   0.0800 
 36 H        2.2230     2.3170    -3.2220 H     1 <1>   0.0800 
 37 H       -4.9190     1.3220     0.6020 H     1 <1>   0.0800 
 38 H       -4.8670     2.0230     2.1860 H     1 <1>   0.0800 
 39 H       -1.7520     3.5310     1.8780 H     1 <1>   0.0800 
 40 H       -3.2290     3.5930     2.7940 H     1 <1>   0.0800 
 41 H        0.7410     6.4470     0.7240 H     1 <1>   0.0800 
 42 H       -0.2980     6.6360    -0.6590 H     1 <1>   0.0800 
 43 H       -2.1700     5.6690     0.9590 H     1 <1>   0.0800 
 44 H       -3.1570     5.8560     2.4080 H     1 <1>   0.0800 
 45 H        2.7200     6.9280    -0.6970 H     1 <1>   0.0800 
 46 H        1.5740     8.2490    -0.7460 H     1 <1>   0.0800 
 47 H        1.6750     7.1240    -2.0820 H     1 <1>   0.0800 
 48 H       -4.8330     7.3060     0.5290 H     1 <1>   0.1500 
 49 H       -7.4090     6.4970    -2.6610 H     1 <1>   0.0800 
 50 H       -8.8860     6.0380    -1.8380 H     1 <1>   0.0800 
 51 H       -8.4790     5.3290    -3.3920 H     1 <1>   0.0800 
 52 H       -7.7360     2.5940    -1.0980 H     1 <1>   0.0800 
 53 H       -7.4790     2.7630    -2.8230 H     1 <1>   0.0800 
 54 H       -8.9950     3.2700    -2.0980 H     1 <1>   0.0800 
@<TRIPOS>BOND
  1   1   2  2   
  2   2   3  am  
  3   2   4  1   
  4   3   5  1   
  5   3   6  1   
  6   4   7  1   
  7   4   8  2   
  8   5   9  1   
  9   5  28  1   
 10   5  29  1   
 11   6  10  1   
 12   6  30  1   
 13   6  31  1   
 14   7  11  1   
 15   8  12  1   
 16   8  13  1   
 17   9  14  1   
 18   9  15  1   
 19   9  16  1   
 20  10  15  1   
 21  10  32  1   
 22  10  33  1   
 23  11  12  2   
 24  11  17  1   
 25  13  34  1   
 26  13  35  1   
 27  13  36  1   
 28  14  18  ar  
 29  14  19  ar  
 30  15  37  1   
 31  15  38  1   
 32  16  20  1   
 33  16  39  1   
 34  16  40  1   
 35  17  21  1   
 36  17  41  1   
 37  17  42  1   
 38  18  22  ar  
 39  19  20  1   
 40  19  23  ar  
 41  20  43  1   
 42  20  44  1   
 43  21  45  1   
 44  21  46  1   
 45  21  47  1   
 46  22  24  ar  
 47  22  25  1   
 48  23  24  ar  
 49  23  48  1   
 50  25  26  1   
 51  25  27  1   
 52  26  49  1   
 53  26  50  1   
 54  26  51  1   
 55  27  52  1   
 56  27  53  1   
 57  27  54  1   
@<TRIPOS>SUBSTRUCTURE
  1 ****   5 GROUP 4 **** **** 0

# MOE 2024.06 (io_trps.svl 2023.06)
