@<TRIPOS>MOLECULE
NONAME
57 59 1 0 0 
SMALL
USER_CHARGES


@<TRIPOS>ATOM
  1 O        1.3090    -1.8280    -2.1330 O.3   1 <1>  -0.6800 
  2 C        0.4870    -2.0880    -1.0450 C.3   1 <1>   0.1200 
  3 C        1.2330    -1.8770     0.3050 C.3   1 <1>   0.0000 
  4 C        2.6280    -2.5660     0.3690 C.3   1 <1>   0.4230 
  5 C        1.4120    -0.3550     0.5590 C.3   1 <1>  -0.1600 
  6 C        0.3470    -2.4560     1.4450 C.3   1 <1>  -0.1600 
  7 N        2.5640    -4.0810     0.1710 N.4   1 <1>  -0.9590 
  8 C        3.7040    -1.8180    -0.4840 C.3   1 <1>   0.3430 
  9 C        2.4220     0.3200    -0.3740 C.3   1 <1>   0.3430 
 10 C        0.7360    -3.8870     1.8710 C.3   1 <1>  -0.1600 
 11 C        1.3150    -4.7140     0.7220 C.3   1 <1>   0.3430 
 12 C        2.7520    -4.5460    -1.2470 C.3   1 <1>   0.2630 
 13 N        3.7610    -0.3320    -0.2310 N.4   1 <1>  -0.9590 
 14 C        4.7500     0.3360    -1.1280 C.3   1 <1>   0.4860 
 15 C        4.9430     1.7540    -0.6360 C.ar  1 <1>  -0.1440 
 16 C        4.3750     2.8160    -1.3250 C.ar  1 <1>  -0.1500 
 17 C        5.6780     2.0060     0.5130 C.ar  1 <1>  -0.1500 
 18 C        4.5260     4.1090    -0.8580 C.ar  1 <1>  -0.1500 
 19 C        5.8250     3.3010     0.9750 C.ar  1 <1>  -0.1500 
 20 C        5.2490     4.3640     0.2980 C.ar  1 <1>  -0.1440 
 21 C        5.4230     5.7880     0.8250 C.3   1 <1>   0.0630 
 22 C        4.0690     6.4090     1.1820 C.3   1 <1>  -0.2400 
 23 C        6.1700     6.6590    -0.1900 C.3   1 <1>  -0.2400 
 24 H        0.7760    -1.8030    -2.9620 H     1 <1>   0.4000 
 25 H       -0.3660    -1.4310    -1.1080 H     1 <1>   0.0800 
 26 H        0.1290    -3.0980    -1.1440 H     1 <1>   0.0800 
 27 H        2.9480    -2.4250     1.3880 H     1 <1>   0.0800 
 28 H        1.7320    -0.1740     1.5710 H     1 <1>   0.0800 
 29 H        0.4640     0.1430     0.4440 H     1 <1>   0.0800 
 30 H        0.3980    -1.8390     2.3280 H     1 <1>   0.0800 
 31 H       -0.6880    -2.4460     1.1420 H     1 <1>   0.0800 
 32 H        3.3350    -4.4880     0.7240 H     1 <1>   0.4500 
 33 H        3.4870    -1.9780    -1.5260 H     1 <1>   0.0800 
 34 H        4.6700    -2.2470    -0.2750 H     1 <1>   0.0800 
 35 H        2.4940     1.3670    -0.1220 H     1 <1>   0.0800 
 36 H        2.0830     0.2480    -1.3950 H     1 <1>   0.0800 
 37 H       -0.1370    -4.3870     2.2580 H     1 <1>   0.0800 
 38 H        1.4530    -3.8540     2.6740 H     1 <1>   0.0800 
 39 H        0.5700    -4.7890    -0.0530 H     1 <1>   0.0800 
 40 H        1.5310    -5.7140     1.0660 H     1 <1>   0.0800 
 41 H        1.9760    -4.1520    -1.8820 H     1 <1>   0.0800 
 42 H        2.7140    -5.6230    -1.2940 H     1 <1>   0.0800 
 43 H        3.7070    -4.2280    -1.6320 H     1 <1>   0.0800 
 44 H        4.0900    -0.1250     0.7230 H     1 <1>   0.4500 
 45 H        5.6970    -0.1780    -1.0960 H     1 <1>   0.0800 
 46 H        4.3950     0.3410    -2.1460 H     1 <1>   0.0800 
 47 H        3.8130     2.6580    -2.2300 H     1 <1>   0.1500 
 48 H        6.1510     1.2100     1.0620 H     1 <1>   0.1500 
 49 H        4.0800     4.9230    -1.4020 H     1 <1>   0.1500 
 50 H        6.3980     3.4810     1.8690 H     1 <1>   0.1500 
 51 H        6.0140     5.7560     1.7240 H     1 <1>   0.0800 
 52 H        3.4520     6.5160     0.3080 H     1 <1>   0.0800 
 53 H        4.2100     7.3800     1.6210 H     1 <1>   0.0800 
 54 H        3.5550     5.7860     1.8920 H     1 <1>   0.0800 
 55 H        5.6000     6.7730    -1.0940 H     1 <1>   0.0800 
 56 H        7.1150     6.2070    -0.4340 H     1 <1>   0.0800 
 57 H        6.3560     7.6350     0.2230 H     1 <1>   0.0800 
@<TRIPOS>BOND
  1   1   2  1   
  2   1  24  1   
  3   2   3  1   
  4   2  25  1   
  5   2  26  1   
  6   3   4  1   
  7   3   5  1   
  8   3   6  1   
  9   4   7  1   
 10   4   8  1   
 11   4  27  1   
 12   5   9  1   
 13   5  28  1   
 14   5  29  1   
 15   6  10  1   
 16   6  30  1   
 17   6  31  1   
 18   7  11  1   
 19   7  12  1   
 20   7  32  1   
 21   8  13  1   
 22   8  33  1   
 23   8  34  1   
 24   9  13  1   
 25   9  35  1   
 26   9  36  1   
 27  10  11  1   
 28  10  37  1   
 29  10  38  1   
 30  11  39  1   
 31  11  40  1   
 32  12  41  1   
 33  12  42  1   
 34  12  43  1   
 35  13  14  1   
 36  13  44  1   
 37  14  15  1   
 38  14  45  1   
 39  14  46  1   
 40  15  16  ar  
 41  15  17  ar  
 42  16  18  ar  
 43  16  47  1   
 44  17  19  ar  
 45  17  48  1   
 46  18  20  ar  
 47  18  49  1   
 48  19  20  ar  
 49  19  50  1   
 50  20  21  1   
 51  21  22  1   
 52  21  23  1   
 53  21  51  1   
 54  22  52  1   
 55  22  53  1   
 56  22  54  1   
 57  23  55  1   
 58  23  56  1   
 59  23  57  1   
@<TRIPOS>SUBSTRUCTURE
  1 ****  13 GROUP 4 **** **** 0

# MOE 2024.06 (io_trps.svl 2023.06)
