@<TRIPOS>MOLECULE
NONAME
48 51 1 0 0 
SMALL
USER_CHARGES


@<TRIPOS>ATOM
  1 F       -1.1680    -0.5450    -1.8990 F     1 <1>  -0.1900 
  2 C       -2.2770    -0.9950    -1.3650 C.ar  1 <1>   0.1900 
  3 C       -3.4970    -0.5520    -1.8110 C.ar  1 <1>   0.1600 
  4 C       -2.2400    -1.9180    -0.3510 C.ar  1 <1>   0.1600 
  5 N       -4.6160    -0.9990    -1.2830 N.ar  1 <1>  -0.6200 
  6 N       -3.3480    -2.3760     0.1910 N.ar  1 <1>  -0.6200 
  7 C       -4.4980    -1.8960    -0.2970 C.ar  1 <1>   0.7200 
  8 N       -5.6660    -2.3730     0.2610 N.pl3 1 <1>  -0.8380 
  9 C       -6.9770    -2.3260    -0.4410 C.3   1 <1>   0.2090 
 10 C       -5.7030    -3.1710     1.5170 C.3   1 <1>   0.2090 
 11 C       -7.3780    -3.7530    -0.8160 C.3   1 <1>  -0.1600 
 12 C       -6.0830    -4.6100     1.1720 C.3   1 <1>  -0.1600 
 13 C       -7.4160    -4.6790     0.4130 C.3   1 <1>   0.4240 
 14 O       -8.3800    -4.1800     1.3110 O.3   1 <1>  -0.5600 
 15 C       -7.7230    -6.1360     0.0010 C.ar  1 <1>  -0.1430 
 16 C       -9.7110    -4.5320     1.0910 C.3   1 <1>   0.1200 
 17 C       -8.8780    -6.7790     0.4240 C.ar  1 <1>  -0.1430 
 18 C       -6.8420    -6.8360    -0.8130 C.ar  1 <1>  -0.1500 
 19 C       -9.8620    -6.0350     1.3050 C.3   1 <1>  -0.0170 
 20 C       -9.1380    -8.0870     0.0450 C.ar  1 <1>  -0.1500 
 21 C       -7.0810    -8.1450    -1.1960 C.ar  1 <1>   0.0830 
 22 C       -8.2550    -8.7860    -0.7730 C.ar  1 <1>   0.0830 
 23 O       -6.1160    -8.6980    -1.9830 O.3   1 <1>  -0.3630 
 24 O       -8.5190   -10.0630    -1.1790 O.3   1 <1>  -0.3630 
 25 C       -5.7850   -10.0650    -1.8680 C.3   1 <1>   0.0400 
 26 C       -9.7570   -10.6910    -0.9290 C.3   1 <1>   0.0400 
 27 H       -3.5490     0.1720    -2.6040 H     1 <1>   0.1500 
 28 H       -1.2960    -2.2800     0.0140 H     1 <1>   0.1500 
 29 H       -6.9310    -1.7220    -1.3290 H     1 <1>   0.0800 
 30 H       -7.7130    -1.8940     0.2160 H     1 <1>   0.0800 
 31 H       -6.4360    -2.7460     2.1810 H     1 <1>   0.0800 
 32 H       -4.7550    -3.1520     2.0260 H     1 <1>   0.0800 
 33 H       -6.6570    -4.1210    -1.5210 H     1 <1>   0.0800 
 34 H       -8.3300    -3.7510    -1.3100 H     1 <1>   0.0800 
 35 H       -6.1560    -5.1940     2.0700 H     1 <1>   0.0800 
 36 H       -5.2910    -5.0250     0.5780 H     1 <1>   0.0800 
 37 H       -9.9930    -4.2510     0.0920 H     1 <1>   0.0800 
 38 H      -10.3160    -3.9890     1.7950 H     1 <1>   0.0800 
 39 H       -5.9400    -6.3720    -1.1670 H     1 <1>   0.1500 
 40 H      -10.8700    -6.3250     1.0670 H     1 <1>   0.0800 
 41 H       -9.6750    -6.2700     2.3370 H     1 <1>   0.0800 
 42 H      -10.0410    -8.5450     0.3990 H     1 <1>   0.1500 
 43 H       -4.7940   -10.2030    -2.2580 H     1 <1>   0.0800 
 44 H       -6.4870   -10.6410    -2.4430 H     1 <1>   0.0800 
 45 H       -5.8180   -10.3480    -0.8300 H     1 <1>   0.0800 
 46 H       -9.7450   -11.6530    -1.4070 H     1 <1>   0.0800 
 47 H      -10.5450   -10.0870    -1.3430 H     1 <1>   0.0800 
 48 H       -9.8780   -10.8130     0.1330 H     1 <1>   0.0800 
@<TRIPOS>BOND
  1   1   2  1   
  2   2   3  ar  
  3   2   4  ar  
  4   3   5  ar  
  5   3  27  1   
  6   4   6  ar  
  7   4  28  1   
  8   5   7  ar  
  9   6   7  ar  
 10   7   8  1   
 11   8   9  1   
 12   8  10  1   
 13   9  11  1   
 14   9  29  1   
 15   9  30  1   
 16  10  12  1   
 17  10  31  1   
 18  10  32  1   
 19  11  13  1   
 20  11  33  1   
 21  11  34  1   
 22  12  13  1   
 23  12  35  1   
 24  12  36  1   
 25  13  14  1   
 26  13  15  1   
 27  14  16  1   
 28  15  17  ar  
 29  15  18  ar  
 30  16  19  1   
 31  16  37  1   
 32  16  38  1   
 33  17  19  1   
 34  17  20  ar  
 35  18  21  ar  
 36  18  39  1   
 37  19  40  1   
 38  19  41  1   
 39  20  22  ar  
 40  20  42  1   
 41  21  22  ar  
 42  21  23  1   
 43  22  24  1   
 44  23  25  1   
 45  24  26  1   
 46  25  43  1   
 47  25  44  1   
 48  25  45  1   
 49  26  46  1   
 50  26  47  1   
 51  26  48  1   
@<TRIPOS>SUBSTRUCTURE
  1 ****  13 GROUP 4 **** **** 0

# MOE 2024.06 (io_trps.svl 2023.06)
