@<TRIPOS>MOLECULE
NONAME
52 54 1 0 0 
SMALL
USER_CHARGES


@<TRIPOS>ATOM
  1 F        0.2100    -0.8250    -0.2020 F     1 <1>  -0.1900 
  2 C       -0.5550    -1.8850    -0.1270 C.ar  1 <1>   0.1900 
  3 C       -0.0730    -3.1690    -0.4030 C.ar  1 <1>   0.0820 
  4 C       -1.8670    -1.6710     0.2450 C.ar  1 <1>  -0.1500 
  5 O        1.1950    -3.5080    -0.7790 O.3   1 <1>  -0.3630 
  6 C       -0.9630    -4.2260    -0.2910 C.ar  1 <1>  -0.1500 
  7 C       -2.7260    -2.7490     0.3490 C.ar  1 <1>  -0.1500 
  8 C        2.2100    -2.5550    -1.0020 C.3   1 <1>   0.0400 
  9 C       -2.2980    -4.0520     0.0810 C.ar  1 <1>   0.0530 
 10 C       -3.1870    -5.1870     0.1840 C.2   1 <1>   0.0870 
 11 O       -2.6960    -6.3870     0.3880 O.3   1 <1>  -0.0190 
 12 C       -4.5360    -5.3280     0.1090 C.2   1 <1>  -0.2330 
 13 N       -3.6180    -7.3110     0.4530 N.2   1 <1>  -0.4100 
 14 C       -4.7380    -6.6960     0.2830 C.2   1 <1>   0.3720 
 15 C       -5.5470    -4.3430    -0.0970 C.2   1 <1>   1.0330 
 16 N       -5.9760    -7.3510     0.2800 N.pl3 1 <1>  -0.8210 
 17 O       -5.9430    -3.6340     0.8460 O.co2 1 <1>  -0.9000 
 18 O       -5.9770    -4.1080    -1.2410 O.co2 1 <1>  -0.9000 
 19 C       -6.0490    -8.6280     1.0210 C.3   1 <1>   0.2090 
 20 C       -6.6580    -7.3880    -1.0400 C.3   1 <1>   0.2090 
 21 C       -7.5240    -8.9730     1.2530 C.3   1 <1>  -0.1600 
 22 C       -8.1330    -7.7400    -0.8250 C.3   1 <1>  -0.1600 
 23 C       -8.3030    -9.0930    -0.0840 C.3   1 <1>   0.0610 
 24 C       -7.7580   -10.2580    -0.9510 C.2   1 <1>   0.5690 
 25 C       -9.8060    -9.3910     0.1740 C.3   1 <1>  -0.1600 
 26 O       -7.7900   -10.1800    -2.1580 O.2   1 <1>  -0.5700 
 27 N       -7.2900   -11.3890    -0.3460 N.am  1 <1>  -0.7300 
 28 C      -10.5850    -8.3840     1.0400 C.3   1 <1>  -0.2400 
 29 C       -6.7410   -12.5760    -1.0470 C.3   1 <1>   0.0600 
 30 H       -2.2170    -0.6760     0.4520 H     1 <1>   0.1500 
 31 H       -0.6050    -5.2170    -0.5050 H     1 <1>   0.1500 
 32 H       -3.7450    -2.5720     0.6460 H     1 <1>   0.1500 
 33 H        3.0950    -3.0760    -1.3180 H     1 <1>   0.0800 
 34 H        2.4050    -2.0290    -0.0840 H     1 <1>   0.0800 
 35 H        1.8900    -1.8780    -1.7740 H     1 <1>   0.0800 
 36 H       -5.5480    -8.5150     1.9680 H     1 <1>   0.0800 
 37 H       -5.5470    -9.3980     0.4600 H     1 <1>   0.0800 
 38 H       -6.1790    -8.1150    -1.6740 H     1 <1>   0.0800 
 39 H       -6.5880    -6.4310    -1.5250 H     1 <1>   0.0800 
 40 H       -7.9350    -8.1800     1.8510 H     1 <1>   0.0800 
 41 H       -7.5990    -9.8760     1.8280 H     1 <1>   0.0800 
 42 H       -8.6270    -7.7690    -1.7790 H     1 <1>   0.0800 
 43 H       -8.5660    -6.9350    -0.2610 H     1 <1>   0.0800 
 44 H       -9.8890   -10.3600     0.6360 H     1 <1>   0.0800 
 45 H      -10.3000    -9.4610    -0.7810 H     1 <1>   0.0800 
 46 H       -7.3030   -11.4380     0.6730 H     1 <1>   0.3700 
 47 H      -10.1760    -8.3210     2.0320 H     1 <1>   0.0800 
 48 H      -11.6090    -8.7000     1.1240 H     1 <1>   0.0800 
 49 H      -10.5790    -7.4040     0.5980 H     1 <1>   0.0800 
 50 H       -6.7660   -12.4280    -2.1140 H     1 <1>   0.0800 
 51 H       -7.3280   -13.4460    -0.8060 H     1 <1>   0.0800 
 52 H       -5.7210   -12.7390    -0.7450 H     1 <1>   0.0800 
@<TRIPOS>BOND
  1   1   2  1   
  2   2   3  ar  
  3   2   4  ar  
  4   3   5  1   
  5   3   6  ar  
  6   4   7  ar  
  7   4  30  1   
  8   5   8  1   
  9   6   9  ar  
 10   6  31  1   
 11   7   9  ar  
 12   7  32  1   
 13   8  33  1   
 14   8  34  1   
 15   8  35  1   
 16   9  10  1   
 17  10  11  1   
 18  10  12  2   
 19  11  13  1   
 20  12  14  1   
 21  12  15  1   
 22  13  14  2   
 23  14  16  1   
 24  15  17  ar  
 25  15  18  ar  
 26  16  19  1   
 27  16  20  1   
 28  19  21  1   
 29  19  36  1   
 30  19  37  1   
 31  20  22  1   
 32  20  38  1   
 33  20  39  1   
 34  21  23  1   
 35  21  40  1   
 36  21  41  1   
 37  22  23  1   
 38  22  42  1   
 39  22  43  1   
 40  23  24  1   
 41  23  25  1   
 42  24  26  2   
 43  24  27  am  
 44  25  28  1   
 45  25  44  1   
 46  25  45  1   
 47  27  29  1   
 48  27  46  1   
 49  28  47  1   
 50  28  48  1   
 51  28  49  1   
 52  29  50  1   
 53  29  51  1   
 54  29  52  1   
@<TRIPOS>SUBSTRUCTURE
  1 ****  14 GROUP 4 **** **** 0

# MOE 2024.06 (io_trps.svl 2023.06)
