@<TRIPOS>MOLECULE
NONAME
42 44 1 0 0 
SMALL
USER_CHARGES


@<TRIPOS>ATOM
  1 CL       0.5690    -0.4410     0.3020 Cl    1 <1>  -0.1770 
  2 C       -0.4430    -1.8380     0.0410 C.ar  1 <1>   0.1770 
  3 C        0.1210    -3.0990     0.0560 C.ar  1 <1>  -0.1500 
  4 C       -1.7960    -1.6690    -0.1800 C.ar  1 <1>  -0.1500 
  5 C       -0.6860    -4.2030    -0.1520 C.ar  1 <1>  -0.1500 
  6 C       -2.5920    -2.7810    -0.3890 C.ar  1 <1>  -0.1500 
  7 C       -2.0600    -4.0740    -0.3780 C.ar  1 <1>   0.0530 
  8 C       -2.8800    -5.2420    -0.5940 C.2   1 <1>   0.0870 
  9 O       -2.3530    -6.3190    -1.1230 O.3   1 <1>  -0.0190 
 10 C       -4.1840    -5.5260    -0.3470 C.2   1 <1>  -0.2330 
 11 N       -3.2130    -7.2920    -1.2520 N.2   1 <1>  -0.4100 
 12 C       -4.3360    -6.8450    -0.7950 C.2   1 <1>   0.3720 
 13 C       -5.1610    -4.6860     0.2600 C.2   1 <1>   1.0330 
 14 N       -5.4890    -7.6580    -0.8080 N.pl3 1 <1>  -0.8210 
 15 O       -5.4290    -4.7950     1.4680 O.co2 1 <1>  -0.9000 
 16 O       -5.7780    -3.8430    -0.4130 O.co2 1 <1>  -0.9000 
 17 C       -5.2690    -9.0740    -0.3870 C.3   1 <1>   0.2090 
 18 C       -6.7570    -7.1250    -0.2180 C.3   1 <1>   0.2090 
 19 C       -6.5170    -9.9420    -0.6630 C.3   1 <1>   0.2000 
 20 C       -7.9370    -8.0830    -0.4570 C.3   1 <1>   0.1200 
 21 O       -7.6450    -9.3890    -0.0350 O.3   1 <1>  -0.5600 
 22 C       -6.3490   -11.4150    -0.2180 C.3   1 <1>  -0.0800 
 23 C       -7.5360   -12.2690    -0.6910 C.3   1 <1>  -0.2400 
 24 C       -6.1760   -11.5790     1.3030 C.3   1 <1>  -0.2400 
 25 H        1.1760    -3.2100     0.2290 H     1 <1>   0.1500 
 26 H       -2.2230    -0.6830    -0.1880 H     1 <1>   0.1500 
 27 H       -0.2520    -5.1870    -0.1370 H     1 <1>   0.1500 
 28 H       -3.6440    -2.6410    -0.5670 H     1 <1>   0.1500 
 29 H       -5.0310    -9.0910     0.6620 H     1 <1>   0.0800 
 30 H       -4.4360    -9.4880    -0.9270 H     1 <1>   0.0800 
 31 H       -6.9970    -6.1800    -0.6730 H     1 <1>   0.0800 
 32 H       -6.6310    -6.9700     0.8410 H     1 <1>   0.0800 
 33 H       -6.6970    -9.9280    -1.7240 H     1 <1>   0.0800 
 34 H       -8.1820    -8.1080    -1.5030 H     1 <1>   0.0800 
 35 H       -8.7960    -7.7440     0.0920 H     1 <1>   0.0800 
 36 H       -5.4640   -11.8000    -0.6960 H     1 <1>   0.0800 
 37 H       -8.4460   -11.9330    -0.2250 H     1 <1>   0.0800 
 38 H       -7.3810   -13.3030    -0.4390 H     1 <1>   0.0800 
 39 H       -7.6510   -12.1900    -1.7570 H     1 <1>   0.0800 
 40 H       -7.0250   -11.1680     1.8220 H     1 <1>   0.0800 
 41 H       -5.2900   -11.0770     1.6470 H     1 <1>   0.0800 
 42 H       -6.0900   -12.6190     1.5600 H     1 <1>   0.0800 
@<TRIPOS>BOND
  1   1   2  1   
  2   2   3  ar  
  3   2   4  ar  
  4   3   5  ar  
  5   3  25  1   
  6   4   6  ar  
  7   4  26  1   
  8   5   7  ar  
  9   5  27  1   
 10   6   7  ar  
 11   6  28  1   
 12   7   8  1   
 13   8   9  1   
 14   8  10  2   
 15   9  11  1   
 16  10  12  1   
 17  10  13  1   
 18  11  12  2   
 19  12  14  1   
 20  13  15  ar  
 21  13  16  ar  
 22  14  17  1   
 23  14  18  1   
 24  17  19  1   
 25  17  29  1   
 26  17  30  1   
 27  18  20  1   
 28  18  31  1   
 29  18  32  1   
 30  19  21  1   
 31  19  22  1   
 32  19  33  1   
 33  20  21  1   
 34  20  34  1   
 35  20  35  1   
 36  22  23  1   
 37  22  24  1   
 38  22  36  1   
 39  23  37  1   
 40  23  38  1   
 41  23  39  1   
 42  24  40  1   
 43  24  41  1   
 44  24  42  1   
@<TRIPOS>SUBSTRUCTURE
  1 ****  10 GROUP 4 **** **** 0

# MOE 2024.06 (io_trps.svl 2023.06)
