@<TRIPOS>MOLECULE
NONAME
42 43 1 0 0 
SMALL
USER_CHARGES


@<TRIPOS>ATOM
  1 O        0.9290    -0.3570     1.9390 O.co2 1 <1>  -0.9000 
  2 C        1.8700    -0.6000     1.1880 C.2   1 <1>   0.9060 
  3 O        2.3050    -1.7370     0.9700 O.co2 1 <1>  -0.9000 
  4 C        2.5590     0.5570     0.5050 C.3   1 <1>  -0.1860 
  5 C        4.0610     0.5070     0.8040 C.3   1 <1>   0.2000 
  6 C        2.2700     0.6000    -1.0200 C.3   1 <1>  -0.1600 
  7 O        4.5750    -0.6550     0.2510 O.3   1 <1>  -0.6800 
  8 C        4.7800     1.7080     0.1640 C.3   1 <1>   0.3430 
  9 C        3.4710     1.0560    -1.8540 C.3   1 <1>   0.3430 
 10 N        4.1680     2.1650    -1.1470 N.4   1 <1>  -0.9590 
 11 C        5.1740     2.8340    -2.0020 C.3   1 <1>   0.4860 
 12 C        5.6360     4.0840    -1.2820 C.ar  1 <1>  -0.1430 
 13 C        6.8530     4.1030    -0.6200 C.ar  1 <1>  -0.1500 
 14 C        4.8360     5.2150    -1.2600 C.ar  1 <1>  -0.1500 
 15 C        7.2640     5.2300     0.0710 C.ar  1 <1>   0.0830 
 16 C        5.2360     6.3500    -0.5750 C.ar  1 <1>   0.0830 
 17 O        8.4610     5.1400     0.6990 O.3   1 <1>  -0.3630 
 18 C        6.4540     6.3610     0.0950 C.ar  1 <1>  -0.1500 
 19 O        4.3780     7.3990    -0.6070 O.3   1 <1>  -0.3630 
 20 C        9.0200     6.2400     1.3840 C.3   1 <1>   0.0400 
 21 C        4.7050     8.6380    -0.0170 C.3   1 <1>   0.0400 
 22 H        2.1670     1.4520     0.9520 H     1 <1>   0.0800 
 23 H        4.2430     0.4670     1.8660 H     1 <1>   0.0800 
 24 H        1.4210     1.2340    -1.2060 H     1 <1>   0.0800 
 25 H        2.0000    -0.3870    -1.3570 H     1 <1>   0.0800 
 26 H        3.9100    -1.3780     0.4780 H     1 <1>   0.4000 
 27 H        5.8110     1.4310     0.0200 H     1 <1>   0.0800 
 28 H        4.7580     2.5320     0.8590 H     1 <1>   0.0800 
 29 H        3.1360     1.3680    -2.8300 H     1 <1>   0.0800 
 30 H        4.1500     0.2260    -1.9730 H     1 <1>   0.0800 
 31 H        3.4530     2.8600    -0.9030 H     1 <1>   0.4500 
 32 H        6.0080     2.1750    -2.1800 H     1 <1>   0.0800 
 33 H        4.7380     3.1050    -2.9490 H     1 <1>   0.0800 
 34 H        7.5060     3.2470    -0.6240 H     1 <1>   0.1500 
 35 H        3.8890     5.2420    -1.7700 H     1 <1>   0.1500 
 36 H        6.7670     7.2350     0.6280 H     1 <1>   0.1500 
 37 H        9.9750     5.9390     1.7750 H     1 <1>   0.0800 
 38 H        8.3670     6.5180     2.1930 H     1 <1>   0.0800 
 39 H        9.1480     7.0540     0.6940 H     1 <1>   0.0800 
 40 H        3.8930     9.3190    -0.1970 H     1 <1>   0.0800 
 41 H        5.6040     9.0160    -0.4700 H     1 <1>   0.0800 
 42 H        4.8350     8.4990     1.0420 H     1 <1>   0.0800 
@<TRIPOS>BOND
  1   1   2  ar  
  2   2   3  ar  
  3   2   4  1   
  4   4   5  1   
  5   4   6  1   
  6   4  22  1   
  7   5   7  1   
  8   5   8  1   
  9   5  23  1   
 10   6   9  1   
 11   6  24  1   
 12   6  25  1   
 13   7  26  1   
 14   8  10  1   
 15   8  27  1   
 16   8  28  1   
 17   9  10  1   
 18   9  29  1   
 19   9  30  1   
 20  10  11  1   
 21  10  31  1   
 22  11  12  1   
 23  11  32  1   
 24  11  33  1   
 25  12  13  ar  
 26  12  14  ar  
 27  13  15  ar  
 28  13  34  1   
 29  14  16  ar  
 30  14  35  1   
 31  15  17  1   
 32  15  18  ar  
 33  16  18  ar  
 34  16  19  1   
 35  17  20  1   
 36  18  36  1   
 37  19  21  1   
 38  20  37  1   
 39  20  38  1   
 40  20  39  1   
 41  21  40  1   
 42  21  41  1   
 43  21  42  1   
@<TRIPOS>SUBSTRUCTURE
  1 ****   8 GROUP 4 **** **** 0

# MOE 2024.06 (io_trps.svl 2023.06)
