@<TRIPOS>MOLECULE
NONAME
57 59 1 0 0 
SMALL
USER_CHARGES


@<TRIPOS>ATOM
  1 O        2.7520    -0.0510     0.9900 O.3   1 <1>  -0.5600 
  2 C        1.6110    -0.4420     0.2750 C.3   1 <1>   0.2000 
  3 C        2.5630     1.0700     1.8020 C.3   1 <1>   0.0400 
  4 C        1.9840    -1.4350    -0.8400 C.3   1 <1>   0.0000 
  5 C        0.6100    -1.1800     1.1700 C.3   1 <1>  -0.1600 
  6 C        3.0130    -2.4640    -0.3110 C.3   1 <1>   0.3430 
  7 C        2.5050    -0.6960    -2.1050 C.3   1 <1>  -0.1600 
  8 C        0.6510    -2.1570    -1.0800 C.3   1 <1>  -0.1600 
  9 C        0.0220    -2.3090     0.3090 C.3   1 <1>  -0.1600 
 10 N        4.3650    -1.8550    -0.3670 N.4   1 <1>  -0.9590 
 11 C        3.7010    -1.4200    -2.7470 C.3   1 <1>  -0.1600 
 12 C        4.8610    -1.6280    -1.7590 C.3   1 <1>   0.3430 
 13 C        5.3500    -2.5190     0.5170 C.3   1 <1>   0.4860 
 14 C        6.5980    -1.6600     0.5700 C.ar  1 <1>  -0.1440 
 15 C        6.5810    -0.4420     1.2340 C.ar  1 <1>  -0.1500 
 16 C        7.7640    -2.0760    -0.0560 C.ar  1 <1>  -0.1500 
 17 C        7.7140     0.3520     1.2580 C.ar  1 <1>  -0.1500 
 18 C        8.8920    -1.2750    -0.0270 C.ar  1 <1>  -0.1500 
 19 C        8.8810    -0.0510     0.6260 C.ar  1 <1>   0.0730 
 20 C       10.0490     0.7740     0.6390 C.1   1 <1>  -0.0730 
 21 C       11.0280     1.4530     0.6200 C.1   1 <1>  -0.2000 
 22 C       12.2560     2.2930     0.5720 C.3   1 <1>   0.4800 
 23 O       12.6960     2.3030    -0.7240 O.3   1 <1>  -0.6800 
 24 C       11.9530     3.7350     0.9600 C.3   1 <1>  -0.2400 
 25 C       13.3680     1.6920     1.4240 C.3   1 <1>  -0.2400 
 26 H        1.1430     0.4290    -0.1590 H     1 <1>   0.0800 
 27 H        3.4930     1.2940     2.2950 H     1 <1>   0.0800 
 28 H        1.8090     0.8590     2.5410 H     1 <1>   0.0800 
 29 H        2.2680     1.9080     1.1940 H     1 <1>   0.0800 
 30 H        1.0980    -1.5960     2.0340 H     1 <1>   0.0800 
 31 H       -0.1680    -0.5080     1.4900 H     1 <1>   0.0800 
 32 H        2.9890    -3.3540    -0.9170 H     1 <1>   0.0800 
 33 H        2.7600    -2.7270     0.7030 H     1 <1>   0.0800 
 34 H        1.7210    -0.5760    -2.8330 H     1 <1>   0.0800 
 35 H        2.8310     0.2940    -1.8320 H     1 <1>   0.0800 
 36 H        0.0010    -1.5390    -1.6770 H     1 <1>   0.0800 
 37 H        0.7680    -3.1050    -1.5780 H     1 <1>   0.0800 
 38 H        0.2800    -3.2640     0.7340 H     1 <1>   0.0800 
 39 H       -1.0530    -2.2420     0.2540 H     1 <1>   0.0800 
 40 H        4.2000    -0.9180     0.0510 H     1 <1>   0.4500 
 41 H        4.0590    -0.8570    -3.5910 H     1 <1>   0.0800 
 42 H        3.3810    -2.3770    -3.1220 H     1 <1>   0.0800 
 43 H        5.4980    -0.7570    -1.7630 H     1 <1>   0.0800 
 44 H        5.4520    -2.4690    -2.0850 H     1 <1>   0.0800 
 45 H        4.9450    -2.6210     1.5110 H     1 <1>   0.0800 
 46 H        5.5900    -3.4990     0.1390 H     1 <1>   0.0800 
 47 H        5.6920    -0.0990     1.7370 H     1 <1>   0.1500 
 48 H        7.8120    -3.0210    -0.5710 H     1 <1>   0.1500 
 49 H        7.6990     1.2980     1.7720 H     1 <1>   0.1500 
 50 H        9.7970    -1.5960    -0.5150 H     1 <1>   0.1500 
 51 H       13.4960     2.8500    -0.7820 H     1 <1>   0.4000 
 52 H       11.5830     3.7680     1.9680 H     1 <1>   0.0800 
 53 H       11.1960     4.1390     0.3110 H     1 <1>   0.0800 
 54 H       12.8370     4.3420     0.9010 H     1 <1>   0.0800 
 55 H       13.0520     1.6460     2.4500 H     1 <1>   0.0800 
 56 H       14.2590     2.2890     1.3690 H     1 <1>   0.0800 
 57 H       13.5850     0.6920     1.0940 H     1 <1>   0.0800 
@<TRIPOS>BOND
  1   1   2  1   
  2   1   3  1   
  3   2   4  1   
  4   2   5  1   
  5   2  26  1   
  6   3  27  1   
  7   3  28  1   
  8   3  29  1   
  9   4   6  1   
 10   4   7  1   
 11   4   8  1   
 12   5   9  1   
 13   5  30  1   
 14   5  31  1   
 15   6  10  1   
 16   6  32  1   
 17   6  33  1   
 18   7  11  1   
 19   7  34  1   
 20   7  35  1   
 21   8   9  1   
 22   8  36  1   
 23   8  37  1   
 24   9  38  1   
 25   9  39  1   
 26  10  12  1   
 27  10  13  1   
 28  10  40  1   
 29  11  12  1   
 30  11  41  1   
 31  11  42  1   
 32  12  43  1   
 33  12  44  1   
 34  13  14  1   
 35  13  45  1   
 36  13  46  1   
 37  14  15  ar  
 38  14  16  ar  
 39  15  17  ar  
 40  15  47  1   
 41  16  18  ar  
 42  16  48  1   
 43  17  19  ar  
 44  17  49  1   
 45  18  19  ar  
 46  18  50  1   
 47  19  20  1   
 48  20  21  3   
 49  21  22  1   
 50  22  23  1   
 51  22  24  1   
 52  22  25  1   
 53  23  51  1   
 54  24  52  1   
 55  24  53  1   
 56  24  54  1   
 57  25  55  1   
 58  25  56  1   
 59  25  57  1   
@<TRIPOS>SUBSTRUCTURE
  1 ****  15 GROUP 4 **** **** 0

# MOE 2024.06 (io_trps.svl 2023.06)
