@<TRIPOS>MOLECULE
NONAME
58 62 1 0 0 
SMALL
USER_CHARGES


@<TRIPOS>ATOM
  1 O        0.4090    -0.3100    -0.7520 O.2   1 <1>  -0.5700 
  2 C        1.0830    -1.2430    -0.3910 C.2   1 <1>   0.5690 
  3 N        0.6120    -2.2510     0.4050 N.am  1 <1>  -0.6600 
  4 C        2.5290    -1.3220    -0.8360 C.3   1 <1>  -0.0990 
  5 C        1.5100    -3.3420     0.8530 C.3   1 <1>   0.1400 
  6 C       -0.7820    -2.2720     0.9250 C.3   1 <1>   0.0600 
  7 C        2.8610    -2.7510    -1.3020 C.3   1 <1>  -0.0800 
  8 C        2.3730    -3.8460    -0.3240 C.3   1 <1>  -0.0800 
  9 C        4.3650    -2.9780    -1.5160 C.3   1 <1>  -0.1600 
 10 C        3.6330    -4.5920     0.1360 C.3   1 <1>  -0.1600 
 11 C        4.6220    -4.3930    -1.0110 C.3   1 <1>   0.4230 
 12 N        6.0610    -4.6660    -0.6950 N.4   1 <1>  -0.9590 
 13 C        6.5770    -4.2720     0.6570 C.3   1 <1>   0.4860 
 14 C        6.3730    -6.1040    -0.9540 C.3   1 <1>   0.2630 
 15 C        6.7380    -2.7680     0.7330 C.ar  1 <1>  -0.1440 
 16 C        7.6870    -2.1250    -0.0400 C.ar  1 <1>  -0.1500 
 17 C        5.9090    -2.0270     1.5840 C.ar  1 <1>  -0.1500 
 18 C        7.7850    -0.7340     0.0150 C.ar  1 <1>  -0.1520 
 19 C        6.0030    -0.6530     1.6340 C.ar  1 <1>  -0.1500 
 20 N        8.6270     0.1450    -0.6430 N.pl3 1 <1>   0.0480 
 21 C        6.9400    -0.0010     0.8380 C.ar  1 <1>   0.0000 
 22 C        8.3030     1.4310    -0.2590 C.ar  1 <1>  -0.1520 
 23 C        9.7480    -0.2110    -1.5330 C.3   1 <1>   0.0160 
 24 C        7.2630     1.3730     0.6600 C.ar  1 <1>   0.0000 
 25 C        8.8410     2.6600    -0.6440 C.ar  1 <1>  -0.1500 
 26 C        6.7500     2.5480     1.2070 C.ar  1 <1>  -0.1500 
 27 C        8.3270     3.8170    -0.0980 C.ar  1 <1>  -0.1500 
 28 C        7.2830     3.7620     0.8270 C.ar  1 <1>  -0.1500 
 29 H        2.6950    -0.6220    -1.6350 H     1 <1>   0.0800 
 30 H        3.1460    -1.0340    -0.0040 H     1 <1>   0.0800 
 31 H        2.1340    -2.9520     1.6390 H     1 <1>   0.0800 
 32 H        0.9310    -4.1560     1.2550 H     1 <1>   0.0800 
 33 H       -1.2780    -3.1700     0.6030 H     1 <1>   0.0800 
 34 H       -1.3350    -1.4240     0.5580 H     1 <1>   0.0800 
 35 H       -0.7710    -2.2350     2.0000 H     1 <1>   0.0800 
 36 H        2.3510    -2.9070    -2.2400 H     1 <1>   0.0800 
 37 H        1.7660    -4.5340    -0.8900 H     1 <1>   0.0800 
 38 H        4.9160    -2.2470    -0.9590 H     1 <1>   0.0800 
 39 H        4.6170    -2.8830    -2.5580 H     1 <1>   0.0800 
 40 H        3.4260    -5.6320     0.3110 H     1 <1>   0.0800 
 41 H        3.9850    -4.1330     1.0380 H     1 <1>   0.0800 
 42 H        4.3170    -5.0540    -1.8080 H     1 <1>   0.0800 
 43 H        6.5960    -4.0890    -1.3570 H     1 <1>   0.4500 
 44 H        5.9200    -4.6210     1.4350 H     1 <1>   0.0800 
 45 H        7.5450    -4.7180     0.8200 H     1 <1>   0.0800 
 46 H        5.8250    -6.7350    -0.2730 H     1 <1>   0.0800 
 47 H        7.4280    -6.2900    -0.8250 H     1 <1>   0.0800 
 48 H        6.1020    -6.3700    -1.9630 H     1 <1>   0.0800 
 49 H        8.3540    -2.6670    -0.6850 H     1 <1>   0.1500 
 50 H        5.1860    -2.5160     2.2120 H     1 <1>   0.1500 
 51 H        5.3690    -0.0710     2.2790 H     1 <1>   0.1500 
 52 H       10.5600     0.4750    -1.3740 H     1 <1>   0.0800 
 53 H        9.4220    -0.1520    -2.5550 H     1 <1>   0.0800 
 54 H       10.0870    -1.2060    -1.3140 H     1 <1>   0.0800 
 55 H        9.6430     2.7050    -1.3570 H     1 <1>   0.1500 
 56 H        5.9460     2.4950     1.9180 H     1 <1>   0.1500 
 57 H        8.7280     4.7740    -0.3820 H     1 <1>   0.1500 
 58 H        6.8970     4.6770     1.2420 H     1 <1>   0.1500 
@<TRIPOS>BOND
  1   1   2  2   
  2   2   3  am  
  3   2   4  1   
  4   3   5  1   
  5   3   6  1   
  6   4   7  1   
  7   4  29  1   
  8   4  30  1   
  9   5   8  1   
 10   5  31  1   
 11   5  32  1   
 12   6  33  1   
 13   6  34  1   
 14   6  35  1   
 15   7   8  1   
 16   7   9  1   
 17   7  36  1   
 18   8  10  1   
 19   8  37  1   
 20   9  11  1   
 21   9  38  1   
 22   9  39  1   
 23  10  11  1   
 24  10  40  1   
 25  10  41  1   
 26  11  12  1   
 27  11  42  1   
 28  12  13  1   
 29  12  14  1   
 30  12  43  1   
 31  13  15  1   
 32  13  44  1   
 33  13  45  1   
 34  14  46  1   
 35  14  47  1   
 36  14  48  1   
 37  15  16  ar  
 38  15  17  ar  
 39  16  18  ar  
 40  16  49  1   
 41  17  19  ar  
 42  17  50  1   
 43  18  20  1   
 44  18  21  ar  
 45  19  21  ar  
 46  19  51  1   
 47  20  22  1   
 48  20  23  1   
 49  21  24  1   
 50  22  24  ar  
 51  22  25  ar  
 52  23  52  1   
 53  23  53  1   
 54  23  54  1   
 55  24  26  ar  
 56  25  27  ar  
 57  25  55  1   
 58  26  28  ar  
 59  26  56  1   
 60  27  28  ar  
 61  27  57  1   
 62  28  58  1   
@<TRIPOS>SUBSTRUCTURE
  1 ****  17 GROUP 4 **** **** 0

# MOE 2024.06 (io_trps.svl 2023.06)
