@<TRIPOS>MOLECULE
NONAME
49 52 1 0 0 
SMALL
USER_CHARGES


@<TRIPOS>ATOM
  1 F       -2.3740    -0.9250     1.8270 F     1 <1>  -0.1900 
  2 C       -2.6970     0.2040     1.2500 C.ar  1 <1>   0.1900 
  3 C       -3.0520     0.2120    -0.0910 C.ar  1 <1>  -0.1440 
  4 C       -2.6690     1.3540     2.0180 C.ar  1 <1>  -0.1500 
  5 C       -3.3820     1.4310    -0.6650 C.ar  1 <1>  -0.1500 
  6 C       -3.0790    -1.0680    -0.9100 C.3   1 <1>   0.2540 
  7 C       -3.0070     2.5610     1.4300 C.ar  1 <1>  -0.1500 
  8 C       -3.3660     2.6000     0.0830 C.ar  1 <1>   0.0830 
  9 N       -4.2460    -1.8900    -0.5380 N.3   1 <1>  -0.8100 
 10 O       -3.7130     3.7360    -0.5700 O.3   1 <1>  -0.3630 
 11 C       -5.5480    -1.2520    -0.8490 C.3   1 <1>   0.1100 
 12 C       -4.1760    -3.2520    -1.1090 C.3   1 <1>   0.1100 
 13 C       -3.6590     4.9940     0.0670 C.3   1 <1>   0.0400 
 14 C       -6.7380    -2.0610    -0.2690 C.3   1 <1>   0.4230 
 15 C       -5.4060    -4.1120    -0.7290 C.3   1 <1>   0.3430 
 16 N       -6.2900    -3.4040     0.2600 N.4   1 <1>  -0.9590 
 17 C       -7.8780    -2.2220    -1.2990 C.3   1 <1>   0.1200 
 18 C       -7.4580    -4.1920     0.7600 C.3   1 <1>   0.5180 
 19 O       -8.9240    -2.9860    -0.7650 O.3   1 <1>  -0.5600 
 20 C       -6.9700    -5.5600     1.2770 C.3   1 <1>  -0.1950 
 21 C       -8.5660    -4.2690    -0.3210 C.3   1 <1>   0.1200 
 22 C       -6.8130    -6.7920     0.4320 C.3   1 <1>  -0.2000 
 23 C       -7.8880    -6.7290     1.4800 C.3   1 <1>  -0.2000 
 24 H       -2.3860     1.3000     3.0540 H     1 <1>   0.1500 
 25 H       -3.6570     1.4940    -1.7020 H     1 <1>   0.1500 
 26 H       -2.1730    -1.6180    -0.7150 H     1 <1>   0.0800 
 27 H       -3.1080    -0.8370    -1.9620 H     1 <1>   0.0800 
 28 H       -2.9840     3.4510     2.0300 H     1 <1>   0.1500 
 29 H       -5.5850    -0.2620    -0.4250 H     1 <1>   0.0800 
 30 H       -5.6500    -1.1450    -1.9160 H     1 <1>   0.0800 
 31 H       -4.0970    -3.2000    -2.1820 H     1 <1>   0.0800 
 32 H       -3.2880    -3.7400    -0.7420 H     1 <1>   0.0800 
 33 H       -3.9470     5.7430    -0.6480 H     1 <1>   0.0800 
 34 H       -2.6520     5.1750     0.3990 H     1 <1>   0.0800 
 35 H       -4.3460     4.9970     0.8940 H     1 <1>   0.0800 
 36 H       -7.1380    -1.4880     0.5510 H     1 <1>   0.0800 
 37 H       -5.0570    -5.0430    -0.3160 H     1 <1>   0.0800 
 38 H       -5.9660    -4.3410    -1.6210 H     1 <1>   0.0800 
 39 H       -5.6630    -3.1720     1.0420 H     1 <1>   0.4500 
 40 H       -7.5290    -2.6990    -2.1990 H     1 <1>   0.0800 
 41 H       -8.2810    -1.2580    -1.5580 H     1 <1>   0.0800 
 42 H       -7.8850    -3.6690     1.6000 H     1 <1>   0.0800 
 43 H       -6.2560    -5.4220     2.0710 H     1 <1>   0.1000 
 44 H       -9.4500    -4.7210     0.0900 H     1 <1>   0.0800 
 45 H       -8.2490    -4.8480    -1.1690 H     1 <1>   0.0800 
 46 H       -7.1340    -6.8220    -0.5950 H     1 <1>   0.1000 
 47 H       -5.9790    -7.4510     0.6120 H     1 <1>   0.1000 
 48 H       -7.7710    -7.3330     2.3650 H     1 <1>   0.1000 
 49 H       -8.9120    -6.7060     1.1470 H     1 <1>   0.1000 
@<TRIPOS>BOND
  1   1   2  1   
  2   2   3  ar  
  3   2   4  ar  
  4   3   5  ar  
  5   3   6  1   
  6   4   7  ar  
  7   4  24  1   
  8   5   8  ar  
  9   5  25  1   
 10   6   9  1   
 11   6  26  1   
 12   6  27  1   
 13   7   8  ar  
 14   7  28  1   
 15   8  10  1   
 16   9  11  1   
 17   9  12  1   
 18  10  13  1   
 19  11  14  1   
 20  11  29  1   
 21  11  30  1   
 22  12  15  1   
 23  12  31  1   
 24  12  32  1   
 25  13  33  1   
 26  13  34  1   
 27  13  35  1   
 28  14  16  1   
 29  14  17  1   
 30  14  36  1   
 31  15  16  1   
 32  15  37  1   
 33  15  38  1   
 34  16  18  1   
 35  16  39  1   
 36  17  19  1   
 37  17  40  1   
 38  17  41  1   
 39  18  20  1   
 40  18  21  1   
 41  18  42  1   
 42  19  21  1   
 43  20  22  1   
 44  20  23  1   
 45  20  43  1   
 46  21  44  1   
 47  21  45  1   
 48  22  23  1   
 49  22  46  1   
 50  22  47  1   
 51  23  48  1   
 52  23  49  1   
@<TRIPOS>SUBSTRUCTURE
  1 ****  11 GROUP 4 **** **** 0

# MOE 2024.06 (io_trps.svl 2023.06)
