@<TRIPOS>MOLECULE
NONAME
39 40 1 0 0 
SMALL
USER_CHARGES


@<TRIPOS>ATOM
  1 O       -1.8050     0.2450     2.0150 O.2   1 <1>  -0.5700 
  2 C       -1.9150     0.7440     0.9180 C.2   1 <1>   0.5690 
  3 N       -2.3280    -0.0120    -0.1540 N.am  1 <1>  -0.6600 
  4 C       -1.5870     2.2410     0.8250 C.3   1 <1>  -0.0190 
  5 C       -2.6950    -1.4450     0.0600 C.3   1 <1>   0.3210 
  6 C       -2.6380     0.4720    -1.5310 C.3   1 <1>   0.0600 
  7 C       -2.8150     3.1180     0.5020 C.3   1 <1>  -0.1600 
  8 C       -0.3590     2.5500    -0.0690 C.3   1 <1>  -0.1600 
  9 C       -4.1970    -1.5860     0.2470 C.2   1 <1>   0.1080 
 10 C       -2.4960     4.6190     0.6130 C.3   1 <1>   0.2000 
 11 C       -0.4210     3.9380    -0.7320 C.3   1 <1>  -0.1600 
 12 N       -5.0000    -2.0920    -0.6230 N.2   1 <1>  -0.4100 
 13 C       -4.8930    -1.1780     1.3830 C.2   1 <1>  -0.1500 
 14 O       -3.4060     5.2810    -0.2300 O.3   1 <1>  -0.5600 
 15 C       -1.0350     4.9730     0.2150 C.3   1 <1>   0.2000 
 16 O       -6.1900    -2.0290    -0.0960 O.3   1 <1>  -0.0190 
 17 C       -6.1640    -1.4920     1.0940 C.2   1 <1>  -0.0100 
 18 C       -4.1370     6.2990     0.3810 C.3   1 <1>   0.0400 
 19 O       -1.0120     6.1940    -0.4280 O.3   1 <1>  -0.6800 
 20 H       -1.2960     2.5280     1.8220 H     1 <1>   0.0800 
 21 H       -2.3850    -2.0270    -0.7890 H     1 <1>   0.0800 
 22 H       -2.1920    -1.8420     0.9250 H     1 <1>   0.0800 
 23 H       -2.2590    -0.2260    -2.2580 H     1 <1>   0.0800 
 24 H       -2.1940     1.4280    -1.7300 H     1 <1>   0.0800 
 25 H       -3.7050     0.5520    -1.6540 H     1 <1>   0.0800 
 26 H       -3.6140     2.8800     1.1810 H     1 <1>   0.0800 
 27 H       -3.1590     2.9140    -0.4940 H     1 <1>   0.0800 
 28 H        0.5230     2.4950     0.5480 H     1 <1>   0.0800 
 29 H       -0.2390     1.8050    -0.8340 H     1 <1>   0.0800 
 30 H       -2.6520     4.9320     1.6330 H     1 <1>   0.0800 
 31 H       -1.0240     3.8800    -1.6210 H     1 <1>   0.0800 
 32 H        0.5710     4.2450    -1.0150 H     1 <1>   0.0800 
 33 H       -4.4660    -0.7210     2.2580 H     1 <1>   0.1500 
 34 H       -0.4210     5.0510     1.0950 H     1 <1>   0.0800 
 35 H       -7.0780    -1.3770     1.6470 H     1 <1>   0.1500 
 36 H       -4.7750     6.7470    -0.3610 H     1 <1>   0.0800 
 37 H       -3.4600     7.0390     0.7730 H     1 <1>   0.0800 
 38 H       -4.7380     5.8790     1.1690 H     1 <1>   0.0800 
 39 H       -1.8750     6.2680    -0.8930 H     1 <1>   0.4000 
@<TRIPOS>BOND
  1   1   2  2   
  2   2   3  am  
  3   2   4  1   
  4   3   5  1   
  5   3   6  1   
  6   4   7  1   
  7   4   8  1   
  8   4  20  1   
  9   5   9  1   
 10   5  21  1   
 11   5  22  1   
 12   6  23  1   
 13   6  24  1   
 14   6  25  1   
 15   7  10  1   
 16   7  26  1   
 17   7  27  1   
 18   8  11  1   
 19   8  28  1   
 20   8  29  1   
 21   9  12  2   
 22   9  13  1   
 23  10  14  1   
 24  10  15  1   
 25  10  30  1   
 26  11  15  1   
 27  11  31  1   
 28  11  32  1   
 29  12  16  1   
 30  13  17  2   
 31  13  33  1   
 32  14  18  1   
 33  15  19  1   
 34  15  34  1   
 35  16  17  1   
 36  17  35  1   
 37  18  36  1   
 38  18  37  1   
 39  18  38  1   
 40  19  39  1   
@<TRIPOS>SUBSTRUCTURE
  1 ****   2 GROUP 4 **** **** 0

# MOE 2024.06 (io_trps.svl 2023.06)
