@<TRIPOS>MOLECULE
NONAME
57 59 1 0 0 
SMALL
USER_CHARGES


@<TRIPOS>ATOM
  1 CL      -1.9080    -0.9710    -2.5870 Cl    1 <1>  -0.1240 
  2 C       -2.5900    -0.1740    -1.1840 C.2   1 <1>  -0.0280 
  3 N       -2.5950     1.1620    -1.0260 N.pl3 1 <1>   0.3140 
  4 C       -3.1840    -0.7390    -0.1130 C.2   1 <1>  -0.1810 
  5 N       -3.2000     1.4810     0.1340 N.2   1 <1>  -0.7070 
  6 C       -2.0420     2.1840    -1.9260 C.3   1 <1>   0.0160 
  7 C       -3.5380     0.3510     0.6780 C.2   1 <1>   0.1080 
  8 C       -3.4180    -2.2000     0.1830 C.3   1 <1>   0.5240 
  9 C       -4.2370     0.2940     2.0280 C.3   1 <1>   0.0210 
 10 N       -3.9740    -2.8360    -1.0360 N.4   1 <1>  -0.9590 
 11 C       -3.2850    -0.1780     3.1320 C.3   1 <1>  -0.2400 
 12 C       -4.0000    -4.3280    -0.9170 C.3   1 <1>   0.5660 
 13 C       -5.3200    -2.2870    -1.4030 C.3   1 <1>   0.3430 
 14 C       -2.5620    -4.8130    -0.7890 C.ar  1 <1>  -0.1430 
 15 C       -4.7340    -5.0220    -2.0960 C.3   1 <1>   0.2000 
 16 C       -5.9080    -3.0250    -2.6180 C.3   1 <1>   0.1200 
 17 C       -2.1890    -5.5030     0.3560 C.ar  1 <1>  -0.1500 
 18 C       -1.6140    -4.5780    -1.7790 C.ar  1 <1>  -0.1500 
 19 O       -5.9670    -4.3970    -2.3630 O.3   1 <1>  -0.5600 
 20 C       -4.9970    -6.5010    -1.7670 C.3   1 <1>   0.1200 
 21 C       -0.8900    -5.9450     0.5260 C.ar  1 <1>   0.0830 
 22 C       -0.3090    -5.0090    -1.6100 C.ar  1 <1>  -0.1500 
 23 O       -5.5260    -6.6210    -0.4840 O.3   1 <1>  -0.6800 
 24 O       -0.6180    -6.6290     1.6630 O.3   1 <1>  -0.3630 
 25 C        0.0680    -5.6750    -0.4580 C.ar  1 <1>   0.0830 
 26 C       -0.2030    -7.9710     1.5190 C.3   1 <1>   0.0400 
 27 O        1.3680    -6.0360    -0.3450 O.3   1 <1>  -0.3630 
 28 C        2.1170    -5.4050     0.6710 C.3   1 <1>   0.0400 
 29 H       -1.0060     1.9700    -2.1140 H     1 <1>   0.0800 
 30 H       -2.1300     3.1480    -1.4600 H     1 <1>   0.0800 
 31 H       -2.5900     2.1800    -2.8490 H     1 <1>   0.0800 
 32 H       -4.1030    -2.3090     1.0080 H     1 <1>   0.0800 
 33 H       -2.4790    -2.6570     0.4530 H     1 <1>   0.0800 
 34 H       -4.5940     1.2800     2.2710 H     1 <1>   0.0800 
 35 H       -5.0900    -0.3560     1.9710 H     1 <1>   0.0800 
 36 H       -3.3140    -2.6060    -1.7860 H     1 <1>   0.4500 
 37 H       -2.4380     0.4850     3.1880 H     1 <1>   0.0800 
 38 H       -2.9300    -1.1730     2.9430 H     1 <1>   0.0800 
 39 H       -3.7890    -0.1650     4.0830 H     1 <1>   0.0800 
 40 H       -4.5290    -4.5910    -0.0160 H     1 <1>   0.0800 
 41 H       -6.0020    -2.3990    -0.5750 H     1 <1>   0.0800 
 42 H       -5.2410    -1.2350    -1.6280 H     1 <1>   0.0800 
 43 H       -4.1430    -4.9660    -2.9930 H     1 <1>   0.0800 
 44 H       -5.3190    -2.8560    -3.5030 H     1 <1>   0.0800 
 45 H       -6.9130    -2.6850    -2.8050 H     1 <1>   0.0800 
 46 H       -2.9030    -5.7200     1.1340 H     1 <1>   0.1500 
 47 H       -1.8640    -4.0620    -2.6900 H     1 <1>   0.1500 
 48 H       -4.0800    -7.0660    -1.8000 H     1 <1>   0.0800 
 49 H       -5.6940    -6.9190    -2.4730 H     1 <1>   0.0800 
 50 H        0.4310    -4.8270    -2.3700 H     1 <1>   0.1500 
 51 H       -5.9110    -7.5140    -0.3520 H     1 <1>   0.4000 
 52 H       -0.1590    -8.4160     2.4970 H     1 <1>   0.0800 
 53 H        0.7690    -7.9990     1.0630 H     1 <1>   0.0800 
 54 H       -0.9180    -8.4930     0.9080 H     1 <1>   0.0800 
 55 H        3.1360    -5.7360     0.5910 H     1 <1>   0.0800 
 56 H        1.7190    -5.6770     1.6310 H     1 <1>   0.0800 
 57 H        2.0640    -4.3400     0.5310 H     1 <1>   0.0800 
@<TRIPOS>BOND
  1   1   2  1   
  2   2   3  1   
  3   2   4  2   
  4   3   5  1   
  5   3   6  1   
  6   4   7  1   
  7   4   8  1   
  8   5   7  2   
  9   6  29  1   
 10   6  30  1   
 11   6  31  1   
 12   7   9  1   
 13   8  10  1   
 14   8  32  1   
 15   8  33  1   
 16   9  11  1   
 17   9  34  1   
 18   9  35  1   
 19  10  12  1   
 20  10  13  1   
 21  10  36  1   
 22  11  37  1   
 23  11  38  1   
 24  11  39  1   
 25  12  14  1   
 26  12  15  1   
 27  12  40  1   
 28  13  16  1   
 29  13  41  1   
 30  13  42  1   
 31  14  17  ar  
 32  14  18  ar  
 33  15  19  1   
 34  15  20  1   
 35  15  43  1   
 36  16  19  1   
 37  16  44  1   
 38  16  45  1   
 39  17  21  ar  
 40  17  46  1   
 41  18  22  ar  
 42  18  47  1   
 43  20  23  1   
 44  20  48  1   
 45  20  49  1   
 46  21  24  1   
 47  21  25  ar  
 48  22  25  ar  
 49  22  50  1   
 50  23  51  1   
 51  24  26  1   
 52  25  27  1   
 53  26  52  1   
 54  26  53  1   
 55  26  54  1   
 56  27  28  1   
 57  28  55  1   
 58  28  56  1   
 59  28  57  1   
@<TRIPOS>SUBSTRUCTURE
  1 ****   8 GROUP 4 **** **** 0

# MOE 2024.06 (io_trps.svl 2023.06)
