@<TRIPOS>MOLECULE
NONAME
53 55 1 0 0 
SMALL
USER_CHARGES


@<TRIPOS>ATOM
  1 O        4.2650     4.3910     0.0190 O.co2 1 <1>  -0.9000 
  2 C        3.8940     3.5900     0.8900 C.2   1 <1>   0.9060 
  3 O        4.0170     3.8810     2.0860 O.co2 1 <1>  -0.9000 
  4 C        3.4020     2.1790     0.5170 C.3   1 <1>  -0.1060 
  5 C        4.5650     1.2360     0.8890 C.3   1 <1>   0.2000 
  6 C        3.1050     2.0110    -1.0020 C.3   1 <1>  -0.1600 
  7 C        2.1380     1.8220     1.3480 C.3   1 <1>  -0.0160 
  8 O        4.2370    -0.0790     0.5870 O.3   1 <1>  -0.6800 
  9 C        5.8030     1.5580     0.0420 C.3   1 <1>   0.1100 
 10 C        4.3380     2.1640    -1.9040 C.3   1 <1>   0.1100 
 11 C        0.8800     2.5850     0.9380 C.ar  1 <1>  -0.1430 
 12 N        5.5220     1.4170    -1.4180 N.3   1 <1>  -0.8100 
 13 C        0.7030     3.9050     1.3210 C.ar  1 <1>  -0.1500 
 14 C       -0.1020     1.9640     0.1800 C.ar  1 <1>  -0.1500 
 15 C        6.7290     1.7800    -2.2240 C.3   1 <1>   0.1710 
 16 C       -0.4370     4.5970     0.9490 C.ar  1 <1>  -0.1500 
 17 C       -1.2430     2.6530    -0.1920 C.ar  1 <1>  -0.1500 
 18 C        7.3690     3.1800    -2.0710 C.2   1 <1>   0.5690 
 19 C       -1.4120     3.9720     0.1920 C.ar  1 <1>  -0.1500 
 20 O        8.4660     3.3400    -2.5580 O.2   1 <1>  -0.5700 
 21 N        6.7460     4.1960    -1.4150 N.am  1 <1>  -0.7300 
 22 C        7.4100     5.3950    -0.8980 C.3   1 <1>   0.2840 
 23 C        8.0550     5.0500     0.4350 C.ar  1 <1>  -0.1430 
 24 C        9.4120     4.7750     0.5150 C.ar  1 <1>  -0.1500 
 25 C        7.2810     4.9890     1.5840 C.ar  1 <1>  -0.1500 
 26 C        9.9900     4.4540     1.7320 C.ar  1 <1>  -0.1500 
 27 C        7.8560     4.6640     2.7990 C.ar  1 <1>  -0.1500 
 28 C        9.2120     4.4000     2.8760 C.ar  1 <1>  -0.1500 
 29 H        4.7900     1.3020     1.9400 H     1 <1>   0.0800 
 30 H        2.3850     2.7510    -1.3030 H     1 <1>   0.0800 
 31 H        2.6650     1.0480    -1.1850 H     1 <1>   0.0800 
 32 H        1.9370     0.7700     1.2620 H     1 <1>   0.0800 
 33 H        2.3310     2.0080     2.3910 H     1 <1>   0.0800 
 34 H        4.3780    -0.1440    -0.3830 H     1 <1>   0.4000 
 35 H        6.5940     0.8850     0.3210 H     1 <1>   0.0800 
 36 H        6.1400     2.5470     0.2880 H     1 <1>   0.0800 
 37 H        4.5590     3.2090    -2.0050 H     1 <1>   0.0800 
 38 H        4.0860     1.8100    -2.8880 H     1 <1>   0.0800 
 39 H        1.4610     4.3990     1.9070 H     1 <1>   0.1500 
 40 H        0.0240     0.9400    -0.1240 H     1 <1>   0.1500 
 41 H        7.4990     1.0660    -1.9930 H     1 <1>   0.0800 
 42 H        6.4950     1.6490    -3.2640 H     1 <1>   0.0800 
 43 H       -0.5550     5.6230     1.2500 H     1 <1>   0.1500 
 44 H       -1.9980     2.1640    -0.7820 H     1 <1>   0.1500 
 45 H       -2.2960     4.5110    -0.0970 H     1 <1>   0.1500 
 46 H        5.8200     4.0460    -0.9590 H     1 <1>   0.3700 
 47 H        8.1510     5.7340    -1.6000 H     1 <1>   0.0800 
 48 H        6.6760     6.1710    -0.7620 H     1 <1>   0.0800 
 49 H       10.0140     4.8010    -0.3760 H     1 <1>   0.1500 
 50 H        6.2200     5.1840     1.5350 H     1 <1>   0.1500 
 51 H       11.0430     4.2430     1.7850 H     1 <1>   0.1500 
 52 H        7.2320     4.6140     3.6750 H     1 <1>   0.1500 
 53 H        9.6570     4.1480     3.8210 H     1 <1>   0.1500 
@<TRIPOS>BOND
  1   1   2  ar  
  2   2   3  ar  
  3   2   4  1   
  4   4   5  1   
  5   4   6  1   
  6   4   7  1   
  7   5   8  1   
  8   5   9  1   
  9   5  29  1   
 10   6  10  1   
 11   6  30  1   
 12   6  31  1   
 13   7  11  1   
 14   7  32  1   
 15   7  33  1   
 16   8  34  1   
 17   9  12  1   
 18   9  35  1   
 19   9  36  1   
 20  10  12  1   
 21  10  37  1   
 22  10  38  1   
 23  11  13  ar  
 24  11  14  ar  
 25  12  15  1   
 26  13  16  ar  
 27  13  39  1   
 28  14  17  ar  
 29  14  40  1   
 30  15  18  1   
 31  15  41  1   
 32  15  42  1   
 33  16  19  ar  
 34  16  43  1   
 35  17  19  ar  
 36  17  44  1   
 37  18  20  2   
 38  18  21  am  
 39  19  45  1   
 40  21  22  1   
 41  21  46  1   
 42  22  23  1   
 43  22  47  1   
 44  22  48  1   
 45  23  24  ar  
 46  23  25  ar  
 47  24  26  ar  
 48  24  49  1   
 49  25  27  ar  
 50  25  50  1   
 51  26  28  ar  
 52  26  51  1   
 53  27  28  ar  
 54  27  52  1   
 55  28  53  1   
@<TRIPOS>SUBSTRUCTURE
  1 ****   2 GROUP 4 **** **** 0

# MOE 2024.06 (io_trps.svl 2023.06)
