@<TRIPOS>MOLECULE
NONAME
50 52 1 0 0 
SMALL
USER_CHARGES


@<TRIPOS>ATOM
  1 O        2.4660    -1.3200     1.2280 O.2   1 <1>  -0.5700 
  2 C        1.4790    -1.7380     0.6410 C.2   1 <1>   0.5440 
  3 N        0.4400    -0.8400     0.4160 N.am  1 <1>  -0.6600 
  4 C        1.4650    -3.1370     0.1890 C.ar  1 <1>   0.3960 
  5 C        0.3950     0.4960     1.0740 C.3   1 <1>   0.0600 
  6 C       -0.6970    -1.1140    -0.5030 C.3   1 <1>   0.0600 
  7 N        0.3230    -3.8460     0.2070 N.ar  1 <1>  -0.6200 
  8 C        2.6650    -3.7030    -0.2460 C.ar  1 <1>  -0.1500 
  9 C        0.3820    -5.1000    -0.2120 C.ar  1 <1>   0.4100 
 10 C        2.7220    -5.0100    -0.6820 C.ar  1 <1>  -0.1500 
 11 N       -0.7900    -5.8220    -0.1970 N.pl3 1 <1>  -0.8380 
 12 C        1.5440    -5.7130    -0.6590 C.ar  1 <1>  -0.1500 
 13 C       -1.8770    -5.3370    -1.0820 C.3   1 <1>   0.2090 
 14 C       -1.3670    -6.1250     1.1380 C.3   1 <1>   0.2090 
 15 C       -2.9680    -4.8150    -0.1430 C.3   1 <1>  -0.0800 
 16 C       -2.8440    -5.7180     1.0930 C.3   1 <1>  -0.0800 
 17 C       -4.4000    -4.7010    -0.7450 C.3   1 <1>   0.2800 
 18 C       -3.7910    -6.9250     0.9910 C.3   1 <1>  -0.1600 
 19 O       -4.5580    -5.6000    -1.7840 O.3   1 <1>  -0.6800 
 20 C       -5.4520    -5.0720     0.3180 C.3   1 <1>  -0.1600 
 21 C       -4.6980    -3.2960    -1.3130 C.3   1 <1>  -0.1600 
 22 C       -5.2650    -6.4870     0.9070 C.3   1 <1>  -0.1600 
 23 C       -3.7790    -2.8300    -2.4560 C.3   1 <1>  -0.2400 
 24 H       -0.5840     0.6660     1.4860 H     1 <1>   0.0800 
 25 H        0.6160     1.2620     0.3520 H     1 <1>   0.0800 
 26 H        1.1140     0.5550     1.8720 H     1 <1>   0.0800 
 27 H       -1.0350    -0.2010    -0.9600 H     1 <1>   0.0800 
 28 H       -1.5070    -1.5560     0.0510 H     1 <1>   0.0800 
 29 H       -0.3960    -1.7920    -1.2830 H     1 <1>   0.0800 
 30 H        3.5580    -3.1040    -0.2360 H     1 <1>   0.1500 
 31 H        3.6420    -5.4550    -1.0200 H     1 <1>   0.1500 
 32 H        1.4940    -6.7360    -0.9810 H     1 <1>   0.1500 
 33 H       -1.5250    -4.5690    -1.7480 H     1 <1>   0.0800 
 34 H       -2.2240    -6.1710    -1.6650 H     1 <1>   0.0800 
 35 H       -1.2550    -7.1730     1.3550 H     1 <1>   0.0800 
 36 H       -0.8540    -5.5570     1.8960 H     1 <1>   0.0800 
 37 H       -2.6600    -3.8360     0.1750 H     1 <1>   0.0800 
 38 H       -3.0840    -5.1680     1.9860 H     1 <1>   0.0800 
 39 H       -3.5430    -7.4820     0.1030 H     1 <1>   0.0800 
 40 H       -3.6570    -7.5800     1.8340 H     1 <1>   0.0800 
 41 H       -5.4830    -5.5810    -2.0890 H     1 <1>   0.4000 
 42 H       -5.3700    -4.3610     1.1220 H     1 <1>   0.0800 
 43 H       -6.4460    -4.9740    -0.0820 H     1 <1>   0.0800 
 44 H       -5.7160    -3.2700    -1.6620 H     1 <1>   0.0800 
 45 H       -4.6280    -2.5810    -0.5120 H     1 <1>   0.0800 
 46 H       -5.7050    -6.5110     1.8890 H     1 <1>   0.0800 
 47 H       -5.7960    -7.2000     0.2990 H     1 <1>   0.0800 
 48 H       -3.7860    -3.5400    -3.2640 H     1 <1>   0.0800 
 49 H       -2.7690    -2.7090    -2.1100 H     1 <1>   0.0800 
 50 H       -4.1180    -1.8820    -2.8350 H     1 <1>   0.0800 
@<TRIPOS>BOND
  1   1   2  2   
  2   2   3  am  
  3   2   4  1   
  4   3   5  1   
  5   3   6  1   
  6   4   7  ar  
  7   4   8  ar  
  8   5  24  1   
  9   5  25  1   
 10   5  26  1   
 11   6  27  1   
 12   6  28  1   
 13   6  29  1   
 14   7   9  ar  
 15   8  10  ar  
 16   8  30  1   
 17   9  11  1   
 18   9  12  ar  
 19  10  12  ar  
 20  10  31  1   
 21  11  13  1   
 22  11  14  1   
 23  12  32  1   
 24  13  15  1   
 25  13  33  1   
 26  13  34  1   
 27  14  16  1   
 28  14  35  1   
 29  14  36  1   
 30  15  16  1   
 31  15  17  1   
 32  15  37  1   
 33  16  18  1   
 34  16  38  1   
 35  17  19  1   
 36  17  20  1   
 37  17  21  1   
 38  18  22  1   
 39  18  39  1   
 40  18  40  1   
 41  19  41  1   
 42  20  22  1   
 43  20  42  1   
 44  20  43  1   
 45  21  23  1   
 46  21  44  1   
 47  21  45  1   
 48  22  46  1   
 49  22  47  1   
 50  23  48  1   
 51  23  49  1   
 52  23  50  1   
@<TRIPOS>SUBSTRUCTURE
  1 ****   7 GROUP 4 **** **** 0

# MOE 2024.06 (io_trps.svl 2023.06)
