@<TRIPOS>MOLECULE
NONAME
54 57 1 0 0 
SMALL
USER_CHARGES


@<TRIPOS>ATOM
  1 S       -0.4500    -0.1360     1.7350 S.o2  1 <1>   1.5000 
  2 O       -0.2470    -1.4000     1.0560 O.2   1 <1>  -0.6500 
  3 O       -0.8560    -0.1700     3.1260 O.2   1 <1>  -0.6500 
  4 N       -1.6450     0.7260     0.8870 N.am  1 <1>  -0.8490 
  5 C        1.0400     0.9100     1.6050 C.2   1 <1>   0.0780 
  6 C       -3.0020     0.2560     1.1590 C.3   1 <1>   0.1960 
  7 C       -1.4900     0.6520    -0.5680 C.3   1 <1>   0.1960 
  8 O        1.4930     1.3180     0.4260 O.3   1 <1>  -0.2800 
  9 C        1.8550     1.3920     2.5710 C.2   1 <1>  -0.1500 
 10 C       -3.2650    -0.8630     0.1500 C.3   1 <1>  -0.0800 
 11 C       -2.4910    -0.3900    -1.0920 C.3   1 <1>  -0.0800 
 12 C        2.5800     2.0620     0.5900 C.2   1 <1>   0.1410 
 13 C        2.8480     2.1300     1.9220 C.2   1 <1>  -0.1500 
 14 C       -4.7500    -1.2540    -0.0900 C.3   1 <1>   0.2800 
 15 C       -3.4140     0.2030    -2.1690 C.3   1 <1>  -0.1600 
 16 C        3.2490     2.6270    -0.5670 C.2   1 <1>   0.2880 
 17 O       -5.5590    -0.1390     0.0290 O.3   1 <1>  -0.6800 
 18 C       -4.9170    -1.7880    -1.5250 C.3   1 <1>  -0.1600 
 19 C       -5.2750    -2.3060     0.9140 C.3   1 <1>  -0.1600 
 20 C       -4.4910    -0.7950    -2.6260 C.3   1 <1>  -0.1600 
 21 N        3.1210     2.1370    -1.7770 N.2   1 <1>  -0.7070 
 22 C        4.1040     3.7450    -0.5810 C.2   1 <1>  -0.1810 
 23 C       -5.2320    -1.9110     2.4000 C.3   1 <1>  -0.2400 
 24 N        3.8850     2.9100    -2.5590 N.pl3 1 <1>   0.3000 
 25 C        4.4950     3.8910    -1.8650 C.2   1 <1>  -0.3320 
 26 C        4.4890     4.6100     0.6080 C.3   1 <1>  -0.0590 
 27 C        5.4180     4.9010    -2.5270 C.3   1 <1>  -0.0600 
 28 H       -3.1220    -0.0640     2.1780 H     1 <1>   0.0800 
 29 H       -3.6760     1.0770     0.9850 H     1 <1>   0.0800 
 30 H       -1.7130     1.6210    -0.9820 H     1 <1>   0.0800 
 31 H       -0.4850     0.3930    -0.8550 H     1 <1>   0.0800 
 32 H        1.7700     1.2440     3.6340 H     1 <1>   0.1500 
 33 H       -2.7630    -1.7430     0.5080 H     1 <1>   0.0800 
 34 H       -1.9490    -1.2180    -1.5160 H     1 <1>   0.0800 
 35 H        3.6570     2.6340     2.4150 H     1 <1>   0.1500 
 36 H       -3.9050     1.0710    -1.7600 H     1 <1>   0.0800 
 37 H       -2.8380     0.5270    -3.0180 H     1 <1>   0.0800 
 38 H       -6.4780    -0.3870    -0.1770 H     1 <1>   0.4000 
 39 H       -4.3000    -2.6650    -1.6170 H     1 <1>   0.0800 
 40 H       -5.9310    -2.1030    -1.6960 H     1 <1>   0.0800 
 41 H       -6.2910    -2.5500     0.6580 H     1 <1>   0.0800 
 42 H       -4.7030    -3.2100     0.7940 H     1 <1>   0.0800 
 43 H       -4.1280    -1.3530    -3.4710 H     1 <1>   0.0800 
 44 H       -5.3510    -0.2360    -2.9550 H     1 <1>   0.0800 
 45 H       -5.6970    -0.9540     2.5580 H     1 <1>   0.0800 
 46 H       -4.2190    -1.8740     2.7560 H     1 <1>   0.0800 
 47 H       -5.7580    -2.6430     2.9860 H     1 <1>   0.0800 
 48 H        3.9730     2.7450    -3.5680 H     1 <1>   0.2700 
 49 H        3.6130     4.8630     1.1770 H     1 <1>   0.0800 
 50 H        4.9490     5.5240     0.2840 H     1 <1>   0.0800 
 51 H        5.1820     4.0810     1.2360 H     1 <1>   0.0800 
 52 H        5.8500     5.5650    -1.8000 H     1 <1>   0.0800 
 53 H        4.8710     5.4900    -3.2410 H     1 <1>   0.0800 
 54 H        6.2190     4.3930    -3.0340 H     1 <1>   0.0800 
@<TRIPOS>BOND
  1   1   2  2   
  2   1   3  2   
  3   1   4  am  
  4   1   5  1   
  5   4   6  1   
  6   4   7  1   
  7   5   8  1   
  8   5   9  2   
  9   6  10  1   
 10   6  28  1   
 11   6  29  1   
 12   7  11  1   
 13   7  30  1   
 14   7  31  1   
 15   8  12  1   
 16   9  13  1   
 17   9  32  1   
 18  10  11  1   
 19  10  14  1   
 20  10  33  1   
 21  11  15  1   
 22  11  34  1   
 23  12  13  2   
 24  12  16  1   
 25  13  35  1   
 26  14  17  1   
 27  14  18  1   
 28  14  19  1   
 29  15  20  1   
 30  15  36  1   
 31  15  37  1   
 32  16  21  2   
 33  16  22  1   
 34  17  38  1   
 35  18  20  1   
 36  18  39  1   
 37  18  40  1   
 38  19  23  1   
 39  19  41  1   
 40  19  42  1   
 41  20  43  1   
 42  20  44  1   
 43  21  24  1   
 44  22  25  2   
 45  22  26  1   
 46  23  45  1   
 47  23  46  1   
 48  23  47  1   
 49  24  25  1   
 50  24  48  1   
 51  25  27  1   
 52  26  49  1   
 53  26  50  1   
 54  26  51  1   
 55  27  52  1   
 56  27  53  1   
 57  27  54  1   
@<TRIPOS>SUBSTRUCTURE
  1 ****   7 GROUP 4 **** **** 0

# MOE 2024.06 (io_trps.svl 2023.06)
