@<TRIPOS>MOLECULE
NONAME
34 34 1 0 0 
SMALL
USER_CHARGES


@<TRIPOS>ATOM
  1 S       -0.9030    -0.2720     0.5610 S.3   1 <1>  -0.0800 
  2 C       -1.0870    -1.1420    -0.9250 C.2   1 <1>   0.4420 
  3 C       -0.1000     0.9690    -0.3430 C.2   1 <1>   0.1980 
  4 N       -0.5740    -0.5160    -1.9210 N.2   1 <1>  -0.3380 
  5 N       -1.7370    -2.3540    -0.8520 N.am  1 <1>  -0.4940 
  6 N       -0.0130     0.6850    -1.5820 N.2   1 <1>  -0.3380 
  7 C        0.4110     2.1910     0.4220 C.3   1 <1>   0.3800 
  8 C       -2.0060    -3.2730    -1.8250 C.2   1 <1>   0.5690 
  9 O       -0.6080     2.6750     1.2520 O.3   1 <1>  -0.5600 
 10 C        0.8460     3.3280    -0.5100 C.3   1 <1>  -0.2400 
 11 O       -1.6720    -3.1500    -2.9750 O.2   1 <1>  -0.5700 
 12 C       -2.7720    -4.5310    -1.4380 C.3   1 <1>   0.1310 
 13 C       -0.1900     3.3150     2.4170 C.3   1 <1>   0.0400 
 14 S       -3.1700    -4.5690     0.3520 S.3   1 <1>  -0.4600 
 15 C       -4.1310    -6.0900     0.5490 C.3   1 <1>   0.1500 
 16 C       -4.8870    -5.9670     1.8680 C.3   1 <1>  -0.2400 
 17 C       -3.1540    -7.2650     0.5500 C.3   1 <1>  -0.2400 
 18 H       -2.0800    -2.6170     0.0730 H     1 <1>   0.3700 
 19 H        1.2380     1.8770     1.0350 H     1 <1>   0.0800 
 20 H        0.0080     3.6570    -1.0980 H     1 <1>   0.0800 
 21 H        1.6100     2.9750    -1.1780 H     1 <1>   0.0800 
 22 H        1.2420     4.1550     0.0480 H     1 <1>   0.0800 
 23 H       -2.1810    -5.3990    -1.6590 H     1 <1>   0.0800 
 24 H       -3.7010    -4.5740    -1.9760 H     1 <1>   0.0800 
 25 H       -1.0670     3.6260     2.9580 H     1 <1>   0.0800 
 26 H        0.4000     4.1790     2.1660 H     1 <1>   0.0800 
 27 H        0.3780     2.6270     3.0190 H     1 <1>   0.0800 
 28 H       -4.8170    -6.1510    -0.2790 H     1 <1>   0.0800 
 29 H       -4.1990    -5.8540     2.6870 H     1 <1>   0.0800 
 30 H       -5.4840    -6.8450     2.0370 H     1 <1>   0.0800 
 31 H       -5.5380    -5.1110     1.8410 H     1 <1>   0.0800 
 32 H       -2.4290    -7.1480     1.3360 H     1 <1>   0.0800 
 33 H       -2.6400    -7.3330    -0.3910 H     1 <1>   0.0800 
 34 H       -3.6880    -8.1850     0.7090 H     1 <1>   0.0800 
@<TRIPOS>BOND
  1   1   2  1   
  2   1   3  1   
  3   2   4  2   
  4   2   5  1   
  5   3   6  2   
  6   3   7  1   
  7   4   6  1   
  8   5   8  am  
  9   5  18  1   
 10   7   9  1   
 11   7  10  1   
 12   7  19  1   
 13   8  11  2   
 14   8  12  1   
 15   9  13  1   
 16  10  20  1   
 17  10  21  1   
 18  10  22  1   
 19  12  14  1   
 20  12  23  1   
 21  12  24  1   
 22  13  25  1   
 23  13  26  1   
 24  13  27  1   
 25  14  15  1   
 26  15  16  1   
 27  15  17  1   
 28  15  28  1   
 29  16  29  1   
 30  16  30  1   
 31  16  31  1   
 32  17  32  1   
 33  17  33  1   
 34  17  34  1   
@<TRIPOS>SUBSTRUCTURE
  1 ****   2 GROUP 4 **** **** 0

# MOE 2024.06 (io_trps.svl 2023.06)
