@<TRIPOS>MOLECULE
NONAME
56 59 1 0 0 
SMALL
USER_CHARGES


@<TRIPOS>ATOM
  1 O        0.3740    -0.5480     1.7200 O.2   1 <1>  -0.5700 
  2 C        1.3890    -0.8890     1.1580 C.2   1 <1>   0.5690 
  3 N        2.4600    -0.0700     0.9820 N.am  1 <1>  -0.4930 
  4 C        1.4330    -2.3170     0.5880 C.3   1 <1>   0.4040 
  5 C        2.6180     1.2630     1.3320 C.2   1 <1>   0.3520 
  6 N        0.0720    -2.8750     0.2410 N.4   1 <1>  -0.9590 
  7 N        3.6930     1.8630     0.9460 N.2   1 <1>  -0.7070 
  8 C        1.7730     2.0950     2.0610 C.2   1 <1>  -0.1500 
  9 C        0.0040    -4.3480    -0.0040 C.3   1 <1>   0.4230 
 10 C       -0.6740    -2.0760    -0.7640 C.3   1 <1>   0.3430 
 11 N        3.5700     3.1210     1.4210 N.pl3 1 <1>   0.3140 
 12 C        2.4160     3.2800     2.0980 C.2   1 <1>  -0.3020 
 13 C       -1.4290    -4.8020    -0.3970 C.3   1 <1>  -0.0800 
 14 C        1.0800    -4.7840    -1.0190 C.3   1 <1>  -0.1600 
 15 C       -2.1690    -2.4080    -0.6970 C.3   1 <1>  -0.1600 
 16 C        4.6080     4.1330     1.1910 C.3   1 <1>   0.0160 
 17 C       -2.4920    -3.7480    -0.0020 C.3   1 <1>   0.4240 
 18 C       -1.5330    -5.2160    -1.8850 C.3   1 <1>  -0.1600 
 19 C        0.8170    -6.2090    -1.5220 C.3   1 <1>  -0.1600 
 20 O       -2.3660    -3.5190     1.3560 O.3   1 <1>  -0.6800 
 21 C       -3.9370    -4.2470    -0.1830 C.ar  1 <1>  -0.1440 
 22 C       -0.5370    -6.3320    -2.2400 C.3   1 <1>  -0.1600 
 23 C       -4.3440    -5.3920     0.4990 C.ar  1 <1>  -0.1500 
 24 C       -4.8740    -3.6060    -0.9900 C.ar  1 <1>  -0.1500 
 25 C       -5.6290    -5.8870     0.3710 C.ar  1 <1>  -0.1500 
 26 C       -6.1610    -4.1000    -1.1200 C.ar  1 <1>  -0.1500 
 27 C       -6.5400    -5.2420    -0.4420 C.ar  1 <1>  -0.1500 
 28 H        3.3010    -0.3890     0.5060 H     1 <1>   0.3700 
 29 H        1.8940    -2.9480     1.3280 H     1 <1>   0.0800 
 30 H        2.0560    -2.3190    -0.2890 H     1 <1>   0.0800 
 31 H       -0.5070    -2.7420     1.0980 H     1 <1>   0.4500 
 32 H        0.8240     1.8280     2.4890 H     1 <1>   0.1500 
 33 H        0.2300    -4.8410     0.9290 H     1 <1>   0.0800 
 34 H       -0.5430    -1.0210    -0.5790 H     1 <1>   0.0800 
 35 H       -0.2970    -2.2970    -1.7490 H     1 <1>   0.0800 
 36 H        2.1220     4.2060     2.5580 H     1 <1>   0.1500 
 37 H       -1.6260    -5.6970     0.1660 H     1 <1>   0.0800 
 38 H        1.0910    -4.1220    -1.8670 H     1 <1>   0.0800 
 39 H        2.0490    -4.7640    -0.5550 H     1 <1>   0.0800 
 40 H       -2.5100    -2.4350    -1.7150 H     1 <1>   0.0800 
 41 H       -2.6990    -1.6080    -0.2110 H     1 <1>   0.0800 
 42 H        4.3170     5.0590     1.6500 H     1 <1>   0.0800 
 43 H        4.7300     4.2720     0.1330 H     1 <1>   0.0800 
 44 H        5.5310     3.7890     1.6170 H     1 <1>   0.0800 
 45 H       -2.5290    -5.5610    -2.1110 H     1 <1>   0.0800 
 46 H       -1.3380    -4.3710    -2.5210 H     1 <1>   0.0800 
 47 H        1.6040    -6.5170    -2.1910 H     1 <1>   0.0800 
 48 H        0.8320    -6.8860    -0.6830 H     1 <1>   0.0800 
 49 H       -3.2700    -3.3870     1.7150 H     1 <1>   0.4000 
 50 H       -0.9700    -7.2890    -1.9960 H     1 <1>   0.0800 
 51 H       -0.3810    -6.3240    -3.3070 H     1 <1>   0.0800 
 52 H       -3.6630    -5.9160     1.1470 H     1 <1>   0.1500 
 53 H       -4.6440    -2.7110    -1.5360 H     1 <1>   0.1500 
 54 H       -5.9220    -6.7750     0.9050 H     1 <1>   0.1500 
 55 H       -6.8720    -3.5930    -1.7500 H     1 <1>   0.1500 
 56 H       -7.5410    -5.6250    -0.5440 H     1 <1>   0.1500 
@<TRIPOS>BOND
  1   1   2  2   
  2   2   3  am  
  3   2   4  1   
  4   3   5  1   
  5   3  28  1   
  6   4   6  1   
  7   4  29  1   
  8   4  30  1   
  9   5   7  2   
 10   5   8  1   
 11   6   9  1   
 12   6  10  1   
 13   6  31  1   
 14   7  11  1   
 15   8  12  2   
 16   8  32  1   
 17   9  13  1   
 18   9  14  1   
 19   9  33  1   
 20  10  15  1   
 21  10  34  1   
 22  10  35  1   
 23  11  12  1   
 24  11  16  1   
 25  12  36  1   
 26  13  17  1   
 27  13  18  1   
 28  13  37  1   
 29  14  19  1   
 30  14  38  1   
 31  14  39  1   
 32  15  17  1   
 33  15  40  1   
 34  15  41  1   
 35  16  42  1   
 36  16  43  1   
 37  16  44  1   
 38  17  20  1   
 39  17  21  1   
 40  18  22  1   
 41  18  45  1   
 42  18  46  1   
 43  19  22  1   
 44  19  47  1   
 45  19  48  1   
 46  20  49  1   
 47  21  23  ar  
 48  21  24  ar  
 49  22  50  1   
 50  22  51  1   
 51  23  25  ar  
 52  23  52  1   
 53  24  26  ar  
 54  24  53  1   
 55  25  27  ar  
 56  25  54  1   
 57  26  27  ar  
 58  26  55  1   
 59  27  56  1   
@<TRIPOS>SUBSTRUCTURE
  1 ****   6 GROUP 4 **** **** 0

# MOE 2024.06 (io_trps.svl 2023.06)
