@<TRIPOS>MOLECULE
NONAME
51 52 1 0 0 
SMALL
USER_CHARGES


@<TRIPOS>ATOM
  1 O       -0.0840     1.3030     1.7380 O.co2 1 <1>  -0.9000 
  2 C       -0.6330     2.2730     2.2830 C.2   1 <1>   0.9060 
  3 O       -0.1820     2.8030     3.3030 O.co2 1 <1>  -0.9000 
  4 C       -2.0000     2.7650     1.7370 C.3   1 <1>   0.4600 
  5 N       -2.9390     1.6740     1.2300 N.4   1 <1>  -0.9590 
  6 C       -1.8690     3.8600     0.6770 C.ar  1 <1>  -0.1430 
  7 C       -2.4220     0.9910    -0.0020 C.3   1 <1>   0.3430 
  8 C       -4.3460     2.1440     1.0440 C.3   1 <1>   0.3430 
  9 C       -2.6580     4.9980     0.7790 C.ar  1 <1>   0.0830 
 10 C       -0.9860     3.7540    -0.3890 C.ar  1 <1>  -0.1500 
 11 C       -3.3060    -0.2290    -0.4000 C.3   1 <1>   0.2800 
 12 C       -5.1320     1.2640     0.0480 C.3   1 <1>   0.1200 
 13 O       -3.5050     5.1350     1.8220 O.3   1 <1>  -0.3630 
 14 C       -2.5990     5.9930    -0.1830 C.ar  1 <1>  -0.1500 
 15 C       -0.9200     4.7410    -1.3600 C.ar  1 <1>   0.0830 
 16 O       -4.6390    -0.0500     0.0330 O.3   1 <1>  -0.5600 
 17 C       -3.3160    -0.3860    -1.9410 C.3   1 <1>  -0.1600 
 18 C       -2.8270    -1.4980     0.3410 C.3   1 <1>  -0.1600 
 19 C       -3.0080     5.9080     2.8950 C.3   1 <1>   0.0400 
 20 C       -1.7340     5.8670    -1.2550 C.ar  1 <1>  -0.1500 
 21 O       -0.0470     4.5350    -2.3780 O.3   1 <1>  -0.3630 
 22 C       -4.2080    -1.5170    -2.4810 C.3   1 <1>  -0.2400 
 23 C       -1.3970    -1.9650     0.0140 C.3   1 <1>  -0.2400 
 24 C        0.2460     5.5570    -3.3040 C.3   1 <1>   0.0400 
 25 H       -2.4650     3.2140     2.5950 H     1 <1>   0.0800 
 26 H       -2.9220     0.9400     1.9490 H     1 <1>   0.4500 
 27 H       -1.4070     0.6650     0.1380 H     1 <1>   0.0800 
 28 H       -2.4180     1.6930    -0.8180 H     1 <1>   0.0800 
 29 H       -4.3540     3.1560     0.6760 H     1 <1>   0.0800 
 30 H       -4.8510     2.1440     1.9950 H     1 <1>   0.0800 
 31 H       -0.3280     2.9050    -0.4790 H     1 <1>   0.1500 
 32 H       -5.0660     1.6690    -0.9460 H     1 <1>   0.0800 
 33 H       -6.1710     1.2270     0.3260 H     1 <1>   0.0800 
 34 H       -3.2280     6.8600    -0.0910 H     1 <1>   0.1500 
 35 H       -2.3110    -0.5510    -2.2870 H     1 <1>   0.0800 
 36 H       -3.6390     0.5390    -2.3840 H     1 <1>   0.0800 
 37 H       -3.5050    -2.3050     0.1280 H     1 <1>   0.0800 
 38 H       -2.8790    -1.3160     1.4000 H     1 <1>   0.0800 
 39 H       -3.7480     5.9220     3.6750 H     1 <1>   0.0800 
 40 H       -2.8190     6.9090     2.5490 H     1 <1>   0.0800 
 41 H       -2.0970     5.4620     3.2590 H     1 <1>   0.0800 
 42 H       -1.7060     6.6460    -1.9930 H     1 <1>   0.1500 
 43 H       -3.8490    -2.4780    -2.1590 H     1 <1>   0.0800 
 44 H       -4.2080    -1.5030    -3.5560 H     1 <1>   0.0800 
 45 H       -5.2220    -1.3970    -2.1410 H     1 <1>   0.0800 
 46 H       -1.2920    -2.2050    -1.0290 H     1 <1>   0.0800 
 47 H       -1.1740    -2.8520     0.5800 H     1 <1>   0.0800 
 48 H       -0.6670    -1.2190     0.2800 H     1 <1>   0.0800 
 49 H        1.0150     5.1990    -3.9640 H     1 <1>   0.0800 
 50 H        0.5970     6.4230    -2.7700 H     1 <1>   0.0800 
 51 H       -0.6420     5.7840    -3.8670 H     1 <1>   0.0800 
@<TRIPOS>BOND
  1   1   2  ar  
  2   2   3  ar  
  3   2   4  1   
  4   4   5  1   
  5   4   6  1   
  6   4  25  1   
  7   5   7  1   
  8   5   8  1   
  9   5  26  1   
 10   6   9  ar  
 11   6  10  ar  
 12   7  11  1   
 13   7  27  1   
 14   7  28  1   
 15   8  12  1   
 16   8  29  1   
 17   8  30  1   
 18   9  13  1   
 19   9  14  ar  
 20  10  15  ar  
 21  10  31  1   
 22  11  16  1   
 23  11  17  1   
 24  11  18  1   
 25  12  16  1   
 26  12  32  1   
 27  12  33  1   
 28  13  19  1   
 29  14  20  ar  
 30  14  34  1   
 31  15  20  ar  
 32  15  21  1   
 33  17  22  1   
 34  17  35  1   
 35  17  36  1   
 36  18  23  1   
 37  18  37  1   
 38  18  38  1   
 39  19  39  1   
 40  19  40  1   
 41  19  41  1   
 42  20  42  1   
 43  21  24  1   
 44  22  43  1   
 45  22  44  1   
 46  22  45  1   
 47  23  46  1   
 48  23  47  1   
 49  23  48  1   
 50  24  49  1   
 51  24  50  1   
 52  24  51  1   
@<TRIPOS>SUBSTRUCTURE
  1 ****   5 GROUP 4 **** **** 0

# MOE 2024.06 (io_trps.svl 2023.06)
