@<TRIPOS>MOLECULE
NONAME
45 47 1 0 0 
SMALL
USER_CHARGES


@<TRIPOS>ATOM
  1 O        1.5470     0.9760     2.2840 O.co2 1 <1>  -0.9000 
  2 C        1.7910     0.1920     1.3600 C.2   1 <1>   0.9060 
  3 O        1.7040    -1.0340     1.5320 O.co2 1 <1>  -0.9000 
  4 C        2.2250     0.7140    -0.0250 C.3   1 <1>  -0.1060 
  5 C        3.4810    -0.0680    -0.4900 C.3   1 <1>   0.2000 
  6 C        2.6190     2.2190     0.0230 C.3   1 <1>  -0.1600 
  7 C        1.0770     0.4820    -1.0460 C.3   1 <1>  -0.0160 
  8 O        3.2160    -1.4270    -0.5180 O.3   1 <1>  -0.6800 
  9 C        4.6960     0.1950     0.4120 C.3   1 <1>   0.1400 
 10 C        3.8430     2.4820     0.9130 C.3   1 <1>   0.1400 
 11 C       -0.0600     1.5010    -0.9950 C.ar  1 <1>  -0.1440 
 12 N        4.9970     1.6620     0.4400 N.am  1 <1>  -0.6600 
 13 C       -0.2490     2.3920    -2.0410 C.ar  1 <1>  -0.1500 
 14 C       -0.9170     1.5470     0.0930 C.ar  1 <1>  -0.1500 
 15 C        6.2150     2.1580     0.0430 C.2   1 <1>   0.5770 
 16 C       -1.2800     3.3160    -2.0000 C.ar  1 <1>  -0.1500 
 17 C       -1.9470     2.4700     0.1380 C.ar  1 <1>  -0.1500 
 18 O        7.0750     1.4360    -0.4080 O.2   1 <1>  -0.5700 
 19 C        6.5130     3.6550     0.1500 C.3   1 <1>   0.0530 
 20 C       -2.1300     3.3560    -0.9090 C.ar  1 <1>  -0.1500 
 21 C        7.9790     4.1030    -0.1220 C.3   1 <1>   0.0000 
 22 C        6.7210     4.1690     1.6010 C.3   1 <1>   0.0000 
 23 C        7.7930     5.1280     1.0250 C.3   1 <1>   0.0000 
 24 H        3.7460     0.2160    -1.4930 H     1 <1>   0.0800 
 25 H        1.7970     2.7930     0.4160 H     1 <1>   0.0800 
 26 H        2.8230     2.5800    -0.9680 H     1 <1>   0.0800 
 27 H        1.4900     0.4860    -2.0390 H     1 <1>   0.0800 
 28 H        0.6630    -0.5000    -0.8940 H     1 <1>   0.0800 
 29 H        2.6410    -1.6050     0.2890 H     1 <1>   0.4000 
 30 H        5.5380    -0.3570     0.0350 H     1 <1>   0.0800 
 31 H        4.4870    -0.1400     1.4130 H     1 <1>   0.0800 
 32 H        3.6230     2.2190     1.9340 H     1 <1>   0.0800 
 33 H        4.0670     3.5310     0.8910 H     1 <1>   0.0800 
 34 H        0.4080     2.3710    -2.8920 H     1 <1>   0.1500 
 35 H       -0.7800     0.8660     0.9180 H     1 <1>   0.1500 
 36 H       -1.4190     4.0030    -2.8160 H     1 <1>   0.1500 
 37 H       -2.5980     2.4950     0.9930 H     1 <1>   0.1500 
 38 H        5.8140     4.2630    -0.4000 H     1 <1>   0.0000 
 39 H       -2.9300     4.0730    -0.8730 H     1 <1>   0.1500 
 40 H        8.7190     3.3600     0.1220 H     1 <1>   0.0000 
 41 H        8.1250     4.5550    -1.0870 H     1 <1>   0.0000 
 42 H        5.8660     4.6730     2.0160 H     1 <1>   0.0000 
 43 H        7.1410     3.4240     2.2560 H     1 <1>   0.0000 
 44 H        7.3770     6.0620     0.6860 H     1 <1>   0.0000 
 45 H        8.6580     5.2430     1.6530 H     1 <1>   0.0000 
@<TRIPOS>BOND
  1   1   2  ar  
  2   2   3  ar  
  3   2   4  1   
  4   4   5  1   
  5   4   6  1   
  6   4   7  1   
  7   5   8  1   
  8   5   9  1   
  9   5  24  1   
 10   6  10  1   
 11   6  25  1   
 12   6  26  1   
 13   7  11  1   
 14   7  27  1   
 15   7  28  1   
 16   8  29  1   
 17   9  12  1   
 18   9  30  1   
 19   9  31  1   
 20  10  12  1   
 21  10  32  1   
 22  10  33  1   
 23  11  13  ar  
 24  11  14  ar  
 25  12  15  am  
 26  13  16  ar  
 27  13  34  1   
 28  14  17  ar  
 29  14  35  1   
 30  15  18  2   
 31  15  19  1   
 32  16  20  ar  
 33  16  36  1   
 34  17  20  ar  
 35  17  37  1   
 36  19  21  1   
 37  19  22  1   
 38  19  38  1   
 39  20  39  1   
 40  21  23  1   
 41  21  40  1   
 42  21  41  1   
 43  22  23  1   
 44  22  42  1   
 45  22  43  1   
 46  23  44  1   
 47  23  45  1   
@<TRIPOS>SUBSTRUCTURE
  1 ****   6 GROUP 4 **** **** 0

# MOE 2024.06 (io_trps.svl 2023.06)
