@<TRIPOS>MOLECULE
NONAME
65 68 1 0 0 
SMALL
USER_CHARGES


@<TRIPOS>ATOM
  1 O       -0.4350     1.5320     3.3180 O.2   1 <1>  -0.5700 
  2 C       -0.8850     1.2200     2.2370 C.2   1 <1>   0.5690 
  3 N       -1.3960    -0.0500     2.0640 N.am  1 <1>  -0.6600 
  4 C       -0.8090     2.2840     1.1110 C.3   1 <1>   0.0610 
  5 C       -1.5440    -0.7700     0.7650 C.3   1 <1>   0.3200 
  6 C       -1.7200    -0.8940     3.2550 C.3   1 <1>   0.0600 
  7 C       -0.8920     3.7290     1.6850 C.3   1 <1>   0.2200 
  8 C       -2.0350     2.3160     0.1440 C.3   1 <1>  -0.1600 
  9 C        0.5040     2.1060     0.2820 C.3   1 <1>  -0.1600 
 10 C       -2.9900    -1.0970     0.3890 C.2   1 <1>   0.0060 
 11 N       -1.3060     4.4680     0.4970 N.am  1 <1>  -0.6600 
 12 C       -2.1450     3.9610     2.5540 C.3   1 <1>  -0.1600 
 13 C       -2.5400     3.7640     0.2040 C.3   1 <1>   0.2200 
 14 C        1.8070     2.1950     1.0920 C.3   1 <1>  -0.2400 
 15 N       -4.0450    -0.5870     0.9350 N.2   1 <1>  -0.3380 
 16 N       -3.3200    -1.9550    -0.5880 N.pl3 1 <1>   0.0480 
 17 C       -0.6110     5.4420    -0.1560 C.2   1 <1>   0.5690 
 18 C       -3.2880     3.9690     1.5230 C.3   1 <1>  -0.1600 
 19 N       -5.1040    -1.1030     0.3180 N.2   1 <1>  -0.3380 
 20 C       -4.6540    -1.9080    -0.5780 C.2   1 <1>   0.0370 
 21 C       -2.4520    -2.7550    -1.4930 C.3   1 <1>   0.1760 
 22 O        0.4600     5.8250     0.2550 O.2   1 <1>  -0.5700 
 23 C       -1.1870     6.0410    -1.4420 C.3   1 <1>  -0.0190 
 24 C       -2.5540    -2.2190    -2.9250 C.3   1 <1>  -0.2400 
 25 C       -2.8310    -4.2390    -1.4320 C.3   1 <1>  -0.2400 
 26 C       -0.9370     5.1190    -2.6470 C.3   1 <1>  -0.1600 
 27 C       -0.6350     7.4420    -1.7670 C.3   1 <1>  -0.1600 
 28 C       -1.4670     5.7550    -3.9360 C.3   1 <1>   0.1200 
 29 C       -1.1780     7.9420    -3.1100 C.3   1 <1>   0.1200 
 30 O       -0.8870     7.0100    -4.1060 O.3   1 <1>  -0.5600 
 31 H       -1.1130    -0.1990    -0.0310 H     1 <1>   0.0800 
 32 H       -0.9880    -1.6880     0.8370 H     1 <1>   0.0800 
 33 H       -2.6680    -1.3840     3.1180 H     1 <1>   0.0800 
 34 H       -1.7860    -0.2890     4.1430 H     1 <1>   0.0800 
 35 H       -0.9520    -1.6340     3.3980 H     1 <1>   0.0800 
 36 H        0.0150     4.0960     2.1340 H     1 <1>   0.0800 
 37 H       -2.8250     1.6610     0.4550 H     1 <1>   0.0800 
 38 H       -1.7600     2.0670    -0.8640 H     1 <1>   0.0800 
 39 H        0.4960     1.1550    -0.2130 H     1 <1>   0.0800 
 40 H        0.5490     2.8540    -0.4900 H     1 <1>   0.0800 
 41 H       -2.2880     3.2140     3.3120 H     1 <1>   0.0800 
 42 H       -2.0680     4.9200     3.0350 H     1 <1>   0.0800 
 43 H       -3.0700     4.0980    -0.6710 H     1 <1>   0.0800 
 44 H        1.8350     1.4520     1.8700 H     1 <1>   0.0800 
 45 H        1.9170     3.1670     1.5390 H     1 <1>   0.0800 
 46 H        2.6500     2.0350     0.4440 H     1 <1>   0.0800 
 47 H       -3.7910     4.9190     1.5210 H     1 <1>   0.0800 
 48 H       -4.0080     3.1890     1.7050 H     1 <1>   0.0800 
 49 H       -5.2700    -2.4800    -1.2480 H     1 <1>   0.1500 
 50 H       -1.4330    -2.6560    -1.1650 H     1 <1>   0.0800 
 51 H       -2.2470     6.1440    -1.3040 H     1 <1>   0.0800 
 52 H       -3.5550    -2.3260    -3.3040 H     1 <1>   0.0800 
 53 H       -1.8900    -2.7670    -3.5710 H     1 <1>   0.0800 
 54 H       -2.2740    -1.1810    -2.9580 H     1 <1>   0.0800 
 55 H       -3.8290    -4.4000    -1.7990 H     1 <1>   0.0800 
 56 H       -2.7660    -4.5990    -0.4200 H     1 <1>   0.0800 
 57 H       -2.1540    -4.8160    -2.0370 H     1 <1>   0.0800 
 58 H       -1.4140     4.1690    -2.4960 H     1 <1>   0.0800 
 59 H        0.1200     4.9430    -2.7560 H     1 <1>   0.0800 
 60 H        0.4390     7.4120    -1.8220 H     1 <1>   0.0800 
 61 H       -0.9040     8.1310    -0.9860 H     1 <1>   0.0800 
 62 H       -2.5370     5.8730    -3.9060 H     1 <1>   0.0800 
 63 H       -1.2030     5.1550    -4.7890 H     1 <1>   0.0800 
 64 H       -0.7070     8.8710    -3.3830 H     1 <1>   0.0800 
 65 H       -2.2440     8.0870    -3.0750 H     1 <1>   0.0800 
@<TRIPOS>BOND
  1   1   2  2   
  2   2   3  am  
  3   2   4  1   
  4   3   5  1   
  5   3   6  1   
  6   4   7  1   
  7   4   8  1   
  8   4   9  1   
  9   5  10  1   
 10   5  31  1   
 11   5  32  1   
 12   6  33  1   
 13   6  34  1   
 14   6  35  1   
 15   7  11  1   
 16   7  12  1   
 17   7  36  1   
 18   8  13  1   
 19   8  37  1   
 20   8  38  1   
 21   9  14  1   
 22   9  39  1   
 23   9  40  1   
 24  10  15  2   
 25  10  16  1   
 26  11  13  1   
 27  11  17  am  
 28  12  18  1   
 29  12  41  1   
 30  12  42  1   
 31  13  18  1   
 32  13  43  1   
 33  14  44  1   
 34  14  45  1   
 35  14  46  1   
 36  15  19  1   
 37  16  20  1   
 38  16  21  1   
 39  17  22  2   
 40  17  23  1   
 41  18  47  1   
 42  18  48  1   
 43  19  20  2   
 44  20  49  1   
 45  21  24  1   
 46  21  25  1   
 47  21  50  1   
 48  23  26  1   
 49  23  27  1   
 50  23  51  1   
 51  24  52  1   
 52  24  53  1   
 53  24  54  1   
 54  25  55  1   
 55  25  56  1   
 56  25  57  1   
 57  26  28  1   
 58  26  58  1   
 59  26  59  1   
 60  27  29  1   
 61  27  60  1   
 62  27  61  1   
 63  28  30  1   
 64  28  62  1   
 65  28  63  1   
 66  29  30  1   
 67  29  64  1   
 68  29  65  1   
@<TRIPOS>SUBSTRUCTURE
  1 ****   8 GROUP 4 **** **** 0

# MOE 2024.06 (io_trps.svl 2023.06)
