@<TRIPOS>MOLECULE
NONAME
44 45 1 0 0 
SMALL
USER_CHARGES


@<TRIPOS>ATOM
  1 S        0.5100    -0.1340    -1.1090 S.o2  1 <1>   1.3330 
  2 O       -0.3710     0.0250    -2.2420 O.2   1 <1>  -0.6500 
  3 O        1.8220    -0.7130    -1.2990 O.2   1 <1>  -0.6500 
  4 N       -0.3170    -1.0860     0.0300 N.am  1 <1>  -0.8490 
  5 C        0.6740     1.4490    -0.2710 C.3   1 <1>  -0.0550 
  6 C       -0.0020    -2.5120    -0.1040 C.3   1 <1>   0.1160 
  7 C       -1.7730    -0.8980     0.0010 C.3   1 <1>   0.1160 
  8 C        1.8110     1.5940     0.7650 C.3   1 <1>  -0.0800 
  9 C        3.2090     1.5520     0.1420 C.3   1 <1>   0.2200 
 10 C        1.8770     0.5500     1.8860 C.3   1 <1>   0.1200 
 11 N        3.8740     2.8580     0.3550 N.am  1 <1>  -0.7300 
 12 C        3.9110     0.4540     0.9380 C.3   1 <1>   0.1200 
 13 O        3.2330     0.4010     2.1510 O.3   1 <1>  -0.5600 
 14 C        3.6760     3.9480    -0.4460 C.2   1 <1>   0.5440 
 15 O        2.8970     3.8420    -1.3720 O.2   1 <1>  -0.5700 
 16 C        4.3380     5.2010    -0.1920 C.ar  1 <1>   0.0860 
 17 C        5.4770     5.3180     0.5840 C.ar  1 <1>   0.1600 
 18 C        3.8690     6.3920    -0.7180 C.ar  1 <1>   0.1600 
 19 N        6.0700     6.4590     0.8330 N.ar  1 <1>  -0.6200 
 20 N        4.4350     7.5530    -0.4920 N.ar  1 <1>  -0.6200 
 21 C        5.5160     7.5300     0.2810 C.ar  1 <1>   0.7200 
 22 N        6.1450     8.6900     0.5550 N.pl3 1 <1>  -0.8690 
 23 C        5.7960    10.0500     0.0720 C.3   1 <1>   0.1290 
 24 H        0.8310     2.2030    -1.0190 H     1 <1>   0.0800 
 25 H       -0.2560     1.6820     0.2070 H     1 <1>   0.0800 
 26 H       -0.5370    -3.0850     0.6340 H     1 <1>   0.0800 
 27 H        1.0520    -2.6740     0.0450 H     1 <1>   0.0800 
 28 H       -0.2690    -2.8630    -1.0880 H     1 <1>   0.0800 
 29 H       -2.2330    -1.4500     0.8030 H     1 <1>   0.0800 
 30 H       -2.1780    -1.2410    -0.9370 H     1 <1>   0.0800 
 31 H       -2.0180     0.1430     0.1210 H     1 <1>   0.0800 
 32 H        1.6680     2.5470     1.2440 H     1 <1>   0.0800 
 33 H        3.2060     1.3170    -0.9090 H     1 <1>   0.0800 
 34 H        1.5060    -0.4130     1.5870 H     1 <1>   0.0800 
 35 H        1.3750     0.8720     2.7820 H     1 <1>   0.0800 
 36 H        4.2860     2.9560     1.2850 H     1 <1>   0.3700 
 37 H        4.9540     0.6550     1.1100 H     1 <1>   0.0800 
 38 H        3.7950    -0.5000     0.4520 H     1 <1>   0.0800 
 39 H        5.9170     4.4330     1.0110 H     1 <1>   0.1500 
 40 H        2.9930     6.3750    -1.3440 H     1 <1>   0.1500 
 41 H        6.9720     8.5910     1.1420 H     1 <1>   0.4000 
 42 H        4.9030    10.0280    -0.5280 H     1 <1>   0.0800 
 43 H        6.6030    10.4400    -0.5230 H     1 <1>   0.0800 
 44 H        5.6300    10.7000     0.9130 H     1 <1>   0.0800 
@<TRIPOS>BOND
  1   1   2  2   
  2   1   3  2   
  3   1   4  am  
  4   1   5  1   
  5   4   6  1   
  6   4   7  1   
  7   5   8  1   
  8   5  24  1   
  9   5  25  1   
 10   6  26  1   
 11   6  27  1   
 12   6  28  1   
 13   7  29  1   
 14   7  30  1   
 15   7  31  1   
 16   8   9  1   
 17   8  10  1   
 18   8  32  1   
 19   9  11  1   
 20   9  12  1   
 21   9  33  1   
 22  10  13  1   
 23  10  34  1   
 24  10  35  1   
 25  11  14  am  
 26  11  36  1   
 27  12  13  1   
 28  12  37  1   
 29  12  38  1   
 30  14  15  2   
 31  14  16  1   
 32  16  17  ar  
 33  16  18  ar  
 34  17  19  ar  
 35  17  39  1   
 36  18  20  ar  
 37  18  40  1   
 38  19  21  ar  
 39  20  21  ar  
 40  21  22  1   
 41  22  23  1   
 42  22  41  1   
 43  23  42  1   
 44  23  43  1   
 45  23  44  1   
@<TRIPOS>SUBSTRUCTURE
  1 ****  11 GROUP 4 **** **** 0

# MOE 2024.06 (io_trps.svl 2023.06)
