@<TRIPOS>MOLECULE
NONAME
43 44 1 0 0 
SMALL
USER_CHARGES


@<TRIPOS>ATOM
  1 S        0.1130     0.0690    -0.5900 S.o2  1 <1>   1.3330 
  2 O        1.5480     0.0840    -0.7610 O.2   1 <1>  -0.6500 
  3 O       -0.7460     0.1190    -1.7510 O.2   1 <1>  -0.6500 
  4 N       -0.2920    -1.3090     0.3150 N.am  1 <1>  -0.8490 
  5 C       -0.3610     1.4170     0.4890 C.3   1 <1>  -0.0550 
  6 C        0.7260    -1.6740     1.3070 C.3   1 <1>   0.1160 
  7 C       -0.5900    -2.4630    -0.5390 C.3   1 <1>   0.1160 
  8 C       -0.1870     2.8040    -0.1630 C.3   1 <1>  -0.0800 
  9 C       -0.7220     3.9660     0.6770 C.3   1 <1>   0.2000 
 10 C        1.2710     3.1860    -0.4560 C.3   1 <1>   0.1400 
 11 O       -0.3120     3.8030     1.9920 O.3   1 <1>  -0.6800 
 12 C       -0.0050     5.1850     0.1020 C.3   1 <1>   0.1400 
 13 N        1.3220     4.6650    -0.3130 N.am  1 <1>  -0.6600 
 14 C        2.4980     5.3860    -0.3620 C.2   1 <1>   0.7150 
 15 O        3.5370     4.7520    -0.4130 O.2   1 <1>  -0.5700 
 16 C        2.5340     6.8360    -0.3430 C.2   1 <1>   0.0550 
 17 O        1.4810     7.5550    -0.7180 O.3   1 <1>  -0.2800 
 18 C        3.5270     7.6890    -0.0010 C.2   1 <1>   0.0460 
 19 C        1.9190     8.7870    -0.5750 C.2   1 <1>   0.2980 
 20 N        3.1160     8.9420    -0.1520 N.2   1 <1>  -0.5650 
 21 C        4.9360     7.4310     0.4960 C.3   1 <1>  -0.0590 
 22 C        0.9770     9.9160    -0.9200 C.3   1 <1>  -0.0600 
 23 H       -1.3930     1.2940     0.7560 H     1 <1>   0.0800 
 24 H        0.2150     1.3680     1.3920 H     1 <1>   0.0800 
 25 H        0.3790    -2.4990     1.9060 H     1 <1>   0.0800 
 26 H        0.9230    -0.8420     1.9610 H     1 <1>   0.0800 
 27 H        1.6450    -1.9560     0.8200 H     1 <1>   0.0800 
 28 H       -0.8600    -3.3140     0.0640 H     1 <1>   0.0800 
 29 H        0.2670    -2.7130    -1.1440 H     1 <1>   0.0800 
 30 H       -1.4180    -2.2370    -1.1890 H     1 <1>   0.0800 
 31 H       -0.7170     2.8080    -1.1010 H     1 <1>   0.0800 
 32 H       -1.7950     4.0540     0.6580 H     1 <1>   0.0800 
 33 H        1.5660     2.8910    -1.4500 H     1 <1>   0.0800 
 34 H        1.9430     2.7380     0.2570 H     1 <1>   0.0800 
 35 H        0.6590     3.9230     2.0370 H     1 <1>   0.4000 
 36 H        0.0760     5.9770     0.8280 H     1 <1>   0.0800 
 37 H       -0.5270     5.5450    -0.7680 H     1 <1>   0.0800 
 38 H        5.1150     6.3840     0.6520 H     1 <1>   0.0800 
 39 H        5.0890     7.9470     1.4260 H     1 <1>   0.0800 
 40 H        5.6420     7.8000    -0.2240 H     1 <1>   0.0800 
 41 H        1.4650    10.8600    -0.7600 H     1 <1>   0.0800 
 42 H        0.1040     9.8620    -0.2970 H     1 <1>   0.0800 
 43 H        0.6860     9.8400    -1.9500 H     1 <1>   0.0800 
@<TRIPOS>BOND
  1   1   2  2   
  2   1   3  2   
  3   1   4  am  
  4   1   5  1   
  5   4   6  1   
  6   4   7  1   
  7   5   8  1   
  8   5  23  1   
  9   5  24  1   
 10   6  25  1   
 11   6  26  1   
 12   6  27  1   
 13   7  28  1   
 14   7  29  1   
 15   7  30  1   
 16   8   9  1   
 17   8  10  1   
 18   8  31  1   
 19   9  11  1   
 20   9  12  1   
 21   9  32  1   
 22  10  13  1   
 23  10  33  1   
 24  10  34  1   
 25  11  35  1   
 26  12  13  1   
 27  12  36  1   
 28  12  37  1   
 29  13  14  am  
 30  14  15  2   
 31  14  16  1   
 32  16  17  1   
 33  16  18  2   
 34  17  19  1   
 35  18  20  1   
 36  18  21  1   
 37  19  20  2   
 38  19  22  1   
 39  21  38  1   
 40  21  39  1   
 41  21  40  1   
 42  22  41  1   
 43  22  42  1   
 44  22  43  1   
@<TRIPOS>SUBSTRUCTURE
  1 ****  13 GROUP 4 **** **** 0

# MOE 2024.06 (io_trps.svl 2023.06)
