@<TRIPOS>MOLECULE
NONAME
43 44 1 0 0 
SMALL
USER_CHARGES


@<TRIPOS>ATOM
  1 O       -0.8430     1.0020    -1.2320 O.2   1 <1>  -0.5700 
  2 C       -0.8980     2.1940    -1.0400 C.2   1 <1>   0.5690 
  3 N       -1.6180     2.7730    -0.0260 N.am  1 <1>  -0.6600 
  4 C       -0.1260     3.0980    -1.9960 C.3   1 <1>   0.1810 
  5 C       -1.6540     4.2680     0.1260 C.3   1 <1>   0.3640 
  6 C       -2.3430     2.0230     1.0370 C.3   1 <1>   0.2200 
  7 O        0.3580     4.2430    -1.3450 O.3   1 <1>  -0.5600 
  8 C       -3.0800     4.7640    -0.1320 C.ar  1 <1>  -0.1440 
  9 C       -0.6580     5.0570    -0.7740 C.3   1 <1>   0.2610 
 10 C       -1.3520     1.2290     1.8880 C.3   1 <1>  -0.2400 
 11 C       -3.4350     1.1290     0.4470 C.3   1 <1>  -0.2400 
 12 C       -3.6560     5.6860     0.7310 C.ar  1 <1>  -0.1500 
 13 C       -3.8140     4.3180    -1.2240 C.ar  1 <1>  -0.1500 
 14 C       -0.0280     6.2000     0.0330 C.2   1 <1>   0.5690 
 15 C       -4.9410     6.1500     0.5110 C.ar  1 <1>  -0.1500 
 16 C       -5.1000     4.7800    -1.4450 C.ar  1 <1>  -0.1500 
 17 O       -0.7390     6.9600     0.6490 O.2   1 <1>  -0.5700 
 18 N        1.3260     6.3290     0.0460 N.am  1 <1>  -0.7300 
 19 C       -5.6650     5.6960    -0.5760 C.ar  1 <1>  -0.1500 
 20 C        2.1000     7.3700     0.7440 C.3   1 <1>   0.1400 
 21 C        3.0750     7.9950    -0.2460 C.3   1 <1>  -0.2400 
 22 H       -0.7590     3.4000    -2.8110 H     1 <1>   0.0800 
 23 H        0.7190     2.5620    -2.3880 H     1 <1>   0.0800 
 24 H       -1.4040     4.4850     1.1510 H     1 <1>   0.0800 
 25 H       -2.8310     2.7320     1.6860 H     1 <1>   0.0800 
 26 H       -1.1990     5.5020    -1.5890 H     1 <1>   0.0800 
 27 H       -0.8830     0.4550     1.3060 H     1 <1>   0.0800 
 28 H       -1.8680     0.7650     2.7090 H     1 <1>   0.0800 
 29 H       -0.5970     1.8820     2.2840 H     1 <1>   0.0800 
 30 H       -3.0140     0.3400    -0.1490 H     1 <1>   0.0800 
 31 H       -4.1060     1.7120    -0.1560 H     1 <1>   0.0800 
 32 H       -4.0020     0.6800     1.2410 H     1 <1>   0.0800 
 33 H       -3.1040     6.0590     1.5780 H     1 <1>   0.1500 
 34 H       -3.3940     3.6010    -1.9060 H     1 <1>   0.1500 
 35 H       -5.3750     6.8660     1.1860 H     1 <1>   0.1500 
 36 H       -5.6620     4.4250    -2.2910 H     1 <1>   0.1500 
 37 H        1.8600     5.6340    -0.4860 H     1 <1>   0.3700 
 38 H       -6.6650     6.0570    -0.7470 H     1 <1>   0.1500 
 39 H        1.4360     8.1240     1.1350 H     1 <1>   0.0800 
 40 H        2.6360     6.9260     1.5660 H     1 <1>   0.0800 
 41 H        2.5370     8.4400    -1.0640 H     1 <1>   0.0800 
 42 H        3.7580     7.2550    -0.6220 H     1 <1>   0.0800 
 43 H        3.6430     8.7650     0.2450 H     1 <1>   0.0800 
@<TRIPOS>BOND
  1   1   2  2   
  2   2   3  am  
  3   2   4  1   
  4   3   5  1   
  5   3   6  1   
  6   4   7  1   
  7   4  22  1   
  8   4  23  1   
  9   5   8  1   
 10   5   9  1   
 11   5  24  1   
 12   6  10  1   
 13   6  11  1   
 14   6  25  1   
 15   7   9  1   
 16   8  12  ar  
 17   8  13  ar  
 18   9  14  1   
 19   9  26  1   
 20  10  27  1   
 21  10  28  1   
 22  10  29  1   
 23  11  30  1   
 24  11  31  1   
 25  11  32  1   
 26  12  15  ar  
 27  12  33  1   
 28  13  16  ar  
 29  13  34  1   
 30  14  17  2   
 31  14  18  am  
 32  15  19  ar  
 33  15  35  1   
 34  16  19  ar  
 35  16  36  1   
 36  18  20  1   
 37  18  37  1   
 38  19  38  1   
 39  20  21  1   
 40  20  39  1   
 41  20  40  1   
 42  21  41  1   
 43  21  42  1   
 44  21  43  1   
@<TRIPOS>SUBSTRUCTURE
  1 ****   5 GROUP 4 **** **** 0

# MOE 2024.06 (io_trps.svl 2023.06)
