@<TRIPOS>MOLECULE
NONAME
66 70 1 0 0 
SMALL
USER_CHARGES


@<TRIPOS>ATOM
  1 O       -0.0510     0.4810    -0.8260 O.2   1 <1>  -0.5700 
  2 C       -1.1290     0.9000    -0.4680 C.2   1 <1>   0.5690 
  3 N       -2.2120     0.0830    -0.5200 N.am  1 <1>  -0.5470 
  4 C       -1.2890     2.3610     0.0600 C.3   1 <1>   0.4300 
  5 C       -3.5010     0.4710    -0.1320 C.ar  1 <1>   0.1170 
  6 N       -2.7190     2.7590     0.3240 N.pl3 1 <1>  -0.8690 
  7 C       -0.7460     3.3490    -0.9860 C.3   1 <1>  -0.1600 
  8 C       -0.5140     2.5230     1.3790 C.3   1 <1>  -0.1600 
  9 C       -3.7340     1.7910     0.2910 C.ar  1 <1>   0.1000 
 10 C       -4.5430    -0.4430    -0.1510 C.ar  1 <1>  -0.1500 
 11 C       -0.6970     4.7890    -0.4740 C.3   1 <1>   0.1400 
 12 C       -0.4440     3.9740     1.8600 C.3   1 <1>   0.1400 
 13 C       -5.0130     2.1500     0.6870 C.ar  1 <1>  -0.1500 
 14 C       -5.8140    -0.0670     0.2490 C.ar  1 <1>  -0.1500 
 15 N        0.1150     4.8380     0.7780 N.am  1 <1>  -0.6600 
 16 C       -6.0480     1.2310     0.6690 C.ar  1 <1>  -0.1500 
 17 C        1.3710     5.3890     0.9160 C.2   1 <1>   0.5690 
 18 O        2.1070     5.0160     1.7990 O.2   1 <1>  -0.5700 
 19 C        1.9530     6.4590    -0.0320 C.3   1 <1>   0.0610 
 20 C        2.9560     7.3620     0.7410 C.3   1 <1>   0.4230 
 21 C        0.9560     7.5480    -0.5330 C.3   1 <1>  -0.1600 
 22 C        2.6400     5.6840    -1.2030 C.3   1 <1>  -0.1600 
 23 N        3.0160     8.5390    -0.1560 N.4   1 <1>  -0.9590 
 24 C        2.3320     7.9980     2.0080 C.3   1 <1>  -0.1600 
 25 C        1.5870     8.8730    -0.0810 C.3   1 <1>   0.4230 
 26 C        3.4210     6.4600    -2.2810 C.3   1 <1>  -0.2400 
 27 C        4.0090     9.6030     0.2260 C.3   1 <1>   0.3430 
 28 C        1.3620     9.0330     1.4250 C.3   1 <1>  -0.1600 
 29 C        4.0400    10.7560    -0.7820 C.3   1 <1>   0.1200 
 30 O        4.9920    11.6630    -0.3420 O.3   1 <1>  -0.5600 
 31 C        5.1550    12.7770    -1.1650 C.3   1 <1>   0.0400 
 32 H       -2.0470    -0.8580    -0.8720 H     1 <1>   0.3700 
 33 H       -2.8000     3.4140     1.1020 H     1 <1>   0.4000 
 34 H        0.2480     3.0540    -1.2710 H     1 <1>   0.0800 
 35 H       -1.3610     3.2950    -1.8670 H     1 <1>   0.0800 
 36 H       -0.9650     1.9060     2.1350 H     1 <1>   0.0800 
 37 H        0.4930     2.1700     1.2410 H     1 <1>   0.0800 
 38 H       -4.3660    -1.4520    -0.4750 H     1 <1>   0.1500 
 39 H       -1.6940     5.1420    -0.2680 H     1 <1>   0.0800 
 40 H       -0.2800     5.4080    -1.2430 H     1 <1>   0.0800 
 41 H        0.1650     4.0250     2.7480 H     1 <1>   0.0800 
 42 H       -1.4250     4.3310     2.1250 H     1 <1>   0.0800 
 43 H       -5.2040     3.1580     1.0060 H     1 <1>   0.1500 
 44 H       -6.6190    -0.7810     0.2330 H     1 <1>   0.1500 
 45 H       -7.0360     1.5260     0.9780 H     1 <1>   0.1500 
 46 H        3.9060     6.8830     0.9170 H     1 <1>   0.0800 
 47 H       -0.0220     7.4430    -0.0970 H     1 <1>   0.0800 
 48 H        0.8440     7.5340    -1.6020 H     1 <1>   0.0800 
 49 H        3.3200     4.9670    -0.7710 H     1 <1>   0.0800 
 50 H        1.8910     5.1030    -1.7120 H     1 <1>   0.0800 
 51 H        3.2290     8.1900    -1.0970 H     1 <1>   0.4500 
 52 H        1.8260     7.2980     2.6480 H     1 <1>   0.0800 
 53 H        3.0960     8.4720     2.5980 H     1 <1>   0.0800 
 54 H        1.2900     9.7280    -0.6690 H     1 <1>   0.0800 
 55 H        4.3130     6.9070    -1.8780 H     1 <1>   0.0800 
 56 H        2.8140     7.2040    -2.7640 H     1 <1>   0.0800 
 57 H        3.7390     5.7660    -3.0420 H     1 <1>   0.0800 
 58 H        3.7710    10.0040     1.1960 H     1 <1>   0.0800 
 59 H        4.9950     9.1700     0.2740 H     1 <1>   0.0800 
 60 H        1.6130    10.0290     1.7470 H     1 <1>   0.0800 
 61 H        0.3410     8.8350     1.7030 H     1 <1>   0.0800 
 62 H        3.0890    11.2580    -0.8230 H     1 <1>   0.0800 
 63 H        4.3300    10.4040    -1.7570 H     1 <1>   0.0800 
 64 H        5.9120    13.4070    -0.7300 H     1 <1>   0.0800 
 65 H        4.2270    13.3190    -1.2240 H     1 <1>   0.0800 
 66 H        5.4720    12.4580    -2.1430 H     1 <1>   0.0800 
@<TRIPOS>BOND
  1   1   2  2   
  2   2   3  am  
  3   2   4  1   
  4   3   5  1   
  5   3  32  1   
  6   4   6  1   
  7   4   7  1   
  8   4   8  1   
  9   5   9  ar  
 10   5  10  ar  
 11   6   9  1   
 12   6  33  1   
 13   7  11  1   
 14   7  34  1   
 15   7  35  1   
 16   8  12  1   
 17   8  36  1   
 18   8  37  1   
 19   9  13  ar  
 20  10  14  ar  
 21  10  38  1   
 22  11  15  1   
 23  11  39  1   
 24  11  40  1   
 25  12  15  1   
 26  12  41  1   
 27  12  42  1   
 28  13  16  ar  
 29  13  43  1   
 30  14  16  ar  
 31  14  44  1   
 32  15  17  am  
 33  16  45  1   
 34  17  18  2   
 35  17  19  1   
 36  19  20  1   
 37  19  21  1   
 38  19  22  1   
 39  20  23  1   
 40  20  24  1   
 41  20  46  1   
 42  21  25  1   
 43  21  47  1   
 44  21  48  1   
 45  22  26  1   
 46  22  49  1   
 47  22  50  1   
 48  23  25  1   
 49  23  27  1   
 50  23  51  1   
 51  24  28  1   
 52  24  52  1   
 53  24  53  1   
 54  25  28  1   
 55  25  54  1   
 56  26  55  1   
 57  26  56  1   
 58  26  57  1   
 59  27  29  1   
 60  27  58  1   
 61  27  59  1   
 62  28  60  1   
 63  28  61  1   
 64  29  30  1   
 65  29  62  1   
 66  29  63  1   
 67  30  31  1   
 68  31  64  1   
 69  31  65  1   
 70  31  66  1   
@<TRIPOS>SUBSTRUCTURE
  1 ****  15 GROUP 4 **** **** 0

# MOE 2024.06 (io_trps.svl 2023.06)
