@<TRIPOS>MOLECULE
NONAME
46 48 1 0 0 
SMALL
USER_CHARGES


@<TRIPOS>ATOM
  1 N       -9.2270     0.7270    -0.1410 N.4   1 <1>  -0.9590 
  2 C       -8.0080     1.5400    -0.3720 C.3   1 <1>   0.4230 
  3 C      -10.4990     1.5290    -0.1030 C.3   1 <1>   0.3430 
  4 C       -9.2230    -0.2660     0.9900 C.3   1 <1>   0.3430 
  5 C       -6.8420     0.6440    -0.8200 C.3   1 <1>  -0.1600 
  6 C       -7.6050     2.3530     0.8720 C.3   1 <1>  -0.1600 
  7 C      -11.7390     0.6010    -0.1020 C.3   1 <1>   0.1100 
  8 C      -10.4450    -1.2110     0.8840 C.3   1 <1>   0.1100 
  9 C       -5.5550     1.4600    -1.0680 C.3   1 <1>  -0.1600 
 10 C       -6.3160     3.1690     0.6280 C.3   1 <1>  -0.1600 
 11 N      -11.3600    -0.8270    -0.2220 N.3   1 <1>  -0.8100 
 12 C       -5.1510     2.2790     0.1660 C.3   1 <1>   0.4230 
 13 C      -12.5560    -1.6870    -0.2900 C.3   1 <1>   0.2050 
 14 N       -3.9890     3.1200    -0.1620 N.4   1 <1>  -0.8530 
 15 C      -12.1740    -3.1150    -0.6870 C.3   1 <1>  -0.1950 
 16 C      -13.1480    -4.2320    -0.4820 C.3   1 <1>  -0.2000 
 17 C      -11.8850    -4.1810     0.3260 C.3   1 <1>  -0.2000 
 18 H       -9.3910     0.1170    -0.9610 H     1 <1>   0.4500 
 19 H       -8.2130     2.2330    -1.1730 H     1 <1>   0.0800 
 20 H      -10.5530     2.1720    -0.9670 H     1 <1>   0.0800 
 21 H      -10.5230     2.1540     0.7740 H     1 <1>   0.0800 
 22 H       -9.2540     0.2490     1.9350 H     1 <1>   0.0800 
 23 H       -8.3270    -0.8620     0.9650 H     1 <1>   0.0800 
 24 H       -7.1130     0.1380    -1.7320 H     1 <1>   0.0800 
 25 H       -6.6360    -0.1020    -0.0720 H     1 <1>   0.0800 
 26 H       -7.4400     1.6950     1.7070 H     1 <1>   0.0800 
 27 H       -8.3970     3.0340     1.1320 H     1 <1>   0.0800 
 28 H      -12.3760     0.8740    -0.9260 H     1 <1>   0.0800 
 29 H      -12.2990     0.7570     0.8050 H     1 <1>   0.0800 
 30 H      -10.9760    -1.2150     1.8210 H     1 <1>   0.0800 
 31 H      -10.0810    -2.2100     0.7160 H     1 <1>   0.0800 
 32 H       -5.7210     2.1150    -1.9070 H     1 <1>   0.0800 
 33 H       -4.7620     0.7780    -1.3260 H     1 <1>   0.0800 
 34 H       -6.0480     3.6690     1.5440 H     1 <1>   0.0800 
 35 H       -6.5210     3.9200    -0.1170 H     1 <1>   0.0800 
 36 H       -4.8910     1.6010     0.9660 H     1 <1>   0.0800 
 37 H      -13.2270    -1.3030    -1.0410 H     1 <1>   0.0800 
 38 H      -13.0750    -1.6870     0.6540 H     1 <1>   0.0800 
 39 H       -4.2020     3.7770    -0.9200 H     1 <1>   0.4500 
 40 H       -3.1920     2.5460    -0.4590 H     1 <1>   0.4500 
 41 H       -3.6880     3.6680     0.6530 H     1 <1>   0.4500 
 42 H      -11.6300    -3.1370    -1.6150 H     1 <1>   0.1000 
 43 H      -13.2410    -4.9850    -1.2460 H     1 <1>   0.1000 
 44 H      -14.0820    -4.0390     0.0180 H     1 <1>   0.1000 
 45 H      -11.9680    -3.9620     1.3760 H     1 <1>   0.1000 
 46 H      -11.1140    -4.9030     0.1150 H     1 <1>   0.1000 
@<TRIPOS>BOND
  1   1   2  1   
  2   1   3  1   
  3   1   4  1   
  4   1  18  1   
  5   2   5  1   
  6   2   6  1   
  7   2  19  1   
  8   3   7  1   
  9   3  20  1   
 10   3  21  1   
 11   4   8  1   
 12   4  22  1   
 13   4  23  1   
 14   5   9  1   
 15   5  24  1   
 16   5  25  1   
 17   6  10  1   
 18   6  26  1   
 19   6  27  1   
 20   7  11  1   
 21   7  28  1   
 22   7  29  1   
 23   8  11  1   
 24   8  30  1   
 25   8  31  1   
 26   9  12  1   
 27   9  32  1   
 28   9  33  1   
 29  10  12  1   
 30  10  34  1   
 31  10  35  1   
 32  11  13  1   
 33  12  14  1   
 34  12  36  1   
 35  13  15  1   
 36  13  37  1   
 37  13  38  1   
 38  14  39  1   
 39  14  40  1   
 40  14  41  1   
 41  15  16  1   
 42  15  17  1   
 43  15  42  1   
 44  16  17  1   
 45  16  43  1   
 46  16  44  1   
 47  17  45  1   
 48  17  46  1   
@<TRIPOS>SUBSTRUCTURE
  1 ****   1 GROUP 4 **** **** 0

# MOE 2024.06 (io_trps.svl 2023.06)
