@<TRIPOS>MOLECULE
NONAME
47 50 1 0 0 
SMALL
USER_CHARGES


@<TRIPOS>ATOM
  1 O       -0.2020     0.8890    -1.2040 O.2   1 <1>  -0.5700 
  2 C       -0.1530     2.0620    -0.9180 C.2   1 <1>   0.5690 
  3 N       -1.2110     2.7410    -0.3690 N.am  1 <1>  -0.5090 
  4 C        1.1470     2.8080    -1.2270 C.3   1 <1>   0.1810 
  5 C       -1.1700     4.2260    -0.1790 C.3   1 <1>   0.3640 
  6 C       -2.4420     2.0550     0.0970 C.3   1 <1>   0.0490 
  7 O        1.2270     4.0700    -0.6100 O.3   1 <1>  -0.5600 
  8 C       -2.4210     4.8750    -0.7700 C.ar  1 <1>  -0.1440 
  9 C        0.0850     4.8770    -0.8070 C.3   1 <1>   0.2610 
 10 C       -2.8620     2.2150     1.5260 C.3   1 <1>  -0.2000 
 11 C       -2.3290     0.9040     1.0470 C.3   1 <1>  -0.2000 
 12 C       -3.1080     5.8340    -0.0390 C.ar  1 <1>   0.1600 
 13 C       -2.8910     4.5410    -2.0280 C.ar  1 <1>  -0.1500 
 14 C        0.3150     6.2930    -0.2550 C.2   1 <1>   0.5690 
 15 N       -4.1940     6.4680    -0.4510 N.ar  1 <1>  -0.6200 
 16 C       -4.0230     5.1910    -2.4700 C.ar  1 <1>  -0.1500 
 17 O       -0.0750     6.5570     0.8630 O.2   1 <1>  -0.5700 
 18 N        0.9510     7.2480    -1.0110 N.am  1 <1>  -0.6600 
 19 C       -4.6270     6.1310    -1.6550 C.ar  1 <1>   0.1600 
 20 C        1.0330     8.6570    -0.5270 C.3   1 <1>   0.3200 
 21 C        1.8040     6.9630    -2.2000 C.3   1 <1>   0.0600 
 22 C        2.2320     8.8260     0.3890 C.2   1 <1>   0.0070 
 23 N        3.2370     9.6140     0.1680 N.2   1 <1>  -0.5650 
 24 N        2.3320     8.1320     1.5420 N.pl3 1 <1>   0.0330 
 25 C        4.0340     9.4230     1.2390 C.2   1 <1>   0.0770 
 26 C        3.4970     8.5210     2.0890 C.2   1 <1>  -0.3020 
 27 H        1.2390     2.9410    -2.2890 H     1 <1>   0.0800 
 28 H        1.9790     2.2230    -0.8800 H     1 <1>   0.0800 
 29 H       -1.1520     4.4030     0.8820 H     1 <1>   0.0800 
 30 H       -3.2050     2.0070    -0.6630 H     1 <1>   0.1000 
 31 H       -0.0710     4.9610    -1.8670 H     1 <1>   0.0800 
 32 H       -2.2550     2.7770     2.2120 H     1 <1>   0.1000 
 33 H       -3.9120     2.2840     1.7500 H     1 <1>   0.1000 
 34 H       -3.0110     0.0800     0.9340 H     1 <1>   0.1000 
 35 H       -1.3480     0.5870     1.3540 H     1 <1>   0.1000 
 36 H       -2.7460     6.1030     0.9400 H     1 <1>   0.1500 
 37 H       -2.4050     3.8010    -2.6410 H     1 <1>   0.1500 
 38 H       -4.4390     4.9700    -3.4370 H     1 <1>   0.1500 
 39 H       -5.5130     6.6310    -2.0090 H     1 <1>   0.1500 
 40 H        1.1250     9.3270    -1.3650 H     1 <1>   0.0800 
 41 H        0.1360     8.9170     0.0080 H     1 <1>   0.0800 
 42 H        2.7430     7.4830    -2.1040 H     1 <1>   0.0800 
 43 H        1.3090     7.3020    -3.0930 H     1 <1>   0.0800 
 44 H        2.0170     5.9130    -2.2870 H     1 <1>   0.0800 
 45 H        1.6420     7.4460     1.8770 H     1 <1>   0.2700 
 46 H        4.9660     9.9530     1.3420 H     1 <1>   0.1500 
 47 H        3.8700     8.1440     3.0240 H     1 <1>   0.1500 
@<TRIPOS>BOND
  1   1   2  2   
  2   2   3  am  
  3   2   4  1   
  4   3   5  1   
  5   3   6  1   
  6   4   7  1   
  7   4  27  1   
  8   4  28  1   
  9   5   8  1   
 10   5   9  1   
 11   5  29  1   
 12   6  10  1   
 13   6  11  1   
 14   6  30  1   
 15   7   9  1   
 16   8  12  ar  
 17   8  13  ar  
 18   9  14  1   
 19   9  31  1   
 20  10  11  1   
 21  10  32  1   
 22  10  33  1   
 23  11  34  1   
 24  11  35  1   
 25  12  15  ar  
 26  12  36  1   
 27  13  16  ar  
 28  13  37  1   
 29  14  17  2   
 30  14  18  am  
 31  15  19  ar  
 32  16  19  ar  
 33  16  38  1   
 34  18  20  1   
 35  18  21  1   
 36  19  39  1   
 37  20  22  1   
 38  20  40  1   
 39  20  41  1   
 40  21  42  1   
 41  21  43  1   
 42  21  44  1   
 43  22  23  2   
 44  22  24  1   
 45  23  25  1   
 46  24  26  1   
 47  24  45  1   
 48  25  26  2   
 49  25  46  1   
 50  26  47  1   
@<TRIPOS>SUBSTRUCTURE
  1 ****   9 GROUP 4 **** **** 0

# MOE 2024.06 (io_trps.svl 2023.06)
