@<TRIPOS>MOLECULE
NONAME
56 59 1 0 0 
SMALL
USER_CHARGES


@<TRIPOS>ATOM
  1 F       -0.4280     2.9110     0.8510 F     1 <1>  -0.1900 
  2 C       -1.6210     2.5160     0.4860 C.ar  1 <1>   0.1900 
  3 C       -2.7370     3.3570     0.5610 C.ar  1 <1>   0.0830 
  4 C       -1.7220     1.2210     0.0170 C.ar  1 <1>  -0.1500 
  5 O       -2.7650     4.6480     1.0030 O.3   1 <1>  -0.3630 
  6 C       -3.9560     2.8450     0.1470 C.ar  1 <1>  -0.1500 
  7 C       -2.9540     0.7420    -0.3890 C.ar  1 <1>  -0.1500 
  8 C       -1.6280     5.3140     1.5060 C.3   1 <1>   0.0400 
  9 C       -4.0980     1.5400    -0.3290 C.ar  1 <1>   0.0530 
 10 C       -5.3870     1.0550    -0.7570 C.2   1 <1>   0.0870 
 11 O       -6.1990     1.8630    -1.3910 O.3   1 <1>  -0.0190 
 12 C       -6.0200    -0.1470    -0.6640 C.2   1 <1>  -0.0860 
 13 N       -7.3220     1.2950    -1.7370 N.2   1 <1>  -0.4100 
 14 C       -7.2430     0.0840    -1.3120 C.2   1 <1>   0.3720 
 15 C       -5.6210    -1.3800    -0.0550 C.2   1 <1>   0.7160 
 16 N       -8.2790    -0.8560    -1.4710 N.pl3 1 <1>  -0.8210 
 17 O       -4.7370    -1.4360     0.7770 O.2   1 <1>  -0.5700 
 18 N       -6.2680    -2.5250    -0.3880 N.am  1 <1>  -0.7300 
 19 C       -9.2280    -0.8680    -0.3210 C.3   1 <1>   0.1290 
 20 C       -9.0020    -0.7560    -2.7720 C.3   1 <1>   0.1290 
 21 C       -6.2550    -3.7840     0.3820 C.3   1 <1>   0.2200 
 22 C       -7.4410    -3.7900     1.3510 C.3   1 <1>   0.1400 
 23 C       -6.5720    -4.9290    -0.5730 C.3   1 <1>  -0.1600 
 24 N       -8.5710    -4.3530     0.5700 N.am  1 <1>  -0.6600 
 25 C       -8.0930    -4.8720    -0.7450 C.3   1 <1>   0.2810 
 26 C       -9.7390    -4.7640     1.1430 C.2   1 <1>   0.5690 
 27 C       -8.7470    -6.1960    -1.1930 C.2   1 <1>   0.5690 
 28 O      -10.0790    -4.3650     2.2310 O.2   1 <1>  -0.5700 
 29 C      -10.6450    -5.7570     0.4040 C.3   1 <1>   0.2010 
 30 O       -8.1830    -6.8630    -2.0300 O.2   1 <1>  -0.5700 
 31 N       -9.9600    -6.5720    -0.6620 N.am  1 <1>  -0.6600 
 32 C      -10.6700    -7.8100    -1.0850 C.3   1 <1>   0.0600 
 33 H       -0.8480     0.5970    -0.0290 H     1 <1>   0.1500 
 34 H       -4.8210     3.4820     0.2000 H     1 <1>   0.1500 
 35 H       -3.0290    -0.2660    -0.7570 H     1 <1>   0.1500 
 36 H       -1.9260     6.3020     1.8080 H     1 <1>   0.0800 
 37 H       -0.8880     5.3790     0.7280 H     1 <1>   0.0800 
 38 H       -1.2500     4.7710     2.3550 H     1 <1>   0.0800 
 39 H       -7.1190    -2.3570    -0.9460 H     1 <1>   0.3700 
 40 H       -9.8400    -1.7520    -0.3570 H     1 <1>   0.0800 
 41 H       -9.8600     0.0040    -0.3540 H     1 <1>   0.0800 
 42 H       -8.6860    -0.8650     0.6090 H     1 <1>   0.0800 
 43 H       -9.6230    -1.6220    -2.9170 H     1 <1>   0.0800 
 44 H       -8.2920    -0.6980    -3.5800 H     1 <1>   0.0800 
 45 H       -9.6160     0.1290    -2.7890 H     1 <1>   0.0800 
 46 H       -5.3120    -3.9070     0.8880 H     1 <1>   0.0800 
 47 H       -7.6690    -2.8050     1.7190 H     1 <1>   0.0800 
 48 H       -7.2330    -4.4390     2.1830 H     1 <1>   0.0800 
 49 H       -6.3040    -5.8650    -0.1150 H     1 <1>   0.0800 
 50 H       -6.0520    -4.8470    -1.5110 H     1 <1>   0.0800 
 51 H       -8.3240    -4.1330    -1.4910 H     1 <1>   0.0800 
 52 H      -11.4560    -5.2100    -0.0400 H     1 <1>   0.0800 
 53 H      -11.0580    -6.4240     1.1400 H     1 <1>   0.0800 
 54 H      -11.6550    -7.5640    -1.4430 H     1 <1>   0.0800 
 55 H      -10.7540    -8.4860    -0.2520 H     1 <1>   0.0800 
 56 H      -10.1340    -8.3080    -1.8750 H     1 <1>   0.0800 
@<TRIPOS>BOND
  1   1   2  1   
  2   2   3  ar  
  3   2   4  ar  
  4   3   5  1   
  5   3   6  ar  
  6   4   7  ar  
  7   4  33  1   
  8   5   8  1   
  9   6   9  ar  
 10   6  34  1   
 11   7   9  ar  
 12   7  35  1   
 13   8  36  1   
 14   8  37  1   
 15   8  38  1   
 16   9  10  1   
 17  10  11  1   
 18  10  12  2   
 19  11  13  1   
 20  12  14  1   
 21  12  15  1   
 22  13  14  2   
 23  14  16  1   
 24  15  17  2   
 25  15  18  am  
 26  16  19  1   
 27  16  20  1   
 28  18  21  1   
 29  18  39  1   
 30  19  40  1   
 31  19  41  1   
 32  19  42  1   
 33  20  43  1   
 34  20  44  1   
 35  20  45  1   
 36  21  22  1   
 37  21  23  1   
 38  21  46  1   
 39  22  24  1   
 40  22  47  1   
 41  22  48  1   
 42  23  25  1   
 43  23  49  1   
 44  23  50  1   
 45  24  25  1   
 46  24  26  am  
 47  25  27  1   
 48  25  51  1   
 49  26  28  2   
 50  26  29  1   
 51  27  30  2   
 52  27  31  am  
 53  29  31  1   
 54  29  52  1   
 55  29  53  1   
 56  31  32  1   
 57  32  54  1   
 58  32  55  1   
 59  32  56  1   
@<TRIPOS>SUBSTRUCTURE
  1 ****  15 GROUP 4 **** **** 0

# MOE 2024.06 (io_trps.svl 2023.06)
