@<TRIPOS>MOLECULE
NONAME
47 50 1 0 0 
SMALL
USER_CHARGES


@<TRIPOS>ATOM
  1 O       -2.5510    -0.8090     1.4030 O.2   1 <1>  -0.5700 
  2 C       -2.7860     0.1190     0.6410 C.2   1 <1>   0.7670 
  3 N       -2.3770     1.3620     1.0580 N.2   1 <1>  -0.6610 
  4 C       -3.4530    -0.0640    -0.6150 C.2   1 <1>   0.0290 
  5 C       -2.6110     2.3680     0.3070 C.2   1 <1>   0.4390 
  6 C       -3.8780    -1.3640    -1.0680 C.2   1 <1>   0.6160 
  7 C       -3.6700     1.0600    -1.3620 C.2   1 <1>  -0.0500 
  8 N       -3.2470     2.2670    -0.8930 N.pl3 1 <1>  -0.5500 
  9 C       -2.1780     3.7490     0.7330 C.3   1 <1>  -0.1790 
 10 O       -4.5690    -1.4580    -2.0660 O.2   1 <1>  -0.5700 
 11 N       -3.5450    -2.5250    -0.4330 N.am  1 <1>  -0.7300 
 12 C       -3.9770    -3.8840    -0.8320 C.3   1 <1>   0.2200 
 13 C       -5.2540    -4.2400    -0.0900 C.3   1 <1>  -0.0800 
 14 C       -2.9860    -4.9310    -0.3190 C.3   1 <1>   0.1200 
 15 C       -4.6960    -4.8000     1.2160 C.3   1 <1>   0.1200 
 16 C       -6.0790    -5.2840    -0.8680 C.3   1 <1>  -0.0170 
 17 O       -3.5010    -5.4360     0.8810 O.3   1 <1>  -0.5600 
 18 C       -7.3950    -5.6020    -0.1650 C.ar  1 <1>  -0.1430 
 19 C       -8.5040    -4.7230    -0.2000 C.ar  1 <1>   0.0000 
 20 C       -7.5360    -6.7680     0.5280 C.ar  1 <1>  -0.1500 
 21 C       -9.6740    -5.1130     0.4970 C.ar  1 <1>   0.3100 
 22 C       -8.5230    -3.4850    -0.8850 C.ar  1 <1>  -0.1500 
 23 C       -8.7400    -7.0600     1.1800 C.ar  1 <1>   0.1600 
 24 N       -9.7750    -6.2820     1.1810 N.ar  1 <1>  -0.6200 
 25 C      -10.7880    -4.2590     0.4860 C.ar  1 <1>  -0.1500 
 26 C       -9.6270    -2.6760    -0.8760 C.ar  1 <1>  -0.1500 
 27 C      -10.7750    -3.0650    -0.1820 C.ar  1 <1>  -0.1500 
 28 H       -4.1690     1.0230    -2.3190 H     1 <1>   0.1500 
 29 H       -3.3960     3.1250    -1.4330 H     1 <1>   0.4000 
 30 H       -1.4880     4.1550     0.0170 H     1 <1>   0.0800 
 31 H       -1.6900     3.7020     1.6910 H     1 <1>   0.0800 
 32 H       -3.0330     4.3930     0.8160 H     1 <1>   0.0800 
 33 H       -3.0640    -2.4540     0.4770 H     1 <1>   0.3700 
 34 H       -4.0870    -3.9300    -1.9030 H     1 <1>   0.0800 
 35 H       -5.8570    -3.3700     0.0940 H     1 <1>   0.0800 
 36 H       -2.0090    -4.5190    -0.1420 H     1 <1>   0.0800 
 37 H       -2.9150    -5.7540    -1.0080 H     1 <1>   0.0800 
 38 H       -5.3530    -5.5020     1.6970 H     1 <1>   0.0800 
 39 H       -4.4600    -4.0020     1.9000 H     1 <1>   0.0800 
 40 H       -5.5040    -6.1880    -0.9780 H     1 <1>   0.0800 
 41 H       -6.2870    -4.9250    -1.8600 H     1 <1>   0.0800 
 42 H       -6.7370    -7.4840     0.5950 H     1 <1>   0.1500 
 43 H       -7.6530    -3.1650    -1.4290 H     1 <1>   0.1500 
 44 H       -8.8070    -7.9910     1.7160 H     1 <1>   0.1500 
 45 H      -11.6600    -4.5790     1.0260 H     1 <1>   0.1500 
 46 H       -9.6260    -1.7360    -1.4020 H     1 <1>   0.1500 
 47 H      -11.6370    -2.4200    -0.1820 H     1 <1>   0.1500 
@<TRIPOS>BOND
  1   1   2  2   
  2   2   3  1   
  3   2   4  1   
  4   3   5  2   
  5   4   6  1   
  6   4   7  2   
  7   5   8  1   
  8   5   9  1   
  9   6  10  2   
 10   6  11  am  
 11   7   8  1   
 12   7  28  1   
 13   8  29  1   
 14   9  30  1   
 15   9  31  1   
 16   9  32  1   
 17  11  12  1   
 18  11  33  1   
 19  12  13  1   
 20  12  14  1   
 21  12  34  1   
 22  13  15  1   
 23  13  16  1   
 24  13  35  1   
 25  14  17  1   
 26  14  36  1   
 27  14  37  1   
 28  15  17  1   
 29  15  38  1   
 30  15  39  1   
 31  16  18  1   
 32  16  40  1   
 33  16  41  1   
 34  18  19  ar  
 35  18  20  ar  
 36  19  21  ar  
 37  19  22  ar  
 38  20  23  ar  
 39  20  42  1   
 40  21  24  ar  
 41  21  25  ar  
 42  22  26  ar  
 43  22  43  1   
 44  23  24  ar  
 45  23  44  1   
 46  25  27  ar  
 47  25  45  1   
 48  26  27  ar  
 49  26  46  1   
 50  27  47  1   
@<TRIPOS>SUBSTRUCTURE
  1 ****  13 GROUP 4 **** **** 0

# MOE 2024.06 (io_trps.svl 2023.06)
