@<TRIPOS>MOLECULE
NONAME
51 54 1 0 0 
SMALL
USER_CHARGES


@<TRIPOS>ATOM
  1 O       -0.4280    -0.1440    -0.0600 O.2   1 <1>  -0.5700 
  2 C       -1.4510     0.5240    -0.1050 C.2   1 <1>   0.7160 
  3 N       -2.6170    -0.1660    -0.3950 N.am  1 <1>  -0.6600 
  4 C       -1.4110     1.9750     0.1280 C.2   1 <1>   0.2030 
  5 C       -3.9430     0.4420    -0.6630 C.3   1 <1>   0.1400 
  6 C       -2.6650    -1.6350    -0.5690 C.3   1 <1>   0.1400 
  7 N       -2.4500     2.7310     0.4550 N.2   1 <1>  -0.7070 
  8 C       -0.2560     2.7830     0.0430 C.2   1 <1>  -0.1810 
  9 C       -4.8060    -0.7080    -1.1820 C.3   1 <1>   0.2000 
 10 C       -4.1520    -1.9820    -0.6510 C.3   1 <1>  -0.0800 
 11 N       -1.9720     3.9730     0.5780 N.pl3 1 <1>   0.3000 
 12 C       -0.6520     4.0400     0.3320 C.2   1 <1>  -0.3320 
 13 C        1.1490     2.3120    -0.3050 C.3   1 <1>  -0.0590 
 14 O       -6.1100    -0.6200    -0.7200 O.3   1 <1>  -0.6800 
 15 C       -4.4480    -3.2140    -1.5210 C.3   1 <1>  -0.0170 
 16 C        0.1210     5.3470     0.4020 C.3   1 <1>   0.0200 
 17 C       -3.7880    -4.4630    -0.9460 C.ar  1 <1>  -0.1440 
 18 C        0.2650     5.8020     1.8550 C.3   1 <1>  -0.2400 
 19 C       -4.3230    -5.1580     0.1640 C.ar  1 <1>   0.0000 
 20 C       -2.6340    -4.9420    -1.4930 C.ar  1 <1>  -0.1500 
 21 C       -3.6120    -6.2880     0.6370 C.ar  1 <1>   0.3100 
 22 C       -5.5190    -4.8020     0.8310 C.ar  1 <1>  -0.1500 
 23 C       -2.0140    -6.0750    -0.9530 C.ar  1 <1>   0.1600 
 24 N       -2.4630    -6.7320     0.0690 N.ar  1 <1>  -0.6200 
 25 C       -4.1120    -6.9900     1.7460 C.ar  1 <1>  -0.1500 
 26 C       -5.9800    -5.5100     1.9080 C.ar  1 <1>  -0.1500 
 27 C       -5.2680    -6.6170     2.3740 C.ar  1 <1>  -0.1500 
 28 H       -4.3390     0.8390     0.2560 H     1 <1>   0.0800 
 29 H       -3.8570     1.2240    -1.3970 H     1 <1>   0.0800 
 30 H       -2.1540    -1.8920    -1.4810 H     1 <1>   0.0800 
 31 H       -2.1880    -2.1360     0.2580 H     1 <1>   0.0800 
 32 H       -4.8240    -0.6930    -2.2580 H     1 <1>   0.0800 
 33 H       -4.4860    -2.1570     0.3560 H     1 <1>   0.0800 
 34 H       -2.5680     4.7690     0.8360 H     1 <1>   0.2700 
 35 H        1.1400     1.8030    -1.2510 H     1 <1>   0.0800 
 36 H        1.5000     1.6310     0.4500 H     1 <1>   0.0800 
 37 H        1.8350     3.1340    -0.3650 H     1 <1>   0.0800 
 38 H       -6.1170    -0.5450     0.2540 H     1 <1>   0.4000 
 39 H       -4.0840    -3.0400    -2.5190 H     1 <1>   0.0800 
 40 H       -5.5100    -3.3640    -1.6020 H     1 <1>   0.0800 
 41 H        1.0990     5.2240    -0.0260 H     1 <1>   0.0800 
 42 H       -0.3900     6.1020    -0.1700 H     1 <1>   0.0800 
 43 H        0.7700     5.0440     2.4270 H     1 <1>   0.0800 
 44 H       -0.6990     5.9820     2.2950 H     1 <1>   0.0800 
 45 H        0.8400     6.7100     1.9020 H     1 <1>   0.0800 
 46 H       -2.1700    -4.4690    -2.3400 H     1 <1>   0.1500 
 47 H       -6.0850    -3.9560     0.4870 H     1 <1>   0.1500 
 48 H       -1.1040    -6.4200    -1.4150 H     1 <1>   0.1500 
 49 H       -3.5480    -7.8400     2.0850 H     1 <1>   0.1500 
 50 H       -6.8910    -5.2270     2.4060 H     1 <1>   0.1500 
 51 H       -5.6390    -7.1650     3.2230 H     1 <1>   0.1500 
@<TRIPOS>BOND
  1   1   2  2   
  2   2   3  am  
  3   2   4  1   
  4   3   5  1   
  5   3   6  1   
  6   4   7  2   
  7   4   8  1   
  8   5   9  1   
  9   5  28  1   
 10   5  29  1   
 11   6  10  1   
 12   6  30  1   
 13   6  31  1   
 14   7  11  1   
 15   8  12  2   
 16   8  13  1   
 17   9  10  1   
 18   9  14  1   
 19   9  32  1   
 20  10  15  1   
 21  10  33  1   
 22  11  12  1   
 23  11  34  1   
 24  12  16  1   
 25  13  35  1   
 26  13  36  1   
 27  13  37  1   
 28  14  38  1   
 29  15  17  1   
 30  15  39  1   
 31  15  40  1   
 32  16  18  1   
 33  16  41  1   
 34  16  42  1   
 35  17  19  ar  
 36  17  20  ar  
 37  18  43  1   
 38  18  44  1   
 39  18  45  1   
 40  19  21  ar  
 41  19  22  ar  
 42  20  23  ar  
 43  20  46  1   
 44  21  24  ar  
 45  21  25  ar  
 46  22  26  ar  
 47  22  47  1   
 48  23  24  ar  
 49  23  48  1   
 50  25  27  ar  
 51  25  49  1   
 52  26  27  ar  
 53  26  50  1   
 54  27  51  1   
@<TRIPOS>SUBSTRUCTURE
  1 ****   6 GROUP 4 **** **** 0

# MOE 2024.06 (io_trps.svl 2023.06)
