@<TRIPOS>MOLECULE
NONAME
41 43 1 0 0 
SMALL
USER_CHARGES


@<TRIPOS>ATOM
  1 O        3.3250    -1.6010     3.2760 O.co2 1 <1>  -0.9000 
  2 C        2.2590    -1.3130     2.7150 C.2   1 <1>   0.9060 
  3 O        1.1580    -1.3870     3.2600 O.co2 1 <1>  -0.9000 
  4 C        2.3360    -1.0030     1.2160 C.3   1 <1>   0.2370 
  5 N        3.4720    -1.7350     0.5100 N.4   1 <1>  -0.9590 
  6 C        3.5710    -1.4060    -0.9280 C.3   1 <1>   0.4860 
  7 C        3.3410    -3.2060     0.7540 C.3   1 <1>   0.5240 
  8 C        3.9070     0.0660    -1.0770 C.ar  1 <1>  -0.1440 
  9 C        2.0670    -3.7560     0.1170 C.2   1 <1>   0.0460 
 10 C        5.1760     0.5330    -0.7480 C.ar  1 <1>  -0.1500 
 11 C        2.9370     0.9530    -1.5390 C.ar  1 <1>  -0.1500 
 12 N        1.9690    -3.9790    -1.2120 N.2   1 <1>  -0.5650 
 13 C        0.9100    -4.0650     0.7410 C.2   1 <1>  -0.3020 
 14 C        5.4480     1.8810    -0.8830 C.ar  1 <1>  -0.1440 
 15 C        3.2220     2.3030    -1.6720 C.ar  1 <1>  -0.1500 
 16 C        0.7640    -4.4240    -1.3640 C.2   1 <1>   0.0060 
 17 N        0.0660    -4.5000    -0.2090 N.pl3 1 <1>   0.0330 
 18 C        4.4870     2.7440    -1.3360 C.ar  1 <1>   0.0830 
 19 C        6.6980     2.6620    -0.6060 C.3   1 <1>  -0.0170 
 20 C        0.1760    -4.8280    -2.6990 C.3   1 <1>  -0.0600 
 21 O        4.9140     4.0140    -1.4080 O.3   1 <1>  -0.3630 
 22 C        6.2650     4.0930    -0.9750 C.3   1 <1>   0.1200 
 23 H        2.4640     0.0590     1.1130 H     1 <1>   0.0800 
 24 H        1.3920    -1.2780     0.7820 H     1 <1>   0.0800 
 25 H        4.3110    -1.4340     1.0230 H     1 <1>   0.4500 
 26 H        2.6350    -1.6210    -1.4180 H     1 <1>   0.0800 
 27 H        4.3390    -2.0010    -1.3920 H     1 <1>   0.0800 
 28 H        3.3130    -3.3980     1.8140 H     1 <1>   0.0800 
 29 H        4.1880    -3.7270     0.3440 H     1 <1>   0.0800 
 30 H        5.9440    -0.1320    -0.3920 H     1 <1>   0.1500 
 31 H        1.9530     0.6010    -1.7990 H     1 <1>   0.1500 
 32 H        0.6470    -3.9920     1.7850 H     1 <1>   0.1500 
 33 H        2.4890     3.0050    -2.0270 H     1 <1>   0.1500 
 34 H       -0.9000    -4.8170    -0.0840 H     1 <1>   0.2700 
 35 H        7.5120     2.3340    -1.2280 H     1 <1>   0.0800 
 36 H        6.9780     2.6000     0.4300 H     1 <1>   0.0800 
 37 H        0.9060    -4.6910    -3.4770 H     1 <1>   0.0800 
 38 H       -0.6840    -4.2240    -2.9230 H     1 <1>   0.0800 
 39 H       -0.1110    -5.8630    -2.6780 H     1 <1>   0.0800 
 40 H        6.8530     4.4900    -1.7840 H     1 <1>   0.0800 
 41 H        6.3060     4.7510    -0.1250 H     1 <1>   0.0800 
@<TRIPOS>BOND
  1   1   2  ar  
  2   2   3  ar  
  3   2   4  1   
  4   4   5  1   
  5   4  23  1   
  6   4  24  1   
  7   5   6  1   
  8   5   7  1   
  9   5  25  1   
 10   6   8  1   
 11   6  26  1   
 12   6  27  1   
 13   7   9  1   
 14   7  28  1   
 15   7  29  1   
 16   8  10  ar  
 17   8  11  ar  
 18   9  12  1   
 19   9  13  2   
 20  10  14  ar  
 21  10  30  1   
 22  11  15  ar  
 23  11  31  1   
 24  12  16  2   
 25  13  17  1   
 26  13  32  1   
 27  14  18  ar  
 28  14  19  1   
 29  15  18  ar  
 30  15  33  1   
 31  16  17  1   
 32  16  20  1   
 33  17  34  1   
 34  18  21  1   
 35  19  22  1   
 36  19  35  1   
 37  19  36  1   
 38  20  37  1   
 39  20  38  1   
 40  20  39  1   
 41  21  22  1   
 42  22  40  1   
 43  22  41  1   
@<TRIPOS>SUBSTRUCTURE
  1 ****   6 GROUP 4 **** **** 0

# MOE 2024.06 (io_trps.svl 2023.06)
