@<TRIPOS>MOLECULE
NONAME
51 53 1 0 0 
SMALL
USER_CHARGES


@<TRIPOS>ATOM
  1 O        1.7050     0.8710    -3.1420 O.2   1 <1>  -0.5700 
  2 C        2.2220     0.5040    -2.1110 C.2   1 <1>   0.7150 
  3 N        2.0400    -0.8100    -1.8170 N.am  1 <1>  -0.7300 
  4 C        2.9630     1.4370    -1.3120 C.2   1 <1>  -0.2370 
  5 C        2.1770    -1.6130    -0.5720 C.3   1 <1>   0.1400 
  6 N        3.8260     1.1420    -0.3140 N.pl3 1 <1>   0.3140 
  7 C        2.9800     2.7910    -1.3970 C.2   1 <1>  -0.1500 
  8 C        2.8830    -0.9190     0.6040 C.3   1 <1>   0.2000 
  9 N        4.3760     2.2320     0.2270 N.2   1 <1>  -0.7070 
 10 C        4.1640    -0.1900     0.2060 C.3   1 <1>   0.0960 
 11 C        3.8640     3.2630    -0.4300 C.2   1 <1>   0.2030 
 12 O        3.2020    -1.8910     1.5450 O.3   1 <1>  -0.6800 
 13 C        4.1250     4.6910    -0.2220 C.2   1 <1>   0.7160 
 14 O        3.3970     5.5080    -0.7660 O.2   1 <1>  -0.5700 
 15 N        5.1640     5.1920     0.5530 N.am  1 <1>  -0.6600 
 16 C        5.2130     6.6340     0.9360 C.3   1 <1>   0.1400 
 17 C        6.2840     4.3560     1.0670 C.3   1 <1>   0.0600 
 18 C        5.8910     7.4520    -0.1620 C.3   1 <1>   0.1200 
 19 O        6.1200     8.7570     0.3260 O.3   1 <1>  -0.3630 
 20 C        6.7410     9.6890    -0.4380 C.ar  1 <1>   0.0820 
 21 C        7.0020    10.9120     0.1590 C.ar  1 <1>  -0.1500 
 22 C        7.1210     9.4790    -1.7610 C.ar  1 <1>  -0.1500 
 23 C        7.6370    11.9250    -0.5420 C.ar  1 <1>  -0.1430 
 24 C        7.7570    10.4870    -2.4640 C.ar  1 <1>  -0.1500 
 25 C        8.0150    11.7040    -1.8570 C.ar  1 <1>  -0.1500 
 26 C        7.9170    13.2610     0.1260 C.3   1 <1>  -0.0170 
 27 C        9.2910    13.2480     0.7980 C.3   1 <1>  -0.2400 
 28 H        1.5060    -1.2770    -2.5550 H     1 <1>   0.3700 
 29 H        2.7240    -2.5060    -0.8240 H     1 <1>   0.0800 
 30 H        1.1930    -1.9080    -0.2480 H     1 <1>   0.0800 
 31 H        2.4210     3.4090    -2.0810 H     1 <1>   0.1500 
 32 H        2.2060    -0.2350     1.0890 H     1 <1>   0.0800 
 33 H        4.7890    -0.0540     1.0700 H     1 <1>   0.0800 
 34 H        4.7030    -0.7300    -0.5490 H     1 <1>   0.0800 
 35 H        3.8590    -2.5280     1.2040 H     1 <1>   0.4000 
 36 H        5.7560     6.7420     1.8590 H     1 <1>   0.0800 
 37 H        4.2120     7.0020     1.0840 H     1 <1>   0.0800 
 38 H        6.5710     3.6270     0.3290 H     1 <1>   0.0800 
 39 H        5.9710     3.8450     1.9610 H     1 <1>   0.0800 
 40 H        7.1410     4.9680     1.2900 H     1 <1>   0.0800 
 41 H        5.2530     7.5150    -1.0250 H     1 <1>   0.0800 
 42 H        6.8420     7.0200    -0.4190 H     1 <1>   0.0800 
 43 H        6.7030    11.0620     1.1800 H     1 <1>   0.1500 
 44 H        6.9310     8.5470    -2.2570 H     1 <1>   0.1500 
 45 H        8.0530    10.3260    -3.4860 H     1 <1>   0.1500 
 46 H        8.5110    12.4800    -2.4120 H     1 <1>   0.1500 
 47 H        7.1580    13.4640     0.8610 H     1 <1>   0.0800 
 48 H        7.8800    14.0480    -0.6070 H     1 <1>   0.0800 
 49 H        9.3310    12.4720     1.5420 H     1 <1>   0.0800 
 50 H        9.4830    14.1940     1.2720 H     1 <1>   0.0800 
 51 H       10.0590    13.0630     0.0680 H     1 <1>   0.0800 
@<TRIPOS>BOND
  1   1   2  2   
  2   2   3  am  
  3   2   4  1   
  4   3   5  1   
  5   3  28  1   
  6   4   6  1   
  7   4   7  2   
  8   5   8  1   
  9   5  29  1   
 10   5  30  1   
 11   6   9  1   
 12   6  10  1   
 13   7  11  1   
 14   7  31  1   
 15   8  10  1   
 16   8  12  1   
 17   8  32  1   
 18   9  11  2   
 19  10  33  1   
 20  10  34  1   
 21  11  13  1   
 22  12  35  1   
 23  13  14  2   
 24  13  15  am  
 25  15  16  1   
 26  15  17  1   
 27  16  18  1   
 28  16  36  1   
 29  16  37  1   
 30  17  38  1   
 31  17  39  1   
 32  17  40  1   
 33  18  19  1   
 34  18  41  1   
 35  18  42  1   
 36  19  20  1   
 37  20  21  ar  
 38  20  22  ar  
 39  21  23  ar  
 40  21  43  1   
 41  22  24  ar  
 42  22  44  1   
 43  23  25  ar  
 44  23  26  1   
 45  24  25  ar  
 46  24  45  1   
 47  25  46  1   
 48  26  27  1   
 49  26  47  1   
 50  26  48  1   
 51  27  49  1   
 52  27  50  1   
 53  27  51  1   
@<TRIPOS>SUBSTRUCTURE
  1 ****  13 GROUP 4 **** **** 0

# MOE 2024.06 (io_trps.svl 2023.06)
