@<TRIPOS>MOLECULE
NONAME
52 54 1 0 0 
SMALL
USER_CHARGES


@<TRIPOS>ATOM
  1 O       -0.2060     1.1350    -0.2580 O.2   1 <1>  -0.5700 
  2 C       -0.5100     2.2960    -0.4050 C.2   1 <1>   0.5690 
  3 N       -1.4930     2.9260     0.3150 N.am  1 <1>  -0.6600 
  4 C        0.2450     3.0940    -1.4630 C.3   1 <1>   0.1810 
  5 C       -1.8190     4.3710     0.0560 C.3   1 <1>   0.3640 
  6 C       -2.2560     2.3080     1.4340 C.3   1 <1>   0.2200 
  7 O        0.4010     4.4360    -1.0810 O.3   1 <1>  -0.5600 
  8 C       -3.2350     4.4720    -0.5180 C.ar  1 <1>  -0.1440 
  9 C       -0.8260     5.1250    -0.8760 C.3   1 <1>   0.2610 
 10 C       -1.3140     1.9780     2.5910 C.3   1 <1>  -0.2400 
 11 C       -3.0410     1.0810     0.9670 C.3   1 <1>  -0.2400 
 12 C       -3.6670     3.6270    -1.5340 C.ar  1 <1>  -0.1500 
 13 C       -4.1100     5.4320    -0.0290 C.ar  1 <1>  -0.1500 
 14 C       -0.5560     6.5260    -0.3120 C.2   1 <1>   0.5690 
 15 C       -4.9480     3.7370    -2.0450 C.ar  1 <1>  -0.1500 
 16 C       -5.3910     5.5430    -0.5400 C.ar  1 <1>  -0.1500 
 17 O       -1.4860     7.2470    -0.0370 O.2   1 <1>  -0.5700 
 18 N        0.7310     6.9250    -0.1260 N.am  1 <1>  -0.7300 
 19 C       -5.8120     4.6950    -1.5480 C.ar  1 <1>  -0.1500 
 20 C        1.1780     8.2280     0.4240 C.3   1 <1>   0.1400 
 21 C        1.7620     9.0950    -0.6920 C.3   1 <1>  -0.0170 
 22 C        2.4420    10.3270    -0.1180 C.ar  1 <1>   0.1670 
 23 N        1.6700    11.1660     0.5540 N.ar  1 <1>  -0.6200 
 24 C        3.8030    10.5180    -0.3130 C.ar  1 <1>  -0.1500 
 25 C        2.2730    12.2350     1.0490 C.ar  1 <1>   0.1600 
 26 C        4.4190    11.6350     0.2080 C.ar  1 <1>  -0.1500 
 27 C        3.6210    12.5140     0.9080 C.ar  1 <1>  -0.1500 
 28 H       -0.2800     3.0550    -2.3990 H     1 <1>   0.0800 
 29 H        1.2260     2.6740    -1.5920 H     1 <1>   0.0800 
 30 H       -1.8090     4.8700     1.0100 H     1 <1>   0.0800 
 31 H       -2.9760     3.0240     1.7960 H     1 <1>   0.0800 
 32 H       -1.2800     5.2520    -1.8420 H     1 <1>   0.0800 
 33 H       -0.6140     1.2140     2.3080 H     1 <1>   0.0800 
 34 H       -1.8810     1.6200     3.4310 H     1 <1>   0.0800 
 35 H       -0.7760     2.8580     2.8940 H     1 <1>   0.0800 
 36 H       -2.3820     0.2860     0.6710 H     1 <1>   0.0800 
 37 H       -3.6810     1.3400     0.1450 H     1 <1>   0.0800 
 38 H       -3.6560     0.7200     1.7700 H     1 <1>   0.0800 
 39 H       -3.0110     2.8710    -1.9300 H     1 <1>   0.1500 
 40 H       -3.7980     6.1080     0.7490 H     1 <1>   0.1500 
 41 H       -5.2740     3.0750    -2.8290 H     1 <1>   0.1500 
 42 H       -6.0590     6.2930    -0.1530 H     1 <1>   0.1500 
 43 H        1.4590     6.2450    -0.3710 H     1 <1>   0.3700 
 44 H       -6.8080     4.7820    -1.9440 H     1 <1>   0.1500 
 45 H        0.3480     8.7420     0.8810 H     1 <1>   0.0800 
 46 H        1.9220     8.0550     1.1820 H     1 <1>   0.0800 
 47 H        0.9680     9.4110    -1.3450 H     1 <1>   0.0800 
 48 H        2.4680     8.5220    -1.2620 H     1 <1>   0.0800 
 49 H        4.3820     9.8030    -0.8690 H     1 <1>   0.1500 
 50 H        1.6570    12.9280     1.5960 H     1 <1>   0.1500 
 51 H        5.4720    11.8130     0.0750 H     1 <1>   0.1500 
 52 H        4.0360    13.4060     1.3410 H     1 <1>   0.1500 
@<TRIPOS>BOND
  1   1   2  2   
  2   2   3  am  
  3   2   4  1   
  4   3   5  1   
  5   3   6  1   
  6   4   7  1   
  7   4  28  1   
  8   4  29  1   
  9   5   8  1   
 10   5   9  1   
 11   5  30  1   
 12   6  10  1   
 13   6  11  1   
 14   6  31  1   
 15   7   9  1   
 16   8  12  ar  
 17   8  13  ar  
 18   9  14  1   
 19   9  32  1   
 20  10  33  1   
 21  10  34  1   
 22  10  35  1   
 23  11  36  1   
 24  11  37  1   
 25  11  38  1   
 26  12  15  ar  
 27  12  39  1   
 28  13  16  ar  
 29  13  40  1   
 30  14  17  2   
 31  14  18  am  
 32  15  19  ar  
 33  15  41  1   
 34  16  19  ar  
 35  16  42  1   
 36  18  20  1   
 37  18  43  1   
 38  19  44  1   
 39  20  21  1   
 40  20  45  1   
 41  20  46  1   
 42  21  22  1   
 43  21  47  1   
 44  21  48  1   
 45  22  23  ar  
 46  22  24  ar  
 47  23  25  ar  
 48  24  26  ar  
 49  24  49  1   
 50  25  27  ar  
 51  25  50  1   
 52  26  27  ar  
 53  26  51  1   
 54  27  52  1   
@<TRIPOS>SUBSTRUCTURE
  1 ****  14 GROUP 4 **** **** 0

# MOE 2024.06 (io_trps.svl 2023.06)
