@<TRIPOS>MOLECULE
NONAME
54 55 1 0 0 
SMALL
USER_CHARGES


@<TRIPOS>ATOM
  1 O       -1.7990    -0.0190    -1.9110 O.2   1 <1>  -0.5700 
  2 C       -2.7340     0.7040    -1.6450 C.2   1 <1>   0.5690 
  3 N       -4.0270     0.2520    -1.7760 N.am  1 <1>  -0.6600 
  4 C       -2.4310     2.1250    -1.1440 C.3   1 <1>  -0.0190 
  5 C       -4.2830    -1.1260    -2.2740 C.3   1 <1>   0.3200 
  6 C       -5.2510     1.0140    -1.3870 C.3   1 <1>   0.1400 
  7 C       -2.4390     3.1310    -2.3100 C.3   1 <1>  -0.1600 
  8 C       -1.0910     2.2200    -0.3860 C.3   1 <1>  -0.1600 
  9 C       -4.1320    -2.0990    -1.1250 C.2   1 <1>  -0.3320 
 10 C       -5.6640     0.6790     0.0510 C.3   1 <1>   0.1200 
 11 C       -2.1730     4.5620    -1.8210 C.3   1 <1>  -0.1600 
 12 C       -0.8180     3.6480     0.1090 C.3   1 <1>  -0.1600 
 13 N       -2.9580    -2.2720    -0.4950 N.pl3 1 <1>   0.0330 
 14 C       -5.0110    -2.9300    -0.5230 C.2   1 <1>   0.0770 
 15 O       -6.7110     1.5090     0.4270 O.3   1 <1>  -0.6800 
 16 C       -0.8460     4.6650    -1.0490 C.3   1 <1>  -0.0800 
 17 C       -3.1970    -3.1960     0.4580 C.2   1 <1>   0.0060 
 18 N       -4.4200    -3.6160     0.4730 N.2   1 <1>  -0.5650 
 19 C       -0.6450     6.1130    -0.5600 C.3   1 <1>  -0.1600 
 20 C       -2.1260    -3.6820     1.4100 C.3   1 <1>  -0.0600 
 21 C        0.7370     6.3630     0.0640 C.3   1 <1>  -0.1600 
 22 C        0.9290     7.8460     0.4030 C.3   1 <1>  -0.1600 
 23 C        2.3030     8.0950     1.0300 C.3   1 <1>  -0.2400 
 24 H       -3.1910     2.4080    -0.4420 H     1 <1>   0.0800 
 25 H       -3.5790    -1.3710    -3.0510 H     1 <1>   0.0800 
 26 H       -5.2730    -1.1970    -2.6910 H     1 <1>   0.0800 
 27 H       -6.0590     0.7620    -2.0530 H     1 <1>   0.0800 
 28 H       -5.0740     2.0690    -1.4780 H     1 <1>   0.0800 
 29 H       -3.3880     3.0980    -2.8160 H     1 <1>   0.0800 
 30 H       -1.6810     2.8510    -3.0220 H     1 <1>   0.0800 
 31 H       -0.2880     1.9170    -1.0360 H     1 <1>   0.0800 
 32 H       -1.1040     1.5460     0.4530 H     1 <1>   0.0800 
 33 H       -4.8500     0.8250     0.7390 H     1 <1>   0.0800 
 34 H       -6.0110    -0.3380     0.1160 H     1 <1>   0.0800 
 35 H       -2.9830     4.8760    -1.1850 H     1 <1>   0.0800 
 36 H       -2.1470     5.2220    -2.6700 H     1 <1>   0.0800 
 37 H        0.1450     3.6600     0.5870 H     1 <1>   0.0800 
 38 H       -1.5550     3.9190     0.8450 H     1 <1>   0.0800 
 39 H       -2.0860    -1.7710    -0.7150 H     1 <1>   0.2700 
 40 H       -6.0530    -3.0750    -0.7520 H     1 <1>   0.1500 
 41 H       -6.3910     2.4060     0.6460 H     1 <1>   0.4000 
 42 H       -0.0460     4.4250    -1.7300 H     1 <1>   0.0800 
 43 H       -1.4090     6.3620     0.1560 H     1 <1>   0.0800 
 44 H       -0.7600     6.7760    -1.4010 H     1 <1>   0.0800 
 45 H       -1.7440    -2.8590     1.9850 H     1 <1>   0.0800 
 46 H       -1.3240    -4.1370     0.8590 H     1 <1>   0.0800 
 47 H       -2.5420    -4.4110     2.0820 H     1 <1>   0.0800 
 48 H        1.5030     6.0540    -0.6260 H     1 <1>   0.0800 
 49 H        0.8440     5.7850     0.9650 H     1 <1>   0.0800 
 50 H        0.1640     8.1620     1.0920 H     1 <1>   0.0800 
 51 H        0.8360     8.4380    -0.4920 H     1 <1>   0.0800 
 52 H        2.4100     7.5310     1.9400 H     1 <1>   0.0800 
 53 H        2.4190     9.1390     1.2590 H     1 <1>   0.0800 
 54 H        3.0850     7.8060     0.3490 H     1 <1>   0.0800 
@<TRIPOS>BOND
  1   1   2  2   
  2   2   3  am  
  3   2   4  1   
  4   3   5  1   
  5   3   6  1   
  6   4   7  1   
  7   4   8  1   
  8   4  24  1   
  9   5   9  1   
 10   5  25  1   
 11   5  26  1   
 12   6  10  1   
 13   6  27  1   
 14   6  28  1   
 15   7  11  1   
 16   7  29  1   
 17   7  30  1   
 18   8  12  1   
 19   8  31  1   
 20   8  32  1   
 21   9  13  1   
 22   9  14  2   
 23  10  15  1   
 24  10  33  1   
 25  10  34  1   
 26  11  16  1   
 27  11  35  1   
 28  11  36  1   
 29  12  16  1   
 30  12  37  1   
 31  12  38  1   
 32  13  17  1   
 33  13  39  1   
 34  14  18  1   
 35  14  40  1   
 36  15  41  1   
 37  16  19  1   
 38  16  42  1   
 39  17  18  2   
 40  17  20  1   
 41  19  21  1   
 42  19  43  1   
 43  19  44  1   
 44  20  45  1   
 45  20  46  1   
 46  20  47  1   
 47  21  22  1   
 48  21  48  1   
 49  21  49  1   
 50  22  23  1   
 51  22  50  1   
 52  22  51  1   
 53  23  52  1   
 54  23  53  1   
 55  23  54  1   
@<TRIPOS>SUBSTRUCTURE
  1 ****   4 GROUP 4 **** **** 0

# MOE 2024.06 (io_trps.svl 2023.06)
