@<TRIPOS>MOLECULE
NONAME
44 44 1 0 0 
SMALL
USER_CHARGES


@<TRIPOS>ATOM
  1 BR       0.0370    -0.5650     0.1610 Br    1 <1>  -0.1110 
  2 C       -1.3950     0.7190     0.0880 C.ar  1 <1>   0.1110 
  3 C       -1.1640     1.9980     0.5570 C.ar  1 <1>  -0.1500 
  4 C       -2.6140     0.3270    -0.4300 C.ar  1 <1>  -0.1500 
  5 C       -2.1910     2.9300     0.5020 C.ar  1 <1>  -0.1440 
  6 C       -3.6370     1.2570    -0.4770 C.ar  1 <1>  -0.1500 
  7 C       -3.4250     2.5470    -0.0110 C.ar  1 <1>  -0.1500 
  8 C       -1.9700     4.3540     1.0100 C.3   1 <1>  -0.0160 
  9 C       -1.5700     5.3870    -0.0760 C.3   1 <1>   0.3610 
 10 N       -2.6050     5.3780    -1.1490 N.am  1 <1>  -0.7300 
 11 C       -1.3680     6.7930     0.5660 C.2   1 <1>   0.6590 
 12 C       -0.2620     4.9620    -0.7640 C.3   1 <1>  -0.2400 
 13 C       -3.8360     5.9210    -1.1000 C.2   1 <1>   0.7800 
 14 O       -1.2840     6.9570     1.7610 O.2   1 <1>  -0.5700 
 15 O       -1.2690     7.8230    -0.2740 O.3   1 <1>  -0.4300 
 16 O       -4.6020     5.7820    -2.0270 O.2   1 <1>  -0.5700 
 17 O       -4.1730     6.5760     0.0080 O.3   1 <1>  -0.4300 
 18 C       -1.1250     9.1510     0.1830 C.3   1 <1>   0.0400 
 19 C       -5.3880     7.2350     0.2820 C.3   1 <1>   0.2800 
 20 C       -5.6090     8.3690    -0.7240 C.3   1 <1>  -0.2400 
 21 C       -5.2080     7.8250     1.6810 C.3   1 <1>  -0.2400 
 22 C       -6.5430     6.2280     0.2980 C.3   1 <1>  -0.2400 
 23 H       -0.1980     2.2510     0.9550 H     1 <1>   0.1500 
 24 H       -2.7560    -0.6770    -0.7860 H     1 <1>   0.1500 
 25 H       -4.6000     0.9820    -0.8740 H     1 <1>   0.1500 
 26 H       -4.2350     3.2560    -0.0520 H     1 <1>   0.1500 
 27 H       -1.2050     4.3330     1.7660 H     1 <1>   0.0800 
 28 H       -2.8650     4.6940     1.5010 H     1 <1>   0.0800 
 29 H       -2.4230     4.7680    -1.9420 H     1 <1>   0.3700 
 30 H       -0.3680     4.0090    -1.2500 H     1 <1>   0.0800 
 31 H        0.5280     4.8900    -0.0380 H     1 <1>   0.0800 
 32 H        0.0250     5.6950    -1.4980 H     1 <1>   0.0800 
 33 H       -1.0720     9.8020    -0.6710 H     1 <1>   0.0800 
 34 H       -0.2210     9.2240     0.7640 H     1 <1>   0.0800 
 35 H       -1.9780     9.4020     0.7900 H     1 <1>   0.0800 
 36 H       -4.7470     9.0110    -0.7600 H     1 <1>   0.0800 
 37 H       -6.4610     8.9560    -0.4340 H     1 <1>   0.0800 
 38 H       -5.8020     7.9820    -1.7080 H     1 <1>   0.0800 
 39 H       -4.3780     8.5090     1.6940 H     1 <1>   0.0800 
 40 H       -5.0250     7.0430     2.3960 H     1 <1>   0.0800 
 41 H       -6.0930     8.3580     1.9790 H     1 <1>   0.0800 
 42 H       -6.7330     5.8410    -0.6860 H     1 <1>   0.0800 
 43 H       -7.4420     6.7080     0.6380 H     1 <1>   0.0800 
 44 H       -6.3200     5.4130     0.9630 H     1 <1>   0.0800 
@<TRIPOS>BOND
  1   1   2  1   
  2   2   3  ar  
  3   2   4  ar  
  4   3   5  ar  
  5   3  23  1   
  6   4   6  ar  
  7   4  24  1   
  8   5   7  ar  
  9   5   8  1   
 10   6   7  ar  
 11   6  25  1   
 12   7  26  1   
 13   8   9  1   
 14   8  27  1   
 15   8  28  1   
 16   9  10  1   
 17   9  11  1   
 18   9  12  1   
 19  10  13  am  
 20  10  29  1   
 21  11  14  2   
 22  11  15  1   
 23  12  30  1   
 24  12  31  1   
 25  12  32  1   
 26  13  16  2   
 27  13  17  1   
 28  15  18  1   
 29  17  19  1   
 30  18  33  1   
 31  18  34  1   
 32  18  35  1   
 33  19  20  1   
 34  19  21  1   
 35  19  22  1   
 36  20  36  1   
 37  20  37  1   
 38  20  38  1   
 39  21  39  1   
 40  21  40  1   
 41  21  41  1   
 42  22  42  1   
 43  22  43  1   
 44  22  44  1   
@<TRIPOS>SUBSTRUCTURE
  1 ****  10 GROUP 4 **** **** 0

# MOE 2024.06 (io_trps.svl 2023.06)
