@<TRIPOS>MOLECULE
NONAME
45 47 1 0 0 
SMALL
USER_CHARGES


@<TRIPOS>ATOM
  1 O        2.6090    -1.9870    -1.0750 O.3   1 <1>  -0.0190 
  2 N        2.2150    -3.1860    -0.8530 N.2   1 <1>  -0.4100 
  3 C        2.1920    -1.1870    -0.1310 C.2   1 <1>   0.4250 
  4 C        1.5530    -3.0850     0.2370 C.2   1 <1>   0.3350 
  5 N        1.5160    -1.8460     0.7460 N.2   1 <1>  -0.5650 
  6 C        2.4940     0.2270    -0.1560 C.ar  1 <1>   0.0530 
  7 C        0.8540    -4.2530     0.9340 C.3   1 <1>   0.2910 
  8 C        3.3520     0.7830    -1.1080 C.ar  1 <1>  -0.1500 
  9 C        1.9320     1.0970     0.7780 C.ar  1 <1>  -0.1500 
 10 N       -0.5330    -4.4840     0.4570 N.3   1 <1>  -0.8100 
 11 C        3.6330     2.1370    -1.1230 C.ar  1 <1>  -0.1500 
 12 C        2.2110     2.4510     0.7670 C.ar  1 <1>  -0.1500 
 13 C       -1.0730    -5.7640     0.9590 C.3   1 <1>   0.2900 
 14 C       -1.4360    -3.3520     0.7800 C.3   1 <1>   0.1100 
 15 C        3.0630     2.9810    -0.1860 C.ar  1 <1>  -0.1430 
 16 C       -2.3660    -6.1340     0.2420 C.2   1 <1>   0.0060 
 17 C       -1.7370    -2.5420    -0.4840 C.3   1 <1>   0.1200 
 18 C        3.3710     4.4680    -0.2000 C.3   1 <1>  -0.0960 
 19 N       -3.4970    -6.3000     0.8530 N.2   1 <1>  -0.5650 
 20 N       -2.4400    -6.3140    -1.1000 N.pl3 1 <1>   0.0480 
 21 O       -2.7330    -1.6160    -0.2090 O.3   1 <1>  -0.6800 
 22 C       -4.3550    -6.6050    -0.1370 C.2   1 <1>   0.0770 
 23 C       -3.7290    -6.6170    -1.3340 C.2   1 <1>  -0.3020 
 24 C       -1.3690    -6.1960    -2.1070 C.3   1 <1>   0.0160 
 25 H        0.8530    -4.0780     1.9950 H     1 <1>   0.0800 
 26 H        1.4410    -5.1350     0.7440 H     1 <1>   0.0800 
 27 H        3.8090     0.1500    -1.8480 H     1 <1>   0.1500 
 28 H        1.2630     0.7040     1.5250 H     1 <1>   0.1500 
 29 H        4.3000     2.5320    -1.8690 H     1 <1>   0.1500 
 30 H        1.7590     3.0920     1.5040 H     1 <1>   0.1500 
 31 H       -1.2590    -5.6960     2.0180 H     1 <1>   0.0800 
 32 H       -0.3600    -6.5520     0.7920 H     1 <1>   0.0800 
 33 H       -0.9940    -2.7070     1.5210 H     1 <1>   0.0800 
 34 H       -2.3680    -3.7180     1.1750 H     1 <1>   0.0800 
 35 H       -2.0900    -3.1860    -1.2700 H     1 <1>   0.0800 
 36 H       -0.8640    -2.0070    -0.8130 H     1 <1>   0.0800 
 37 H        3.5980     4.7960    -1.1980 H     1 <1>   0.0800 
 38 H        4.2160     4.6700     0.4340 H     1 <1>   0.0800 
 39 H        2.5260     5.0290     0.1570 H     1 <1>   0.0800 
 40 H       -3.5640    -2.0770     0.0210 H     1 <1>   0.4000 
 41 H       -5.3940    -6.8020     0.0660 H     1 <1>   0.1500 
 42 H       -4.1240    -6.8200    -2.3120 H     1 <1>   0.1500 
 43 H       -0.5590    -6.8500    -1.8430 H     1 <1>   0.0800 
 44 H       -1.0140    -5.1820    -2.1320 H     1 <1>   0.0800 
 45 H       -1.7500    -6.4670    -3.0740 H     1 <1>   0.0800 
@<TRIPOS>BOND
  1   1   2  1   
  2   1   3  1   
  3   2   4  2   
  4   3   5  2   
  5   3   6  1   
  6   4   5  1   
  7   4   7  1   
  8   6   8  ar  
  9   6   9  ar  
 10   7  10  1   
 11   7  25  1   
 12   7  26  1   
 13   8  11  ar  
 14   8  27  1   
 15   9  12  ar  
 16   9  28  1   
 17  10  13  1   
 18  10  14  1   
 19  11  15  ar  
 20  11  29  1   
 21  12  15  ar  
 22  12  30  1   
 23  13  16  1   
 24  13  31  1   
 25  13  32  1   
 26  14  17  1   
 27  14  33  1   
 28  14  34  1   
 29  15  18  1   
 30  16  19  2   
 31  16  20  1   
 32  17  21  1   
 33  17  35  1   
 34  17  36  1   
 35  18  37  1   
 36  18  38  1   
 37  18  39  1   
 38  19  22  1   
 39  20  23  1   
 40  20  24  1   
 41  21  40  1   
 42  22  23  2   
 43  22  41  1   
 44  23  42  1   
 45  24  43  1   
 46  24  44  1   
 47  24  45  1   
@<TRIPOS>SUBSTRUCTURE
  1 ****   4 GROUP 4 **** **** 0

# MOE 2024.06 (io_trps.svl 2023.06)
