@<TRIPOS>MOLECULE
NONAME
45 47 1 0 0 
SMALL
USER_CHARGES


@<TRIPOS>ATOM
  1 O        2.9420     2.0530     1.9440 O.co2 1 <1>  -0.9000 
  2 C        2.6410     0.8930     1.6540 C.2   1 <1>   0.9060 
  3 O        2.7920    -0.0210     2.4690 O.co2 1 <1>  -0.9000 
  4 C        2.4790     0.5220     0.1650 C.3   1 <1>  -0.1060 
  5 C        3.6660    -0.4170    -0.1290 C.3   1 <1>   0.4230 
  6 C        2.6220     1.7690    -0.7720 C.3   1 <1>  -0.1600 
  7 C        1.1190    -0.1620    -0.1360 C.3   1 <1>  -0.1600 
  8 N        3.4710    -1.7350     0.5800 N.4   1 <1>  -0.9590 
  9 C        5.0050     0.3220     0.2370 C.3   1 <1>   0.3430 
 10 C        4.0510     2.3290    -0.9350 C.3   1 <1>   0.3430 
 11 C        1.0110    -1.5650     0.4790 C.3   1 <1>  -0.1600 
 12 C        2.2270    -2.4350     0.1580 C.3   1 <1>   0.3430 
 13 C        4.6360    -2.6660     0.6150 C.3   1 <1>   0.2630 
 14 N        4.9160     1.8300     0.1690 N.4   1 <1>  -0.9590 
 15 C        6.2070     2.5420     0.3650 C.3   1 <1>   0.4860 
 16 C        6.0130     4.0430     0.2820 C.ar  1 <1>  -0.1430 
 17 C        5.1690     4.7050     1.1660 C.ar  1 <1>   0.1600 
 18 C        6.6770     4.7770    -0.6830 C.ar  1 <1>  -0.1500 
 19 N        4.9440     6.0070     1.1510 N.ar  1 <1>  -0.6200 
 20 C        6.4510     6.1360    -0.7030 C.ar  1 <1>  -0.1500 
 21 C        5.5870     6.6940     0.2230 C.ar  1 <1>   0.1600 
 22 H        3.6800    -0.6090    -1.1880 H     1 <1>   0.0800 
 23 H        1.9940     2.5590    -0.3940 H     1 <1>   0.0800 
 24 H        2.2560     1.5470    -1.7590 H     1 <1>   0.0800 
 25 H        0.3170     0.4530     0.2400 H     1 <1>   0.0800 
 26 H        0.9820    -0.2560    -1.2000 H     1 <1>   0.0800 
 27 H        3.2580    -1.4180     1.5680 H     1 <1>   0.4500 
 28 H        5.7820    -0.0240    -0.4210 H     1 <1>   0.0800 
 29 H        5.2650     0.0530     1.2490 H     1 <1>   0.0800 
 30 H        4.0020     3.4070    -0.9200 H     1 <1>   0.0800 
 31 H        4.4620     2.0250    -1.8840 H     1 <1>   0.0800 
 32 H        0.1250    -2.0490     0.1080 H     1 <1>   0.0800 
 33 H        0.9020    -1.4910     1.5480 H     1 <1>   0.0800 
 34 H        2.2600    -2.6410    -0.8990 H     1 <1>   0.0800 
 35 H        2.1350    -3.3710     0.6860 H     1 <1>   0.0800 
 36 H        4.8970    -2.9810    -0.3820 H     1 <1>   0.0800 
 37 H        4.3890    -3.5390     1.1980 H     1 <1>   0.0800 
 38 H        5.4870    -2.1900     1.0710 H     1 <1>   0.0800 
 39 H        4.3450     2.1060     1.0150 H     1 <1>   0.4500 
 40 H        6.6160     2.2940     1.3320 H     1 <1>   0.0800 
 41 H        6.9110     2.2350    -0.3900 H     1 <1>   0.0800 
 42 H        4.6420     4.1430     1.9250 H     1 <1>   0.1500 
 43 H        7.3490     4.3270    -1.3950 H     1 <1>   0.1500 
 44 H        6.9380     6.7660    -1.4270 H     1 <1>   0.1500 
 45 H        5.4170     7.7580     0.2000 H     1 <1>   0.1500 
@<TRIPOS>BOND
  1   1   2  ar  
  2   2   3  ar  
  3   2   4  1   
  4   4   5  1   
  5   4   6  1   
  6   4   7  1   
  7   5   8  1   
  8   5   9  1   
  9   5  22  1   
 10   6  10  1   
 11   6  23  1   
 12   6  24  1   
 13   7  11  1   
 14   7  25  1   
 15   7  26  1   
 16   8  12  1   
 17   8  13  1   
 18   8  27  1   
 19   9  14  1   
 20   9  28  1   
 21   9  29  1   
 22  10  14  1   
 23  10  30  1   
 24  10  31  1   
 25  11  12  1   
 26  11  32  1   
 27  11  33  1   
 28  12  34  1   
 29  12  35  1   
 30  13  36  1   
 31  13  37  1   
 32  13  38  1   
 33  14  15  1   
 34  14  39  1   
 35  15  16  1   
 36  15  40  1   
 37  15  41  1   
 38  16  17  ar  
 39  16  18  ar  
 40  17  19  ar  
 41  17  42  1   
 42  18  20  ar  
 43  18  43  1   
 44  19  21  ar  
 45  20  21  ar  
 46  20  44  1   
 47  21  45  1   
@<TRIPOS>SUBSTRUCTURE
  1 ****  14 GROUP 4 **** **** 0

# MOE 2024.06 (io_trps.svl 2023.06)
