@<TRIPOS>MOLECULE
NONAME
48 50 1 0 0 
SMALL
USER_CHARGES


@<TRIPOS>ATOM
  1 S        0.5880    -1.8030    -1.2990 S.3   1 <1>  -0.4600 
  2 C       -1.1310    -2.1420    -0.7780 C.3   1 <1>   0.1310 
  3 C        1.2770    -0.8920     0.1100 C.3   1 <1>  -0.0100 
  4 C       -1.1840    -3.1600     0.3610 C.2   1 <1>   0.5690 
  5 O       -1.8050    -2.8550     1.3520 O.2   1 <1>  -0.5700 
  6 N       -0.5820    -4.3950     0.2840 N.am  1 <1>  -0.6600 
  7 C       -0.4450    -5.2020     1.5400 C.3   1 <1>   0.2200 
  8 C       -0.1160    -4.9920    -0.9940 C.3   1 <1>   0.1400 
  9 C        0.8310    -6.0830     1.5830 C.3   1 <1>   0.1200 
 10 C       -1.7590    -5.9810     1.7810 C.3   1 <1>   0.3430 
 11 C       -0.4300    -6.4910    -1.0810 C.3   1 <1>  -0.0800 
 12 O        0.6630    -7.3280     0.9520 O.3   1 <1>  -0.5600 
 13 N       -1.9680    -7.1390     0.8440 N.4   1 <1>  -0.9590 
 14 C        0.6940    -7.3400    -0.4450 C.3   1 <1>   0.1200 
 15 C       -1.8680    -6.8250    -0.6190 C.3   1 <1>   0.3430 
 16 C       -3.1590    -7.9510     1.1960 C.3   1 <1>   0.4860 
 17 C       -3.0990    -9.2540     0.4200 C.ar  1 <1>  -0.1440 
 18 C       -4.0610    -9.5430    -0.5380 C.ar  1 <1>  -0.1500 
 19 C       -2.0700   -10.1590     0.6530 C.ar  1 <1>  -0.1500 
 20 C       -3.9770   -10.7220    -1.2620 C.ar  1 <1>   0.0820 
 21 C       -1.9930   -11.3350    -0.0750 C.ar  1 <1>  -0.1500 
 22 O       -4.8960   -11.0180    -2.1930 O.3   1 <1>  -0.5330 
 23 C       -2.9460   -11.6150    -1.0360 C.ar  1 <1>  -0.1500 
 24 H       -1.5540    -1.2060    -0.4640 H     1 <1>   0.0800 
 25 H       -1.6620    -2.5020    -1.6380 H     1 <1>   0.0800 
 26 H        2.3000    -0.6550    -0.1210 H     1 <1>   0.0800 
 27 H        1.2180    -1.5220     0.9800 H     1 <1>   0.0800 
 28 H        0.6990     0.0050     0.2430 H     1 <1>   0.0800 
 29 H       -0.3420    -4.5020     2.3520 H     1 <1>   0.0800 
 30 H       -0.6020    -4.4980    -1.8180 H     1 <1>   0.0800 
 31 H        0.9430    -4.8210    -1.1030 H     1 <1>   0.0800 
 32 H        1.0650    -6.2980     2.6110 H     1 <1>   0.0800 
 33 H        1.6770    -5.5710     1.1560 H     1 <1>   0.0800 
 34 H       -2.5800    -5.2870     1.7020 H     1 <1>   0.0800 
 35 H       -1.7410    -6.3510     2.7920 H     1 <1>   0.0800 
 36 H       -0.3950    -6.7170    -2.1320 H     1 <1>   0.0800 
 37 H       -1.1350    -7.7370     1.0070 H     1 <1>   0.4500 
 38 H        1.6660    -7.0010    -0.7650 H     1 <1>   0.0800 
 39 H        0.5890    -8.3680    -0.7510 H     1 <1>   0.0800 
 40 H       -2.1910    -7.6870    -1.1800 H     1 <1>   0.0800 
 41 H       -2.5280    -6.0090    -0.8660 H     1 <1>   0.0800 
 42 H       -3.1620    -8.1680     2.2510 H     1 <1>   0.0800 
 43 H       -4.0610    -7.4140     0.9530 H     1 <1>   0.0800 
 44 H       -4.8720    -8.8640    -0.7290 H     1 <1>   0.1500 
 45 H       -1.3170    -9.9670     1.4000 H     1 <1>   0.1500 
 46 H       -1.1950   -12.0360     0.1060 H     1 <1>   0.1500 
 47 H       -5.6420   -10.3940    -2.2410 H     1 <1>   0.4500 
 48 H       -2.8990   -12.5240    -1.6090 H     1 <1>   0.1500 
@<TRIPOS>BOND
  1   1   2  1   
  2   1   3  1   
  3   2   4  1   
  4   2  24  1   
  5   2  25  1   
  6   3  26  1   
  7   3  27  1   
  8   3  28  1   
  9   4   5  2   
 10   4   6  am  
 11   6   7  1   
 12   6   8  1   
 13   7   9  1   
 14   7  10  1   
 15   7  29  1   
 16   8  11  1   
 17   8  30  1   
 18   8  31  1   
 19   9  12  1   
 20   9  32  1   
 21   9  33  1   
 22  10  13  1   
 23  10  34  1   
 24  10  35  1   
 25  11  14  1   
 26  11  15  1   
 27  11  36  1   
 28  12  14  1   
 29  13  15  1   
 30  13  16  1   
 31  13  37  1   
 32  14  38  1   
 33  14  39  1   
 34  15  40  1   
 35  15  41  1   
 36  16  17  1   
 37  16  42  1   
 38  16  43  1   
 39  17  18  ar  
 40  17  19  ar  
 41  18  20  ar  
 42  18  44  1   
 43  19  21  ar  
 44  19  45  1   
 45  20  22  1   
 46  20  23  ar  
 47  21  23  ar  
 48  21  46  1   
 49  22  47  1   
 50  23  48  1   
@<TRIPOS>SUBSTRUCTURE
  1 ****  15 GROUP 4 **** **** 0

# MOE 2024.06 (io_trps.svl 2023.06)
