@<TRIPOS>MOLECULE
NONAME
46 48 1 0 0 
SMALL
USER_CHARGES


@<TRIPOS>ATOM
  1 S       -0.6960     0.2130     0.4210 S.3   1 <1>  -0.3320 
  2 C       -2.1680    -0.8210     0.3010 C.ar  1 <1>   0.1020 
  3 C        0.7590    -0.9210     0.3300 C.3   1 <1>  -0.0100 
  4 C       -3.3890    -0.1790     0.3650 C.ar  1 <1>  -0.1500 
  5 C       -2.0910    -2.1970     0.1500 C.ar  1 <1>  -0.1500 
  6 C       -4.5710    -0.9040     0.2790 C.ar  1 <1>   0.1170 
  7 C       -3.2630    -2.9270     0.0610 C.ar  1 <1>  -0.1500 
  8 N       -5.7900    -0.2130     0.3310 N.am  1 <1>  -0.5470 
  9 C       -4.4890    -2.2860     0.1230 C.ar  1 <1>  -0.1500 
 10 C       -7.0520    -0.6190     0.6590 C.2   1 <1>   0.6900 
 11 O       -7.2490    -1.7240     1.1290 O.2   1 <1>  -0.5700 
 12 N       -8.0990     0.2530     0.4740 N.am  1 <1>  -0.6600 
 13 C       -9.4580    -0.0530     1.0160 C.3   1 <1>   0.1400 
 14 C       -8.0620     1.4660    -0.3910 C.3   1 <1>   0.1400 
 15 C      -10.4860    -0.2590    -0.1250 C.3   1 <1>   0.0000 
 16 C       -9.0620     1.3150    -1.5430 C.3   1 <1>  -0.1600 
 17 C      -11.9010    -0.5540     0.4140 C.3   1 <1>   0.2000 
 18 C      -10.4780     0.9840    -1.0410 C.3   1 <1>  -0.1600 
 19 C      -10.1770    -1.5520    -0.9010 C.3   1 <1>  -0.1600 
 20 O      -12.2020     0.1480     1.5690 O.3   1 <1>  -0.6800 
 21 C      -11.9720    -2.0600     0.6800 C.3   1 <1>  -0.1600 
 22 C      -10.7830    -2.6810    -0.0650 C.3   1 <1>  -0.1600 
 23 H        1.6460    -0.3170     0.4080 H     1 <1>   0.0800 
 24 H        0.7260    -1.4290    -0.6170 H     1 <1>   0.0800 
 25 H        0.6940    -1.6110     1.1510 H     1 <1>   0.0800 
 26 H       -3.4120     0.8870     0.4850 H     1 <1>   0.1500 
 27 H       -1.1490    -2.7050     0.1010 H     1 <1>   0.1500 
 28 H       -3.2260    -3.9970    -0.0560 H     1 <1>   0.1500 
 29 H       -5.7260     0.7900     0.2100 H     1 <1>   0.3700 
 30 H       -5.3890    -2.8680     0.0470 H     1 <1>   0.1500 
 31 H       -9.4260    -0.9230     1.6480 H     1 <1>   0.0800 
 32 H       -9.7610     0.7780     1.6290 H     1 <1>   0.0800 
 33 H       -8.3230     2.3240     0.2050 H     1 <1>   0.0800 
 34 H       -7.0810     1.6250    -0.7990 H     1 <1>   0.0800 
 35 H       -9.0890     2.2300    -2.1080 H     1 <1>   0.0800 
 36 H       -8.7170     0.5380    -2.2030 H     1 <1>   0.0800 
 37 H      -12.6340    -0.2890    -0.3310 H     1 <1>   0.0800 
 38 H      -11.1310     0.8310    -1.8820 H     1 <1>   0.0800 
 39 H      -10.8580     1.8250    -0.4850 H     1 <1>   0.0800 
 40 H      -10.6700    -1.5280    -1.8570 H     1 <1>   0.0800 
 41 H       -9.1250    -1.7060    -1.0650 H     1 <1>   0.0800 
 42 H      -11.7140    -0.2330     2.3220 H     1 <1>   0.4000 
 43 H      -11.9010    -2.2870     1.7300 H     1 <1>   0.0800 
 44 H      -12.8970    -2.4500     0.2950 H     1 <1>   0.0800 
 45 H      -10.0510    -3.0280     0.6460 H     1 <1>   0.0800 
 46 H      -11.0840    -3.5090    -0.6830 H     1 <1>   0.0800 
@<TRIPOS>BOND
  1   1   2  1   
  2   1   3  1   
  3   2   4  ar  
  4   2   5  ar  
  5   3  23  1   
  6   3  24  1   
  7   3  25  1   
  8   4   6  ar  
  9   4  26  1   
 10   5   7  ar  
 11   5  27  1   
 12   6   8  1   
 13   6   9  ar  
 14   7   9  ar  
 15   7  28  1   
 16   8  10  am  
 17   8  29  1   
 18   9  30  1   
 19  10  11  2   
 20  10  12  am  
 21  12  13  1   
 22  12  14  1   
 23  13  15  1   
 24  13  31  1   
 25  13  32  1   
 26  14  16  1   
 27  14  33  1   
 28  14  34  1   
 29  15  17  1   
 30  15  18  1   
 31  15  19  1   
 32  16  18  1   
 33  16  35  1   
 34  16  36  1   
 35  17  20  1   
 36  17  21  1   
 37  17  37  1   
 38  18  38  1   
 39  18  39  1   
 40  19  22  1   
 41  19  40  1   
 42  19  41  1   
 43  20  42  1   
 44  21  22  1   
 45  21  43  1   
 46  21  44  1   
 47  22  45  1   
 48  22  46  1   
@<TRIPOS>SUBSTRUCTURE
  1 ****  10 GROUP 4 **** **** 0

# MOE 2024.06 (io_trps.svl 2023.06)
