@<TRIPOS>MOLECULE
NONAME
50 52 1 0 0 
SMALL
USER_CHARGES


@<TRIPOS>ATOM
  1 O       -0.4670     0.0110     1.2300 O.2   1 <1>  -0.5700 
  2 C       -1.4790     0.6760     1.1180 C.2   1 <1>   0.5440 
  3 N       -2.6970     0.0350     1.0610 N.am  1 <1>  -0.6600 
  4 C       -1.3880     2.1220     1.0280 C.ar  1 <1>   0.0860 
  5 C       -2.8350    -1.4460     1.2270 C.3   1 <1>   0.1400 
  6 C       -3.9500     0.6740     0.5600 C.3   1 <1>   0.1400 
  7 C       -0.8340     2.7860    -0.0750 C.ar  1 <1>  -0.1440 
  8 C       -1.8910     2.8870     2.0830 C.ar  1 <1>  -0.1500 
  9 C       -3.4220    -2.0890    -0.0430 C.3   1 <1>   0.3440 
 10 C       -4.4650    -0.0680    -0.6940 C.3   1 <1>   0.2000 
 11 C       -0.7930     4.1770    -0.0780 C.ar  1 <1>   0.0820 
 12 C       -0.2760     1.9930    -1.2610 C.3   1 <1>  -0.0970 
 13 C       -1.8560     4.2680     2.0600 C.ar  1 <1>  -0.1500 
 14 O       -4.6080    -1.4340    -0.4170 O.3   1 <1>  -0.5600 
 15 C       -3.7070    -3.5710     0.1880 C.ar  1 <1>  -0.1440 
 16 C       -5.8160     0.4570    -1.2340 C.3   1 <1>  -0.0800 
 17 O       -0.2440     4.8520    -1.1000 O.3   1 <1>  -0.5320 
 18 C       -1.3040     4.9150     0.9730 C.ar  1 <1>  -0.1500 
 19 C       -2.7260    -4.5100    -0.1000 C.ar  1 <1>  -0.1500 
 20 C       -4.9250    -4.0040     0.6960 C.ar  1 <1>  -0.1500 
 21 C       -5.7170     1.9150    -1.7090 C.3   1 <1>  -0.2400 
 22 C       -6.9760     0.3180    -0.2330 C.3   1 <1>  -0.2400 
 23 C       -2.9580    -5.8580     0.1160 C.ar  1 <1>  -0.1500 
 24 C       -5.1590    -5.3510     0.9120 C.ar  1 <1>  -0.1500 
 25 C       -4.1750    -6.2790     0.6220 C.ar  1 <1>  -0.1500 
 26 H       -1.8830    -1.8990     1.4430 H     1 <1>   0.0800 
 27 H       -3.4870    -1.6500     2.0570 H     1 <1>   0.0800 
 28 H       -4.6930     0.6350     1.3360 H     1 <1>   0.0800 
 29 H       -3.7790     1.7060     0.3160 H     1 <1>   0.0800 
 30 H       -2.3130     2.3810     2.9340 H     1 <1>   0.1500 
 31 H       -2.7200    -1.9860    -0.8520 H     1 <1>   0.0800 
 32 H       -3.7320     0.0280    -1.4770 H     1 <1>   0.0800 
 33 H       -0.7090     1.0120    -1.3220 H     1 <1>   0.0800 
 34 H        0.7880     1.8830    -1.1510 H     1 <1>   0.0800 
 35 H       -0.4880     2.4880    -2.1910 H     1 <1>   0.0800 
 36 H       -2.2510     4.8370     2.8840 H     1 <1>   0.1500 
 37 H       -6.0540    -0.1430    -2.0960 H     1 <1>   0.0800 
 38 H        0.1890     4.2670    -1.7460 H     1 <1>   0.4500 
 39 H       -1.2620     5.9890     0.9370 H     1 <1>   0.1500 
 40 H       -1.7740    -4.1980    -0.4920 H     1 <1>   0.1500 
 41 H       -5.6980    -3.2890     0.9210 H     1 <1>   0.1500 
 42 H       -5.5520     2.5850    -0.8850 H     1 <1>   0.0800 
 43 H       -6.6300     2.2040    -2.1980 H     1 <1>   0.0800 
 44 H       -4.9110     2.0270    -2.4140 H     1 <1>   0.0800 
 45 H       -6.8330     0.9510     0.6240 H     1 <1>   0.0800 
 46 H       -7.0600    -0.7020     0.1010 H     1 <1>   0.0800 
 47 H       -7.9040     0.5900    -0.7040 H     1 <1>   0.0800 
 48 H       -2.1920    -6.5780    -0.1110 H     1 <1>   0.1500 
 49 H       -6.1070    -5.6750     1.3030 H     1 <1>   0.1500 
 50 H       -4.3560    -7.3260     0.7890 H     1 <1>   0.1500 
@<TRIPOS>BOND
  1   1   2  2   
  2   2   3  am  
  3   2   4  1   
  4   3   5  1   
  5   3   6  1   
  6   4   7  ar  
  7   4   8  ar  
  8   5   9  1   
  9   5  26  1   
 10   5  27  1   
 11   6  10  1   
 12   6  28  1   
 13   6  29  1   
 14   7  11  ar  
 15   7  12  1   
 16   8  13  ar  
 17   8  30  1   
 18   9  14  1   
 19   9  15  1   
 20   9  31  1   
 21  10  14  1   
 22  10  16  1   
 23  10  32  1   
 24  11  17  1   
 25  11  18  ar  
 26  12  33  1   
 27  12  34  1   
 28  12  35  1   
 29  13  18  ar  
 30  13  36  1   
 31  15  19  ar  
 32  15  20  ar  
 33  16  21  1   
 34  16  22  1   
 35  16  37  1   
 36  17  38  1   
 37  18  39  1   
 38  19  23  ar  
 39  19  40  1   
 40  20  24  ar  
 41  20  41  1   
 42  21  42  1   
 43  21  43  1   
 44  21  44  1   
 45  22  45  1   
 46  22  46  1   
 47  22  47  1   
 48  23  25  ar  
 49  23  48  1   
 50  24  25  ar  
 51  24  49  1   
 52  25  50  1   
@<TRIPOS>SUBSTRUCTURE
  1 ****   3 GROUP 4 **** **** 0

# MOE 2024.06 (io_trps.svl 2023.06)
