@<TRIPOS>MOLECULE
NONAME
50 53 1 0 0 
SMALL
USER_CHARGES


@<TRIPOS>ATOM
  1 O        0.5630     0.0320     1.3740 O.2   1 <1>  -0.5700 
  2 C        1.2710    -0.8750     0.9980 C.2   1 <1>   0.9370 
  3 N        2.5750    -0.5960     0.5660 N.pl3 1 <1>  -0.5760 
  4 C        0.8080    -2.2100     0.9820 C.2   1 <1>  -0.1360 
  5 C        3.3660    -1.6110     0.1360 C.cat 1 <1>   0.7390 
  6 C        3.0680     0.6890     0.5710 C.2   1 <1>   0.1910 
  7 C        1.6060    -3.2040     0.5480 C.2   1 <1>   0.2030 
  8 N        2.8790    -2.8740     0.1330 N.pl3 1 <1>  -0.6450 
  9 C        4.6710    -1.3400    -0.2970 C.2   1 <1>  -0.1800 
 10 C        4.3400     0.9750     0.1510 C.2   1 <1>  -0.1380 
 11 C        1.2030    -4.6780     0.4930 C.3   1 <1>   0.2480 
 12 C        5.1650    -0.0630    -0.2950 C.2   1 <1>  -0.1500 
 13 C        4.8880     2.3930     0.1550 C.3   1 <1>  -0.1020 
 14 N       -0.2600    -4.8760     0.5580 N.3   1 <1>  -0.8100 
 15 C       -0.9430    -4.5420    -0.7220 C.3   1 <1>   0.1100 
 16 C       -0.5540    -6.2970     0.8310 C.3   1 <1>   0.1100 
 17 C       -1.7410    -5.7780    -1.1510 C.3   1 <1>   0.2000 
 18 C       -0.9880    -6.9280    -0.4960 C.3   1 <1>  -0.0800 
 19 O       -3.0050    -5.7030    -0.5920 O.3   1 <1>  -0.6800 
 20 C        0.1870    -7.3860    -1.3920 C.3   1 <1>   0.0210 
 21 C        1.2670    -8.1350    -0.6340 C.2   1 <1>   0.1080 
 22 N        2.3850    -7.5880    -0.2570 N.2   1 <1>  -0.7070 
 23 C        1.1790    -9.4710    -0.2620 C.2   1 <1>  -0.1500 
 24 N        3.0510    -8.5860     0.3630 N.pl3 1 <1>   0.3000 
 25 C        2.3380    -9.7310     0.3770 C.2   1 <1>  -0.3320 
 26 C        2.8180   -11.0260     1.0070 C.3   1 <1>  -0.0600 
 27 H       -0.1940    -2.3760     1.3310 H     1 <1>   0.1500 
 28 H        2.4240     1.4860     0.9180 H     1 <1>   0.1500 
 29 H        3.4990    -3.6230    -0.1960 H     1 <1>   0.4500 
 30 H        5.2870    -2.1520    -0.6360 H     1 <1>   0.1500 
 31 H        1.6700    -5.1780     1.3250 H     1 <1>   0.0800 
 32 H        1.5880    -5.1180    -0.4090 H     1 <1>   0.0800 
 33 H        6.1690     0.1530    -0.6280 H     1 <1>   0.1500 
 34 H        5.7580     2.4520     0.7860 H     1 <1>   0.0800 
 35 H        4.1570     3.0930     0.5190 H     1 <1>   0.0800 
 36 H        5.1680     2.6840    -0.8420 H     1 <1>   0.0800 
 37 H       -1.5910    -3.6900    -0.6020 H     1 <1>   0.0800 
 38 H       -0.2210    -4.3150    -1.4870 H     1 <1>   0.0800 
 39 H        0.2670    -6.8160     1.2960 H     1 <1>   0.0800 
 40 H       -1.3830    -6.3390     1.5180 H     1 <1>   0.0800 
 41 H       -1.8500    -5.8730    -2.2190 H     1 <1>   0.0800 
 42 H       -1.6300    -7.7720    -0.3170 H     1 <1>   0.0800 
 43 H       -2.9190    -5.4730     0.3550 H     1 <1>   0.4000 
 44 H        0.6500    -6.5470    -1.8770 H     1 <1>   0.0800 
 45 H       -0.1930    -8.0230    -2.1700 H     1 <1>   0.0800 
 46 H        0.3540   -10.1330    -0.4560 H     1 <1>   0.1500 
 47 H        3.9900    -8.4650     0.7620 H     1 <1>   0.2700 
 48 H        2.0740   -11.7940     0.8850 H     1 <1>   0.0800 
 49 H        2.9960   -10.8860     2.0580 H     1 <1>   0.0800 
 50 H        3.7280   -11.3540     0.5370 H     1 <1>   0.0800 
@<TRIPOS>BOND
  1   1   2  2   
  2   2   3  1   
  3   2   4  1   
  4   3   5  ar  
  5   3   6  1   
  6   4   7  2   
  7   4  27  1   
  8   5   8  ar  
  9   5   9  1   
 10   6  10  2   
 11   6  28  1   
 12   7   8  1   
 13   7  11  1   
 14   8  29  1   
 15   9  12  2   
 16   9  30  1   
 17  10  12  1   
 18  10  13  1   
 19  11  14  1   
 20  11  31  1   
 21  11  32  1   
 22  12  33  1   
 23  13  34  1   
 24  13  35  1   
 25  13  36  1   
 26  14  15  1   
 27  14  16  1   
 28  15  17  1   
 29  15  37  1   
 30  15  38  1   
 31  16  18  1   
 32  16  39  1   
 33  16  40  1   
 34  17  18  1   
 35  17  19  1   
 36  17  41  1   
 37  18  20  1   
 38  18  42  1   
 39  19  43  1   
 40  20  21  1   
 41  20  44  1   
 42  20  45  1   
 43  21  22  2   
 44  21  23  1   
 45  22  24  1   
 46  23  25  2   
 47  23  46  1   
 48  24  25  1   
 49  24  47  1   
 50  25  26  1   
 51  26  48  1   
 52  26  49  1   
 53  26  50  1   
@<TRIPOS>SUBSTRUCTURE
  1 ****  11 GROUP 4 **** **** 0

# MOE 2024.06 (io_trps.svl 2023.06)
