@<TRIPOS>MOLECULE
NONAME
51 52 1 0 0 
SMALL
USER_CHARGES


@<TRIPOS>ATOM
  1 O       -2.0830     2.2280    -3.5210 O.2   1 <1>  -0.5700 
  2 C       -2.4780     2.3390    -2.3740 C.2   1 <1>   0.5440 
  3 N       -3.6180     1.6660    -1.9870 N.am  1 <1>  -0.6600 
  4 C       -1.7790     3.2030    -1.4500 C.ar  1 <1>   0.0860 
  5 C       -3.9100     0.3040    -2.5120 C.3   1 <1>   0.1400 
  6 C       -4.3910     2.0030    -0.7660 C.3   1 <1>   0.1400 
  7 C       -0.8980     2.6930    -0.4880 C.ar  1 <1>   0.0820 
  8 C       -2.0050     4.5790    -1.4780 C.ar  1 <1>  -0.1500 
  9 C       -3.5580    -0.7340    -1.4360 C.3   1 <1>   0.2000 
 10 C       -4.0920     0.9940     0.3480 C.3   1 <1>  -0.1600 
 11 O       -0.6320     1.3630    -0.5130 O.3   1 <1>  -0.3630 
 12 C       -0.3160     3.5480     0.4450 C.ar  1 <1>  -0.1500 
 13 C       -1.4140     5.4240    -0.5600 C.ar  1 <1>  -0.1500 
 14 O       -3.8520    -2.0090    -1.8900 O.3   1 <1>  -0.6800 
 15 C       -4.1950    -0.5170    -0.0330 C.3   1 <1>  -0.1060 
 16 C       -0.1720     0.6440     0.6160 C.3   1 <1>   0.1200 
 17 C       -0.5730     4.9050     0.4090 C.ar  1 <1>  -0.1500 
 18 C       -3.3420    -1.3610     0.9410 C.2   1 <1>   0.9060 
 19 C       -5.6620    -1.0390     0.1310 C.3   1 <1>  -0.1600 
 20 C        0.1840    -0.7780     0.1780 C.3   1 <1>  -0.1600 
 21 O       -2.9570    -0.8850     2.0170 O.co2 1 <1>  -0.9000 
 22 O       -3.0650    -2.5300     0.6260 O.co2 1 <1>  -0.9000 
 23 C       -6.7490    -0.5560    -0.8430 C.3   1 <1>  -0.1600 
 24 C        0.6350    -1.6250     1.3720 C.3   1 <1>  -0.2400 
 25 C       -8.1060    -1.1710    -0.4860 C.3   1 <1>  -0.2400 
 26 H       -4.9440     0.2450    -2.7850 H     1 <1>   0.0800 
 27 H       -3.3150     0.1110    -3.3870 H     1 <1>   0.0800 
 28 H       -4.1400     2.9920    -0.4250 H     1 <1>   0.0800 
 29 H       -5.4350     2.0090    -1.0100 H     1 <1>   0.0800 
 30 H       -2.6620     4.9760    -2.2320 H     1 <1>   0.1500 
 31 H       -2.4890    -0.6950    -1.3270 H     1 <1>   0.0800 
 32 H       -3.0870     1.1970     0.6680 H     1 <1>   0.0800 
 33 H       -4.7180     1.1970     1.1970 H     1 <1>   0.0800 
 34 H        0.3470     3.1740     1.2000 H     1 <1>   0.1500 
 35 H       -1.6050     6.4830    -0.5960 H     1 <1>   0.1500 
 36 H       -3.6050    -2.6030    -1.1270 H     1 <1>   0.4000 
 37 H        0.7050     1.1220     1.0080 H     1 <1>   0.0800 
 38 H       -0.9540     0.6320     1.3560 H     1 <1>   0.0800 
 39 H       -0.1160     5.5600     1.1310 H     1 <1>   0.1500 
 40 H       -5.6350    -2.1140     0.0650 H     1 <1>   0.0800 
 41 H       -5.9770    -0.8160     1.1350 H     1 <1>   0.0800 
 42 H       -0.6800    -1.2470    -0.2560 H     1 <1>   0.0800 
 43 H        0.9660    -0.7420    -0.5590 H     1 <1>   0.0800 
 44 H       -6.8440     0.5100    -0.8080 H     1 <1>   0.0800 
 45 H       -6.4960    -0.8570    -1.8430 H     1 <1>   0.0800 
 46 H       -0.1680    -1.6950     2.0880 H     1 <1>   0.0800 
 47 H        1.4970    -1.1930     1.8480 H     1 <1>   0.0800 
 48 H        0.8760    -2.6200     1.0430 H     1 <1>   0.0800 
 49 H       -8.3990    -0.8830     0.5080 H     1 <1>   0.0800 
 50 H       -8.0510    -2.2450    -0.5340 H     1 <1>   0.0800 
 51 H       -8.8560    -0.8350    -1.1790 H     1 <1>   0.0800 
@<TRIPOS>BOND
  1   1   2  2   
  2   2   3  am  
  3   2   4  1   
  4   3   5  1   
  5   3   6  1   
  6   4   7  ar  
  7   4   8  ar  
  8   5   9  1   
  9   5  26  1   
 10   5  27  1   
 11   6  10  1   
 12   6  28  1   
 13   6  29  1   
 14   7  11  1   
 15   7  12  ar  
 16   8  13  ar  
 17   8  30  1   
 18   9  14  1   
 19   9  15  1   
 20   9  31  1   
 21  10  15  1   
 22  10  32  1   
 23  10  33  1   
 24  11  16  1   
 25  12  17  ar  
 26  12  34  1   
 27  13  17  ar  
 28  13  35  1   
 29  14  36  1   
 30  15  18  1   
 31  15  19  1   
 32  16  20  1   
 33  16  37  1   
 34  16  38  1   
 35  17  39  1   
 36  18  21  ar  
 37  18  22  ar  
 38  19  23  1   
 39  19  40  1   
 40  19  41  1   
 41  20  24  1   
 42  20  42  1   
 43  20  43  1   
 44  23  25  1   
 45  23  44  1   
 46  23  45  1   
 47  24  46  1   
 48  24  47  1   
 49  24  48  1   
 50  25  49  1   
 51  25  50  1   
 52  25  51  1   
@<TRIPOS>SUBSTRUCTURE
  1 ****  10 GROUP 4 **** **** 0

# MOE 2024.06 (io_trps.svl 2023.06)
