@<TRIPOS>MOLECULE
NONAME
25 26 1 0 0 
SMALL
USER_CHARGES


@<TRIPOS>ATOM
  1 O       -0.0190    -0.4180     0.0080 O.2   1 <1>  -0.5700 
  2 C       -0.0740    -1.6370     0.0060 C.2   1 <1>   0.7150 
  3 N        1.0670    -2.3640     0.0100 N.am  1 <1>  -0.5390 
  4 C       -1.3040    -2.3590     0.0000 C.2   1 <1>  -0.2370 
  5 C        1.1160    -3.7310     0.0080 C.2   1 <1>  -0.0410 
  6 N       -1.2890    -3.7400    -0.0020 N.pl3 1 <1>   0.3340 
  7 C       -2.6010    -1.9090    -0.0050 C.2   1 <1>  -0.1500 
  8 O        2.2650    -4.1550     0.0130 O.3   1 <1>  -0.8500 
  9 C       -0.0620    -4.5060     0.0020 C.2   1 <1>  -0.0170 
 10 C       -2.6070    -4.1090    -0.0090 C.2   1 <1>  -0.3020 
 11 C       -3.4250    -3.0200    -0.0110 C.2   1 <1>  -0.1500 
 12 C       -0.1030    -5.9110     0.0000 C.2   1 <1>   0.7060 
 13 O       -1.1490    -6.5870    -0.0050 O.2   1 <1>  -0.5700 
 14 O        1.0320    -6.6530     0.0040 O.3   1 <1>  -0.4300 
 15 C        1.0030    -8.0600     0.0020 C.3   1 <1>   0.1200 
 16 C        2.4460    -8.5560     0.0070 C.3   1 <1>  -0.2400 
 17 H        1.9680    -1.8990     0.0150 H     1 <1>   0.3700 
 18 H       -2.9170    -0.8790    -0.0050 H     1 <1>   0.1500 
 19 H       -2.9310    -5.1320    -0.0120 H     1 <1>   0.1500 
 20 H       -4.5010    -3.0060    -0.0150 H     1 <1>   0.1500 
 21 H        0.4840    -8.3880    -0.8830 H     1 <1>   0.0800 
 22 H        0.4770    -8.3900     0.8810 H     1 <1>   0.0800 
 23 H        2.9570    -8.1930    -0.8670 H     1 <1>   0.0800 
 24 H        2.4670    -9.6300     0.0060 H     1 <1>   0.0800 
 25 H        2.9500    -8.1950     0.8860 H     1 <1>   0.0800 
@<TRIPOS>BOND
  1   1   2  2   
  2   2   3  am  
  3   2   4  1   
  4   3   5  1   
  5   3  17  1   
  6   4   6  1   
  7   4   7  2   
  8   5   8  1   
  9   5   9  2   
 10   6   9  1   
 11   6  10  1   
 12   7  11  1   
 13   7  18  1   
 14   9  12  1   
 15  10  11  2   
 16  10  19  1   
 17  11  20  1   
 18  12  13  2   
 19  12  14  1   
 20  14  15  1   
 21  15  16  1   
 22  15  21  1   
 23  15  22  1   
 24  16  23  1   
 25  16  24  1   
 26  16  25  1   
@<TRIPOS>SUBSTRUCTURE
  1 ****   9 GROUP 4 **** **** 0

# MOE 2024.06 (io_trps.svl 2023.06)
