@<TRIPOS>MOLECULE
NONAME
55 58 1 0 0 
SMALL
USER_CHARGES


@<TRIPOS>ATOM
  1 O        0.1410    -0.8550     0.7270 O.3   1 <1>  -0.5600 
  2 C        0.7540    -2.1020     0.6300 C.3   1 <1>   0.2000 
  3 C       -1.1330    -0.8590     1.2950 C.3   1 <1>   0.0400 
  4 C        2.2010    -1.9490     0.1370 C.3   1 <1>   0.0000 
  5 C        0.0790    -3.0330    -0.3820 C.3   1 <1>  -0.1600 
  6 C        3.0750    -1.4940     1.3220 C.3   1 <1>   0.3430 
  7 C        2.3320    -0.9760    -1.0780 C.3   1 <1>  -0.1600 
  8 C        2.5090    -3.3830    -0.3230 C.3   1 <1>  -0.1600 
  9 C        1.2150    -3.8730    -0.9850 C.3   1 <1>  -0.1600 
 10 N        4.3330    -0.8730     0.8240 N.4   1 <1>  -0.9590 
 11 C        2.7680     0.4320    -0.6400 C.3   1 <1>  -0.1600 
 12 C        4.0920     0.4330     0.1370 C.3   1 <1>   0.3430 
 13 C        5.3900    -0.7880     1.8430 C.3   1 <1>   0.5230 
 14 C        6.6670    -0.6410     1.0580 C.2   1 <1>  -0.3320 
 15 N        7.3910     0.5240     1.0460 N.pl3 1 <1>   0.0330 
 16 C        7.2830    -1.5580     0.2690 C.2   1 <1>  -0.1810 
 17 C        8.4670     0.3540     0.2180 C.ar  1 <1>  -0.1520 
 18 C        8.4290    -0.9420    -0.2830 C.ar  1 <1>   0.0000 
 19 C        6.9080    -2.9980    -0.0310 C.3   1 <1>  -0.0590 
 20 C        9.4890     1.2410    -0.1370 C.ar  1 <1>  -0.1440 
 21 C        9.4280    -1.3720    -1.1620 C.ar  1 <1>  -0.1500 
 22 C       10.4630     0.7990    -1.0050 C.ar  1 <1>  -0.1500 
 23 C        9.5200     2.6520     0.4250 C.3   1 <1>  -0.0970 
 24 C       10.4340    -0.5040    -1.5160 C.ar  1 <1>  -0.1500 
 25 H        0.7450    -2.5660     1.6030 H     1 <1>   0.0800 
 26 H       -1.4710     0.1600     1.3680 H     1 <1>   0.0800 
 27 H       -1.0900    -1.2960     2.2770 H     1 <1>   0.0800 
 28 H       -1.8080    -1.4120     0.6640 H     1 <1>   0.0800 
 29 H       -0.6470    -3.6610     0.1040 H     1 <1>   0.0800 
 30 H       -0.4020    -2.4620    -1.1580 H     1 <1>   0.0800 
 31 H        3.2890    -2.3390     1.9550 H     1 <1>   0.0800 
 32 H        2.5250    -0.7670     1.8980 H     1 <1>   0.0800 
 33 H        3.0670    -1.3440    -1.7740 H     1 <1>   0.0800 
 34 H        1.4020    -0.9090    -1.6170 H     1 <1>   0.0800 
 35 H        3.3480    -3.4500    -0.9930 H     1 <1>   0.0800 
 36 H        2.7080    -4.0070     0.5320 H     1 <1>   0.0800 
 37 H        1.0640    -4.9250    -0.8100 H     1 <1>   0.0800 
 38 H        1.2570    -3.7060    -2.0490 H     1 <1>   0.0800 
 39 H        4.7260    -1.4920     0.1040 H     1 <1>   0.4500 
 40 H        2.0000     0.8620    -0.0200 H     1 <1>   0.0800 
 41 H        2.8640     1.0700    -1.5010 H     1 <1>   0.0800 
 42 H        4.0700     1.2350     0.8570 H     1 <1>   0.0800 
 43 H        4.9060     0.6220    -0.5460 H     1 <1>   0.0800 
 44 H        5.2300     0.0490     2.5040 H     1 <1>   0.0800 
 45 H        5.4290    -1.6970     2.4210 H     1 <1>   0.0800 
 46 H        7.2220     1.3880     1.5710 H     1 <1>   0.2700 
 47 H        7.7330    -3.6420     0.2210 H     1 <1>   0.0800 
 48 H        6.6970    -3.1110    -1.0800 H     1 <1>   0.0800 
 49 H        6.0520    -3.3090     0.5370 H     1 <1>   0.0800 
 50 H        9.4010    -2.3740    -1.5480 H     1 <1>   0.1500 
 51 H       11.2670     1.4480    -1.3040 H     1 <1>   0.1500 
 52 H       10.3730     3.1900     0.0520 H     1 <1>   0.0800 
 53 H        9.5840     2.6190     1.4970 H     1 <1>   0.0800 
 54 H        8.6320     3.1830     0.1360 H     1 <1>   0.0800 
 55 H       11.2110    -0.8170    -2.1910 H     1 <1>   0.1500 
@<TRIPOS>BOND
  1   1   2  1   
  2   1   3  1   
  3   2   4  1   
  4   2   5  1   
  5   2  25  1   
  6   3  26  1   
  7   3  27  1   
  8   3  28  1   
  9   4   6  1   
 10   4   7  1   
 11   4   8  1   
 12   5   9  1   
 13   5  29  1   
 14   5  30  1   
 15   6  10  1   
 16   6  31  1   
 17   6  32  1   
 18   7  11  1   
 19   7  33  1   
 20   7  34  1   
 21   8   9  1   
 22   8  35  1   
 23   8  36  1   
 24   9  37  1   
 25   9  38  1   
 26  10  12  1   
 27  10  13  1   
 28  10  39  1   
 29  11  12  1   
 30  11  40  1   
 31  11  41  1   
 32  12  42  1   
 33  12  43  1   
 34  13  14  1   
 35  13  44  1   
 36  13  45  1   
 37  14  15  1   
 38  14  16  2   
 39  15  17  1   
 40  15  46  1   
 41  16  18  1   
 42  16  19  1   
 43  17  18  ar  
 44  17  20  ar  
 45  18  21  ar  
 46  19  47  1   
 47  19  48  1   
 48  19  49  1   
 49  20  22  ar  
 50  20  23  1   
 51  21  24  ar  
 52  21  50  1   
 53  22  24  ar  
 54  22  51  1   
 55  23  52  1   
 56  23  53  1   
 57  23  54  1   
 58  24  55  1   
@<TRIPOS>SUBSTRUCTURE
  1 ****  10 GROUP 4 **** **** 0

# MOE 2024.06 (io_trps.svl 2023.06)
