@<TRIPOS>MOLECULE
NONAME
24 24 1 0 0 
SMALL
USER_CHARGES


@<TRIPOS>ATOM
  1 F        0.9850    -0.1370    -0.7190 F     1 <1>  -0.3400 
  2 C        1.2850     0.7830     0.1890 C.3   1 <1>   1.0200 
  3 F        0.2350     1.5910     0.2560 F     1 <1>  -0.3400 
  4 F        1.3440     0.1560     1.3570 F     1 <1>  -0.3400 
  5 C        2.5710     1.5510    -0.1410 C.3   1 <1>  -0.0160 
  6 C        3.9300     0.8180    -0.1220 C.ar  1 <1>  -0.1440 
  7 C        5.1260     1.5620    -0.1630 C.ar  1 <1>   0.0860 
  8 C        3.9890    -0.5710    -0.0650 C.ar  1 <1>  -0.1500 
  9 C        5.1830     3.0160    -0.2440 C.2   1 <1>   0.6340 
 10 C        6.3330     0.8560    -0.1280 C.ar  1 <1>  -0.1500 
 11 C        5.1990    -1.2370    -0.0350 C.ar  1 <1>  -0.1500 
 12 O        4.3630     3.6980    -0.8230 O.2   1 <1>  -0.5700 
 13 O        6.2090     3.6290     0.3560 O.3   1 <1>  -0.4300 
 14 C        6.3760    -0.5210    -0.0640 C.ar  1 <1>  -0.1500 
 15 C        6.3620     5.0340     0.3330 C.3   1 <1>   0.0400 
 16 H        2.6170     2.3590     0.5660 H     1 <1>   0.0800 
 17 H        2.4340     1.9840    -1.1140 H     1 <1>   0.0800 
 18 H        3.1020    -1.1790    -0.0390 H     1 <1>   0.1500 
 19 H        7.2620     1.3980    -0.1540 H     1 <1>   0.1500 
 20 H        5.2220    -2.3130     0.0120 H     1 <1>   0.1500 
 21 H        7.3220    -1.0350    -0.0390 H     1 <1>   0.1500 
 22 H        7.2540     5.2900     0.8760 H     1 <1>   0.0800 
 23 H        5.5020     5.4860     0.7960 H     1 <1>   0.0800 
 24 H        6.4450     5.3580    -0.6900 H     1 <1>   0.0800 
@<TRIPOS>BOND
  1   1   2  1   
  2   2   3  1   
  3   2   4  1   
  4   2   5  1   
  5   5   6  1   
  6   5  16  1   
  7   5  17  1   
  8   6   7  ar  
  9   6   8  ar  
 10   7   9  1   
 11   7  10  ar  
 12   8  11  ar  
 13   8  18  1   
 14   9  12  2   
 15   9  13  1   
 16  10  14  ar  
 17  10  19  1   
 18  11  14  ar  
 19  11  20  1   
 20  13  15  1   
 21  14  21  1   
 22  15  22  1   
 23  15  23  1   
 24  15  24  1   
@<TRIPOS>SUBSTRUCTURE
  1 ****   6 GROUP 4 **** **** 0

# MOE 2024.06 (io_trps.svl 2023.06)
