@<TRIPOS>MOLECULE
NONAME
44 45 1 0 0 
SMALL
USER_CHARGES


@<TRIPOS>ATOM
  1 F        2.2020     0.8040     2.1620 F     1 <1>  -0.1900 
  2 C        2.6150    -0.2140     1.4540 C.ar  1 <1>   0.1900 
  3 C        3.0540     0.0040     0.1600 C.ar  1 <1>  -0.1440 
  4 C        2.6070    -1.4660     2.0330 C.ar  1 <1>  -0.1500 
  5 C        3.4990    -1.0890    -0.5710 C.ar  1 <1>  -0.1500 
  6 C        3.0350     1.4020    -0.4320 C.3   1 <1>   0.4870 
  7 C        3.0570    -2.5450     1.2910 C.ar  1 <1>  -0.1500 
  8 C        3.5100    -2.3700    -0.0160 C.ar  1 <1>  -0.1440 
  9 N        4.0010     2.2650     0.3020 N.4   1 <1>  -0.9590 
 10 C        4.0120    -3.5610    -0.8570 C.3   1 <1>   1.1630 
 11 C        3.8200     3.6940    -0.0830 C.3   1 <1>   0.3430 
 12 C        5.4130     1.8030     0.1050 C.3   1 <1>   0.2630 
 13 F        5.1680    -3.2870    -1.4480 F     1 <1>  -0.3400 
 14 F        3.1610    -3.8720    -1.8240 F     1 <1>  -0.3400 
 15 F        4.2050    -4.6660    -0.1490 F     1 <1>  -0.3400 
 16 C        4.4940     4.6220     0.9270 C.3   1 <1>  -0.1600 
 17 C        4.2990     6.0790     0.5050 C.3   1 <1>   0.2000 
 18 O        4.6650     6.1650    -0.8380 O.3   1 <1>  -0.5600 
 19 C        5.1620     7.0400     1.3370 C.3   1 <1>  -0.1600 
 20 C        4.4740     7.4210    -1.4240 C.3   1 <1>   0.1200 
 21 C        5.0670     8.4700     0.7940 C.3   1 <1>  -0.1600 
 22 C        5.3460     8.4620    -0.7130 C.3   1 <1>  -0.1600 
 23 H        2.2560    -1.5970     3.0430 H     1 <1>   0.1500 
 24 H        3.8410    -0.9560    -1.5860 H     1 <1>   0.1500 
 25 H        2.0390     1.8050    -0.3380 H     1 <1>   0.0800 
 26 H        3.2890     1.3660    -1.4780 H     1 <1>   0.0800 
 27 H        3.0480    -3.5240     1.7450 H     1 <1>   0.1500 
 28 H        3.7580     2.1680     1.3000 H     1 <1>   0.4500 
 29 H        2.7700     3.9340    -0.1210 H     1 <1>   0.0800 
 30 H        4.2360     3.8680    -1.0640 H     1 <1>   0.0800 
 31 H        5.7000     1.9010    -0.9290 H     1 <1>   0.0800 
 32 H        5.5140     0.7690     0.3960 H     1 <1>   0.0800 
 33 H        6.0890     2.3890     0.7050 H     1 <1>   0.0800 
 34 H        5.5490     4.4250     0.9730 H     1 <1>   0.0800 
 35 H        4.0700     4.4840     1.9050 H     1 <1>   0.0800 
 36 H        3.2590     6.3520     0.5840 H     1 <1>   0.0800 
 37 H        6.1880     6.7180     1.3080 H     1 <1>   0.0800 
 38 H        4.8400     7.0240     2.3640 H     1 <1>   0.0800 
 39 H        3.4300     7.6800    -1.3570 H     1 <1>   0.0800 
 40 H        4.7500     7.3480    -2.4620 H     1 <1>   0.0800 
 41 H        5.7740     9.1070     1.2980 H     1 <1>   0.0800 
 42 H        4.0790     8.8580     0.9720 H     1 <1>   0.0800 
 43 H        5.1520     9.4370    -1.1250 H     1 <1>   0.0800 
 44 H        6.3810     8.2290    -0.8940 H     1 <1>   0.0800 
@<TRIPOS>BOND
  1   1   2  1   
  2   2   3  ar  
  3   2   4  ar  
  4   3   5  ar  
  5   3   6  1   
  6   4   7  ar  
  7   4  23  1   
  8   5   8  ar  
  9   5  24  1   
 10   6   9  1   
 11   6  25  1   
 12   6  26  1   
 13   7   8  ar  
 14   7  27  1   
 15   8  10  1   
 16   9  11  1   
 17   9  12  1   
 18   9  28  1   
 19  10  13  1   
 20  10  14  1   
 21  10  15  1   
 22  11  16  1   
 23  11  29  1   
 24  11  30  1   
 25  12  31  1   
 26  12  32  1   
 27  12  33  1   
 28  16  17  1   
 29  16  34  1   
 30  16  35  1   
 31  17  18  1   
 32  17  19  1   
 33  17  36  1   
 34  18  20  1   
 35  19  21  1   
 36  19  37  1   
 37  19  38  1   
 38  20  22  1   
 39  20  39  1   
 40  20  40  1   
 41  21  22  1   
 42  21  41  1   
 43  21  42  1   
 44  22  43  1   
 45  22  44  1   
@<TRIPOS>SUBSTRUCTURE
  1 ****   9 GROUP 4 **** **** 0

# MOE 2024.06 (io_trps.svl 2023.06)
