@<TRIPOS>MOLECULE
NONAME
46 48 1 0 0 
SMALL
USER_CHARGES


@<TRIPOS>ATOM
  1 O       -1.3320     0.8790    -1.6260 O.2   1 <1>  -0.5700 
  2 C       -1.4410     1.6520    -0.6770 C.2   1 <1>   0.5440 
  3 N       -2.3780     1.2950     0.2920 N.am  1 <1>  -0.6600 
  4 C       -0.6440     2.8610    -0.6390 C.ar  1 <1>   0.3960 
  5 C       -2.8740    -0.1090     0.3760 C.3   1 <1>   0.1400 
  6 C       -2.9650     2.2910     1.2370 C.3   1 <1>   0.1400 
  7 N       -0.2660     3.4150     0.5460 N.ar  1 <1>  -0.6200 
  8 C       -0.2730     3.4560    -1.8550 C.ar  1 <1>   0.1600 
  9 C       -4.0840    -0.3250    -0.5450 C.3   1 <1>   0.1400 
 10 C       -4.4770     2.1310     1.4450 C.3   1 <1>  -0.1600 
 11 C        0.4160     4.5190     0.4070 C.ar  1 <1>   0.1600 
 12 N        0.4030     4.5680    -2.0050 N.ar  1 <1>  -0.6200 
 13 N       -5.3300     0.3170    -0.0090 N.am  1 <1>  -0.6600 
 14 C       -5.2500     1.7960     0.1650 C.3   1 <1>   0.1400 
 15 C        0.7510     5.1200    -0.8300 C.ar  1 <1>   0.1390 
 16 C       -6.4810    -0.3560     0.3200 C.2   1 <1>   0.5690 
 17 O        1.3810     6.1890    -0.8520 O.3   1 <1>  -0.8290 
 18 O       -7.4260     0.2110     0.8170 O.2   1 <1>  -0.5700 
 19 C       -6.5970    -1.8530     0.0680 C.3   1 <1>  -0.0990 
 20 C       -7.9920    -2.4310     0.3540 C.3   1 <1>  -0.0170 
 21 C       -8.0140    -3.9220     0.0560 C.ar  1 <1>  -0.1430 
 22 C       -8.2130    -4.3810    -1.2380 C.ar  1 <1>   0.1600 
 23 C       -7.8290    -4.8440     1.0660 C.ar  1 <1>  -0.1500 
 24 N       -8.2350    -5.6550    -1.5980 N.ar  1 <1>  -0.6200 
 25 C       -7.8540    -6.1760     0.7110 C.ar  1 <1>  -0.1500 
 26 C       -8.0570    -6.5210    -0.6140 C.ar  1 <1>   0.1600 
 27 H       -3.1260    -0.3590     1.3910 H     1 <1>   0.0800 
 28 H       -2.0840    -0.7720     0.0660 H     1 <1>   0.0800 
 29 H       -2.7980     3.2810     0.8480 H     1 <1>   0.0800 
 30 H       -2.4540     2.2250     2.1820 H     1 <1>   0.0800 
 31 H       -0.5760     2.9630    -2.7590 H     1 <1>   0.1500 
 32 H       -4.2220    -1.3820    -0.6620 H     1 <1>   0.0800 
 33 H       -3.8650     0.0780    -1.5190 H     1 <1>   0.0800 
 34 H       -4.8460     3.0650     1.8280 H     1 <1>   0.0800 
 35 H       -4.6760     1.3900     2.1990 H     1 <1>   0.0800 
 36 H        0.7630     5.0420     1.2770 H     1 <1>   0.1500 
 37 H       -4.7790     2.2440    -0.6930 H     1 <1>   0.0800 
 38 H       -6.2430     2.2060     0.2380 H     1 <1>   0.0800 
 39 H       -5.8800    -2.3580     0.6880 H     1 <1>   0.0800 
 40 H       -6.3550    -2.0440    -0.9610 H     1 <1>   0.0800 
 41 H       -8.7250    -1.9280    -0.2540 H     1 <1>   0.0800 
 42 H       -8.2520    -2.2580     1.3840 H     1 <1>   0.0800 
 43 H       -8.3600    -3.6600    -2.0240 H     1 <1>   0.1500 
 44 H       -7.6720    -4.5430     2.0870 H     1 <1>   0.1500 
 45 H       -7.7180    -6.9420     1.4520 H     1 <1>   0.1500 
 46 H       -8.0740    -7.5640    -0.8790 H     1 <1>   0.1500 
@<TRIPOS>BOND
  1   1   2  2   
  2   2   3  am  
  3   2   4  1   
  4   3   5  1   
  5   3   6  1   
  6   4   7  ar  
  7   4   8  ar  
  8   5   9  1   
  9   5  27  1   
 10   5  28  1   
 11   6  10  1   
 12   6  29  1   
 13   6  30  1   
 14   7  11  ar  
 15   8  12  ar  
 16   8  31  1   
 17   9  13  1   
 18   9  32  1   
 19   9  33  1   
 20  10  14  1   
 21  10  34  1   
 22  10  35  1   
 23  11  15  ar  
 24  11  36  1   
 25  12  15  ar  
 26  13  14  1   
 27  13  16  am  
 28  14  37  1   
 29  14  38  1   
 30  15  17  1   
 31  16  18  2   
 32  16  19  1   
 33  19  20  1   
 34  19  39  1   
 35  19  40  1   
 36  20  21  1   
 37  20  41  1   
 38  20  42  1   
 39  21  22  ar  
 40  21  23  ar  
 41  22  24  ar  
 42  22  43  1   
 43  23  25  ar  
 44  23  44  1   
 45  24  26  ar  
 46  25  26  ar  
 47  25  45  1   
 48  26  46  1   
@<TRIPOS>SUBSTRUCTURE
  1 ****   9 GROUP 4 **** **** 0

# MOE 2024.06 (io_trps.svl 2023.06)
