@<TRIPOS>MOLECULE
NONAME
46 48 1 0 0 
SMALL
USER_CHARGES


@<TRIPOS>ATOM
  1 O       -0.3220     0.1910     0.6590 O.2   1 <1>  -0.5700 
  2 C       -1.3600     0.7860     0.4410 C.2   1 <1>   0.5440 
  3 N       -2.5040     0.0560     0.2130 N.am  1 <1>  -0.6600 
  4 C       -1.3690     2.2360     0.4100 C.ar  1 <1>   0.0860 
  5 C       -3.7430     0.5840    -0.4110 C.3   1 <1>   0.1400 
  6 C       -2.5150    -1.4270     0.2260 C.3   1 <1>   0.1400 
  7 C       -2.2740     2.9750     1.1670 C.ar  1 <1>  -0.1500 
  8 C       -0.4670     2.9400    -0.3820 C.ar  1 <1>  -0.1500 
  9 C       -4.4930    -0.6530    -0.9040 C.3   1 <1>   0.2000 
 10 C       -3.9650    -1.8150    -0.0660 C.3   1 <1>  -0.0800 
 11 C       -2.3010     4.3570     1.1220 C.ar  1 <1>   0.0830 
 12 C       -0.4740     4.3220    -0.4400 C.ar  1 <1>   0.0830 
 13 O       -5.8620    -0.5270    -0.7280 O.3   1 <1>  -0.6800 
 14 C       -4.1260    -3.1740    -0.7690 C.3   1 <1>  -0.0170 
 15 O       -3.2360     4.9670     1.8920 O.3   1 <1>  -0.3630 
 16 C       -1.3980     5.0390     0.3130 C.ar  1 <1>  -0.1500 
 17 O        0.4460     4.8990    -1.2520 O.3   1 <1>  -0.3630 
 18 C       -3.6410    -4.3200     0.1050 C.ar  1 <1>   0.1660 
 19 C       -3.3210     6.3730     1.9760 C.3   1 <1>   0.0400 
 20 C        0.5850     6.3000    -1.3360 C.3   1 <1>   0.0400 
 21 N       -2.3410    -4.5650     0.0900 N.ar  1 <1>  -0.6200 
 22 C       -4.5520    -5.0470     0.8700 C.ar  1 <1>   0.1600 
 23 C       -2.0150    -5.5710     0.8840 C.ar  1 <1>   0.1600 
 24 N       -4.2290    -6.0530     1.6660 N.ar  1 <1>  -0.6200 
 25 C       -2.9280    -6.2900     1.6460 C.ar  1 <1>   0.1600 
 26 H       -4.3180     1.1100     0.3310 H     1 <1>   0.0800 
 27 H       -3.5030     1.2390    -1.2310 H     1 <1>   0.0800 
 28 H       -1.8530    -1.7890    -0.5440 H     1 <1>   0.0800 
 29 H       -2.1830    -1.8040     1.1790 H     1 <1>   0.0800 
 30 H       -2.9680     2.4640     1.8080 H     1 <1>   0.1500 
 31 H        0.2560     2.3950    -0.9630 H     1 <1>   0.1500 
 32 H       -4.2960    -0.8050    -1.9520 H     1 <1>   0.0800 
 33 H       -4.4810    -1.8380     0.8780 H     1 <1>   0.0800 
 34 H       -6.0700    -0.3580     0.2110 H     1 <1>   0.4000 
 35 H       -3.5740    -3.1790    -1.6920 H     1 <1>   0.0800 
 36 H       -5.1630    -3.3240    -1.0130 H     1 <1>   0.0800 
 37 H       -1.4130     6.1080     0.2710 H     1 <1>   0.1500 
 38 H       -4.1140     6.6190     2.6600 H     1 <1>   0.0800 
 39 H       -3.5450     6.7680     1.0010 H     1 <1>   0.0800 
 40 H       -2.3880     6.7580     2.3450 H     1 <1>   0.0800 
 41 H        1.3920     6.5150    -2.0130 H     1 <1>   0.0800 
 42 H        0.8150     6.6880    -0.3600 H     1 <1>   0.0800 
 43 H       -0.3300     6.7200    -1.7150 H     1 <1>   0.0800 
 44 H       -5.5940    -4.7840     0.8230 H     1 <1>   0.1500 
 45 H       -0.9750    -5.8390     0.9350 H     1 <1>   0.1500 
 46 H       -2.5660    -7.0930     2.2640 H     1 <1>   0.1500 
@<TRIPOS>BOND
  1   1   2  2   
  2   2   3  am  
  3   2   4  1   
  4   3   5  1   
  5   3   6  1   
  6   4   7  ar  
  7   4   8  ar  
  8   5   9  1   
  9   5  26  1   
 10   5  27  1   
 11   6  10  1   
 12   6  28  1   
 13   6  29  1   
 14   7  11  ar  
 15   7  30  1   
 16   8  12  ar  
 17   8  31  1   
 18   9  10  1   
 19   9  13  1   
 20   9  32  1   
 21  10  14  1   
 22  10  33  1   
 23  11  15  1   
 24  11  16  ar  
 25  12  16  ar  
 26  12  17  1   
 27  13  34  1   
 28  14  18  1   
 29  14  35  1   
 30  14  36  1   
 31  15  19  1   
 32  16  37  1   
 33  17  20  1   
 34  18  21  ar  
 35  18  22  ar  
 36  19  38  1   
 37  19  39  1   
 38  19  40  1   
 39  20  41  1   
 40  20  42  1   
 41  20  43  1   
 42  21  23  ar  
 43  22  24  ar  
 44  22  44  1   
 45  23  25  ar  
 46  23  45  1   
 47  24  25  ar  
 48  25  46  1   
@<TRIPOS>SUBSTRUCTURE
  1 ****   3 GROUP 4 **** **** 0

# MOE 2024.06 (io_trps.svl 2023.06)
