@<TRIPOS>MOLECULE
NONAME
49 51 1 0 0 
SMALL
USER_CHARGES


@<TRIPOS>ATOM
  1 O       -1.6320     0.7780     2.1350 O.2   1 <1>  -0.5700 
  2 C       -1.5760     1.3400     1.0560 C.2   1 <1>   0.7160 
  3 N       -2.3610     0.8620     0.0250 N.am  1 <1>  -0.6600 
  4 C       -0.7050     2.4820     0.9050 C.2   1 <1>  -0.0860 
  5 C       -2.9500    -0.5090     0.1190 C.3   1 <1>   0.1400 
  6 C       -2.7620     1.7070    -1.1380 C.3   1 <1>   0.1400 
  7 C       -0.3570     3.3460     1.9460 C.2   1 <1>   0.1390 
  8 C       -0.0210     2.9940    -0.1600 C.2   1 <1>  -0.3020 
  9 C       -4.2780    -0.4960     0.8920 C.3   1 <1>   0.1400 
 10 C       -4.2540     1.6260    -1.4910 C.3   1 <1>  -0.1600 
 11 N        0.4380     4.3000     1.5740 N.2   1 <1>  -0.7070 
 12 N        0.6490     4.0750     0.2670 N.pl3 1 <1>   0.3000 
 13 N       -5.3870     0.1040     0.0850 N.am  1 <1>  -0.6600 
 14 C       -5.1910     1.5340    -0.2810 C.3   1 <1>   0.1400 
 15 C       -6.5030    -0.5730    -0.3410 C.2   1 <1>   0.5690 
 16 O       -7.3660    -0.0290    -0.9900 O.2   1 <1>  -0.5700 
 17 C       -6.6880    -2.0430    -0.0090 C.3   1 <1>  -0.0990 
 18 C       -7.8860    -2.6690    -0.7350 C.3   1 <1>   0.0960 
 19 N       -8.0380    -4.0820    -0.3400 N.pl3 1 <1>   0.3140 
 20 N       -7.1270    -5.0040    -0.7060 N.2   1 <1>  -0.7070 
 21 C       -9.0160    -4.6340     0.4170 C.2   1 <1>  -0.3320 
 22 C       -7.5450    -6.1130    -0.1860 C.2   1 <1>   0.1080 
 23 C       -8.7230    -5.9460     0.5310 C.2   1 <1>  -0.1500 
 24 C      -10.1980    -3.8840     1.0070 C.3   1 <1>  -0.0600 
 25 C       -6.8050    -7.4170    -0.3610 C.3   1 <1>  -0.0590 
 26 H       -2.2570    -1.1460     0.6420 H     1 <1>   0.0800 
 27 H       -3.0950    -0.9250    -0.8620 H     1 <1>   0.0800 
 28 H       -2.1760     1.4270    -1.9960 H     1 <1>   0.0800 
 29 H       -2.5430     2.7370    -0.9130 H     1 <1>   0.0800 
 30 H       -0.7150     3.2300     2.9570 H     1 <1>   0.1500 
 31 H        0.0220     2.6370    -1.1720 H     1 <1>   0.1500 
 32 H       -4.1560     0.0630     1.8040 H     1 <1>   0.0800 
 33 H       -4.5140    -1.5050     1.1740 H     1 <1>   0.0800 
 34 H       -4.4350     0.7970    -2.1530 H     1 <1>   0.0800 
 35 H       -4.5030     2.5150    -2.0410 H     1 <1>   0.0800 
 36 H        1.2640     4.6790    -0.2940 H     1 <1>   0.2700 
 37 H       -6.1400     1.9750    -0.5360 H     1 <1>   0.0800 
 38 H       -4.7940     2.0820     0.5570 H     1 <1>   0.0800 
 39 H       -6.8290    -2.1380     1.0510 H     1 <1>   0.0800 
 40 H       -5.8030    -2.5770    -0.3010 H     1 <1>   0.0800 
 41 H       -7.7330    -2.6320    -1.7980 H     1 <1>   0.0800 
 42 H       -8.7880    -2.1360    -0.5010 H     1 <1>   0.0800 
 43 H       -9.2610    -6.7160     1.0530 H     1 <1>   0.1500 
 44 H       -9.8540    -3.0980     1.6560 H     1 <1>   0.0800 
 45 H      -10.8130    -4.5550     1.5790 H     1 <1>   0.0800 
 46 H      -10.7970    -3.4570     0.2220 H     1 <1>   0.0800 
 47 H       -5.8020    -7.3120     0.0060 H     1 <1>   0.0800 
 48 H       -6.7700    -7.6700    -1.4050 H     1 <1>   0.0800 
 49 H       -7.2990    -8.2050     0.1770 H     1 <1>   0.0800 
@<TRIPOS>BOND
  1   1   2  2   
  2   2   3  am  
  3   2   4  1   
  4   3   5  1   
  5   3   6  1   
  6   4   7  1   
  7   4   8  2   
  8   5   9  1   
  9   5  26  1   
 10   5  27  1   
 11   6  10  1   
 12   6  28  1   
 13   6  29  1   
 14   7  11  2   
 15   7  30  1   
 16   8  12  1   
 17   8  31  1   
 18   9  13  1   
 19   9  32  1   
 20   9  33  1   
 21  10  14  1   
 22  10  34  1   
 23  10  35  1   
 24  11  12  1   
 25  12  36  1   
 26  13  14  1   
 27  13  15  am  
 28  14  37  1   
 29  14  38  1   
 30  15  16  2   
 31  15  17  1   
 32  17  18  1   
 33  17  39  1   
 34  17  40  1   
 35  18  19  1   
 36  18  41  1   
 37  18  42  1   
 38  19  20  1   
 39  19  21  1   
 40  20  22  2   
 41  21  23  2   
 42  21  24  1   
 43  22  23  1   
 44  22  25  1   
 45  23  43  1   
 46  24  44  1   
 47  24  45  1   
 48  24  46  1   
 49  25  47  1   
 50  25  48  1   
 51  25  49  1   
@<TRIPOS>SUBSTRUCTURE
  1 ****   9 GROUP 4 **** **** 0

# MOE 2024.06 (io_trps.svl 2023.06)
