@<TRIPOS>MOLECULE
NONAME
50 52 1 0 0 
SMALL
USER_CHARGES


@<TRIPOS>ATOM
  1 CL      -0.6380     1.0070    -0.0280 Cl    1 <1>  -0.1770 
  2 C       -1.9150    -0.1840    -0.1180 C.ar  1 <1>   0.1770 
  3 C       -1.6070    -1.5230    -0.3140 C.ar  1 <1>  -0.1440 
  4 C       -3.2200     0.2490     0.0100 C.ar  1 <1>  -0.1500 
  5 C       -2.6520    -2.4320    -0.3810 C.ar  1 <1>  -0.1500 
  6 C       -0.1670    -1.9920    -0.4530 C.3   1 <1>  -0.0960 
  7 C       -4.2670    -0.6600    -0.0540 C.ar  1 <1>   0.1170 
  8 C       -3.9620    -2.0030    -0.2540 C.ar  1 <1>  -0.1500 
  9 N       -5.5810    -0.1870     0.0650 N.am  1 <1>  -0.5470 
 10 C       -6.7330    -0.8030     0.4670 C.2   1 <1>   0.6900 
 11 O       -6.7150    -1.9310     0.9230 O.2   1 <1>  -0.5700 
 12 N       -7.9110    -0.1070     0.3760 N.am  1 <1>  -0.6600 
 13 C       -9.1310    -0.6060     1.0740 C.3   1 <1>   0.1400 
 14 C       -8.0800     1.1030    -0.4820 C.3   1 <1>   0.1400 
 15 C       -9.9920     0.5750     1.5300 C.3   1 <1>  -0.1600 
 16 C       -9.5460     1.2850    -0.8800 C.3   1 <1>  -0.1600 
 17 C      -10.4490     1.4790     0.3570 C.3   1 <1>   0.2800 
 18 O      -10.2010     2.8060     0.7790 O.3   1 <1>  -0.5600 
 19 C      -11.9630     1.2500     0.0430 C.3   1 <1>   0.2000 
 20 C      -11.2570     3.7220     0.8420 C.3   1 <1>   0.1200 
 21 O      -12.2090    -0.0220    -0.4880 O.3   1 <1>  -0.6800 
 22 C      -12.6050     2.3740    -0.8250 C.3   1 <1>   0.2800 
 23 C      -11.9810     3.7430    -0.5050 C.3   1 <1>  -0.1600 
 24 O      -13.9400     2.4350    -0.4670 O.3   1 <1>  -0.6800 
 25 C      -12.6110     2.1210    -2.3400 C.3   1 <1>  -0.2400 
 26 H       -3.4120     1.2930     0.1640 H     1 <1>   0.1500 
 27 H       -2.4540    -3.4790    -0.5320 H     1 <1>   0.1500 
 28 H       -0.1200    -3.0570    -0.5960 H     1 <1>   0.0800 
 29 H        0.3870    -1.7430     0.4350 H     1 <1>   0.0800 
 30 H        0.2960    -1.5120    -1.2960 H     1 <1>   0.0800 
 31 H       -4.7570    -2.7250    -0.3130 H     1 <1>   0.1500 
 32 H       -5.7050     0.8120    -0.0460 H     1 <1>   0.3700 
 33 H       -9.6920    -1.2360     0.4040 H     1 <1>   0.0800 
 34 H       -8.8480    -1.1950     1.9310 H     1 <1>   0.0800 
 35 H       -7.7490     1.9710     0.0630 H     1 <1>   0.0800 
 36 H       -7.4830     1.0020    -1.3730 H     1 <1>   0.0800 
 37 H       -9.4150     1.1470     2.2360 H     1 <1>   0.0800 
 38 H      -10.8430     0.1840     2.0570 H     1 <1>   0.0800 
 39 H       -9.8510     0.4170    -1.4380 H     1 <1>   0.0800 
 40 H       -9.6310     2.1330    -1.5310 H     1 <1>   0.0800 
 41 H      -12.4690     1.2650     0.9930 H     1 <1>   0.0800 
 42 H      -11.9170     3.4400     1.6460 H     1 <1>   0.0800 
 43 H      -10.8360     4.6880     1.0620 H     1 <1>   0.0800 
 44 H      -13.1730    -0.1070    -0.6360 H     1 <1>   0.4000 
 45 H      -11.2520     4.0020    -1.2520 H     1 <1>   0.0800 
 46 H      -12.7280     4.5170    -0.5080 H     1 <1>   0.0800 
 47 H      -14.4050     3.0710    -1.0420 H     1 <1>   0.4000 
 48 H      -11.6100     1.9900    -2.7030 H     1 <1>   0.0800 
 49 H      -13.0460     2.9530    -2.8630 H     1 <1>   0.0800 
 50 H      -13.1650     1.2310    -2.5780 H     1 <1>   0.0800 
@<TRIPOS>BOND
  1   1   2  1   
  2   2   3  ar  
  3   2   4  ar  
  4   3   5  ar  
  5   3   6  1   
  6   4   7  ar  
  7   4  26  1   
  8   5   8  ar  
  9   5  27  1   
 10   6  28  1   
 11   6  29  1   
 12   6  30  1   
 13   7   8  ar  
 14   7   9  1   
 15   8  31  1   
 16   9  10  am  
 17   9  32  1   
 18  10  11  2   
 19  10  12  am  
 20  12  13  1   
 21  12  14  1   
 22  13  15  1   
 23  13  33  1   
 24  13  34  1   
 25  14  16  1   
 26  14  35  1   
 27  14  36  1   
 28  15  17  1   
 29  15  37  1   
 30  15  38  1   
 31  16  17  1   
 32  16  39  1   
 33  16  40  1   
 34  17  18  1   
 35  17  19  1   
 36  18  20  1   
 37  19  21  1   
 38  19  22  1   
 39  19  41  1   
 40  20  23  1   
 41  20  42  1   
 42  20  43  1   
 43  21  44  1   
 44  22  23  1   
 45  22  24  1   
 46  22  25  1   
 47  23  45  1   
 48  23  46  1   
 49  24  47  1   
 50  25  48  1   
 51  25  49  1   
 52  25  50  1   
@<TRIPOS>SUBSTRUCTURE
  1 ****  12 GROUP 4 **** **** 0

# MOE 2024.06 (io_trps.svl 2023.06)
