@<TRIPOS>MOLECULE
NONAME
47 49 1 0 0 
SMALL
USER_CHARGES


@<TRIPOS>ATOM
  1 O       -0.4050     0.9530     0.3610 O.2   1 <1>  -0.5700 
  2 C       -0.3660     2.1570     0.3480 C.2   1 <1>   0.5690 
  3 N       -1.2950     2.8870     1.0010 N.am  1 <1>  -0.7300 
  4 C        0.7180     2.8870    -0.4430 C.3   1 <1>   0.1810 
  5 C       -1.3790     4.3690     0.9370 C.3   1 <1>   0.3640 
  6 O        0.9250     4.1990     0.0280 O.3   1 <1>  -0.5600 
  7 C       -2.7610     4.7340     0.3960 C.ar  1 <1>  -0.1440 
  8 C       -0.2490     5.0090     0.0810 C.3   1 <1>   0.2610 
  9 C       -3.5000     5.7370     1.0090 C.ar  1 <1>  -0.1500 
 10 C       -3.3020     4.0830    -0.7070 C.ar  1 <1>  -0.1500 
 11 C        0.0990     6.3980     0.6340 C.2   1 <1>   0.5690 
 12 C       -4.7530     6.0810     0.5330 C.ar  1 <1>  -0.1500 
 13 C       -4.5550     4.4260    -1.1840 C.ar  1 <1>  -0.1500 
 14 O       -0.7680     7.2270     0.7720 O.2   1 <1>  -0.5700 
 15 N        1.3910     6.6660     0.9650 N.am  1 <1>  -0.7300 
 16 C       -5.2820     5.4260    -0.5630 C.ar  1 <1>  -0.1500 
 17 C        1.9280     7.9670     1.4310 C.3   1 <1>   0.1400 
 18 C        2.9680     8.5230     0.4390 C.3   1 <1>   0.0000 
 19 C        2.3230     8.9630    -0.9110 C.3   1 <1>   0.0000 
 20 C        3.2740    10.0250     0.7240 C.3   1 <1>   0.0000 
 21 C        4.2160     7.6030     0.3220 C.3   1 <1>  -0.1600 
 22 C        3.0440    10.3300    -0.7790 C.3   1 <1>   0.0000 
 23 C        5.3520     8.0720    -0.6010 C.3   1 <1>  -0.2400 
 24 H       -2.0580     2.4000     1.4730 H     1 <1>   0.3700 
 25 H        0.4420     2.9330    -1.4810 H     1 <1>   0.0800 
 26 H        1.6460     2.3530    -0.3510 H     1 <1>   0.0800 
 27 H       -1.2920     4.7420     1.9440 H     1 <1>   0.0800 
 28 H       -0.5970     5.1380    -0.9280 H     1 <1>   0.0800 
 29 H       -3.1010     6.2670     1.8570 H     1 <1>   0.1500 
 30 H       -2.7540     3.3010    -1.2040 H     1 <1>   0.1500 
 31 H       -5.3140     6.8630     1.0150 H     1 <1>   0.1500 
 32 H       -4.9650     3.9150    -2.0370 H     1 <1>   0.1500 
 33 H        2.0710     5.9160     0.8050 H     1 <1>   0.3700 
 34 H       -6.2570     5.6940    -0.9330 H     1 <1>   0.1500 
 35 H        1.1170     8.6670     1.5410 H     1 <1>   0.0800 
 36 H        2.3820     7.8350     2.3980 H     1 <1>   0.0800 
 37 H        2.6370     8.3880    -1.7640 H     1 <1>   0.0000 
 38 H        1.2540     9.0720    -0.8540 H     1 <1>   0.0000 
 39 H        2.5310    10.5000     1.3410 H     1 <1>   0.0000 
 40 H        4.2760    10.2240     1.0590 H     1 <1>   0.0000 
 41 H        4.6250     7.4640     1.3070 H     1 <1>   0.0800 
 42 H        3.8970     6.6370    -0.0280 H     1 <1>   0.0800 
 43 H        2.3960    11.1710    -0.9490 H     1 <1>   0.0000 
 44 H        3.9580    10.3810    -1.3430 H     1 <1>   0.0000 
 45 H        5.7590     9.0110    -0.2720 H     1 <1>   0.0800 
 46 H        5.0090     8.1750    -1.6150 H     1 <1>   0.0800 
 47 H        6.1460     7.3470    -0.5930 H     1 <1>   0.0800 
@<TRIPOS>BOND
  1   1   2  2   
  2   2   3  am  
  3   2   4  1   
  4   3   5  1   
  5   3  24  1   
  6   4   6  1   
  7   4  25  1   
  8   4  26  1   
  9   5   7  1   
 10   5   8  1   
 11   5  27  1   
 12   6   8  1   
 13   7   9  ar  
 14   7  10  ar  
 15   8  11  1   
 16   8  28  1   
 17   9  12  ar  
 18   9  29  1   
 19  10  13  ar  
 20  10  30  1   
 21  11  14  2   
 22  11  15  am  
 23  12  16  ar  
 24  12  31  1   
 25  13  16  ar  
 26  13  32  1   
 27  15  17  1   
 28  15  33  1   
 29  16  34  1   
 30  17  18  1   
 31  17  35  1   
 32  17  36  1   
 33  18  19  1   
 34  18  20  1   
 35  18  21  1   
 36  19  22  1   
 37  19  37  1   
 38  19  38  1   
 39  20  22  1   
 40  20  39  1   
 41  20  40  1   
 42  21  23  1   
 43  21  41  1   
 44  21  42  1   
 45  22  43  1   
 46  22  44  1   
 47  23  45  1   
 48  23  46  1   
 49  23  47  1   
@<TRIPOS>SUBSTRUCTURE
  1 ****  11 GROUP 4 **** **** 0

# MOE 2024.06 (io_trps.svl 2023.06)
