@<TRIPOS>MOLECULE
NONAME
47 49 1 0 0 
SMALL
USER_CHARGES


@<TRIPOS>ATOM
  1 O       -4.2460     0.8470     1.7490 O.2   1 <1>  -0.5700 
  2 C       -3.2530     1.4670     1.4280 C.2   1 <1>   0.6900 
  3 N       -3.2340     2.4740     0.5060 N.am  1 <1>  -0.4200 
  4 N       -2.0170     1.1640     1.8670 N.am  1 <1>  -0.7300 
  5 C       -1.9410     2.7930     0.2250 C.2   1 <1>   0.5690 
  6 C       -4.3950     2.8840    -0.3330 C.3   1 <1>   0.2010 
  7 C       -1.0190     1.9170     1.0960 C.3   1 <1>   0.3610 
  8 O       -1.5760     3.6160    -0.5810 O.2   1 <1>  -0.5700 
  9 C       -4.7200     1.8330    -1.3900 C.2   1 <1>   0.5690 
 10 C       -0.1550     2.7240     2.0660 C.3   1 <1>  -0.2400 
 11 C       -0.1860     0.9270     0.2780 C.3   1 <1>  -0.2400 
 12 O       -4.7460     2.1380    -2.5580 O.2   1 <1>  -0.5700 
 13 N       -4.9280     0.5580    -0.9860 N.am  1 <1>  -0.7300 
 14 C       -4.7740    -0.6340    -1.8430 C.3   1 <1>   0.2200 
 15 C       -5.1860    -1.8880    -1.0850 C.3   1 <1>  -0.0800 
 16 C       -3.2870    -0.9100    -2.0390 C.3   1 <1>   0.1200 
 17 C       -3.9310    -2.2180    -0.2670 C.3   1 <1>   0.1200 
 18 C       -6.4720    -1.7780    -0.2440 C.3   1 <1>  -0.0170 
 19 O       -2.8640    -1.5360    -0.8640 O.3   1 <1>  -0.5600 
 20 C       -6.7930    -3.1010     0.4310 C.ar  1 <1>  -0.1440 
 21 C       -6.5110    -3.3270     1.7630 C.ar  1 <1>  -0.1500 
 22 C       -7.3810    -4.1450    -0.2530 C.ar  1 <1>  -0.1500 
 23 C       -6.8180    -4.5530     2.3290 C.ar  1 <1>   0.1600 
 24 C       -7.6470    -5.3330     0.4070 C.ar  1 <1>   0.1600 
 25 N       -7.3770    -5.5630     1.6820 N.ar  1 <1>  -0.6200 
 26 H       -1.8090     0.2280     2.2130 H     1 <1>   0.3700 
 27 H       -5.2550     3.0270     0.2960 H     1 <1>   0.0800 
 28 H       -4.1720     3.8150    -0.8230 H     1 <1>   0.0800 
 29 H        0.5440     3.3260     1.5130 H     1 <1>   0.0800 
 30 H        0.3950     2.0710     2.7180 H     1 <1>   0.0800 
 31 H       -0.7700     3.3800     2.6570 H     1 <1>   0.0800 
 32 H        0.5020     1.4660    -0.3490 H     1 <1>   0.0800 
 33 H       -0.8210     0.3340    -0.3560 H     1 <1>   0.0800 
 34 H        0.3770     0.2780     0.9230 H     1 <1>   0.0800 
 35 H       -4.8050     0.3580     0.0170 H     1 <1>   0.3700 
 36 H       -5.2970    -0.5000    -2.7750 H     1 <1>   0.0800 
 37 H       -5.3180    -2.6790    -1.8020 H     1 <1>   0.0800 
 38 H       -2.7140    -0.0140    -2.2040 H     1 <1>   0.0800 
 39 H       -3.1320    -1.5960    -2.8530 H     1 <1>   0.0800 
 40 H       -3.7190    -3.2740    -0.2660 H     1 <1>   0.0800 
 41 H       -4.0140    -1.8630     0.7460 H     1 <1>   0.0800 
 42 H       -7.2930    -1.4950    -0.8810 H     1 <1>   0.0800 
 43 H       -6.3710    -1.0160     0.5090 H     1 <1>   0.0800 
 44 H       -6.0570    -2.5620     2.3670 H     1 <1>   0.1500 
 45 H       -7.6350    -4.0470    -1.2920 H     1 <1>   0.1500 
 46 H       -6.5910    -4.7120     3.3700 H     1 <1>   0.1500 
 47 H       -8.1060    -6.1370    -0.1420 H     1 <1>   0.1500 
@<TRIPOS>BOND
  1   1   2  2   
  2   2   3  am  
  3   2   4  am  
  4   3   5  am  
  5   3   6  1   
  6   4   7  1   
  7   4  26  1   
  8   5   7  1   
  9   5   8  2   
 10   6   9  1   
 11   6  27  1   
 12   6  28  1   
 13   7  10  1   
 14   7  11  1   
 15   9  12  2   
 16   9  13  am  
 17  10  29  1   
 18  10  30  1   
 19  10  31  1   
 20  11  32  1   
 21  11  33  1   
 22  11  34  1   
 23  13  14  1   
 24  13  35  1   
 25  14  15  1   
 26  14  16  1   
 27  14  36  1   
 28  15  17  1   
 29  15  18  1   
 30  15  37  1   
 31  16  19  1   
 32  16  38  1   
 33  16  39  1   
 34  17  19  1   
 35  17  40  1   
 36  17  41  1   
 37  18  20  1   
 38  18  42  1   
 39  18  43  1   
 40  20  21  ar  
 41  20  22  ar  
 42  21  23  ar  
 43  21  44  1   
 44  22  24  ar  
 45  22  45  1   
 46  23  25  ar  
 47  23  46  1   
 48  24  25  ar  
 49  24  47  1   
@<TRIPOS>SUBSTRUCTURE
  1 ****  13 GROUP 4 **** **** 0

# MOE 2024.06 (io_trps.svl 2023.06)
