@<TRIPOS>MOLECULE
NONAME
51 54 1 0 0 
SMALL
USER_CHARGES


@<TRIPOS>ATOM
  1 CL      -0.3630    -0.2640    -0.7560 Cl    1 <1>  -0.1770 
  2 C       -1.8710     0.1240     0.0440 C.ar  1 <1>   0.1770 
  3 C       -2.0420     1.3460     0.6990 C.ar  1 <1>   0.0540 
  4 C       -2.8660    -0.8360     0.0090 C.ar  1 <1>  -0.1500 
  5 C       -1.0280     2.3770     0.7390 C.2   1 <1>   0.2350 
  6 C       -3.2640     1.5510     1.3390 C.ar  1 <1>  -0.1500 
  7 C       -4.0730    -0.5990     0.6430 C.ar  1 <1>  -0.1500 
  8 N       -0.7010     3.0310     1.8260 N.2   1 <1>  -0.7070 
  9 C       -0.2820     2.8390    -0.3500 C.2   1 <1>  -0.1500 
 10 C       -4.2670     0.5970     1.3120 C.ar  1 <1>  -0.1500 
 11 N        0.2580     3.8880     1.4540 N.pl3 1 <1>   0.3000 
 12 C        0.5350     3.7960     0.1350 C.2   1 <1>  -0.3320 
 13 C        1.5660     4.6120    -0.6220 C.3   1 <1>   0.1000 
 14 C        2.9830     4.2740    -0.1490 C.3   1 <1>  -0.1600 
 15 C        1.3030     6.1150    -0.4880 C.3   1 <1>  -0.1600 
 16 C        4.0230     5.0960    -0.9090 C.3   1 <1>   0.3430 
 17 C        2.3580     6.9230    -1.2400 C.3   1 <1>   0.3430 
 18 N        3.7260     6.5490    -0.7630 N.4   1 <1>  -0.9590 
 19 C        4.7700     7.3880    -1.4080 C.3   1 <1>   0.5240 
 20 C        4.5850     8.7940    -0.8950 C.2   1 <1>  -0.1810 
 21 C        4.9130     9.3410     0.2990 C.2   1 <1>  -0.3320 
 22 C        3.9910     9.8270    -1.6100 C.2   1 <1>   0.1390 
 23 N        4.5080    10.6330     0.2540 N.pl3 1 <1>   0.3140 
 24 C        5.6120     8.7250     1.5030 C.3   1 <1>  -0.0600 
 25 N        3.9280    10.9170    -0.9220 N.2   1 <1>  -0.7070 
 26 C        4.6530    11.6630     1.2940 C.3   1 <1>   0.0160 
 27 H       -2.6940    -1.7620    -0.5090 H     1 <1>   0.1500 
 28 H       -3.4200     2.4760     1.8660 H     1 <1>   0.1500 
 29 H       -4.8530    -1.3410     0.6210 H     1 <1>   0.1500 
 30 H       -0.3740     2.4710    -1.3560 H     1 <1>   0.1500 
 31 H       -5.2010     0.7870     1.8140 H     1 <1>   0.1500 
 32 H        0.6960     4.5220     2.1310 H     1 <1>   0.2700 
 33 H        1.4860     4.3460    -1.6640 H     1 <1>   0.0800 
 34 H        3.1690     3.2270    -0.3180 H     1 <1>   0.0800 
 35 H        3.0830     4.4530     0.9070 H     1 <1>   0.0800 
 36 H        1.2990     6.4100     0.5460 H     1 <1>   0.0800 
 37 H        0.3320     6.3410    -0.8930 H     1 <1>   0.0800 
 38 H        4.0000     4.8220    -1.9520 H     1 <1>   0.0800 
 39 H        5.0060     4.8760    -0.5230 H     1 <1>   0.0800 
 40 H        2.1810     7.9750    -1.0760 H     1 <1>   0.0800 
 41 H        2.2730     6.7280    -2.2970 H     1 <1>   0.0800 
 42 H        3.7690     6.8060     0.2310 H     1 <1>   0.4500 
 43 H        4.6780     7.3600    -2.4810 H     1 <1>   0.0800 
 44 H        5.7520     7.0400    -1.1310 H     1 <1>   0.0800 
 45 H        3.6140     9.7590    -2.6180 H     1 <1>   0.1500 
 46 H        5.8800     7.7010     1.3160 H     1 <1>   0.0800 
 47 H        4.9710     8.7620     2.3670 H     1 <1>   0.0800 
 48 H        6.5130     9.2710     1.7240 H     1 <1>   0.0800 
 49 H        4.1590    11.3390     2.1890 H     1 <1>   0.0800 
 50 H        4.2070    12.5770     0.9480 H     1 <1>   0.0800 
 51 H        5.6970    11.8260     1.4860 H     1 <1>   0.0800 
@<TRIPOS>BOND
  1   1   2  1   
  2   2   3  ar  
  3   2   4  ar  
  4   3   5  1   
  5   3   6  ar  
  6   4   7  ar  
  7   4  27  1   
  8   5   8  2   
  9   5   9  1   
 10   6  10  ar  
 11   6  28  1   
 12   7  10  ar  
 13   7  29  1   
 14   8  11  1   
 15   9  12  2   
 16   9  30  1   
 17  10  31  1   
 18  11  12  1   
 19  11  32  1   
 20  12  13  1   
 21  13  14  1   
 22  13  15  1   
 23  13  33  1   
 24  14  16  1   
 25  14  34  1   
 26  14  35  1   
 27  15  17  1   
 28  15  36  1   
 29  15  37  1   
 30  16  18  1   
 31  16  38  1   
 32  16  39  1   
 33  17  18  1   
 34  17  40  1   
 35  17  41  1   
 36  18  19  1   
 37  18  42  1   
 38  19  20  1   
 39  19  43  1   
 40  19  44  1   
 41  20  21  2   
 42  20  22  1   
 43  21  23  1   
 44  21  24  1   
 45  22  25  2   
 46  22  45  1   
 47  23  25  1   
 48  23  26  1   
 49  24  46  1   
 50  24  47  1   
 51  24  48  1   
 52  26  49  1   
 53  26  50  1   
 54  26  51  1   
@<TRIPOS>SUBSTRUCTURE
  1 ****  13 GROUP 4 **** **** 0

# MOE 2024.06 (io_trps.svl 2023.06)
