@<TRIPOS>MOLECULE
NONAME
42 44 1 0 0 
SMALL
USER_CHARGES


@<TRIPOS>ATOM
  1 O       -0.4190    -3.0020    -1.4860 O.2   1 <1>  -0.5700 
  2 C        0.5870    -2.6480    -0.9130 C.2   1 <1>   0.6900 
  3 N        0.7570    -2.6280     0.4400 N.am  1 <1>  -0.4200 
  4 N        1.6980    -2.2240    -1.5480 N.am  1 <1>  -0.7300 
  5 C        2.0240    -2.2300     0.7410 C.2   1 <1>   0.5690 
  6 C       -0.1780    -3.2520     1.4100 C.3   1 <1>   0.2010 
  7 C        2.7710    -1.9550    -0.5570 C.3   1 <1>   0.2010 
  8 O        2.4910    -2.0960     1.8440 O.2   1 <1>  -0.5700 
  9 C       -0.2800    -4.7640     1.2100 C.2   1 <1>   0.5690 
 10 O        0.7040    -5.4280     1.4420 O.2   1 <1>  -0.5700 
 11 N       -1.4450    -5.3530     0.7900 N.am  1 <1>  -0.6600 
 12 C       -2.6750    -4.6650     0.3160 C.3   1 <1>   0.1400 
 13 C       -1.5230    -6.8070     0.5090 C.3   1 <1>   0.1400 
 14 C       -3.4290    -5.7190    -0.4930 C.3   1 <1>   0.2000 
 15 C       -2.9640    -7.0610     0.0650 C.3   1 <1>  -0.0800 
 16 O       -4.8010    -5.5900    -0.3460 O.3   1 <1>  -0.6800 
 17 C       -3.1030    -8.2150    -0.9390 C.3   1 <1>   0.0210 
 18 C       -2.5320    -9.5010    -0.3730 C.2   1 <1>   0.1080 
 19 N       -2.9550   -10.0340     0.7310 N.2   1 <1>  -0.7070 
 20 C       -1.5030   -10.2370    -0.9510 C.2   1 <1>  -0.1500 
 21 N       -2.1990   -11.1370     0.8880 N.pl3 1 <1>   0.3000 
 22 C       -1.3110   -11.2810    -0.1180 C.2   1 <1>  -0.3320 
 23 C       -0.3180   -12.4240    -0.2220 C.3   1 <1>  -0.0600 
 24 H        1.8450    -2.3530    -2.5500 H     1 <1>   0.3700 
 25 H        0.1770    -3.0710     2.4080 H     1 <1>   0.0800 
 26 H       -1.1410    -2.7900     1.3110 H     1 <1>   0.0800 
 27 H        3.5930    -2.6390    -0.6750 H     1 <1>   0.0800 
 28 H        3.0990    -0.9330    -0.6040 H     1 <1>   0.0800 
 29 H       -3.2550    -4.3530     1.1660 H     1 <1>   0.0800 
 30 H       -2.4370    -3.8210    -0.3050 H     1 <1>   0.0800 
 31 H       -0.8280    -7.0470    -0.2780 H     1 <1>   0.0800 
 32 H       -1.2760    -7.3830     1.3860 H     1 <1>   0.0800 
 33 H       -3.1840    -5.6150    -1.5360 H     1 <1>   0.0800 
 34 H       -3.5260    -7.2980     0.9520 H     1 <1>   0.0800 
 35 H       -5.0710    -5.8620     0.5530 H     1 <1>   0.4000 
 36 H       -2.5940    -7.9710    -1.8540 H     1 <1>   0.0800 
 37 H       -4.1430    -8.3700    -1.1640 H     1 <1>   0.0800 
 38 H       -0.9880   -10.0010    -1.8650 H     1 <1>   0.1500 
 39 H       -2.3140   -11.7680     1.6900 H     1 <1>   0.2700 
 40 H        0.2780   -12.3150    -1.1100 H     1 <1>   0.0800 
 41 H       -0.8370   -13.3650    -0.2710 H     1 <1>   0.0800 
 42 H        0.3360   -12.4270     0.6310 H     1 <1>   0.0800 
@<TRIPOS>BOND
  1   1   2  2   
  2   2   3  am  
  3   2   4  am  
  4   3   5  am  
  5   3   6  1   
  6   4   7  1   
  7   4  24  1   
  8   5   7  1   
  9   5   8  2   
 10   6   9  1   
 11   6  25  1   
 12   6  26  1   
 13   7  27  1   
 14   7  28  1   
 15   9  10  2   
 16   9  11  am  
 17  11  12  1   
 18  11  13  1   
 19  12  14  1   
 20  12  29  1   
 21  12  30  1   
 22  13  15  1   
 23  13  31  1   
 24  13  32  1   
 25  14  15  1   
 26  14  16  1   
 27  14  33  1   
 28  15  17  1   
 29  15  34  1   
 30  16  35  1   
 31  17  18  1   
 32  17  36  1   
 33  17  37  1   
 34  18  19  2   
 35  18  20  1   
 36  19  21  1   
 37  20  22  2   
 38  20  38  1   
 39  21  22  1   
 40  21  39  1   
 41  22  23  1   
 42  23  40  1   
 43  23  41  1   
 44  23  42  1   
@<TRIPOS>SUBSTRUCTURE
  1 ****  13 GROUP 4 **** **** 0

# MOE 2024.06 (io_trps.svl 2023.06)
