@<TRIPOS>MOLECULE
NONAME
45 45 1 0 0 
SMALL
USER_CHARGES


@<TRIPOS>ATOM
  1 N        0.5560     0.4380    -0.9320 N.ar  1 <1>  -0.6200 
  2 C       -0.6800     0.6130    -0.5370 C.ar  1 <1>   0.4100 
  3 C        1.4420     1.2830    -0.4430 C.ar  1 <1>   0.4760 
  4 N       -1.5340    -0.3000    -1.0860 N.pl3 1 <1>  -0.8690 
  5 C       -1.0400     1.6430     0.3250 C.ar  1 <1>  -0.1430 
  6 N        1.2310     2.2820     0.3910 N.ar  1 <1>  -0.6200 
  7 C        2.8730     1.0860    -0.8810 C.3   1 <1>  -0.0970 
  8 C       -2.0410    -1.4980    -0.3720 C.3   1 <1>   0.2890 
  9 C       -0.0220     2.4530     0.7600 C.ar  1 <1>   0.1600 
 10 C       -2.4710     1.9130     0.7790 C.3   1 <1>  -0.0170 
 11 C       -3.5740    -1.3590    -0.2090 C.3   1 <1>   0.3430 
 12 C       -1.2990    -1.7450     0.9580 C.3   1 <1>  -0.1600 
 13 C       -3.3300     2.4630    -0.3660 C.3   1 <1>  -0.1600 
 14 N       -4.3270    -2.6660    -0.1830 N.4   1 <1>  -0.9590 
 15 C       -1.6990    -3.0420     1.6780 C.3   1 <1>  -0.2400 
 16 C       -4.7730     2.7180     0.0850 C.3   1 <1>  -0.2400 
 17 C       -4.3550    -3.3180    -1.5320 C.3   1 <1>   0.2630 
 18 C       -5.7200    -2.4500     0.3160 C.3   1 <1>   0.2630 
 19 H       -1.1030    -0.5870    -1.9710 H     1 <1>   0.4000 
 20 H        2.9230     0.4090    -1.7140 H     1 <1>   0.0800 
 21 H        3.4410     0.6830    -0.0650 H     1 <1>   0.0800 
 22 H        3.2940     2.0300    -1.1720 H     1 <1>   0.0800 
 23 H       -1.8400    -2.3360    -1.0170 H     1 <1>   0.0800 
 24 H       -0.2260     3.2720     1.4290 H     1 <1>   0.1500 
 25 H       -2.4640     2.6300     1.5820 H     1 <1>   0.0800 
 26 H       -2.9000     1.0120     1.1680 H     1 <1>   0.0800 
 27 H       -3.9420    -0.7590    -1.0240 H     1 <1>   0.0800 
 28 H       -3.7600    -0.8220     0.7040 H     1 <1>   0.0800 
 29 H       -1.4530    -0.9190     1.6290 H     1 <1>   0.0800 
 30 H       -0.2430    -1.8010     0.7480 H     1 <1>   0.0800 
 31 H       -3.3310     1.7720    -1.1900 H     1 <1>   0.0800 
 32 H       -2.9000     3.3860    -0.7180 H     1 <1>   0.0800 
 33 H       -3.8410    -3.2950     0.4770 H     1 <1>   0.4500 
 34 H       -2.6970    -2.9830     2.0710 H     1 <1>   0.0800 
 35 H       -1.0340    -3.2010     2.5110 H     1 <1>   0.0800 
 36 H       -1.6090    -3.8900     1.0210 H     1 <1>   0.0800 
 37 H       -5.2350     1.8090     0.4260 H     1 <1>   0.0800 
 38 H       -5.3480     3.1080    -0.7370 H     1 <1>   0.0800 
 39 H       -4.7940     3.4390     0.8830 H     1 <1>   0.0800 
 40 H       -4.8350    -2.6710    -2.2500 H     1 <1>   0.0800 
 41 H       -4.9020    -4.2460    -1.4870 H     1 <1>   0.0800 
 42 H       -3.3550    -3.5290    -1.8730 H     1 <1>   0.0800 
 43 H       -6.2560    -1.7880    -0.3440 H     1 <1>   0.0800 
 44 H       -5.7020    -2.0140     1.3020 H     1 <1>   0.0800 
 45 H       -6.2490    -3.3880     0.3670 H     1 <1>   0.0800 
@<TRIPOS>BOND
  1   1   2  ar  
  2   1   3  ar  
  3   2   4  1   
  4   2   5  ar  
  5   3   6  ar  
  6   3   7  1   
  7   4   8  1   
  8   4  19  1   
  9   5   9  ar  
 10   5  10  1   
 11   6   9  ar  
 12   7  20  1   
 13   7  21  1   
 14   7  22  1   
 15   8  11  1   
 16   8  12  1   
 17   8  23  1   
 18   9  24  1   
 19  10  13  1   
 20  10  25  1   
 21  10  26  1   
 22  11  14  1   
 23  11  27  1   
 24  11  28  1   
 25  12  15  1   
 26  12  29  1   
 27  12  30  1   
 28  13  16  1   
 29  13  31  1   
 30  13  32  1   
 31  14  17  1   
 32  14  18  1   
 33  14  33  1   
 34  15  34  1   
 35  15  35  1   
 36  15  36  1   
 37  16  37  1   
 38  16  38  1   
 39  16  39  1   
 40  17  40  1   
 41  17  41  1   
 42  17  42  1   
 43  18  43  1   
 44  18  44  1   
 45  18  45  1   
@<TRIPOS>SUBSTRUCTURE
  1 ****   4 GROUP 4 **** **** 0

# MOE 2024.06 (io_trps.svl 2023.06)
