@<TRIPOS>MOLECULE
NONAME
46 47 1 0 0 
SMALL
USER_CHARGES


@<TRIPOS>ATOM
  1 O       -1.8490     0.6900    -2.4590 O.2   1 <1>  -0.5700 
  2 C       -2.6090     1.1090    -1.6060 C.2   1 <1>   0.5440 
  3 N       -3.7650     0.4010    -1.3350 N.am  1 <1>  -0.6600 
  4 C       -2.2830     2.3530    -0.9370 C.ar  1 <1>   0.0860 
  5 C       -4.0850    -0.8580    -2.0860 C.3   1 <1>   0.3210 
  6 C       -4.8730     0.9530    -0.4790 C.3   1 <1>   0.1400 
  7 C       -2.0860     2.4210     0.4420 C.ar  1 <1>  -0.1500 
  8 C       -2.1630     3.5350    -1.6640 C.ar  1 <1>  -0.1500 
  9 C       -4.1380    -2.0650    -1.1570 C.2   1 <1>   0.0460 
 10 C       -5.0940     0.2040     0.8500 C.3   1 <1>   0.1200 
 11 C       -1.8010     3.6130     1.0810 C.ar  1 <1>  -0.1440 
 12 C       -1.8740     4.7430    -1.0540 C.ar  1 <1>  -0.1440 
 13 N       -5.3120    -2.6760    -0.8910 N.2   1 <1>  -0.5650 
 14 C       -3.1220    -2.6630    -0.4900 C.2   1 <1>  -0.3320 
 15 O       -3.8990    -0.2780     1.3610 O.3   1 <1>  -0.6800 
 16 C       -1.6810     4.7770     0.3250 C.ar  1 <1>   0.0830 
 17 C       -1.6320     3.6250     2.5940 C.3   1 <1>  -0.0970 
 18 C       -1.7770     6.0070    -1.8970 C.3   1 <1>  -0.0970 
 19 C       -4.9900    -3.6230    -0.0720 C.2   1 <1>   0.0360 
 20 N       -3.6730    -3.6690     0.2130 N.pl3 1 <1>   0.0330 
 21 C       -1.6350    -2.3510    -0.4590 C.3   1 <1>  -0.0600 
 22 O       -1.3900     5.9450     0.9310 O.3   1 <1>  -0.3630 
 23 C       -0.0230     6.2560     1.0720 C.3   1 <1>   0.0400 
 24 H       -3.3520    -1.0520    -2.8480 H     1 <1>   0.0800 
 25 H       -5.0350    -0.7480    -2.5780 H     1 <1>   0.0800 
 26 H       -5.7920     0.9330    -1.0390 H     1 <1>   0.0800 
 27 H       -4.6840     1.9860    -0.2500 H     1 <1>   0.0800 
 28 H       -2.1630     1.5150     1.0150 H     1 <1>   0.1500 
 29 H       -2.3020     3.4880    -2.7300 H     1 <1>   0.1500 
 30 H       -5.7520    -0.6340     0.7020 H     1 <1>   0.0800 
 31 H       -5.5360     0.8570     1.5820 H     1 <1>   0.0800 
 32 H       -3.5180    -0.8830     0.6830 H     1 <1>   0.4000 
 33 H       -2.0790     2.7520     3.0340 H     1 <1>   0.0800 
 34 H       -2.1070     4.4930     3.0130 H     1 <1>   0.0800 
 35 H       -0.5880     3.6420     2.8460 H     1 <1>   0.0800 
 36 H       -2.2310     5.8620    -2.8600 H     1 <1>   0.0800 
 37 H       -0.7460     6.2740    -2.0390 H     1 <1>   0.0800 
 38 H       -2.2830     6.8190    -1.4050 H     1 <1>   0.0800 
 39 H       -5.6910    -4.3200     0.3530 H     1 <1>   0.1500 
 40 H       -3.1990    -4.3310     0.8350 H     1 <1>   0.2700 
 41 H       -1.4020    -1.5510    -1.1390 H     1 <1>   0.0800 
 42 H       -1.0670    -3.2150    -0.7520 H     1 <1>   0.0800 
 43 H       -1.3360    -2.0530     0.5300 H     1 <1>   0.0800 
 44 H        0.0560     7.2060     1.5690 H     1 <1>   0.0800 
 45 H        0.4250     6.3100     0.0960 H     1 <1>   0.0800 
 46 H        0.4520     5.4900     1.6570 H     1 <1>   0.0800 
@<TRIPOS>BOND
  1   1   2  2   
  2   2   3  am  
  3   2   4  1   
  4   3   5  1   
  5   3   6  1   
  6   4   7  ar  
  7   4   8  ar  
  8   5   9  1   
  9   5  24  1   
 10   5  25  1   
 11   6  10  1   
 12   6  26  1   
 13   6  27  1   
 14   7  11  ar  
 15   7  28  1   
 16   8  12  ar  
 17   8  29  1   
 18   9  13  1   
 19   9  14  2   
 20  10  15  1   
 21  10  30  1   
 22  10  31  1   
 23  11  16  ar  
 24  11  17  1   
 25  12  16  ar  
 26  12  18  1   
 27  13  19  2   
 28  14  20  1   
 29  14  21  1   
 30  15  32  1   
 31  16  22  1   
 32  17  33  1   
 33  17  34  1   
 34  17  35  1   
 35  18  36  1   
 36  18  37  1   
 37  18  38  1   
 38  19  20  1   
 39  19  39  1   
 40  20  40  1   
 41  21  41  1   
 42  21  42  1   
 43  21  43  1   
 44  22  23  1   
 45  23  44  1   
 46  23  45  1   
 47  23  46  1   
@<TRIPOS>SUBSTRUCTURE
  1 ****   2 GROUP 4 **** **** 0

# MOE 2024.06 (io_trps.svl 2023.06)
