@<TRIPOS>MOLECULE
NONAME
47 50 1 0 0 
SMALL
USER_CHARGES


@<TRIPOS>ATOM
  1 S       -0.6850    -2.2030    -1.1490 S.3   1 <1>  -0.0800 
  2 C       -1.9540    -1.2500    -0.3710 C.2   1 <1>   0.0400 
  3 C        0.1370    -0.7690    -1.7280 C.2   1 <1>  -0.1100 
  4 C       -3.0080    -1.9330     0.3260 C.2   1 <1>   0.4780 
  5 C       -1.6990     0.0670    -0.5830 C.2   1 <1>  -0.1500 
  6 C       -0.5240     0.3380    -1.3450 C.2   1 <1>  -0.1500 
  7 O       -3.9810    -1.2330     0.8830 O.3   1 <1>  -0.2800 
  8 N       -3.1590    -3.2150     0.4900 N.2   1 <1>  -0.5650 
  9 C       -4.7920    -2.0880     1.4330 C.2   1 <1>  -0.0400 
 10 C       -4.2980    -3.3130     1.2040 C.2   1 <1>   0.0460 
 11 C       -6.0210    -1.5680     2.1540 C.3   1 <1>  -0.0600 
 12 C       -4.8350    -4.6800     1.5990 C.3   1 <1>   0.5240 
 13 N       -4.6690    -5.5880     0.4290 N.4   1 <1>  -0.9590 
 14 C       -5.6690    -5.2550    -0.6290 C.3   1 <1>   0.3430 
 15 C       -4.8680    -7.0200     0.8020 C.3   1 <1>   0.3430 
 16 C       -6.7950    -6.2750    -0.4490 C.3   1 <1>   0.2000 
 17 C       -6.0490    -7.5410    -0.0330 C.3   1 <1>  -0.0800 
 18 O       -7.5880    -5.8690     0.6210 O.3   1 <1>  -0.6800 
 19 C       -5.5660    -8.3480    -1.2550 C.3   1 <1>  -0.0170 
 20 C       -4.6850    -9.5090    -0.8230 C.ar  1 <1>  -0.1430 
 21 C       -3.3300    -9.5400    -1.0920 C.ar  1 <1>  -0.1500 
 22 C       -5.1950   -10.5950    -0.1390 C.ar  1 <1>  -0.1500 
 23 C       -2.5710   -10.6160    -0.6600 C.ar  1 <1>   0.1600 
 24 C       -4.3490   -11.6200     0.2490 C.ar  1 <1>   0.1600 
 25 N       -3.0490   -11.6500     0.0120 N.ar  1 <1>  -0.6200 
 26 H        1.0390    -0.9070    -2.2990 H     1 <1>   0.1500 
 27 H       -2.3160     0.8690    -0.2170 H     1 <1>   0.1500 
 28 H       -0.2290     1.3480    -1.5710 H     1 <1>   0.1500 
 29 H       -6.6060    -2.3750     2.5530 H     1 <1>   0.0800 
 30 H       -6.6290    -1.0000     1.4730 H     1 <1>   0.0800 
 31 H       -5.7210    -0.9240     2.9620 H     1 <1>   0.0800 
 32 H       -5.8700    -4.6140     1.8910 H     1 <1>   0.0800 
 33 H       -4.2570    -5.0470     2.4300 H     1 <1>   0.0800 
 34 H       -3.7160    -5.3800     0.0830 H     1 <1>   0.4500 
 35 H       -6.0340    -4.2440    -0.5490 H     1 <1>   0.0800 
 36 H       -5.2200    -5.3890    -1.6000 H     1 <1>   0.0800 
 37 H       -3.9760    -7.5970     0.6160 H     1 <1>   0.0800 
 38 H       -5.1140    -7.0970     1.8480 H     1 <1>   0.0800 
 39 H       -7.4130    -6.3820    -1.3260 H     1 <1>   0.0800 
 40 H       -6.6730    -8.1800     0.5680 H     1 <1>   0.0800 
 41 H       -8.4260    -6.3800     0.6530 H     1 <1>   0.4000 
 42 H       -5.0180    -7.7210    -1.9360 H     1 <1>   0.0800 
 43 H       -6.4150    -8.7390    -1.7900 H     1 <1>   0.0800 
 44 H       -2.8480    -8.7480    -1.6350 H     1 <1>   0.1500 
 45 H       -6.2420   -10.6640     0.0960 H     1 <1>   0.1500 
 46 H       -1.5160   -10.6290    -0.8780 H     1 <1>   0.1500 
 47 H       -4.7620   -12.4610     0.7810 H     1 <1>   0.1500 
@<TRIPOS>BOND
  1   1   2  1   
  2   1   3  1   
  3   2   4  1   
  4   2   5  2   
  5   3   6  2   
  6   3  26  1   
  7   4   7  1   
  8   4   8  2   
  9   5   6  1   
 10   5  27  1   
 11   6  28  1   
 12   7   9  1   
 13   8  10  1   
 14   9  10  2   
 15   9  11  1   
 16  10  12  1   
 17  11  29  1   
 18  11  30  1   
 19  11  31  1   
 20  12  13  1   
 21  12  32  1   
 22  12  33  1   
 23  13  14  1   
 24  13  15  1   
 25  13  34  1   
 26  14  16  1   
 27  14  35  1   
 28  14  36  1   
 29  15  17  1   
 30  15  37  1   
 31  15  38  1   
 32  16  17  1   
 33  16  18  1   
 34  16  39  1   
 35  17  19  1   
 36  17  40  1   
 37  18  41  1   
 38  19  20  1   
 39  19  42  1   
 40  19  43  1   
 41  20  21  ar  
 42  20  22  ar  
 43  21  23  ar  
 44  21  44  1   
 45  22  24  ar  
 46  22  45  1   
 47  23  25  ar  
 48  23  46  1   
 49  24  25  ar  
 50  24  47  1   
@<TRIPOS>SUBSTRUCTURE
  1 ****  13 GROUP 4 **** **** 0

# MOE 2024.06 (io_trps.svl 2023.06)
