@<TRIPOS>MOLECULE
NONAME
47 50 1 0 0 
SMALL
USER_CHARGES


@<TRIPOS>ATOM
  1 O       -0.2160     0.1780     0.6670 O.2   1 <1>  -0.5700 
  2 C       -1.1860     0.7870     0.2820 C.2   1 <1>   0.5690 
  3 N       -2.3040     0.1380    -0.1610 N.am  1 <1>  -0.6600 
  4 C       -1.1650     2.3090     0.2940 C.3   1 <1>  -0.0990 
  5 C       -3.5700     0.7660    -0.6110 C.3   1 <1>   0.1400 
  6 C       -2.4120    -1.3400    -0.1920 C.3   1 <1>   0.1400 
  7 C        0.1850     2.9080     0.7140 C.3   1 <1>  -0.0170 
  8 C       -4.4980    -0.4040    -0.9470 C.3   1 <1>   0.2000 
  9 C       -3.9140    -1.6230    -0.2330 C.3   1 <1>  -0.0800 
 10 C        0.1150     4.4270     0.7030 C.ar  1 <1>  -0.1440 
 11 O       -5.7910    -0.1730    -0.5040 O.3   1 <1>  -0.6800 
 12 C       -4.2920    -2.9460    -0.9220 C.3   1 <1>  -0.0170 
 13 C        0.4320     5.1300    -0.4550 C.ar  1 <1>  -0.1500 
 14 C       -0.2710     5.1160     1.8530 C.ar  1 <1>  -0.1500 
 15 C       -3.7340    -4.1500    -0.1810 C.ar  1 <1>   0.1670 
 16 C        0.3510     6.5080    -0.4260 C.ar  1 <1>   0.0820 
 17 C       -0.3460     6.5040     1.8640 C.ar  1 <1>  -0.1500 
 18 N       -2.4750    -4.4690    -0.4350 N.ar  1 <1>  -0.6200 
 19 C       -4.5390    -4.8540     0.7130 C.ar  1 <1>   0.1600 
 20 O        0.6070     7.3750    -1.4110 O.3   1 <1>  -0.3620 
 21 C       -0.0270     7.1760     0.7020 C.ar  1 <1>   0.0820 
 22 C       -2.0780    -5.5220     0.2600 C.ar  1 <1>   0.1600 
 23 N       -4.1450    -5.9070     1.4090 N.ar  1 <1>  -0.6200 
 24 C        0.3840     8.6780    -0.8760 C.3   1 <1>   0.4000 
 25 O       -0.0260     8.4950     0.4780 O.3   1 <1>  -0.3620 
 26 C       -2.8850    -6.2170     1.1520 C.ar  1 <1>   0.1600 
 27 H       -1.4060     2.6620    -0.6910 H     1 <1>   0.0800 
 28 H       -1.9240     2.6520     0.9720 H     1 <1>   0.0800 
 29 H       -3.9760     1.3650     0.1860 H     1 <1>   0.0800 
 30 H       -3.3970     1.3720    -1.4830 H     1 <1>   0.0800 
 31 H       -1.9250    -1.7090    -1.0790 H     1 <1>   0.0800 
 32 H       -1.9470    -1.7840     0.6740 H     1 <1>   0.0800 
 33 H        0.9550     2.5740     0.0400 H     1 <1>   0.0800 
 34 H        0.4460     2.5630     1.7000 H     1 <1>   0.0800 
 35 H       -4.5260    -0.5490    -2.0140 H     1 <1>   0.0800 
 36 H       -4.2580    -1.6400     0.7860 H     1 <1>   0.0800 
 37 H       -5.8030    -0.0540     0.4660 H     1 <1>   0.4000 
 38 H       -3.9190    -2.9550    -1.9320 H     1 <1>   0.0800 
 39 H       -5.3630    -3.0230    -0.9740 H     1 <1>   0.0800 
 40 H        0.7340     4.6300    -1.3570 H     1 <1>   0.1500 
 41 H       -0.5150     4.5710     2.7480 H     1 <1>   0.1500 
 42 H       -0.6410     7.0480     2.7420 H     1 <1>   0.1500 
 43 H       -5.5540    -4.5300     0.8620 H     1 <1>   0.1500 
 44 H       -1.0640    -5.8510     0.1170 H     1 <1>   0.1500 
 45 H        1.3000     9.2400    -0.9010 H     1 <1>   0.0800 
 46 H       -0.3990     9.1670    -1.4270 H     1 <1>   0.0800 
 47 H       -2.4710    -7.0630     1.6710 H     1 <1>   0.1500 
@<TRIPOS>BOND
  1   1   2  2   
  2   2   3  am  
  3   2   4  1   
  4   3   5  1   
  5   3   6  1   
  6   4   7  1   
  7   4  27  1   
  8   4  28  1   
  9   5   8  1   
 10   5  29  1   
 11   5  30  1   
 12   6   9  1   
 13   6  31  1   
 14   6  32  1   
 15   7  10  1   
 16   7  33  1   
 17   7  34  1   
 18   8   9  1   
 19   8  11  1   
 20   8  35  1   
 21   9  12  1   
 22   9  36  1   
 23  10  13  ar  
 24  10  14  ar  
 25  11  37  1   
 26  12  15  1   
 27  12  38  1   
 28  12  39  1   
 29  13  16  ar  
 30  13  40  1   
 31  14  17  ar  
 32  14  41  1   
 33  15  18  ar  
 34  15  19  ar  
 35  16  20  1   
 36  16  21  ar  
 37  17  21  ar  
 38  17  42  1   
 39  18  22  ar  
 40  19  23  ar  
 41  19  43  1   
 42  20  24  1   
 43  21  25  1   
 44  22  26  ar  
 45  22  44  1   
 46  23  26  ar  
 47  24  25  1   
 48  24  45  1   
 49  24  46  1   
 50  26  47  1   
@<TRIPOS>SUBSTRUCTURE
  1 ****   2 GROUP 4 **** **** 0

# MOE 2024.06 (io_trps.svl 2023.06)
