@<TRIPOS>MOLECULE
NONAME
43 45 1 0 0 
SMALL
USER_CHARGES


@<TRIPOS>ATOM
  1 CL       0.0400     0.5350     1.9950 Cl    1 <1>  -0.1770 
  2 C       -0.3950     1.5620     0.6510 C.ar  1 <1>   0.1770 
  3 C       -1.6840     2.0680     0.5320 C.ar  1 <1>  -0.1440 
  4 C        0.5950     1.8530    -0.2740 C.ar  1 <1>  -0.1500 
  5 C       -1.9210     2.8970    -0.5570 C.ar  1 <1>   0.1900 
  6 C       -2.7780     1.7330     1.5540 C.3   1 <1>   0.0440 
  7 C        0.3180     2.6770    -1.3530 C.ar  1 <1>  -0.1500 
  8 F       -3.1070     3.4180    -0.7280 F     1 <1>  -0.1900 
  9 C       -0.9520     3.2070    -1.4960 C.ar  1 <1>  -0.1500 
 10 C       -3.1720     0.2610     1.5900 C.2   1 <1>   0.5690 
 11 O       -3.1370    -0.3000     2.6600 O.2   1 <1>  -0.5700 
 12 N       -3.5790    -0.4010     0.4630 N.am  1 <1>  -0.6600 
 13 C       -3.8440     0.1780    -0.8780 C.3   1 <1>   0.1400 
 14 C       -3.8750    -1.8580     0.4580 C.3   1 <1>   0.1400 
 15 C       -4.7240    -0.8570    -1.5760 C.3   1 <1>   0.2000 
 16 C       -4.2440    -2.1890    -0.9930 C.3   1 <1>  -0.0800 
 17 O       -6.0390    -0.6310    -1.1980 O.3   1 <1>  -0.6800 
 18 C       -5.2330    -3.3610    -1.1340 C.3   1 <1>   0.0210 
 19 C       -4.6190    -4.6510    -0.6300 C.2   1 <1>   0.1080 
 20 N       -4.5830    -4.9680     0.6270 N.2   1 <1>  -0.7070 
 21 C       -4.0290    -5.6220    -1.4330 C.2   1 <1>  -0.1500 
 22 N       -3.9620    -6.1610     0.6600 N.pl3 1 <1>   0.3000 
 23 C       -3.6160    -6.5790    -0.5760 C.2   1 <1>  -0.3320 
 24 C       -2.9020    -7.8860    -0.8650 C.3   1 <1>  -0.0600 
 25 H        1.5780     1.4360    -0.1430 H     1 <1>   0.1500 
 26 H       -3.6680     2.3050     1.3750 H     1 <1>   0.0800 
 27 H       -2.4250     2.0100     2.5310 H     1 <1>   0.0800 
 28 H        1.0870     2.9060    -2.0720 H     1 <1>   0.1500 
 29 H       -1.1910     3.8540    -2.3210 H     1 <1>   0.1500 
 30 H       -4.3350     1.1330    -0.8180 H     1 <1>   0.0800 
 31 H       -2.9110     0.2770    -1.4060 H     1 <1>   0.0800 
 32 H       -3.0200    -2.4250     0.7870 H     1 <1>   0.0800 
 33 H       -4.6990    -2.0560     1.1230 H     1 <1>   0.0800 
 34 H       -4.6620    -0.8090    -2.6500 H     1 <1>   0.0800 
 35 H       -3.3330    -2.4590    -1.4980 H     1 <1>   0.0800 
 36 H       -6.0800    -0.6010    -0.2200 H     1 <1>   0.4000 
 37 H       -5.5080    -3.4800    -2.1660 H     1 <1>   0.0800 
 38 H       -6.1300    -3.1680    -0.5740 H     1 <1>   0.0800 
 39 H       -3.9360    -5.5890    -2.5040 H     1 <1>   0.1500 
 40 H       -3.7910    -6.6620     1.5410 H     1 <1>   0.2700 
 41 H       -2.7390    -7.9920    -1.9230 H     1 <1>   0.0800 
 42 H       -3.4940    -8.7160    -0.5250 H     1 <1>   0.0800 
 43 H       -1.9480    -7.9070    -0.3670 H     1 <1>   0.0800 
@<TRIPOS>BOND
  1   1   2  1   
  2   2   3  ar  
  3   2   4  ar  
  4   3   5  ar  
  5   3   6  1   
  6   4   7  ar  
  7   4  25  1   
  8   5   8  1   
  9   5   9  ar  
 10   6  10  1   
 11   6  26  1   
 12   6  27  1   
 13   7   9  ar  
 14   7  28  1   
 15   9  29  1   
 16  10  11  2   
 17  10  12  am  
 18  12  13  1   
 19  12  14  1   
 20  13  15  1   
 21  13  30  1   
 22  13  31  1   
 23  14  16  1   
 24  14  32  1   
 25  14  33  1   
 26  15  16  1   
 27  15  17  1   
 28  15  34  1   
 29  16  18  1   
 30  16  35  1   
 31  17  36  1   
 32  18  19  1   
 33  18  37  1   
 34  18  38  1   
 35  19  20  2   
 36  19  21  1   
 37  20  22  1   
 38  21  23  2   
 39  21  39  1   
 40  22  23  1   
 41  22  40  1   
 42  23  24  1   
 43  24  41  1   
 44  24  42  1   
 45  24  43  1   
@<TRIPOS>SUBSTRUCTURE
  1 ****  12 GROUP 4 **** **** 0

# MOE 2024.06 (io_trps.svl 2023.06)
