@<TRIPOS>MOLECULE
NONAME
45 46 1 0 0 
SMALL
USER_CHARGES


@<TRIPOS>ATOM
  1 S       -0.1200    -0.5080     0.9020 S.o2  1 <1>   1.0900 
  2 O        0.0760     0.8760     1.2660 O.2   1 <1>  -0.6500 
  3 O        0.7570    -1.5270     1.4250 O.2   1 <1>  -0.6500 
  4 C       -1.8090    -0.9620     1.2930 C.3   1 <1>  -0.0550 
  5 C       -0.0540    -0.6150    -0.8760 C.3   1 <1>  -0.1350 
  6 C       -2.8370     0.1340     0.9460 C.3   1 <1>  -0.0990 
  7 C       -4.2740    -0.2830     1.2130 C.2   1 <1>   0.5690 
  8 O       -4.4830    -1.4480     1.4590 O.2   1 <1>  -0.5700 
  9 N       -5.2880     0.6390     1.1560 N.am  1 <1>  -0.6600 
 10 C       -6.7070     0.2380     1.4130 C.3   1 <1>   0.1400 
 11 C       -5.1370     2.0790     0.8040 C.3   1 <1>   0.1400 
 12 C       -7.6110     0.5190     0.1880 C.3   1 <1>   0.0000 
 13 C       -5.9890     2.4010    -0.4260 C.3   1 <1>  -0.1600 
 14 C       -9.0600     0.1240     0.5400 C.3   1 <1>   0.2000 
 15 C       -7.4600     2.0040    -0.2220 C.3   1 <1>  -0.1600 
 16 C       -7.2710    -0.4420    -0.9660 C.3   1 <1>  -0.1600 
 17 O       -9.9460     0.7320    -0.3570 O.3   1 <1>  -0.5600 
 18 C       -9.1230    -1.3950     0.3320 C.3   1 <1>  -0.1600 
 19 C       -8.0020    -1.7510    -0.6550 C.3   1 <1>  -0.1600 
 20 C      -11.2490     0.8850     0.1100 C.3   1 <1>   0.0400 
 21 H       -2.0650    -1.8710     0.7830 H     1 <1>   0.0800 
 22 H       -1.8810    -1.1610     2.3460 H     1 <1>   0.0800 
 23 H       -0.7320     0.0830    -1.3270 H     1 <1>   0.0800 
 24 H       -0.3010    -1.6060    -1.2040 H     1 <1>   0.0800 
 25 H        0.9380    -0.3860    -1.2160 H     1 <1>   0.0800 
 26 H       -2.6140     1.0020     1.5390 H     1 <1>   0.0800 
 27 H       -2.7570     0.3970    -0.0910 H     1 <1>   0.0800 
 28 H       -6.7590    -0.8030     1.6770 H     1 <1>   0.0800 
 29 H       -7.0680     0.8000     2.2570 H     1 <1>   0.0800 
 30 H       -5.4650     2.6760     1.6380 H     1 <1>   0.0800 
 31 H       -4.1130     2.3320     0.5990 H     1 <1>   0.0800 
 32 H       -5.9300     3.4550    -0.6310 H     1 <1>   0.0800 
 33 H       -5.5870     1.8830    -1.2790 H     1 <1>   0.0800 
 34 H       -9.3190     0.4180     1.5430 H     1 <1>   0.0800 
 35 H       -8.0080     2.1960    -1.1280 H     1 <1>   0.0800 
 36 H       -7.8880     2.6230     0.5480 H     1 <1>   0.0800 
 37 H       -7.6670    -0.0430    -1.8850 H     1 <1>   0.0800 
 38 H       -6.2140    -0.5960    -1.0870 H     1 <1>   0.0800 
 39 H       -8.9330    -1.8880     1.2690 H     1 <1>   0.0800 
 40 H      -10.0820    -1.7130    -0.0330 H     1 <1>   0.0800 
 41 H       -7.3230    -2.4520    -0.2000 H     1 <1>   0.0800 
 42 H       -8.4010    -2.1850    -1.5560 H     1 <1>   0.0800 
 43 H      -11.8340     1.3300    -0.6760 H     1 <1>   0.0800 
 44 H      -11.2430     1.5340     0.9680 H     1 <1>   0.0800 
 45 H      -11.6580    -0.0770     0.3640 H     1 <1>   0.0800 
@<TRIPOS>BOND
  1   1   2  2   
  2   1   3  2   
  3   1   4  1   
  4   1   5  1   
  5   4   6  1   
  6   4  21  1   
  7   4  22  1   
  8   5  23  1   
  9   5  24  1   
 10   5  25  1   
 11   6   7  1   
 12   6  26  1   
 13   6  27  1   
 14   7   8  2   
 15   7   9  am  
 16   9  10  1   
 17   9  11  1   
 18  10  12  1   
 19  10  28  1   
 20  10  29  1   
 21  11  13  1   
 22  11  30  1   
 23  11  31  1   
 24  12  14  1   
 25  12  15  1   
 26  12  16  1   
 27  13  15  1   
 28  13  32  1   
 29  13  33  1   
 30  14  17  1   
 31  14  18  1   
 32  14  34  1   
 33  15  35  1   
 34  15  36  1   
 35  16  19  1   
 36  16  37  1   
 37  16  38  1   
 38  17  20  1   
 39  18  19  1   
 40  18  39  1   
 41  18  40  1   
 42  19  41  1   
 43  19  42  1   
 44  20  43  1   
 45  20  44  1   
 46  20  45  1   
@<TRIPOS>SUBSTRUCTURE
  1 ****   9 GROUP 4 **** **** 0

# MOE 2024.06 (io_trps.svl 2023.06)
