@<TRIPOS>MOLECULE
NONAME
52 53 1 0 0 
SMALL
USER_CHARGES


@<TRIPOS>ATOM
  1 O       -1.7570     0.7480    -2.0950 O.2   1 <1>  -0.5700 
  2 C       -2.2290     1.2000    -1.0670 C.2   1 <1>   0.6160 
  3 N       -3.2060     0.4680    -0.4150 N.am  1 <1>  -0.6600 
  4 C       -1.7770     2.4930    -0.6320 C.2   1 <1>   0.0290 
  5 C       -3.4180    -0.9840    -0.7270 C.3   1 <1>   0.1400 
  6 C       -4.0280     1.0110     0.7040 C.3   1 <1>   0.1400 
  7 C       -1.2560     2.6540     0.6900 C.2   1 <1>   0.6160 
  8 C       -1.7960     3.5890    -1.4610 C.2   1 <1>  -0.1500 
  9 C       -4.9120    -1.3090    -0.8960 C.3   1 <1>   0.2000 
 10 C       -5.5110     0.6870     0.4800 C.3   1 <1>  -0.1600 
 11 O       -1.1810     1.7660     1.5250 O.2   1 <1>  -0.5700 
 12 N       -0.8190     3.8940     1.0730 N.am  1 <1>  -0.5390 
 13 C       -1.3310     4.8440    -1.0150 C.2   1 <1>  -0.1500 
 14 O       -5.0580    -2.6790    -1.1010 O.3   1 <1>  -0.6800 
 15 C       -5.7870    -0.8280     0.2970 C.3   1 <1>   0.0000 
 16 C       -0.8440     4.9930     0.2520 C.2   1 <1>  -0.0290 
 17 C       -5.3950    -1.6110     1.5830 C.3   1 <1>   0.1200 
 18 C       -7.3030    -1.0680     0.0270 C.3   1 <1>  -0.1600 
 19 C       -0.3050     6.2970     0.8470 C.3   1 <1>   0.0580 
 20 O       -6.0940    -1.1620     2.6960 O.3   1 <1>  -0.6800 
 21 C       -7.8810    -0.4840    -1.2760 C.3   1 <1>  -0.1600 
 22 C       -0.7390     7.5490     0.0720 C.3   1 <1>  -0.2400 
 23 C        1.2250     6.2430     0.9290 C.3   1 <1>  -0.2400 
 24 C       -9.3820    -0.7700    -1.3780 C.3   1 <1>  -0.2400 
 25 H       -2.9110    -1.2500    -1.6380 H     1 <1>   0.0800 
 26 H       -2.9940    -1.5670     0.0690 H     1 <1>   0.0800 
 27 H       -3.6790     0.5930     1.6330 H     1 <1>   0.0800 
 28 H       -3.9190     2.0800     0.7650 H     1 <1>   0.0800 
 29 H       -2.1610     3.5010    -2.4710 H     1 <1>   0.1500 
 30 H       -5.2360    -0.8270    -1.8010 H     1 <1>   0.0800 
 31 H       -6.0860     1.0770     1.3000 H     1 <1>   0.0800 
 32 H       -5.8200     1.2250    -0.3980 H     1 <1>   0.0800 
 33 H       -0.4420     3.9350     2.0200 H     1 <1>   0.3700 
 34 H       -1.3690     5.6630    -1.7110 H     1 <1>   0.1500 
 35 H       -4.7780    -3.1840    -0.3160 H     1 <1>   0.4000 
 36 H       -4.3470    -1.5210     1.8050 H     1 <1>   0.0800 
 37 H       -5.6280    -2.6550     1.4710 H     1 <1>   0.0800 
 38 H       -7.4820    -2.1300     0.0170 H     1 <1>   0.0800 
 39 H       -7.8690    -0.6700     0.8520 H     1 <1>   0.0800 
 40 H       -0.6960     6.3900     1.8460 H     1 <1>   0.0800 
 41 H       -5.9220    -0.2160     2.8570 H     1 <1>   0.4000 
 42 H       -7.7340     0.5800    -1.3150 H     1 <1>   0.0800 
 43 H       -7.3950    -0.9260    -2.1290 H     1 <1>   0.0800 
 44 H       -0.3060     7.5610    -0.9120 H     1 <1>   0.0800 
 45 H       -0.4190     8.4340     0.5930 H     1 <1>   0.0800 
 46 H       -1.8110     7.5780    -0.0140 H     1 <1>   0.0800 
 47 H        1.6470     6.1360    -0.0550 H     1 <1>   0.0800 
 48 H        1.5400     5.4070     1.5270 H     1 <1>   0.0800 
 49 H        1.6090     7.1430     1.3740 H     1 <1>   0.0800 
 50 H       -9.9080    -0.3230    -0.5530 H     1 <1>   0.0800 
 51 H       -9.5630    -1.8300    -1.3710 H     1 <1>   0.0800 
 52 H       -9.7730    -0.3630    -2.2940 H     1 <1>   0.0800 
@<TRIPOS>BOND
  1   1   2  2   
  2   2   3  am  
  3   2   4  1   
  4   3   5  1   
  5   3   6  1   
  6   4   7  1   
  7   4   8  2   
  8   5   9  1   
  9   5  25  1   
 10   5  26  1   
 11   6  10  1   
 12   6  27  1   
 13   6  28  1   
 14   7  11  2   
 15   7  12  am  
 16   8  13  1   
 17   8  29  1   
 18   9  14  1   
 19   9  15  1   
 20   9  30  1   
 21  10  15  1   
 22  10  31  1   
 23  10  32  1   
 24  12  16  1   
 25  12  33  1   
 26  13  16  2   
 27  13  34  1   
 28  14  35  1   
 29  15  17  1   
 30  15  18  1   
 31  16  19  1   
 32  17  20  1   
 33  17  36  1   
 34  17  37  1   
 35  18  21  1   
 36  18  38  1   
 37  18  39  1   
 38  19  22  1   
 39  19  23  1   
 40  19  40  1   
 41  20  41  1   
 42  21  24  1   
 43  21  42  1   
 44  21  43  1   
 45  22  44  1   
 46  22  45  1   
 47  22  46  1   
 48  23  47  1   
 49  23  48  1   
 50  23  49  1   
 51  24  50  1   
 52  24  51  1   
 53  24  52  1   
@<TRIPOS>SUBSTRUCTURE
  1 ****   6 GROUP 4 **** **** 0

# MOE 2024.06 (io_trps.svl 2023.06)
