@<TRIPOS>MOLECULE
NONAME
47 49 1 0 0 
SMALL
USER_CHARGES


@<TRIPOS>ATOM
  1 O        5.1820    -1.1170    -0.4710 O.2   1 <1>  -0.5700 
  2 C        3.9770    -1.1670    -0.3150 C.2   1 <1>   0.5440 
  3 N        3.2020    -0.5940    -1.2990 N.am  1 <1>  -0.6600 
  4 C        3.4180    -1.7000     0.9100 C.ar  1 <1>   0.0860 
  5 C        3.6980    -0.5130    -2.7180 C.3   1 <1>   0.1400 
  6 C        2.1260     0.3740    -0.9550 C.3   1 <1>   0.1400 
  7 C        4.1010    -1.5450     2.1140 C.ar  1 <1>   0.1600 
  8 C        2.2010    -2.3680     0.9580 C.ar  1 <1>  -0.1500 
  9 C        4.7960     0.5590    -2.9200 C.3   1 <1>   0.3430 
 10 C        2.7370     1.7180    -0.5310 C.3   1 <1>  -0.1600 
 11 N        3.6810    -1.9420     3.3020 N.ar  1 <1>  -0.6200 
 12 C        1.7420    -2.8070     2.1820 C.ar  1 <1>  -0.1430 
 13 N        4.8850     1.4760    -1.7470 N.4   1 <1>  -0.9590 
 14 C        3.6940     2.3480    -1.5490 C.3   1 <1>   0.3430 
 15 C        2.5130    -2.5650     3.3100 C.ar  1 <1>   0.1600 
 16 C        0.4160    -3.5410     2.2960 C.3   1 <1>  -0.0970 
 17 C        6.1780     2.1760    -1.6030 C.3   1 <1>   0.5240 
 18 C        6.2930     2.5260    -0.1400 C.2   1 <1>  -0.1810 
 19 C        6.2050     3.7930     0.4220 C.2   1 <1>   0.1390 
 20 C        6.4680     1.6960     0.9130 C.2   1 <1>  -0.3020 
 21 N        6.2940     3.7560     1.7130 N.2   1 <1>  -0.7070 
 22 N        6.4680     2.4600     2.0220 N.pl3 1 <1>   0.3140 
 23 C        6.6190     2.0030     3.4100 C.3   1 <1>   0.0160 
 24 H        2.8720    -0.3100    -3.3780 H     1 <1>   0.0800 
 25 H        4.0970    -1.4720    -3.0030 H     1 <1>   0.0800 
 26 H        1.5250    -0.0130    -0.1490 H     1 <1>   0.0800 
 27 H        1.4760     0.5110    -1.8030 H     1 <1>   0.0800 
 28 H        5.0580    -1.0540     2.0880 H     1 <1>   0.1500 
 29 H        1.6360    -2.5380     0.0580 H     1 <1>   0.1500 
 30 H        4.6120     1.1110    -3.8270 H     1 <1>   0.0800 
 31 H        5.7350     0.0420    -3.0340 H     1 <1>   0.0800 
 32 H        3.2410     1.6080     0.4130 H     1 <1>   0.0800 
 33 H        1.9290     2.4080    -0.3650 H     1 <1>   0.0800 
 34 H        4.8850     0.8110    -0.9490 H     1 <1>   0.4500 
 35 H        4.0060     3.3080    -1.1700 H     1 <1>   0.0800 
 36 H        3.1880     2.5070    -2.4870 H     1 <1>   0.0800 
 37 H        2.1540    -2.9020     4.2680 H     1 <1>   0.1500 
 38 H        0.1540    -4.0010     1.3600 H     1 <1>   0.0800 
 39 H       -0.3620    -2.8530     2.5730 H     1 <1>   0.0800 
 40 H        0.4790    -4.3120     3.0430 H     1 <1>   0.0800 
 41 H        6.2120     3.0590    -2.2190 H     1 <1>   0.0800 
 42 H        6.9900     1.5190    -1.8740 H     1 <1>   0.0800 
 43 H        6.0720     4.7140    -0.1230 H     1 <1>   0.1500 
 44 H        6.5920     0.6270     0.9450 H     1 <1>   0.1500 
 45 H        7.4650     1.3460     3.4780 H     1 <1>   0.0800 
 46 H        5.7280     1.4860     3.7120 H     1 <1>   0.0800 
 47 H        6.7730     2.8550     4.0460 H     1 <1>   0.0800 
@<TRIPOS>BOND
  1   1   2  2   
  2   2   3  am  
  3   2   4  1   
  4   3   5  1   
  5   3   6  1   
  6   4   7  ar  
  7   4   8  ar  
  8   5   9  1   
  9   5  24  1   
 10   5  25  1   
 11   6  10  1   
 12   6  26  1   
 13   6  27  1   
 14   7  11  ar  
 15   7  28  1   
 16   8  12  ar  
 17   8  29  1   
 18   9  13  1   
 19   9  30  1   
 20   9  31  1   
 21  10  14  1   
 22  10  32  1   
 23  10  33  1   
 24  11  15  ar  
 25  12  15  ar  
 26  12  16  1   
 27  13  14  1   
 28  13  17  1   
 29  13  34  1   
 30  14  35  1   
 31  14  36  1   
 32  15  37  1   
 33  16  38  1   
 34  16  39  1   
 35  16  40  1   
 36  17  18  1   
 37  17  41  1   
 38  17  42  1   
 39  18  19  1   
 40  18  20  2   
 41  19  21  2   
 42  19  43  1   
 43  20  22  1   
 44  20  44  1   
 45  21  22  1   
 46  22  23  1   
 47  23  45  1   
 48  23  46  1   
 49  23  47  1   
@<TRIPOS>SUBSTRUCTURE
  1 ****   2 GROUP 4 **** **** 0

# MOE 2024.06 (io_trps.svl 2023.06)
