@<TRIPOS>MOLECULE
NONAME
51 53 1 0 0 
SMALL
USER_CHARGES


@<TRIPOS>ATOM
  1 S       -1.7080    -0.7250    -2.0330 S.o2  1 <1>   1.2040 
  2 O       -1.0740    -1.8120    -2.7450 O.2   1 <1>  -0.6500 
  3 O       -2.4870     0.2560    -2.7550 O.2   1 <1>  -0.6500 
  4 C       -2.6910    -1.3930    -0.6690 C.ar  1 <1>  -0.0090 
  5 C       -0.4240     0.1570    -1.1670 C.3   1 <1>  -0.1350 
  6 C       -3.7910    -0.7060    -0.1710 C.ar  1 <1>  -0.1500 
  7 C       -2.3540    -2.5980    -0.0660 C.ar  1 <1>  -0.1500 
  8 C       -4.5320    -1.2040     0.8870 C.ar  1 <1>  -0.1500 
  9 C       -3.0890    -3.1030     0.9930 C.ar  1 <1>  -0.1500 
 10 C       -4.1880    -2.4110     1.4730 C.ar  1 <1>  -0.1430 
 11 C       -5.0140    -2.9790     2.6260 C.3   1 <1>   0.0440 
 12 C       -5.3910    -4.4430     2.4390 C.2   1 <1>   0.5690 
 13 O       -4.9680    -5.2410     3.2420 O.2   1 <1>  -0.5700 
 14 N       -6.1880    -4.8360     1.3980 N.am  1 <1>  -0.6600 
 15 C       -6.6380    -4.0010     0.2540 C.3   1 <1>   0.1400 
 16 C       -6.6180    -6.2360     1.1990 C.3   1 <1>   0.1400 
 17 C       -7.4720    -4.9300    -0.6380 C.3   1 <1>   0.2000 
 18 C       -6.9570    -6.3310    -0.2900 C.3   1 <1>  -0.0800 
 19 O       -8.8230    -4.8430    -0.2820 O.3   1 <1>  -0.5600 
 20 C       -7.9310    -7.4740    -0.6290 C.3   1 <1>   0.0200 
 21 C       -9.5390    -3.8290    -0.9150 C.3   1 <1>   0.0400 
 22 C       -7.3230    -8.8540    -0.4370 C.2   1 <1>  -0.0400 
 23 O       -8.0820    -9.9030    -0.6110 O.3   1 <1>  -0.0190 
 24 C       -6.0960    -9.2900    -0.1100 C.2   1 <1>  -0.1500 
 25 N       -7.4320   -11.0140    -0.4170 N.2   1 <1>  -0.4100 
 26 C       -6.2320   -10.6750    -0.1120 C.2   1 <1>   0.1080 
 27 C       -5.1240   -11.6550     0.2030 C.3   1 <1>  -0.0590 
 28 H        0.1400    -0.5140    -0.5480 H     1 <1>   0.0800 
 29 H       -0.8480     0.9250    -0.5510 H     1 <1>   0.0800 
 30 H        0.2440     0.6140    -1.8710 H     1 <1>   0.0800 
 31 H       -4.0760     0.2320    -0.6190 H     1 <1>   0.1500 
 32 H       -1.5070    -3.1560    -0.4320 H     1 <1>   0.1500 
 33 H       -5.3790    -0.6440     1.2470 H     1 <1>   0.1500 
 34 H       -2.8020    -4.0420     1.4390 H     1 <1>   0.1500 
 35 H       -5.9190    -2.4160     2.7520 H     1 <1>   0.0800 
 36 H       -4.4470    -2.8840     3.5340 H     1 <1>   0.0800 
 37 H       -7.2070    -3.1530     0.5910 H     1 <1>   0.0800 
 38 H       -5.7740    -3.6660    -0.2940 H     1 <1>   0.0800 
 39 H       -5.8410    -6.9240     1.4840 H     1 <1>   0.0800 
 40 H       -7.4940    -6.4170     1.7990 H     1 <1>   0.0800 
 41 H       -7.3630    -4.7100    -1.6870 H     1 <1>   0.0800 
 42 H       -6.0390    -6.4840    -0.8290 H     1 <1>   0.0800 
 43 H       -8.2440    -7.3830    -1.6530 H     1 <1>   0.0800 
 44 H       -8.8100    -7.3980    -0.0130 H     1 <1>   0.0800 
 45 H      -10.5480    -3.8520    -0.5430 H     1 <1>   0.0800 
 46 H       -9.5420    -4.0060    -1.9770 H     1 <1>   0.0800 
 47 H       -9.0940    -2.8760    -0.6910 H     1 <1>   0.0800 
 48 H       -5.1960    -8.7450     0.1080 H     1 <1>   0.1500 
 49 H       -4.7520   -11.4780     1.1940 H     1 <1>   0.0800 
 50 H       -4.3240   -11.5390    -0.5050 H     1 <1>   0.0800 
 51 H       -5.4980   -12.6610     0.1450 H     1 <1>   0.0800 
@<TRIPOS>BOND
  1   1   2  2   
  2   1   3  2   
  3   1   4  1   
  4   1   5  1   
  5   4   6  ar  
  6   4   7  ar  
  7   5  28  1   
  8   5  29  1   
  9   5  30  1   
 10   6   8  ar  
 11   6  31  1   
 12   7   9  ar  
 13   7  32  1   
 14   8  10  ar  
 15   8  33  1   
 16   9  10  ar  
 17   9  34  1   
 18  10  11  1   
 19  11  12  1   
 20  11  35  1   
 21  11  36  1   
 22  12  13  2   
 23  12  14  am  
 24  14  15  1   
 25  14  16  1   
 26  15  17  1   
 27  15  37  1   
 28  15  38  1   
 29  16  18  1   
 30  16  39  1   
 31  16  40  1   
 32  17  18  1   
 33  17  19  1   
 34  17  41  1   
 35  18  20  1   
 36  18  42  1   
 37  19  21  1   
 38  20  22  1   
 39  20  43  1   
 40  20  44  1   
 41  21  45  1   
 42  21  46  1   
 43  21  47  1   
 44  22  23  1   
 45  22  24  2   
 46  23  25  1   
 47  24  26  1   
 48  24  48  1   
 49  25  26  2   
 50  26  27  1   
 51  27  49  1   
 52  27  50  1   
 53  27  51  1   
@<TRIPOS>SUBSTRUCTURE
  1 ****  15 GROUP 4 **** **** 0

# MOE 2024.06 (io_trps.svl 2023.06)
