@<TRIPOS>MOLECULE
NONAME
51 55 1 0 0 
SMALL
USER_CHARGES


@<TRIPOS>ATOM
  1 O        0.2270     0.6150    -0.9710 O.2   1 <1>  -0.5700 
  2 C       -0.2850     1.6630    -0.6000 C.2   1 <1>   0.7160 
  3 N       -1.6640     1.6560    -0.4290 N.am  1 <1>  -0.6600 
  4 C        0.5720     2.8240    -0.3420 C.2   1 <1>   0.2030 
  5 C       -2.4420     2.7610     0.2100 C.3   1 <1>   0.1400 
  6 C       -2.4710     0.4630    -0.8310 C.3   1 <1>   0.1400 
  7 N        0.2930     4.1020    -0.5750 N.2   1 <1>  -0.7070 
  8 C        1.8680     2.7260     0.1950 C.2   1 <1>  -0.1810 
  9 C       -3.5460     3.2830    -0.7380 C.3   1 <1>   0.1430 
 10 C       -3.9810     0.7580    -0.8560 C.3   1 <1>  -0.1600 
 11 N        1.3840     4.7880    -0.2010 N.pl3 1 <1>   0.3000 
 12 C        2.3470     3.9760     0.2650 C.2   1 <1>  -0.3320 
 13 C        2.6550     1.5010     0.6290 C.3   1 <1>   0.0210 
 14 C       -4.4880     4.1300     0.1020 C.ar  1 <1>   0.1670 
 15 C       -4.2660     2.1290    -1.4880 C.3   1 <1>  -0.1600 
 16 C       -2.9890     4.3310    -1.7360 C.3   1 <1>  -0.1600 
 17 C        3.7180     4.3730     0.7820 C.3   1 <1>   0.0200 
 18 C        3.8620     1.9190     1.4900 C.3   1 <1>  -0.1600 
 19 N       -5.4060     3.6710     0.9260 N.ar  1 <1>  -0.6200 
 20 C       -4.2580     5.4610    -0.0800 C.ar  1 <1>  -0.1440 
 21 C       -3.1410     5.7040    -1.0640 C.3   1 <1>  -0.0170 
 22 C        4.6120     3.1240     0.8860 C.3   1 <1>  -0.1600 
 23 C       -6.0970     4.6120     1.5540 C.ar  1 <1>   0.4770 
 24 C       -5.0330     6.3480     0.6230 C.ar  1 <1>   0.1600 
 25 N       -5.9680     5.9290     1.4520 N.ar  1 <1>  -0.6200 
 26 C       -7.1670     4.1290     2.5020 C.3   1 <1>  -0.0970 
 27 H       -1.8120     3.5690     0.5280 H     1 <1>   0.0800 
 28 H       -2.9060     2.3670     1.0980 H     1 <1>   0.0800 
 29 H       -2.2660    -0.3480    -0.1540 H     1 <1>   0.0800 
 30 H       -2.1570     0.1590    -1.8160 H     1 <1>   0.0800 
 31 H       -4.3700     0.7330     0.1480 H     1 <1>   0.0800 
 32 H       -4.4820    -0.0140    -1.4120 H     1 <1>   0.0800 
 33 H        1.4500     5.8100    -0.2780 H     1 <1>   0.2700 
 34 H        2.9950     0.9840    -0.2510 H     1 <1>   0.0800 
 35 H        2.0220     0.8330     1.1870 H     1 <1>   0.0800 
 36 H       -3.9220     2.0900    -2.5060 H     1 <1>   0.0800 
 37 H       -5.3270     2.3100    -1.5120 H     1 <1>   0.0800 
 38 H       -3.5940     4.3360    -2.6250 H     1 <1>   0.0800 
 39 H       -1.9720     4.1260    -2.0210 H     1 <1>   0.0800 
 40 H        3.6090     4.8210     1.7540 H     1 <1>   0.0800 
 41 H        4.1760     5.0900     0.1230 H     1 <1>   0.0800 
 42 H        4.5320     1.0830     1.5920 H     1 <1>   0.0800 
 43 H        3.5120     2.1850     2.4730 H     1 <1>   0.0800 
 44 H       -3.3880     6.4710    -1.7780 H     1 <1>   0.0800 
 45 H       -2.2400     5.9660    -0.5360 H     1 <1>   0.0800 
 46 H        5.4790     3.3520     1.4810 H     1 <1>   0.0800 
 47 H        4.9510     2.8570    -0.1010 H     1 <1>   0.0800 
 48 H       -4.8890     7.4090     0.5100 H     1 <1>   0.1500 
 49 H       -6.9820     3.1100     2.7870 H     1 <1>   0.0800 
 50 H       -8.1230     4.1920     2.0170 H     1 <1>   0.0800 
 51 H       -7.1770     4.7430     3.3830 H     1 <1>   0.0800 
@<TRIPOS>BOND
  1   1   2  2   
  2   2   3  am  
  3   2   4  1   
  4   3   5  1   
  5   3   6  1   
  6   4   7  2   
  7   4   8  1   
  8   5   9  1   
  9   5  27  1   
 10   5  28  1   
 11   6  10  1   
 12   6  29  1   
 13   6  30  1   
 14   7  11  1   
 15   8  12  2   
 16   8  13  1   
 17   9  14  1   
 18   9  15  1   
 19   9  16  1   
 20  10  15  1   
 21  10  31  1   
 22  10  32  1   
 23  11  12  1   
 24  11  33  1   
 25  12  17  1   
 26  13  18  1   
 27  13  34  1   
 28  13  35  1   
 29  14  19  ar  
 30  14  20  ar  
 31  15  36  1   
 32  15  37  1   
 33  16  21  1   
 34  16  38  1   
 35  16  39  1   
 36  17  22  1   
 37  17  40  1   
 38  17  41  1   
 39  18  22  1   
 40  18  42  1   
 41  18  43  1   
 42  19  23  ar  
 43  20  21  1   
 44  20  24  ar  
 45  21  44  1   
 46  21  45  1   
 47  22  46  1   
 48  22  47  1   
 49  23  25  ar  
 50  23  26  1   
 51  24  25  ar  
 52  24  48  1   
 53  26  49  1   
 54  26  50  1   
 55  26  51  1   
@<TRIPOS>SUBSTRUCTURE
  1 ****   5 GROUP 4 **** **** 0

# MOE 2024.06 (io_trps.svl 2023.06)
