@<TRIPOS>MOLECULE
NONAME
41 43 1 0 0 
SMALL
USER_CHARGES


@<TRIPOS>ATOM
  1 F        1.2490     0.4010    -0.5060 F     1 <1>  -0.1900 
  2 C        1.6390     1.5200     0.0490 C.ar  1 <1>   0.1900 
  3 C        2.6710     2.2230    -0.5210 C.ar  1 <1>  -0.1500 
  4 C        0.9750     1.9420     1.2050 C.ar  1 <1>  -0.1500 
  5 C        3.0650     3.4170     0.0920 C.ar  1 <1>   0.0000 
  6 C        1.3640     3.1160     1.8100 C.ar  1 <1>  -0.1500 
  7 C        2.4140     3.8500     1.2440 C.ar  1 <1>  -0.1520 
  8 C        4.0530     4.3810    -0.1930 C.2   1 <1>  -0.1500 
  9 N        2.9840     5.0290     1.6440 N.pl3 1 <1>   0.0330 
 10 C        3.9810     5.3520     0.7570 C.2   1 <1>  -0.3320 
 11 C        4.7990     6.6150     0.9420 C.3   1 <1>   0.5230 
 12 N        5.4710     6.9280    -0.3400 N.4   1 <1>  -0.9590 
 13 C        6.5750     7.9190    -0.1070 C.3   1 <1>   0.3430 
 14 C        4.4690     7.4010    -1.3510 C.3   1 <1>   0.2630 
 15 C        7.4860     8.1250    -1.3240 C.3   1 <1>   0.0960 
 16 N        8.5290     9.0980    -0.9700 N.pl3 1 <1>   0.3140 
 17 N        8.4250     9.8850     0.1160 N.2   1 <1>  -0.7070 
 18 C        9.6730     9.3340    -1.6390 C.2   1 <1>  -0.3020 
 19 C        9.5040    10.6040     0.1100 C.2   1 <1>   0.1080 
 20 C       10.3270    10.3030    -0.9670 C.2   1 <1>  -0.1500 
 21 C        9.7990    11.6420     1.1690 C.3   1 <1>  -0.0590 
 22 H        3.1600     1.8700    -1.4090 H     1 <1>   0.1500 
 23 H        0.1750     1.3420     1.5990 H     1 <1>   0.1500 
 24 H        0.8720     3.4660     2.7010 H     1 <1>   0.1500 
 25 H        4.7110     4.2810    -1.0380 H     1 <1>   0.1500 
 26 H        2.6840     5.5430     2.4820 H     1 <1>   0.2700 
 27 H        5.5290     6.4550     1.7200 H     1 <1>   0.0800 
 28 H        4.1610     7.4350     1.2320 H     1 <1>   0.0800 
 29 H        5.8650     6.0290    -0.6490 H     1 <1>   0.4500 
 30 H        7.1910     7.5850     0.7140 H     1 <1>   0.0800 
 31 H        6.1520     8.8720     0.1690 H     1 <1>   0.0800 
 32 H        4.0360     8.3390    -1.0410 H     1 <1>   0.0800 
 33 H        3.6760     6.6780    -1.4590 H     1 <1>   0.0800 
 34 H        4.9350     7.5380    -2.3130 H     1 <1>   0.0800 
 35 H        6.9350     8.5220    -2.1550 H     1 <1>   0.0800 
 36 H        7.9640     7.2040    -1.6010 H     1 <1>   0.0800 
 37 H        9.9600     8.8180    -2.5370 H     1 <1>   0.1500 
 38 H       11.2750    10.7610    -1.1920 H     1 <1>   0.1500 
 39 H        9.0120    12.3730     1.1860 H     1 <1>   0.0800 
 40 H       10.7310    12.1340     0.9630 H     1 <1>   0.0800 
 41 H        9.8570    11.1680     2.1320 H     1 <1>   0.0800 
@<TRIPOS>BOND
  1   1   2  1   
  2   2   3  ar  
  3   2   4  ar  
  4   3   5  ar  
  5   3  22  1   
  6   4   6  ar  
  7   4  23  1   
  8   5   7  ar  
  9   5   8  1   
 10   6   7  ar  
 11   6  24  1   
 12   7   9  1   
 13   8  10  2   
 14   8  25  1   
 15   9  10  1   
 16   9  26  1   
 17  10  11  1   
 18  11  12  1   
 19  11  27  1   
 20  11  28  1   
 21  12  13  1   
 22  12  14  1   
 23  12  29  1   
 24  13  15  1   
 25  13  30  1   
 26  13  31  1   
 27  14  32  1   
 28  14  33  1   
 29  14  34  1   
 30  15  16  1   
 31  15  35  1   
 32  15  36  1   
 33  16  17  1   
 34  16  18  1   
 35  17  19  2   
 36  18  20  2   
 37  18  37  1   
 38  19  20  1   
 39  19  21  1   
 40  20  38  1   
 41  21  39  1   
 42  21  40  1   
 43  21  41  1   
@<TRIPOS>SUBSTRUCTURE
  1 ****  12 GROUP 4 **** **** 0

# MOE 2024.06 (io_trps.svl 2023.06)
