@<TRIPOS>MOLECULE
NONAME
52 55 1 0 0 
SMALL
USER_CHARGES


@<TRIPOS>ATOM
  1 O       -1.4390     0.7900     0.5270 O.2   1 <1>  -0.5700 
  2 C       -2.3200     1.5590     0.8780 C.2   1 <1>   0.7160 
  3 N       -1.9630     2.8640     1.1300 N.am  1 <1>  -0.7300 
  4 C       -3.7170     1.1380     1.0370 C.2   1 <1>   0.4300 
  5 C       -0.6030     3.4490     1.0110 C.3   1 <1>   0.0600 
  6 N       -4.6740     1.9130     1.4320 N.2   1 <1>  -0.4100 
  7 N       -4.1740    -0.1030     0.7950 N.2   1 <1>  -0.5650 
  8 O       -5.7680     1.2220     1.4540 O.3   1 <1>  -0.0190 
  9 C       -5.4090     0.0280     1.0580 C.2   1 <1>   0.2980 
 10 C       -6.4570    -1.0800     0.9690 C.3   1 <1>   0.2900 
 11 N       -7.4870    -0.8410    -0.0730 N.3   1 <1>  -0.8100 
 12 C       -8.5560     0.0700     0.4030 C.3   1 <1>   0.1100 
 13 C       -8.0580    -2.1060    -0.5580 C.3   1 <1>   0.1100 
 14 C       -9.5430     0.4280    -0.7250 C.3   1 <1>   0.1430 
 15 C       -9.0140    -1.8410    -1.7280 C.3   1 <1>  -0.1600 
 16 C      -10.6130     1.3410    -0.1580 C.ar  1 <1>   0.1670 
 17 C      -10.1300    -0.8640    -1.3280 C.3   1 <1>  -0.1600 
 18 C       -8.8690     1.3240    -1.7990 C.3   1 <1>  -0.1600 
 19 N      -11.5820     0.9700     0.6430 N.ar  1 <1>  -0.6200 
 20 C      -10.4410     2.6280    -0.5670 C.ar  1 <1>  -0.1430 
 21 C       -9.2360     2.7800    -1.4620 C.3   1 <1>  -0.0170 
 22 C      -12.4090     1.9450     1.0290 C.ar  1 <1>   0.7200 
 23 C      -11.3400     3.5630    -0.1220 C.ar  1 <1>   0.1600 
 24 N      -12.3290     3.2330     0.6750 N.ar  1 <1>  -0.6200 
 25 N      -13.4480     1.5860     1.8700 N.pl3 1 <1>  -0.8380 
 26 C      -14.4790     2.5720     2.3000 C.3   1 <1>   0.1290 
 27 C      -13.7780     0.1550     2.1200 C.3   1 <1>   0.1290 
 28 H       -2.7110     3.4960     1.4300 H     1 <1>   0.3700 
 29 H        0.1030     2.7020     0.6890 H     1 <1>   0.0800 
 30 H       -0.2880     3.8350     1.9650 H     1 <1>   0.0800 
 31 H       -0.6130     4.2480     0.2900 H     1 <1>   0.0800 
 32 H       -6.9250    -1.2100     1.9290 H     1 <1>   0.0800 
 33 H       -5.9270    -1.9870     0.7380 H     1 <1>   0.0800 
 34 H       -8.1290     0.9820     0.7800 H     1 <1>   0.0800 
 35 H       -9.1000    -0.3960     1.2080 H     1 <1>   0.0800 
 36 H       -8.5860    -2.6010     0.2400 H     1 <1>   0.0800 
 37 H       -7.2660    -2.7530    -0.8990 H     1 <1>   0.0800 
 38 H       -9.4480    -2.7710    -2.0490 H     1 <1>   0.0800 
 39 H       -8.4500    -1.4420    -2.5530 H     1 <1>   0.0800 
 40 H      -10.7510    -0.6330    -2.1760 H     1 <1>   0.0800 
 41 H      -10.7550    -1.3380    -0.5910 H     1 <1>   0.0800 
 42 H       -9.2740     1.0910    -2.7670 H     1 <1>   0.0800 
 43 H       -7.8030     1.1830    -1.8380 H     1 <1>   0.0800 
 44 H       -9.4640     3.3460    -2.3490 H     1 <1>   0.0800 
 45 H       -8.4380     3.2540    -0.9170 H     1 <1>   0.0800 
 46 H      -11.2470     4.5930    -0.4190 H     1 <1>   0.1500 
 47 H      -14.0200     3.5210     2.5200 H     1 <1>   0.0800 
 48 H      -14.9790     2.2280     3.1880 H     1 <1>   0.0800 
 49 H      -15.2000     2.7060     1.5130 H     1 <1>   0.0800 
 50 H      -12.8850    -0.3910     2.3710 H     1 <1>   0.0800 
 51 H      -14.2120    -0.2730     1.2330 H     1 <1>   0.0800 
 52 H      -14.4720     0.0630     2.9350 H     1 <1>   0.0800 
@<TRIPOS>BOND
  1   1   2  2   
  2   2   3  am  
  3   2   4  1   
  4   3   5  1   
  5   3  28  1   
  6   4   6  2   
  7   4   7  1   
  8   5  29  1   
  9   5  30  1   
 10   5  31  1   
 11   6   8  1   
 12   7   9  2   
 13   8   9  1   
 14   9  10  1   
 15  10  11  1   
 16  10  32  1   
 17  10  33  1   
 18  11  12  1   
 19  11  13  1   
 20  12  14  1   
 21  12  34  1   
 22  12  35  1   
 23  13  15  1   
 24  13  36  1   
 25  13  37  1   
 26  14  16  1   
 27  14  17  1   
 28  14  18  1   
 29  15  17  1   
 30  15  38  1   
 31  15  39  1   
 32  16  19  ar  
 33  16  20  ar  
 34  17  40  1   
 35  17  41  1   
 36  18  21  1   
 37  18  42  1   
 38  18  43  1   
 39  19  22  ar  
 40  20  21  1   
 41  20  23  ar  
 42  21  44  1   
 43  21  45  1   
 44  22  24  ar  
 45  22  25  1   
 46  23  24  ar  
 47  23  46  1   
 48  25  26  1   
 49  25  27  1   
 50  26  47  1   
 51  26  48  1   
 52  26  49  1   
 53  27  50  1   
 54  27  51  1   
 55  27  52  1   
@<TRIPOS>SUBSTRUCTURE
  1 ****  12 GROUP 4 **** **** 0

# MOE 2024.06 (io_trps.svl 2023.06)
