@<TRIPOS>MOLECULE
NONAME
46 47 1 0 0 
SMALL
USER_CHARGES


@<TRIPOS>ATOM
  1 O        2.2250    -0.3680    -3.6580 O.2   1 <1>  -0.5700 
  2 C        1.5250    -0.3120    -2.6760 C.2   1 <1>   0.5690 
  3 N        1.6920     0.6320    -1.7210 N.am  1 <1>  -0.7300 
  4 C        0.4300    -1.3630    -2.4650 C.3   1 <1>   0.1710 
  5 C        2.8420     1.5390    -1.5710 C.3   1 <1>   0.2840 
  6 N       -0.3950    -1.1470    -1.2290 N.3   1 <1>  -0.8100 
  7 C        3.2960     1.4870    -0.1190 C.ar  1 <1>  -0.1430 
  8 C       -0.8230    -2.4150    -0.5990 C.3   1 <1>   0.1100 
  9 C       -1.5470    -0.2830    -1.5170 C.3   1 <1>   0.0300 
 10 C        3.3080     2.6230     0.6860 C.ar  1 <1>   0.0830 
 11 C        3.6970     0.2700     0.4130 C.ar  1 <1>  -0.1500 
 12 C        0.3270    -3.1130     0.1480 C.3   1 <1>   0.2000 
 13 O        2.9180     3.8020     0.1310 O.3   1 <1>  -0.3630 
 14 C        3.7110     2.5190     2.0170 C.ar  1 <1>  -0.1500 
 15 C        4.0890     0.1700     1.7360 C.ar  1 <1>  -0.1500 
 16 O       -0.1980    -4.2510     0.7760 O.3   1 <1>  -0.5600 
 17 C        0.9840    -2.1910     1.1970 C.3   1 <1>   0.1200 
 18 C        2.9100     5.0050     0.8670 C.3   1 <1>   0.0400 
 19 C        4.0970     1.2970     2.5370 C.ar  1 <1>  -0.1500 
 20 C        0.7450    -4.9550     1.5330 C.3   1 <1>   0.1200 
 21 O        1.9270    -2.9000     1.9540 O.3   1 <1>  -0.5600 
 22 C        1.3900    -4.0290     2.5780 C.3   1 <1>   0.1200 
 23 H        1.0720     0.5660    -0.9070 H     1 <1>   0.3700 
 24 H        0.9290    -2.3130    -2.4140 H     1 <1>   0.0800 
 25 H       -0.2020    -1.3840    -3.3350 H     1 <1>   0.0800 
 26 H        2.5440     2.5310    -1.8610 H     1 <1>   0.0800 
 27 H        3.6440     1.2250    -2.2170 H     1 <1>   0.0800 
 28 H       -1.2250    -3.0790    -1.3460 H     1 <1>   0.0800 
 29 H       -1.5950    -2.2060     0.1210 H     1 <1>   0.0800 
 30 H       -1.2160     0.6440    -1.9540 H     1 <1>   0.0800 
 31 H       -2.0720    -0.0560    -0.6040 H     1 <1>   0.0800 
 32 H       -2.2240    -0.7700    -2.1980 H     1 <1>   0.0800 
 33 H        3.6970    -0.6140    -0.2030 H     1 <1>   0.1500 
 34 H        1.0690    -3.4410    -0.5560 H     1 <1>   0.0800 
 35 H        3.7300     3.3740     2.6640 H     1 <1>   0.1500 
 36 H        4.3830    -0.7850     2.1370 H     1 <1>   0.1500 
 37 H        0.2420    -1.7830     1.8610 H     1 <1>   0.0800 
 38 H        1.4920    -1.3770     0.7120 H     1 <1>   0.0800 
 39 H        2.5740     5.7920     0.2160 H     1 <1>   0.0800 
 40 H        3.9090     5.2130     1.2060 H     1 <1>   0.0800 
 41 H        2.2330     4.9020     1.6960 H     1 <1>   0.0800 
 42 H        4.4030     1.2190     3.5660 H     1 <1>   0.1500 
 43 H        1.4940    -5.3540     0.8700 H     1 <1>   0.0800 
 44 H        0.2390    -5.7710     2.0170 H     1 <1>   0.0800 
 45 H        2.1890    -4.5360     3.0880 H     1 <1>   0.0800 
 46 H        0.6610    -3.7090     3.3020 H     1 <1>   0.0800 
@<TRIPOS>BOND
  1   1   2  2   
  2   2   3  am  
  3   2   4  1   
  4   3   5  1   
  5   3  23  1   
  6   4   6  1   
  7   4  24  1   
  8   4  25  1   
  9   5   7  1   
 10   5  26  1   
 11   5  27  1   
 12   6   8  1   
 13   6   9  1   
 14   7  10  ar  
 15   7  11  ar  
 16   8  12  1   
 17   8  28  1   
 18   8  29  1   
 19   9  30  1   
 20   9  31  1   
 21   9  32  1   
 22  10  13  1   
 23  10  14  ar  
 24  11  15  ar  
 25  11  33  1   
 26  12  16  1   
 27  12  17  1   
 28  12  34  1   
 29  13  18  1   
 30  14  19  ar  
 31  14  35  1   
 32  15  19  ar  
 33  15  36  1   
 34  16  20  1   
 35  17  21  1   
 36  17  37  1   
 37  17  38  1   
 38  18  39  1   
 39  18  40  1   
 40  18  41  1   
 41  19  42  1   
 42  20  22  1   
 43  20  43  1   
 44  20  44  1   
 45  21  22  1   
 46  22  45  1   
 47  22  46  1   
@<TRIPOS>SUBSTRUCTURE
  1 ****   3 GROUP 4 **** **** 0

# MOE 2024.06 (io_trps.svl 2023.06)
