@<TRIPOS>MOLECULE
NONAME
48 51 1 0 0 
SMALL
USER_CHARGES


@<TRIPOS>ATOM
  1 O       -0.6620     0.1560     0.9050 O.2   1 <1>  -0.5700 
  2 C       -1.6460     0.7970     0.5850 C.2   1 <1>   0.7150 
  3 N       -2.7960     0.1150     0.2660 N.am  1 <1>  -0.6600 
  4 C       -1.5870     2.2300     0.5260 C.2   1 <1>  -0.2370 
  5 C       -3.8730     0.6530    -0.6070 C.3   1 <1>   0.1400 
  6 C       -2.8930    -1.3680     0.3370 C.3   1 <1>   0.1400 
  7 N       -0.5050     2.9300     0.0960 N.pl3 1 <1>   0.3140 
  8 C       -2.5060     3.1770     0.8650 C.2   1 <1>  -0.1500 
  9 C       -4.8730    -0.4930    -0.7350 C.3   1 <1>   0.2000 
 10 C       -4.0000    -1.7510    -0.6550 C.3   1 <1>  -0.0800 
 11 N       -0.7120     4.2540     0.1220 N.2   1 <1>  -0.7070 
 12 C        0.7850     2.3920    -0.3660 C.3   1 <1>   0.0160 
 13 C       -1.9110     4.3930     0.5900 C.2   1 <1>   0.1080 
 14 O       -5.7230    -0.4420     0.3610 O.3   1 <1>  -0.6800 
 15 C       -4.7640    -3.0390    -0.2820 C.3   1 <1>  -0.0170 
 16 C       -2.5390     5.7520     0.7960 C.3   1 <1>  -0.0590 
 17 C       -3.9680    -4.3510    -0.3230 C.ar  1 <1>  -0.1440 
 18 C       -4.5420    -5.5340     0.2070 C.ar  1 <1>   0.0000 
 19 C       -2.7160    -4.4600    -0.8600 C.ar  1 <1>  -0.1500 
 20 C       -3.7740    -6.7240     0.1670 C.ar  1 <1>   0.3100 
 21 C       -5.8400    -5.6100     0.7690 C.ar  1 <1>  -0.1500 
 22 C       -2.0440    -5.6880    -0.8550 C.ar  1 <1>   0.1600 
 23 N       -2.5280    -6.7830    -0.3650 N.ar  1 <1>  -0.6200 
 24 C       -4.3160    -7.9060     0.6950 C.ar  1 <1>  -0.1500 
 25 C       -6.3400    -6.7800     1.2730 C.ar  1 <1>  -0.1500 
 26 C       -5.5700    -7.9440     1.2390 C.ar  1 <1>  -0.1500 
 27 H       -4.3380     1.5280    -0.1910 H     1 <1>   0.0800 
 28 H       -3.4570     0.8900    -1.5710 H     1 <1>   0.0800 
 29 H       -1.9540    -1.8290     0.0820 H     1 <1>   0.0800 
 30 H       -3.1610    -1.6510     1.3400 H     1 <1>   0.0800 
 31 H       -3.4900     3.0360     1.2730 H     1 <1>   0.1500 
 32 H       -5.4680    -0.4390    -1.6310 H     1 <1>   0.0800 
 33 H       -3.5530    -1.8800    -1.6250 H     1 <1>   0.0800 
 34 H        0.6120     1.6510    -1.1230 H     1 <1>   0.0800 
 35 H        1.2980     1.9490     0.4670 H     1 <1>   0.0800 
 36 H        1.3780     3.1910    -0.7700 H     1 <1>   0.0800 
 37 H       -5.1850    -0.3340     1.1720 H     1 <1>   0.4000 
 38 H       -5.6050    -3.1400    -0.9450 H     1 <1>   0.0800 
 39 H       -5.1510    -2.9170     0.7140 H     1 <1>   0.0800 
 40 H       -3.5330     5.6530     1.1910 H     1 <1>   0.0800 
 41 H       -2.5810     6.2720    -0.1430 H     1 <1>   0.0800 
 42 H       -1.9400     6.3210     1.4830 H     1 <1>   0.0800 
 43 H       -2.1970    -3.6340    -1.3040 H     1 <1>   0.1500 
 44 H       -6.4570    -4.7330     0.8020 H     1 <1>   0.1500 
 45 H       -1.0570    -5.7230    -1.2850 H     1 <1>   0.1500 
 46 H       -3.7050    -8.7890     0.6550 H     1 <1>   0.1500 
 47 H       -7.3280    -6.8190     1.6990 H     1 <1>   0.1500 
 48 H       -5.9730    -8.8590     1.6400 H     1 <1>   0.1500 
@<TRIPOS>BOND
  1   1   2  2   
  2   2   3  am  
  3   2   4  1   
  4   3   5  1   
  5   3   6  1   
  6   4   7  1   
  7   4   8  2   
  8   5   9  1   
  9   5  27  1   
 10   5  28  1   
 11   6  10  1   
 12   6  29  1   
 13   6  30  1   
 14   7  11  1   
 15   7  12  1   
 16   8  13  1   
 17   8  31  1   
 18   9  10  1   
 19   9  14  1   
 20   9  32  1   
 21  10  15  1   
 22  10  33  1   
 23  11  13  2   
 24  12  34  1   
 25  12  35  1   
 26  12  36  1   
 27  13  16  1   
 28  14  37  1   
 29  15  17  1   
 30  15  38  1   
 31  15  39  1   
 32  16  40  1   
 33  16  41  1   
 34  16  42  1   
 35  17  18  ar  
 36  17  19  ar  
 37  18  20  ar  
 38  18  21  ar  
 39  19  22  ar  
 40  19  43  1   
 41  20  23  ar  
 42  20  24  ar  
 43  21  25  ar  
 44  21  44  1   
 45  22  23  ar  
 46  22  45  1   
 47  24  26  ar  
 48  24  46  1   
 49  25  26  ar  
 50  25  47  1   
 51  26  48  1   
@<TRIPOS>SUBSTRUCTURE
  1 ****   6 GROUP 4 **** **** 0

# MOE 2024.06 (io_trps.svl 2023.06)
