@<TRIPOS>MOLECULE
NONAME
39 40 1 0 0 
SMALL
USER_CHARGES


@<TRIPOS>ATOM
  1 S        1.7670     0.3090    -0.9470 S.3   1 <1>  -0.0800 
  2 C        0.7700    -0.9300    -0.2180 C.2   1 <1>   0.1980 
  3 C        1.9910     1.0150     0.6270 C.2   1 <1>  -0.1100 
  4 N        0.6280    -0.8200     1.0450 N.2   1 <1>  -0.5650 
  5 C        0.1890    -1.9940    -1.1390 C.3   1 <1>   0.5230 
  6 C        1.3200     0.2830     1.5290 C.2   1 <1>   0.0770 
  7 N       -0.8300    -2.8100    -0.3980 N.4   1 <1>  -0.9590 
  8 C       -1.0000    -4.1670    -0.9860 C.3   1 <1>   0.3430 
  9 C       -2.1120    -2.0480    -0.2460 C.3   1 <1>   0.2630 
 10 C       -1.7910    -5.0680    -0.0380 C.3   1 <1>  -0.1600 
 11 C       -1.8400    -6.5090    -0.5580 C.3   1 <1>   0.0210 
 12 C       -2.6820    -7.3550     0.3780 C.2   1 <1>  -0.1810 
 13 C       -2.2450    -8.0140     1.5270 C.2   1 <1>   0.1080 
 14 C       -4.0020    -7.6380     0.3000 C.2   1 <1>  -0.3320 
 15 N       -3.2030    -8.6480     2.1210 N.2   1 <1>  -0.7070 
 16 C       -0.8330    -8.0320     2.0690 C.3   1 <1>  -0.0590 
 17 N       -4.2870    -8.4210     1.3620 N.pl3 1 <1>   0.3000 
 18 C       -5.0540    -7.2270    -0.7170 C.3   1 <1>  -0.0600 
 19 H        2.5980     1.8990     0.7080 H     1 <1>   0.1500 
 20 H        0.9960    -2.6260    -1.4720 H     1 <1>   0.0800 
 21 H       -0.2590    -1.5270    -2.0000 H     1 <1>   0.0800 
 22 H        1.2780     0.4830     2.5880 H     1 <1>   0.1500 
 23 H       -0.4290    -2.8950     0.5540 H     1 <1>   0.4500 
 24 H       -0.0310    -4.6100    -1.1530 H     1 <1>   0.0800 
 25 H       -1.5090    -4.1010    -1.9350 H     1 <1>   0.0800 
 26 H       -2.5790    -1.8960    -1.2050 H     1 <1>   0.0800 
 27 H       -1.9210    -1.0860     0.2040 H     1 <1>   0.0800 
 28 H       -2.7950    -2.5850     0.3920 H     1 <1>   0.0800 
 29 H       -2.8020    -4.7160     0.0570 H     1 <1>   0.0800 
 30 H       -1.3330    -5.0710     0.9350 H     1 <1>   0.0800 
 31 H       -0.8500    -6.9260    -0.6210 H     1 <1>   0.0800 
 32 H       -2.2720    -6.5390    -1.5420 H     1 <1>   0.0800 
 33 H       -0.5370    -7.0420     2.3570 H     1 <1>   0.0800 
 34 H       -0.1590    -8.4110     1.3240 H     1 <1>   0.0800 
 35 H       -0.7850    -8.6720     2.9320 H     1 <1>   0.0800 
 36 H       -5.2050    -8.8170     1.5950 H     1 <1>   0.2700 
 37 H       -4.6330    -6.5830    -1.4670 H     1 <1>   0.0800 
 38 H       -5.8560    -6.7040    -0.2290 H     1 <1>   0.0800 
 39 H       -5.4540    -8.0990    -1.2040 H     1 <1>   0.0800 
@<TRIPOS>BOND
  1   1   2  1   
  2   1   3  1   
  3   2   4  2   
  4   2   5  1   
  5   3   6  2   
  6   3  19  1   
  7   4   6  1   
  8   5   7  1   
  9   5  20  1   
 10   5  21  1   
 11   6  22  1   
 12   7   8  1   
 13   7   9  1   
 14   7  23  1   
 15   8  10  1   
 16   8  24  1   
 17   8  25  1   
 18   9  26  1   
 19   9  27  1   
 20   9  28  1   
 21  10  11  1   
 22  10  29  1   
 23  10  30  1   
 24  11  12  1   
 25  11  31  1   
 26  11  32  1   
 27  12  13  1   
 28  12  14  2   
 29  13  15  2   
 30  13  16  1   
 31  14  17  1   
 32  14  18  1   
 33  15  17  1   
 34  16  33  1   
 35  16  34  1   
 36  16  35  1   
 37  17  36  1   
 38  18  37  1   
 39  18  38  1   
 40  18  39  1   
@<TRIPOS>SUBSTRUCTURE
  1 ****  10 GROUP 4 **** **** 0

# MOE 2024.06 (io_trps.svl 2023.06)
