@<TRIPOS>MOLECULE
NONAME
49 51 1 0 0 
SMALL
USER_CHARGES


@<TRIPOS>ATOM
  1 O       -0.3870    -0.0290     0.4540 O.2   1 <1>  -0.5700 
  2 C       -1.3800     0.6130     0.1710 C.2   1 <1>   0.7160 
  3 N       -2.5570    -0.0580     0.0640 N.am  1 <1>  -0.7300 
  4 C       -1.3390     2.0290    -0.0430 C.2   1 <1>  -0.0860 
  5 C       -2.8080    -1.4490     0.5000 C.3   1 <1>   0.2200 
  6 C       -2.4550     2.8740    -0.1400 C.2   1 <1>   0.3720 
  7 C       -0.2900     2.8890    -0.1760 C.2   1 <1>   0.0870 
  8 C       -2.3700    -2.4100    -0.6240 C.3   1 <1>   0.1200 
  9 C       -4.2980    -1.5880     0.8670 C.3   1 <1>   0.1200 
 10 N       -2.1030     4.1000    -0.2990 N.2   1 <1>  -0.4100 
 11 N       -3.7990     2.4700    -0.0570 N.pl3 1 <1>  -0.8210 
 12 O       -0.7980     4.0880    -0.3170 O.3   1 <1>  -0.0190 
 13 C        1.1420     2.7300    -0.1960 C.ar  1 <1>   0.0530 
 14 O       -2.4760    -3.7410    -0.2240 O.3   1 <1>  -0.6800 
 15 O       -4.5580    -2.8510     1.3740 O.3   1 <1>  -0.6800 
 16 C       -4.6610     2.9660    -1.1700 C.3   1 <1>   0.2090 
 17 C       -4.4420     2.8430     1.2340 C.3   1 <1>   0.2090 
 18 C        1.7640     1.6610    -0.8420 C.ar  1 <1>  -0.1500 
 19 C        1.9670     3.6690     0.4260 C.ar  1 <1>  -0.1500 
 20 C       -5.7520     3.8060    -0.5220 C.3   1 <1>  -0.1600 
 21 C       -5.8660     3.2470     0.8870 C.3   1 <1>  -0.1600 
 22 C        3.1400     1.5250    -0.8610 C.ar  1 <1>  -0.1500 
 23 C        3.3430     3.5420     0.4100 C.ar  1 <1>  -0.1500 
 24 C        3.9440     2.4710    -0.2310 C.ar  1 <1>   0.0830 
 25 O        5.2960     2.4160    -0.2010 O.3   1 <1>  -0.3620 
 26 C        6.0030     1.3490    -0.7940 C.3   1 <1>   0.0400 
 27 H       -3.3770     0.5540    -0.0710 H     1 <1>   0.3700 
 28 H       -2.2120    -1.6330     1.3780 H     1 <1>   0.0800 
 29 H       -1.3440    -2.2270    -0.8950 H     1 <1>   0.0800 
 30 H       -2.9960    -2.2780    -1.4890 H     1 <1>   0.0800 
 31 H       -4.9150    -1.4510    -0.0040 H     1 <1>   0.0800 
 32 H       -4.5720    -0.8730     1.6230 H     1 <1>   0.0800 
 33 H       -1.7410    -3.9710     0.3830 H     1 <1>   0.4000 
 34 H       -4.1050    -3.5200     0.8040 H     1 <1>   0.4000 
 35 H       -5.0980     2.1200    -1.6720 H     1 <1>   0.0800 
 36 H       -4.1030     3.5450    -1.8890 H     1 <1>   0.0800 
 37 H       -3.9240     3.6790     1.6780 H     1 <1>   0.0800 
 38 H       -4.4270     2.0140     1.9210 H     1 <1>   0.0800 
 39 H        1.1600     0.9240    -1.3380 H     1 <1>   0.1500 
 40 H        1.5220     4.5090     0.9290 H     1 <1>   0.1500 
 41 H       -6.6780     3.7520    -1.0660 H     1 <1>   0.0800 
 42 H       -5.4230     4.8310    -0.4850 H     1 <1>   0.0800 
 43 H       -6.2590     3.9660     1.5840 H     1 <1>   0.0800 
 44 H       -6.4920     2.3720     0.8890 H     1 <1>   0.0800 
 45 H        3.5680     0.6820    -1.3680 H     1 <1>   0.1500 
 46 H        3.9640     4.2730     0.8940 H     1 <1>   0.1500 
 47 H        7.0530     1.5160    -0.6350 H     1 <1>   0.0800 
 48 H        5.7900     1.3330    -1.8480 H     1 <1>   0.0800 
 49 H        5.7030     0.4290    -0.3240 H     1 <1>   0.0800 
@<TRIPOS>BOND
  1   1   2  2   
  2   2   3  am  
  3   2   4  1   
  4   3   5  1   
  5   3  27  1   
  6   4   6  1   
  7   4   7  2   
  8   5   8  1   
  9   5   9  1   
 10   5  28  1   
 11   6  10  2   
 12   6  11  1   
 13   7  12  1   
 14   7  13  1   
 15   8  14  1   
 16   8  29  1   
 17   8  30  1   
 18   9  15  1   
 19   9  31  1   
 20   9  32  1   
 21  10  12  1   
 22  11  16  1   
 23  11  17  1   
 24  13  18  ar  
 25  13  19  ar  
 26  14  33  1   
 27  15  34  1   
 28  16  20  1   
 29  16  35  1   
 30  16  36  1   
 31  17  21  1   
 32  17  37  1   
 33  17  38  1   
 34  18  22  ar  
 35  18  39  1   
 36  19  23  ar  
 37  19  40  1   
 38  20  21  1   
 39  20  41  1   
 40  20  42  1   
 41  21  43  1   
 42  21  44  1   
 43  22  24  ar  
 44  22  45  1   
 45  23  24  ar  
 46  23  46  1   
 47  24  25  1   
 48  25  26  1   
 49  26  47  1   
 50  26  48  1   
 51  26  49  1   
@<TRIPOS>SUBSTRUCTURE
  1 ****   4 GROUP 4 **** **** 0

# MOE 2024.06 (io_trps.svl 2023.06)
