@<TRIPOS>MOLECULE
NONAME
61 64 1 0 0 
SMALL
USER_CHARGES


@<TRIPOS>ATOM
  1 O       -0.9800     0.7510     1.4740 O.2   1 <1>  -0.5700 
  2 C       -1.1960     1.5010     0.5420 C.2   1 <1>   0.5690 
  3 N       -2.1080     1.0850    -0.4130 N.am  1 <1>  -0.6600 
  4 C       -0.4330     2.8890     0.5500 C.3   1 <1>   0.4300 
  5 C       -2.8110     1.8770    -1.4590 C.3   1 <1>   0.1400 
  6 C       -2.7190    -0.2710    -0.3370 C.3   1 <1>   0.1400 
  7 N       -1.1350     3.9210     1.3820 N.pl3 1 <1>  -0.8690 
  8 C       -0.1490     3.5170    -0.8360 C.3   1 <1>  -0.1600 
  9 C        0.9550     2.7260     1.2220 C.3   1 <1>  -0.1600 
 10 C       -4.1090     1.1210    -1.7380 C.3   1 <1>   0.2000 
 11 C       -3.7400    -0.3380    -1.4740 C.3   1 <1>  -0.0800 
 12 C       -2.5000     4.0910     1.2100 C.ar  1 <1>   0.1000 
 13 C        0.7610     2.6380    -1.7110 C.3   1 <1>  -0.1600 
 14 C        1.9160     1.8430     0.4030 C.3   1 <1>  -0.1600 
 15 O       -5.0690     1.5410    -0.8280 O.3   1 <1>  -0.6800 
 16 C       -4.9250    -1.2770    -1.1910 C.3   1 <1>   0.0210 
 17 C       -2.9860     5.0610     0.3460 C.ar  1 <1>  -0.1500 
 18 C       -3.4040     3.2970     1.9040 C.ar  1 <1>  -0.1500 
 19 C        2.1060     2.3960    -1.0150 C.3   1 <1>  -0.1600 
 20 C       -4.4500    -2.7060    -1.0070 C.2   1 <1>   0.1080 
 21 C       -4.3470     5.2130     0.1520 C.ar  1 <1>  -0.1500 
 22 C       -4.7650     3.4490     1.7140 C.ar  1 <1>  -0.1500 
 23 N       -4.0450    -3.4460    -1.9920 N.2   1 <1>  -0.7070 
 24 C       -4.3880    -3.3720     0.2130 C.2   1 <1>  -0.1500 
 25 C       -5.2440     4.4040     0.8310 C.ar  1 <1>  -0.1430 
 26 N       -3.7130    -4.6190    -1.4200 N.pl3 1 <1>   0.3000 
 27 C       -3.9100    -4.5980    -0.0850 C.2   1 <1>  -0.3320 
 28 C       -6.7380     4.5510     0.6110 C.3   1 <1>  -0.0970 
 29 C       -3.6250    -5.7690     0.8380 C.3   1 <1>  -0.0600 
 30 H       -3.0210     2.8810    -1.1420 H     1 <1>   0.0800 
 31 H       -2.2070     1.8920    -2.3490 H     1 <1>   0.0800 
 32 H       -1.9680    -1.0360    -0.4400 H     1 <1>   0.0800 
 33 H       -3.2060    -0.3810     0.6170 H     1 <1>   0.0800 
 34 H       -0.9230     3.6910     2.3580 H     1 <1>   0.4000 
 35 H       -1.0550     3.7370    -1.3590 H     1 <1>   0.0800 
 36 H        0.3430     4.4620    -0.6840 H     1 <1>   0.0800 
 37 H        1.4050     3.6960     1.3400 H     1 <1>   0.0800 
 38 H        0.8430     2.3000     2.2030 H     1 <1>   0.0800 
 39 H       -4.4900     1.2850    -2.7320 H     1 <1>   0.0800 
 40 H       -3.2240    -0.7080    -2.3440 H     1 <1>   0.0800 
 41 H        0.2850     1.6920    -1.9060 H     1 <1>   0.0800 
 42 H        0.9310     3.1230    -2.6570 H     1 <1>   0.0800 
 43 H        2.8700     1.7940     0.8990 H     1 <1>   0.0800 
 44 H        1.5280     0.8400     0.3470 H     1 <1>   0.0800 
 45 H       -4.6220     1.8630    -0.0140 H     1 <1>   0.4000 
 46 H       -5.6120    -1.2480    -2.0170 H     1 <1>   0.0800 
 47 H       -5.4530    -0.9650    -0.3080 H     1 <1>   0.0800 
 48 H       -2.2870     5.6940    -0.1690 H     1 <1>   0.1500 
 49 H       -3.0370     2.5510     2.5860 H     1 <1>   0.1500 
 50 H        2.6470     3.3260    -0.9600 H     1 <1>   0.0800 
 51 H        2.6970     1.7080    -1.5960 H     1 <1>   0.0800 
 52 H       -4.7040     5.9660    -0.5290 H     1 <1>   0.1500 
 53 H       -5.4520     2.8210     2.2540 H     1 <1>   0.1500 
 54 H       -4.6660    -2.9690     1.1700 H     1 <1>   0.1500 
 55 H       -3.3570    -5.4120    -1.9680 H     1 <1>   0.2700 
 56 H       -6.9690     5.5140     0.1920 H     1 <1>   0.0800 
 57 H       -7.2640     4.4520     1.5440 H     1 <1>   0.0800 
 58 H       -7.0800     3.7880    -0.0650 H     1 <1>   0.0800 
 59 H       -3.8620    -5.5050     1.8530 H     1 <1>   0.0800 
 60 H       -2.5850    -6.0380     0.7880 H     1 <1>   0.0800 
 61 H       -4.2220    -6.6180     0.5570 H     1 <1>   0.0800 
@<TRIPOS>BOND
  1   1   2  2   
  2   2   3  am  
  3   2   4  1   
  4   3   5  1   
  5   3   6  1   
  6   4   7  1   
  7   4   8  1   
  8   4   9  1   
  9   5  10  1   
 10   5  30  1   
 11   5  31  1   
 12   6  11  1   
 13   6  32  1   
 14   6  33  1   
 15   7  12  1   
 16   7  34  1   
 17   8  13  1   
 18   8  35  1   
 19   8  36  1   
 20   9  14  1   
 21   9  37  1   
 22   9  38  1   
 23  10  11  1   
 24  10  15  1   
 25  10  39  1   
 26  11  16  1   
 27  11  40  1   
 28  12  17  ar  
 29  12  18  ar  
 30  13  19  1   
 31  13  41  1   
 32  13  42  1   
 33  14  19  1   
 34  14  43  1   
 35  14  44  1   
 36  15  45  1   
 37  16  20  1   
 38  16  46  1   
 39  16  47  1   
 40  17  21  ar  
 41  17  48  1   
 42  18  22  ar  
 43  18  49  1   
 44  19  50  1   
 45  19  51  1   
 46  20  23  2   
 47  20  24  1   
 48  21  25  ar  
 49  21  52  1   
 50  22  25  ar  
 51  22  53  1   
 52  23  26  1   
 53  24  27  2   
 54  24  54  1   
 55  25  28  1   
 56  26  27  1   
 57  26  55  1   
 58  27  29  1   
 59  28  56  1   
 60  28  57  1   
 61  28  58  1   
 62  29  59  1   
 63  29  60  1   
 64  29  61  1   
@<TRIPOS>SUBSTRUCTURE
  1 ****   3 GROUP 4 **** **** 0

# MOE 2024.06 (io_trps.svl 2023.06)
