@<TRIPOS>MOLECULE
NONAME
60 63 1 0 0 
SMALL
USER_CHARGES


@<TRIPOS>ATOM
  1 O       -0.6610    -0.1210    -0.0060 O.2   1 <1>  -0.5700 
  2 C       -1.7190     0.4160    -0.2270 C.2   1 <1>   0.5690 
  3 N       -2.8370    -0.3000    -0.5360 N.am  1 <1>  -0.6600 
  4 C       -1.7800     1.9280    -0.1510 C.3   1 <1>  -0.0990 
  5 C       -4.1810     0.2340    -0.8810 C.3   1 <1>   0.1400 
  6 C       -2.8300    -1.7820    -0.6090 C.3   1 <1>   0.1400 
  7 C       -0.3980     2.4780     0.2070 C.3   1 <1>   0.3430 
  8 C       -4.9870    -0.9840    -1.3350 C.3   1 <1>   0.2000 
  9 C       -4.3000    -2.1930    -0.7040 C.3   1 <1>  -0.0800 
 10 N       -0.3910     3.9700     0.2610 N.4   1 <1>  -0.9590 
 11 O       -6.3020    -0.9060    -0.9080 O.3   1 <1>  -0.6800 
 12 C       -4.5250    -3.4900    -1.5010 C.3   1 <1>  -0.0170 
 13 C        1.0080     4.4750     0.2310 C.3   1 <1>   0.3430 
 14 C       -1.0890     4.4970     1.4640 C.3   1 <1>   0.3430 
 15 C       -3.8570    -4.6790    -0.8170 C.ar  1 <1>  -0.1440 
 16 C        1.0700     5.8940    -0.3420 C.3   1 <1>  -0.1600 
 17 C       -1.9510     5.7030     1.0890 C.3   1 <1>  -0.1600 
 18 C       -4.4260    -5.3220     0.3080 C.ar  1 <1>   0.0000 
 19 C       -2.6670    -5.1560    -1.2810 C.ar  1 <1>  -0.1500 
 20 C        0.1900     6.9500     0.3540 C.3   1 <1>  -0.1600 
 21 C       -1.3130     6.7240     0.1290 C.3   1 <1>  -0.1600 
 22 C       -3.7090    -6.4010     0.8810 C.ar  1 <1>   0.3100 
 23 C       -5.6610    -4.9620     0.8970 C.ar  1 <1>  -0.1500 
 24 C       -2.0440    -6.2370    -0.6450 C.ar  1 <1>   0.1600 
 25 N       -2.5240    -6.8460     0.3920 N.ar  1 <1>  -0.6200 
 26 C       -4.2410    -7.0490     2.0070 C.ar  1 <1>  -0.1500 
 27 C       -6.1530    -5.6170     1.9930 C.ar  1 <1>  -0.1500 
 28 C       -5.4350    -6.6730     2.5590 C.ar  1 <1>  -0.1500 
 29 H       -2.0850     2.3050    -1.1090 H     1 <1>   0.0800 
 30 H       -2.5020     2.1980     0.5950 H     1 <1>   0.0800 
 31 H       -4.6240     0.6790    -0.0070 H     1 <1>   0.0800 
 32 H       -4.1120     0.9540    -1.6780 H     1 <1>   0.0800 
 33 H       -2.2870    -2.0840    -1.4890 H     1 <1>   0.0800 
 34 H       -2.3580    -2.2100     0.2600 H     1 <1>   0.0800 
 35 H        0.3020     2.1390    -0.5420 H     1 <1>   0.0800 
 36 H       -0.0810     2.0690     1.1540 H     1 <1>   0.0800 
 37 H       -4.9820    -1.0440    -2.4100 H     1 <1>   0.0800 
 38 H       -4.6550    -2.3200     0.3030 H     1 <1>   0.0800 
 39 H       -0.8660     4.3470    -0.5680 H     1 <1>   0.4500 
 40 H       -6.3550    -0.9530     0.0660 H     1 <1>   0.4000 
 41 H       -4.1250    -3.3730    -2.4930 H     1 <1>   0.0800 
 42 H       -5.5780    -3.6770    -1.6140 H     1 <1>   0.0800 
 43 H        1.4260     4.4630     1.2250 H     1 <1>   0.0800 
 44 H        1.6140     3.8330    -0.3900 H     1 <1>   0.0800 
 45 H       -1.7160     3.7390     1.9040 H     1 <1>   0.0800 
 46 H       -0.3630     4.7930     2.2040 H     1 <1>   0.0800 
 47 H        2.0930     6.2210    -0.2740 H     1 <1>   0.0800 
 48 H        0.8330     5.8620    -1.3910 H     1 <1>   0.0800 
 49 H       -2.8790     5.3580     0.6680 H     1 <1>   0.0800 
 50 H       -2.2030     6.2090     2.0050 H     1 <1>   0.0800 
 51 H       -2.1760    -4.7240    -2.1340 H     1 <1>   0.1500 
 52 H        0.4140     7.0050     1.4060 H     1 <1>   0.0800 
 53 H        0.4430     7.9090    -0.0670 H     1 <1>   0.0800 
 54 H       -1.4840     6.4310    -0.8930 H     1 <1>   0.0800 
 55 H       -1.8240     7.6640     0.2630 H     1 <1>   0.0800 
 56 H       -6.2340    -4.1580     0.4750 H     1 <1>   0.1500 
 57 H       -1.1050    -6.5820    -1.0440 H     1 <1>   0.1500 
 58 H       -3.6710    -7.8600     2.4230 H     1 <1>   0.1500 
 59 H       -7.0940    -5.3330     2.4310 H     1 <1>   0.1500 
 60 H       -5.8300    -7.1800     3.4220 H     1 <1>   0.1500 
@<TRIPOS>BOND
  1   1   2  2   
  2   2   3  am  
  3   2   4  1   
  4   3   5  1   
  5   3   6  1   
  6   4   7  1   
  7   4  29  1   
  8   4  30  1   
  9   5   8  1   
 10   5  31  1   
 11   5  32  1   
 12   6   9  1   
 13   6  33  1   
 14   6  34  1   
 15   7  10  1   
 16   7  35  1   
 17   7  36  1   
 18   8   9  1   
 19   8  11  1   
 20   8  37  1   
 21   9  12  1   
 22   9  38  1   
 23  10  13  1   
 24  10  14  1   
 25  10  39  1   
 26  11  40  1   
 27  12  15  1   
 28  12  41  1   
 29  12  42  1   
 30  13  16  1   
 31  13  43  1   
 32  13  44  1   
 33  14  17  1   
 34  14  45  1   
 35  14  46  1   
 36  15  18  ar  
 37  15  19  ar  
 38  16  20  1   
 39  16  47  1   
 40  16  48  1   
 41  17  21  1   
 42  17  49  1   
 43  17  50  1   
 44  18  22  ar  
 45  18  23  ar  
 46  19  24  ar  
 47  19  51  1   
 48  20  21  1   
 49  20  52  1   
 50  20  53  1   
 51  21  54  1   
 52  21  55  1   
 53  22  25  ar  
 54  22  26  ar  
 55  23  27  ar  
 56  23  56  1   
 57  24  25  ar  
 58  24  57  1   
 59  26  28  ar  
 60  26  58  1   
 61  27  28  ar  
 62  27  59  1   
 63  28  60  1   
@<TRIPOS>SUBSTRUCTURE
  1 ****   3 GROUP 4 **** **** 0

# MOE 2024.06 (io_trps.svl 2023.06)
