@<TRIPOS>MOLECULE
NONAME
43 44 1 0 0 
SMALL
USER_CHARGES


@<TRIPOS>ATOM
  1 O        1.6580    -0.5890     3.6460 O.2   1 <1>  -0.5700 
  2 C        1.6420    -1.1090     2.5560 C.2   1 <1>   0.5690 
  3 N        1.9770    -0.4810     1.3940 N.am  1 <1>  -0.5470 
  4 C        1.1890    -2.5650     2.4260 C.3   1 <1>   0.1710 
  5 C        2.2560     0.8490     1.0400 C.ar  1 <1>   0.1170 
  6 N        1.6290    -3.2140     1.1480 N.3   1 <1>  -0.8100 
  7 C        2.2050     1.2010    -0.3120 C.ar  1 <1>   0.0830 
  8 C        2.5740     1.8260     1.9760 C.ar  1 <1>  -0.1500 
  9 C        0.6980    -4.2710     0.6970 C.3   1 <1>   0.1100 
 10 C        3.0000    -3.7270     1.2720 C.3   1 <1>   0.0300 
 11 O        1.8850     0.2260    -1.2120 O.3   1 <1>  -0.3630 
 12 C        2.4730     2.5070    -0.7060 C.ar  1 <1>  -0.1500 
 13 C        2.8350     3.1260     1.5810 C.ar  1 <1>  -0.1500 
 14 C       -0.5390    -3.6850    -0.0030 C.3   1 <1>   0.2000 
 15 C        1.1490     0.5600    -2.3700 C.3   1 <1>   0.0400 
 16 C        2.7850     3.4670     0.2410 C.ar  1 <1>  -0.1500 
 17 O       -1.3060    -4.7580    -0.4800 O.3   1 <1>  -0.5600 
 18 C       -0.1490    -2.7530    -1.1710 C.3   1 <1>   0.1200 
 19 C       -2.4350    -4.3590    -1.2030 C.3   1 <1>   0.1200 
 20 O       -1.2760    -2.3720    -1.9110 O.3   1 <1>  -0.5600 
 21 C       -2.0210    -3.4570    -2.3790 C.3   1 <1>   0.1200 
 22 H        1.9340    -1.1170     0.5900 H     1 <1>   0.3700 
 23 H        0.1160    -2.5570     2.4800 H     1 <1>   0.0800 
 24 H        1.5510    -3.1230     3.2710 H     1 <1>   0.0800 
 25 H        2.6190     1.5730     3.0200 H     1 <1>   0.1500 
 26 H        0.3940    -4.8780     1.5320 H     1 <1>   0.0800 
 27 H        1.2010    -4.9030    -0.0160 H     1 <1>   0.0800 
 28 H        3.6670    -2.9360     1.5740 H     1 <1>   0.0800 
 29 H        3.3370    -4.1070     0.3230 H     1 <1>   0.0800 
 30 H        3.0430    -4.5190     2.0010 H     1 <1>   0.0800 
 31 H        2.4480     2.7860    -1.7420 H     1 <1>   0.1500 
 32 H        3.0780     3.8710     2.3190 H     1 <1>   0.1500 
 33 H       -1.1360    -3.1440     0.7090 H     1 <1>   0.0800 
 34 H        0.7920    -0.3520    -2.8150 H     1 <1>   0.0800 
 35 H        1.7920     1.0750    -3.0600 H     1 <1>   0.0800 
 36 H        0.3130     1.1770    -2.0880 H     1 <1>   0.0800 
 37 H        2.9910     4.4790    -0.0640 H     1 <1>   0.1500 
 38 H        0.5480    -3.2420    -1.8290 H     1 <1>   0.0800 
 39 H        0.3100    -1.8590    -0.7890 H     1 <1>   0.0800 
 40 H       -3.1040    -3.8360    -0.5430 H     1 <1>   0.0800 
 41 H       -2.9250    -5.2460    -1.5660 H     1 <1>   0.0800 
 42 H       -2.8910    -3.0700    -2.8790 H     1 <1>   0.0800 
 43 H       -1.4260    -4.0070    -3.0860 H     1 <1>   0.0800 
@<TRIPOS>BOND
  1   1   2  2   
  2   2   3  am  
  3   2   4  1   
  4   3   5  1   
  5   3  22  1   
  6   4   6  1   
  7   4  23  1   
  8   4  24  1   
  9   5   7  ar  
 10   5   8  ar  
 11   6   9  1   
 12   6  10  1   
 13   7  11  1   
 14   7  12  ar  
 15   8  13  ar  
 16   8  25  1   
 17   9  14  1   
 18   9  26  1   
 19   9  27  1   
 20  10  28  1   
 21  10  29  1   
 22  10  30  1   
 23  11  15  1   
 24  12  16  ar  
 25  12  31  1   
 26  13  16  ar  
 27  13  32  1   
 28  14  17  1   
 29  14  18  1   
 30  14  33  1   
 31  15  34  1   
 32  15  35  1   
 33  15  36  1   
 34  16  37  1   
 35  17  19  1   
 36  18  20  1   
 37  18  38  1   
 38  18  39  1   
 39  19  21  1   
 40  19  40  1   
 41  19  41  1   
 42  20  21  1   
 43  21  42  1   
 44  21  43  1   
@<TRIPOS>SUBSTRUCTURE
  1 ****   3 GROUP 4 **** **** 0

# MOE 2024.06 (io_trps.svl 2023.06)
