@<TRIPOS>MOLECULE
NONAME
46 47 1 0 0 
SMALL
USER_CHARGES


@<TRIPOS>ATOM
  1 F        3.8350    -0.1140    -1.3410 F     1 <1>  -0.1900 
  2 C        3.3640    -0.9960    -0.5030 C.ar  1 <1>   0.1900 
  3 C        3.1390    -0.6170     0.8050 C.ar  1 <1>  -0.1500 
  4 C        3.1070    -2.2720    -0.9610 C.ar  1 <1>  -0.1500 
  5 C        2.6370    -1.5500     1.7080 C.ar  1 <1>  -0.1440 
  6 C        2.6020    -3.2090    -0.0730 C.ar  1 <1>  -0.1440 
  7 C        2.3740    -2.8410     1.2500 C.ar  1 <1>  -0.1500 
  8 C        2.3660    -1.1700     3.1750 C.3   1 <1>   1.1640 
  9 C        2.2900    -4.6200    -0.5510 C.3   1 <1>   0.4870 
 10 F        1.0900    -0.8820     3.3880 F     1 <1>  -0.3400 
 11 F        2.6890    -2.1370     4.0240 F     1 <1>  -0.3400 
 12 F        3.0550    -0.1010     3.5590 F     1 <1>  -0.3400 
 13 N        0.8590    -4.8980    -0.3430 N.4   1 <1>  -0.9590 
 14 C        0.4680    -6.3420    -0.5500 C.3   1 <1>   0.3430 
 15 C       -0.0960    -3.9480    -0.9720 C.3   1 <1>   0.3430 
 16 C       -1.0710    -6.5440    -0.5680 C.3   1 <1>   0.2000 
 17 C       -1.4790    -4.0740    -0.2970 C.3   1 <1>  -0.1600 
 18 O       -1.5040    -6.4130    -1.8870 O.3   1 <1>  -0.6800 
 19 C       -1.7550    -5.4830     0.3310 C.3   1 <1>  -0.1060 
 20 C       -1.0270    -5.6400     1.6840 C.2   1 <1>   0.9060 
 21 C       -3.2770    -5.7130     0.5780 C.3   1 <1>  -0.1600 
 22 O       -0.2880    -4.7290     2.0860 O.co2 1 <1>  -0.9000 
 23 O       -0.9860    -6.7570     2.1960 O.co2 1 <1>  -0.9000 
 24 C       -4.2050    -5.8290    -0.6460 C.3   1 <1>  -0.1600 
 25 C       -5.6710    -5.8660    -0.2070 C.3   1 <1>  -0.2400 
 26 H        3.3570     0.3960     1.1000 H     1 <1>   0.1500 
 27 H        3.3020    -2.5080    -1.9930 H     1 <1>   0.1500 
 28 H        1.9750    -3.5670     1.9460 H     1 <1>   0.1500 
 29 H        2.8810    -5.3220     0.0140 H     1 <1>   0.0800 
 30 H        2.5350    -4.7210    -1.5950 H     1 <1>   0.0800 
 31 H        0.6840    -4.7340     0.6830 H     1 <1>   0.4500 
 32 H        0.8770    -6.7230    -1.4700 H     1 <1>   0.0800 
 33 H        0.8670    -6.9210     0.2680 H     1 <1>   0.0800 
 34 H        0.2540    -2.9340    -0.8750 H     1 <1>   0.0800 
 35 H       -0.1880    -4.1840    -2.0200 H     1 <1>   0.0800 
 36 H       -1.3110    -7.5420    -0.2390 H     1 <1>   0.0800 
 37 H       -1.5710    -3.3170     0.4620 H     1 <1>   0.0800 
 38 H       -2.2120    -3.8390    -1.0440 H     1 <1>   0.0800 
 39 H       -2.4800    -6.4780    -1.9020 H     1 <1>   0.4000 
 40 H       -3.3910    -6.6140     1.1590 H     1 <1>   0.0800 
 41 H       -3.6270    -4.9070     1.2020 H     1 <1>   0.0800 
 42 H       -4.0710    -4.9970    -1.3130 H     1 <1>   0.0800 
 43 H       -3.9980    -6.7400    -1.1780 H     1 <1>   0.0800 
 44 H       -5.9320    -4.9590     0.3110 H     1 <1>   0.0800 
 45 H       -5.8460    -6.7000     0.4500 H     1 <1>   0.0800 
 46 H       -6.3130    -5.9660    -1.0650 H     1 <1>   0.0800 
@<TRIPOS>BOND
  1   1   2  1   
  2   2   3  ar  
  3   2   4  ar  
  4   3   5  ar  
  5   3  26  1   
  6   4   6  ar  
  7   4  27  1   
  8   5   7  ar  
  9   5   8  1   
 10   6   7  ar  
 11   6   9  1   
 12   7  28  1   
 13   8  10  1   
 14   8  11  1   
 15   8  12  1   
 16   9  13  1   
 17   9  29  1   
 18   9  30  1   
 19  13  14  1   
 20  13  15  1   
 21  13  31  1   
 22  14  16  1   
 23  14  32  1   
 24  14  33  1   
 25  15  17  1   
 26  15  34  1   
 27  15  35  1   
 28  16  18  1   
 29  16  19  1   
 30  16  36  1   
 31  17  19  1   
 32  17  37  1   
 33  17  38  1   
 34  18  39  1   
 35  19  20  1   
 36  19  21  1   
 37  20  22  ar  
 38  20  23  ar  
 39  21  24  1   
 40  21  40  1   
 41  21  41  1   
 42  24  25  1   
 43  24  42  1   
 44  24  43  1   
 45  25  44  1   
 46  25  45  1   
 47  25  46  1   
@<TRIPOS>SUBSTRUCTURE
  1 ****  13 GROUP 4 **** **** 0

# MOE 2024.06 (io_trps.svl 2023.06)
