@<TRIPOS>MOLECULE
NONAME
34 35 1 0 0 
SMALL
USER_CHARGES


@<TRIPOS>ATOM
  1 CL      -0.5860    -0.2490    -1.0010 Cl    1 <1>  -0.1230 
  2 C       -2.2290    -0.0910    -0.3990 C.2   1 <1>   0.1230 
  3 C       -3.0690    -1.0910    -0.0770 C.2   1 <1>  -0.3320 
  4 C       -2.9130     1.0950    -0.1590 C.2   1 <1>   0.1080 
  5 N       -4.2060    -0.4900     0.3330 N.pl3 1 <1>   0.3000 
  6 C       -2.8720    -2.5870    -0.1160 C.3   1 <1>   0.2900 
  7 N       -4.1120     0.8630     0.2830 N.2   1 <1>  -0.7070 
  8 C       -2.3860     2.4970    -0.3670 C.3   1 <1>  -0.0590 
  9 N       -4.1800    -3.2520    -0.1870 N.3   1 <1>  -0.8100 
 10 C       -4.1040    -4.6580     0.2530 C.3   1 <1>   0.2900 
 11 C       -4.8100    -3.1480    -1.5350 C.3   1 <1>   0.1100 
 12 C       -5.4990    -5.1580     0.5910 C.2   1 <1>   0.0060 
 13 C       -6.0000    -2.1690    -1.5800 C.3   1 <1>   0.1200 
 14 N       -6.1100    -6.1250    -0.0160 N.2   1 <1>  -0.5650 
 15 N       -6.2320    -4.5880     1.5720 N.pl3 1 <1>   0.0330 
 16 O       -6.7380    -2.2380    -0.4040 O.3   1 <1>  -0.6800 
 17 C       -7.3040    -6.1910     0.6040 C.2   1 <1>   0.0770 
 18 C       -7.3980    -5.2570     1.5740 C.2   1 <1>  -0.3020 
 19 H       -5.0730    -0.9970     0.5770 H     1 <1>   0.2700 
 20 H       -2.3690    -2.8740     0.7920 H     1 <1>   0.0800 
 21 H       -2.2510    -2.8710    -0.9490 H     1 <1>   0.0800 
 22 H       -1.3880     2.4760    -0.7620 H     1 <1>   0.0800 
 23 H       -2.3820     3.0200     0.5720 H     1 <1>   0.0800 
 24 H       -3.0250     3.0220    -1.0530 H     1 <1>   0.0800 
 25 H       -3.4950    -4.7410     1.1360 H     1 <1>   0.0800 
 26 H       -3.6690    -5.2720    -0.5180 H     1 <1>   0.0800 
 27 H       -5.1790    -4.1110    -1.8480 H     1 <1>   0.0800 
 28 H       -4.0840    -2.8470    -2.2720 H     1 <1>   0.0800 
 29 H       -6.6500    -2.4170    -2.4010 H     1 <1>   0.0800 
 30 H       -5.6640    -1.1560    -1.7110 H     1 <1>   0.0800 
 31 H       -5.9520    -3.7880     2.1470 H     1 <1>   0.2700 
 32 H       -6.8750    -3.1840    -0.1820 H     1 <1>   0.4000 
 33 H       -8.0450    -6.9190     0.3120 H     1 <1>   0.1500 
 34 H       -8.2080    -5.0390     2.2470 H     1 <1>   0.1500 
@<TRIPOS>BOND
  1   1   2  1   
  2   2   3  2   
  3   2   4  1   
  4   3   5  1   
  5   3   6  1   
  6   4   7  2   
  7   4   8  1   
  8   5   7  1   
  9   5  19  1   
 10   6   9  1   
 11   6  20  1   
 12   6  21  1   
 13   8  22  1   
 14   8  23  1   
 15   8  24  1   
 16   9  10  1   
 17   9  11  1   
 18  10  12  1   
 19  10  25  1   
 20  10  26  1   
 21  11  13  1   
 22  11  27  1   
 23  11  28  1   
 24  12  14  2   
 25  12  15  1   
 26  13  16  1   
 27  13  29  1   
 28  13  30  1   
 29  14  17  1   
 30  15  18  1   
 31  15  31  1   
 32  16  32  1   
 33  17  18  2   
 34  17  33  1   
 35  18  34  1   
@<TRIPOS>SUBSTRUCTURE
  1 ****   9 GROUP 4 **** **** 0

# MOE 2024.06 (io_trps.svl 2023.06)
