@<TRIPOS>MOLECULE
NONAME
50 52 1 0 0 
SMALL
USER_CHARGES


@<TRIPOS>ATOM
  1 CL      -0.5350     0.6830     1.3230 Cl    1 <1>  -0.1770 
  2 C       -1.9840    -0.2810     1.1350 C.ar  1 <1>   0.1770 
  3 C       -3.1360     0.2520     0.5660 C.ar  1 <1>  -0.1440 
  4 C       -1.9280    -1.5870     1.5860 C.ar  1 <1>  -0.1500 
  5 C       -4.2680    -0.5620     0.4650 C.ar  1 <1>   0.1170 
  6 C       -3.1700     1.6950     0.0570 C.3   1 <1>  -0.0970 
  7 C       -3.0450    -2.3910     1.4760 C.ar  1 <1>  -0.1500 
  8 N       -5.4620    -0.0460    -0.0630 N.am  1 <1>  -0.5470 
  9 C       -4.2020    -1.8760     0.9220 C.ar  1 <1>  -0.1500 
 10 C       -6.4760    -0.6410    -0.7570 C.2   1 <1>   0.6900 
 11 O       -6.3840    -1.7970    -1.1240 O.2   1 <1>  -0.5700 
 12 N       -7.5910     0.1010    -1.0600 N.am  1 <1>  -0.6600 
 13 C       -8.5910    -0.3760    -2.0500 C.3   1 <1>   0.1400 
 14 C       -8.0270     1.3190    -0.3320 C.3   1 <1>   0.1400 
 15 C       -9.9170    -0.6650    -1.3440 C.3   1 <1>  -0.1600 
 16 C       -9.3430     1.0280     0.3920 C.3   1 <1>  -0.1600 
 17 C      -10.4670     0.5540    -0.5640 C.3   1 <1>   0.2800 
 18 O      -10.7280     1.5410    -1.5380 O.3   1 <1>  -0.5600 
 19 C      -11.8060     0.1990     0.1690 C.3   1 <1>   0.2000 
 20 C      -11.3040     2.7450    -1.1110 C.3   1 <1>   0.1200 
 21 O      -12.6320    -0.5170    -0.7100 O.3   1 <1>  -0.6800 
 22 C      -12.5910     1.4540     0.6570 C.3   1 <1>   0.2800 
 23 C      -12.6730     2.4870    -0.4730 C.3   1 <1>  -0.1600 
 24 O      -11.9300     2.0440     1.7160 O.3   1 <1>  -0.6800 
 25 C      -13.9860     1.1230     1.2050 C.3   1 <1>  -0.2400 
 26 H       -1.0180    -1.9650     2.0170 H     1 <1>   0.1500 
 27 H       -3.6940     1.7520    -0.8800 H     1 <1>   0.0800 
 28 H       -2.1840     2.0830    -0.1150 H     1 <1>   0.0800 
 29 H       -3.6620     2.3240     0.7760 H     1 <1>   0.0800 
 30 H       -3.0180    -3.4110     1.8190 H     1 <1>   0.1500 
 31 H       -5.5360     0.9630    -0.0620 H     1 <1>   0.3700 
 32 H       -5.0710    -2.5070     0.8470 H     1 <1>   0.1500 
 33 H       -8.7340     0.3850    -2.7990 H     1 <1>   0.0800 
 34 H       -8.2420    -1.2660    -2.5460 H     1 <1>   0.0800 
 35 H       -7.2910     1.6260     0.3890 H     1 <1>   0.0800 
 36 H       -8.1670     2.1210    -1.0380 H     1 <1>   0.0800 
 37 H       -9.7700    -1.4880    -0.6680 H     1 <1>   0.0800 
 38 H      -10.6200    -0.9860    -2.0890 H     1 <1>   0.0800 
 39 H       -9.6230     1.9050     0.9370 H     1 <1>   0.0800 
 40 H       -9.1630     0.2610     1.1230 H     1 <1>   0.0800 
 41 H      -11.6120    -0.4490     1.0050 H     1 <1>   0.0800 
 42 H      -10.6380     3.2350    -0.4230 H     1 <1>   0.0800 
 43 H      -11.4130     3.3740    -1.9770 H     1 <1>   0.0800 
 44 H      -12.6050    -0.0670    -1.5780 H     1 <1>   0.4000 
 45 H      -13.3350     2.1270    -1.2410 H     1 <1>   0.0800 
 46 H      -13.0840     3.4100    -0.1070 H     1 <1>   0.0800 
 47 H      -12.5160     2.7010     2.1360 H     1 <1>   0.4000 
 48 H      -14.6020     0.7030     0.4310 H     1 <1>   0.0800 
 49 H      -14.4770     2.0050     1.5750 H     1 <1>   0.0800 
 50 H      -13.9090     0.3960     1.9940 H     1 <1>   0.0800 
@<TRIPOS>BOND
  1   1   2  1   
  2   2   3  ar  
  3   2   4  ar  
  4   3   5  ar  
  5   3   6  1   
  6   4   7  ar  
  7   4  26  1   
  8   5   8  1   
  9   5   9  ar  
 10   6  27  1   
 11   6  28  1   
 12   6  29  1   
 13   7   9  ar  
 14   7  30  1   
 15   8  10  am  
 16   8  31  1   
 17   9  32  1   
 18  10  11  2   
 19  10  12  am  
 20  12  13  1   
 21  12  14  1   
 22  13  15  1   
 23  13  33  1   
 24  13  34  1   
 25  14  16  1   
 26  14  35  1   
 27  14  36  1   
 28  15  17  1   
 29  15  37  1   
 30  15  38  1   
 31  16  17  1   
 32  16  39  1   
 33  16  40  1   
 34  17  18  1   
 35  17  19  1   
 36  18  20  1   
 37  19  21  1   
 38  19  22  1   
 39  19  41  1   
 40  20  23  1   
 41  20  42  1   
 42  20  43  1   
 43  21  44  1   
 44  22  23  1   
 45  22  24  1   
 46  22  25  1   
 47  23  45  1   
 48  23  46  1   
 49  24  47  1   
 50  25  48  1   
 51  25  49  1   
 52  25  50  1   
@<TRIPOS>SUBSTRUCTURE
  1 ****  12 GROUP 4 **** **** 0

# MOE 2024.06 (io_trps.svl 2023.06)
