@<TRIPOS>MOLECULE
NONAME
49 52 1 0 0 
SMALL
USER_CHARGES


@<TRIPOS>ATOM
  1 S        0.4580     0.3440    -1.4180 S.3   1 <1>  -0.0800 
  2 C       -1.0880     0.2090    -0.5670 C.2   1 <1>  -0.0450 
  3 C        0.4580     2.1030    -1.2500 C.ar  1 <1>   0.0400 
  4 C       -1.7510    -1.0360    -0.3090 C.2   1 <1>   0.7150 
  5 C       -1.5300     1.4330    -0.2080 C.2   1 <1>  -0.1810 
  6 C       -0.6760     2.5260    -0.5730 C.ar  1 <1>   0.0000 
  7 C        1.4250     2.9730    -1.7140 C.ar  1 <1>  -0.1500 
  8 O       -1.3040    -2.1300    -0.5800 O.2   1 <1>  -0.5700 
  9 N       -2.9780    -0.9600     0.2740 N.am  1 <1>  -0.7300 
 10 C       -2.8440     1.5620     0.5540 C.3   1 <1>   0.0210 
 11 C       -0.8250     3.8900    -0.3470 C.ar  1 <1>  -0.1500 
 12 C        1.2490     4.3240    -1.4800 C.ar  1 <1>  -0.1500 
 13 C       -3.7500     0.3140     0.3920 C.3   1 <1>   0.1400 
 14 C        0.1290     4.8080    -0.7840 C.ar  1 <1>   0.0860 
 15 C       -0.0430     6.2230    -0.5160 C.2   1 <1>   0.5440 
 16 O       -1.1560     6.7120    -0.5080 O.2   1 <1>  -0.5700 
 17 N        1.0630     6.9950    -0.2440 N.am  1 <1>  -0.4940 
 18 C        1.1760     8.3930    -0.0350 C.2   1 <1>  -0.0880 
 19 N        2.3180     9.0530     0.3170 N.pl3 1 <1>   0.3140 
 20 C        0.2150     9.3410    -0.1370 C.2   1 <1>  -0.1500 
 21 N        2.0990    10.3850     0.4330 N.2   1 <1>  -0.7070 
 22 C        3.6830     8.5060     0.5650 C.3   1 <1>   0.1760 
 23 C        0.8440    10.5400     0.1610 C.2   1 <1>   0.1080 
 24 C        4.2740     7.9110    -0.7310 C.3   1 <1>  -0.1600 
 25 C        3.6760     7.5150     1.7430 C.3   1 <1>  -0.2400 
 26 C        0.1730    11.8930     0.1780 C.3   1 <1>  -0.0590 
 27 C        5.7540     7.5220    -0.6020 C.3   1 <1>  -0.2400 
 28 H        2.2820     2.5950    -2.2450 H     1 <1>   0.1500 
 29 H       -3.4730    -1.8460     0.3830 H     1 <1>   0.3700 
 30 H       -3.3850     2.4270     0.2140 H     1 <1>   0.0800 
 31 H       -2.6230     1.7050     1.5970 H     1 <1>   0.0800 
 32 H       -1.6940     4.2490     0.1760 H     1 <1>   0.1500 
 33 H        1.9840     5.0150    -1.8540 H     1 <1>   0.1500 
 34 H       -4.4240     0.2490     1.2290 H     1 <1>   0.0800 
 35 H       -4.3400     0.4290    -0.5020 H     1 <1>   0.0800 
 36 H        1.9270     6.4680    -0.1360 H     1 <1>   0.3700 
 37 H       -0.8210     9.2110    -0.3940 H     1 <1>   0.1500 
 38 H        4.2940     9.3450     0.8490 H     1 <1>   0.0800 
 39 H        4.1900     8.6530    -1.5090 H     1 <1>   0.0800 
 40 H        3.7140     7.0470    -1.0370 H     1 <1>   0.0800 
 41 H        3.1800     6.5990     1.4860 H     1 <1>   0.0800 
 42 H        3.1790     7.9610     2.5870 H     1 <1>   0.0800 
 43 H        4.6830     7.2850     2.0400 H     1 <1>   0.0800 
 44 H       -0.8670    11.8000    -0.0710 H     1 <1>   0.0800 
 45 H        0.6520    12.5390    -0.5350 H     1 <1>   0.0800 
 46 H        0.2650    12.3250     1.1570 H     1 <1>   0.0800 
 47 H        6.3370     8.3640    -0.2710 H     1 <1>   0.0800 
 48 H        6.1330     7.2050    -1.5580 H     1 <1>   0.0800 
 49 H        5.8840     6.7120     0.0940 H     1 <1>   0.0800 
@<TRIPOS>BOND
  1   1   2  1   
  2   1   3  1   
  3   2   4  1   
  4   2   5  2   
  5   3   6  ar  
  6   3   7  ar  
  7   4   8  2   
  8   4   9  am  
  9   5   6  1   
 10   5  10  1   
 11   6  11  ar  
 12   7  12  ar  
 13   7  28  1   
 14   9  13  1   
 15   9  29  1   
 16  10  13  1   
 17  10  30  1   
 18  10  31  1   
 19  11  14  ar  
 20  11  32  1   
 21  12  14  ar  
 22  12  33  1   
 23  13  34  1   
 24  13  35  1   
 25  14  15  1   
 26  15  16  2   
 27  15  17  am  
 28  17  18  1   
 29  17  36  1   
 30  18  19  1   
 31  18  20  2   
 32  19  21  1   
 33  19  22  1   
 34  20  23  1   
 35  20  37  1   
 36  21  23  2   
 37  22  24  1   
 38  22  25  1   
 39  22  38  1   
 40  23  26  1   
 41  24  27  1   
 42  24  39  1   
 43  24  40  1   
 44  25  41  1   
 45  25  42  1   
 46  25  43  1   
 47  26  44  1   
 48  26  45  1   
 49  26  46  1   
 50  27  47  1   
 51  27  48  1   
 52  27  49  1   
@<TRIPOS>SUBSTRUCTURE
  1 ****  14 GROUP 4 **** **** 0

# MOE 2024.06 (io_trps.svl 2023.06)
