@<TRIPOS>MOLECULE
NONAME
43 45 1 0 0 
SMALL
USER_CHARGES


@<TRIPOS>ATOM
  1 CL       1.9880     0.2810     1.7180 Cl    1 <1>  -0.1770 
  2 C        2.0690    -1.0010     0.5310 C.ar  1 <1>   0.1770 
  3 C        2.3610    -0.7200    -0.7940 C.ar  1 <1>   0.1770 
  4 C        1.8350    -2.3000     0.9430 C.ar  1 <1>  -0.1500 
  5 CL       2.6560     0.9230    -1.3190 Cl    1 <1>  -0.1770 
  6 C        2.4220    -1.7390    -1.7270 C.ar  1 <1>  -0.1500 
  7 C        1.8940    -3.3300     0.0070 C.ar  1 <1>   0.0830 
  8 C        2.1880    -3.0430    -1.3190 C.ar  1 <1>  -0.1500 
  9 O        1.6750    -4.6330     0.3110 O.3   1 <1>  -0.3630 
 10 C        1.3710    -5.0430     1.6380 C.3   1 <1>   0.1810 
 11 C        1.1480    -6.5510     1.7240 C.2   1 <1>   0.5690 
 12 O        1.7970    -7.1710     2.5340 O.2   1 <1>  -0.5700 
 13 N        0.2210    -7.1800     0.9350 N.am  1 <1>  -0.6600 
 14 C       -0.5990    -6.5570    -0.1360 C.3   1 <1>   0.1400 
 15 C        0.0150    -8.6490     0.9560 C.3   1 <1>   0.1400 
 16 C       -1.6340    -7.6240    -0.4880 C.3   1 <1>   0.2000 
 17 C       -0.8890    -8.9430    -0.2480 C.3   1 <1>  -0.0800 
 18 O       -2.6860    -7.5140     0.4080 O.3   1 <1>  -0.6800 
 19 C       -1.7940   -10.1760    -0.0640 C.3   1 <1>   0.0200 
 20 C       -1.0150   -11.4770     0.0270 C.2   1 <1>  -0.0400 
 21 O       -1.6620   -12.5740     0.3220 O.3   1 <1>  -0.0190 
 22 C        0.2780   -11.8000    -0.1370 C.2   1 <1>  -0.1500 
 23 N       -0.8740   -13.6090     0.3670 N.2   1 <1>  -0.4100 
 24 C        0.3030   -13.1720     0.0950 C.2   1 <1>   0.1080 
 25 C        1.5400   -14.0400     0.0380 C.3   1 <1>  -0.0590 
 26 H        1.6150    -2.4730     1.9790 H     1 <1>   0.1500 
 27 H        2.6510    -1.5140    -2.7540 H     1 <1>   0.1500 
 28 H        2.2350    -3.8480    -2.0320 H     1 <1>   0.1500 
 29 H        2.1960    -4.7700     2.2710 H     1 <1>   0.0800 
 30 H        0.4800    -4.5350     1.9570 H     1 <1>   0.0800 
 31 H       -1.0620    -5.6410     0.1880 H     1 <1>   0.0800 
 32 H        0.0300    -6.3620    -0.9880 H     1 <1>   0.0800 
 33 H        0.9580    -9.1630     0.8850 H     1 <1>   0.0800 
 34 H       -0.4670    -8.9220     1.8790 H     1 <1>   0.0800 
 35 H       -2.0220    -7.5240    -1.4870 H     1 <1>   0.0800 
 36 H       -0.2540    -9.1120    -1.1000 H     1 <1>   0.0800 
 37 H       -2.3260    -7.4800     1.3180 H     1 <1>   0.4000 
 38 H       -2.4750   -10.2460    -0.8940 H     1 <1>   0.0800 
 39 H       -2.3830   -10.0700     0.8300 H     1 <1>   0.0800 
 40 H        1.1250   -11.1900    -0.3880 H     1 <1>   0.1500 
 41 H        2.2590   -13.6970     0.7590 H     1 <1>   0.0800 
 42 H        1.9710   -13.9970    -0.9440 H     1 <1>   0.0800 
 43 H        1.2830   -15.0600     0.2610 H     1 <1>   0.0800 
@<TRIPOS>BOND
  1   1   2  1   
  2   2   3  ar  
  3   2   4  ar  
  4   3   5  1   
  5   3   6  ar  
  6   4   7  ar  
  7   4  26  1   
  8   6   8  ar  
  9   6  27  1   
 10   7   8  ar  
 11   7   9  1   
 12   8  28  1   
 13   9  10  1   
 14  10  11  1   
 15  10  29  1   
 16  10  30  1   
 17  11  12  2   
 18  11  13  am  
 19  13  14  1   
 20  13  15  1   
 21  14  16  1   
 22  14  31  1   
 23  14  32  1   
 24  15  17  1   
 25  15  33  1   
 26  15  34  1   
 27  16  17  1   
 28  16  18  1   
 29  16  35  1   
 30  17  19  1   
 31  17  36  1   
 32  18  37  1   
 33  19  20  1   
 34  19  38  1   
 35  19  39  1   
 36  20  21  1   
 37  20  22  2   
 38  21  23  1   
 39  22  24  1   
 40  22  40  1   
 41  23  24  2   
 42  24  25  1   
 43  25  41  1   
 44  25  42  1   
 45  25  43  1   
@<TRIPOS>SUBSTRUCTURE
  1 ****  13 GROUP 4 **** **** 0

# MOE 2024.06 (io_trps.svl 2023.06)
