@<TRIPOS>MOLECULE
NONAME
48 50 1 0 0 
SMALL
USER_CHARGES


@<TRIPOS>ATOM
  1 O       -1.1530    -2.4770    -1.5600 O.co2 1 <1>  -0.9000 
  2 C       -0.5330    -2.9550    -0.6010 C.2   1 <1>   0.9060 
  3 O        0.3830    -2.3420    -0.0380 O.co2 1 <1>  -0.9000 
  4 C       -0.8360    -4.3810    -0.1660 C.3   1 <1>   0.0140 
  5 O       -1.8790    -4.4700     0.8060 O.3   1 <1>  -0.3630 
  6 C       -2.3990    -5.6660     1.1610 C.ar  1 <1>   0.0830 
  7 C       -3.5590    -5.6420     1.9160 C.ar  1 <1>  -0.1500 
  8 C       -1.8400    -6.8870     0.8020 C.ar  1 <1>  -0.1500 
  9 C       -4.1760    -6.8210     2.2920 C.ar  1 <1>  -0.1500 
 10 C       -2.4550    -8.0670     1.1790 C.ar  1 <1>  -0.1500 
 11 C       -3.6320    -8.0400     1.9150 C.ar  1 <1>  -0.1440 
 12 C       -4.3370    -9.3310     2.2750 C.3   1 <1>   0.4870 
 13 N       -4.7980    -9.9600     1.0160 N.4   1 <1>  -0.9590 
 14 C       -5.6300    -9.0910     0.1240 C.3   1 <1>   0.3430 
 15 C       -5.4790   -11.2690     1.1300 C.3   1 <1>   0.3430 
 16 C       -6.6820   -10.0220    -0.5010 C.3   1 <1>   0.2000 
 17 C       -6.1600   -11.4360    -0.2300 C.3   1 <1>  -0.0800 
 18 O       -7.8980    -9.8620     0.1540 O.3   1 <1>  -0.6800 
 19 C       -5.1950   -11.8940    -1.3590 C.3   1 <1>   0.0210 
 20 C       -3.7960   -12.2850    -0.9040 C.2   1 <1>   0.1080 
 21 N       -2.8940   -11.4260    -0.5250 N.2   1 <1>  -0.7070 
 22 C       -3.3300   -13.5930    -0.8580 C.2   1 <1>  -0.1500 
 23 N       -1.8020   -12.1820    -0.2600 N.pl3 1 <1>   0.3000 
 24 C       -2.0520   -13.4940    -0.4400 C.2   1 <1>  -0.3320 
 25 C       -1.0310   -14.5950    -0.2140 C.3   1 <1>  -0.0600 
 26 H        0.0560    -4.8000     0.2560 H     1 <1>   0.0800 
 27 H       -1.1350    -4.9320    -1.0360 H     1 <1>   0.0800 
 28 H       -3.9690    -4.6870     2.1940 H     1 <1>   0.1500 
 29 H       -0.9300    -6.9260     0.2320 H     1 <1>   0.1500 
 30 H       -5.0810    -6.7680     2.8740 H     1 <1>   0.1500 
 31 H       -2.0070    -9.0000     0.8830 H     1 <1>   0.1500 
 32 H       -5.1760    -9.1250     2.9190 H     1 <1>   0.0800 
 33 H       -3.6540    -9.9870     2.7910 H     1 <1>   0.0800 
 34 H       -3.9390   -10.1810     0.4640 H     1 <1>   0.4500 
 35 H       -6.1110    -8.2970     0.6720 H     1 <1>   0.0800 
 36 H       -5.0050    -8.6630    -0.6430 H     1 <1>   0.0800 
 37 H       -4.7810   -12.0650     1.3350 H     1 <1>   0.0800 
 38 H       -6.2220   -11.2330     1.9100 H     1 <1>   0.0800 
 39 H       -6.8470    -9.8110    -1.5440 H     1 <1>   0.0800 
 40 H       -6.9690   -12.1440    -0.1630 H     1 <1>   0.0800 
 41 H       -7.8510   -10.0380     1.1120 H     1 <1>   0.4000 
 42 H       -5.0800   -11.1230    -2.1010 H     1 <1>   0.0800 
 43 H       -5.6340   -12.7350    -1.8670 H     1 <1>   0.0800 
 44 H       -3.8810   -14.4810    -1.1170 H     1 <1>   0.1500 
 45 H       -0.8960   -11.7860     0.0250 H     1 <1>   0.2700 
 46 H       -1.4660   -15.5550    -0.4300 H     1 <1>   0.0800 
 47 H       -0.6970   -14.5950     0.8090 H     1 <1>   0.0800 
 48 H       -0.1810   -14.4550    -0.8590 H     1 <1>   0.0800 
@<TRIPOS>BOND
  1   1   2  ar  
  2   2   3  ar  
  3   2   4  1   
  4   4   5  1   
  5   4  26  1   
  6   4  27  1   
  7   5   6  1   
  8   6   7  ar  
  9   6   8  ar  
 10   7   9  ar  
 11   7  28  1   
 12   8  10  ar  
 13   8  29  1   
 14   9  11  ar  
 15   9  30  1   
 16  10  11  ar  
 17  10  31  1   
 18  11  12  1   
 19  12  13  1   
 20  12  32  1   
 21  12  33  1   
 22  13  14  1   
 23  13  15  1   
 24  13  34  1   
 25  14  16  1   
 26  14  35  1   
 27  14  36  1   
 28  15  17  1   
 29  15  37  1   
 30  15  38  1   
 31  16  17  1   
 32  16  18  1   
 33  16  39  1   
 34  17  19  1   
 35  17  40  1   
 36  18  41  1   
 37  19  20  1   
 38  19  42  1   
 39  19  43  1   
 40  20  21  2   
 41  20  22  1   
 42  21  23  1   
 43  22  24  2   
 44  22  44  1   
 45  23  24  1   
 46  23  45  1   
 47  24  25  1   
 48  25  46  1   
 49  25  47  1   
 50  25  48  1   
@<TRIPOS>SUBSTRUCTURE
  1 ****  10 GROUP 4 **** **** 0

# MOE 2024.06 (io_trps.svl 2023.06)
