@<TRIPOS>MOLECULE
NONAME
54 56 1 0 0 
SMALL
USER_CHARGES


@<TRIPOS>ATOM
  1 F       -0.1640     0.8600    -0.9340 F     1 <1>  -0.1900 
  2 C       -1.4570     1.0120    -0.8020 C.ar  1 <1>   0.1900 
  3 C       -2.0080     2.0410    -0.0290 C.ar  1 <1>   0.0830 
  4 C       -2.2540     0.1020    -1.4690 C.ar  1 <1>  -0.1500 
  5 O       -1.3310     2.9960     0.6720 O.3   1 <1>  -0.3630 
  6 C       -3.3890     2.1180     0.0460 C.ar  1 <1>  -0.1500 
  7 C       -3.6290     0.2080    -1.3730 C.ar  1 <1>  -0.1500 
  8 C        0.0770     3.0470     0.7380 C.3   1 <1>   0.0400 
  9 C       -4.2260     1.2130    -0.6100 C.ar  1 <1>   0.0530 
 10 C       -5.6570     1.3400    -0.5050 C.2   1 <1>   0.0870 
 11 O       -6.2070     2.5120    -0.6940 O.3   1 <1>  -0.0190 
 12 C       -6.6640     0.4680    -0.2200 C.2   1 <1>  -0.0860 
 13 N       -7.5060     2.4920    -0.5740 N.2   1 <1>  -0.4100 
 14 C       -7.8100     1.2740    -0.2940 C.2   1 <1>   0.3720 
 15 C       -6.6320    -0.9250     0.1140 C.2   1 <1>   0.7160 
 16 N       -9.1340     0.8380    -0.1150 N.pl3 1 <1>  -0.8210 
 17 O       -5.6570    -1.6160    -0.1140 O.2   1 <1>  -0.5700 
 18 N       -7.7120    -1.5080     0.6900 N.am  1 <1>  -0.7300 
 19 C       -9.7210     0.2420    -1.3480 C.3   1 <1>   0.1290 
 20 C      -10.0450     1.8460     0.4960 C.3   1 <1>   0.1290 
 21 C       -7.9540    -2.9400     0.8230 C.3   1 <1>   0.3580 
 22 C       -9.4200    -3.2210     0.5030 C.2   1 <1>  -0.2760 
 23 C       -7.6280    -3.3570     2.2510 C.3   1 <1>  -0.2400 
 24 C      -10.4420    -2.4010     0.7900 C.2   1 <1>  -0.2880 
 25 C       -9.6290    -4.5640    -0.1910 C.3   1 <1>  -0.0220 
 26 C      -11.8950    -2.6790     0.4430 C.3   1 <1>  -0.0220 
 27 C      -11.1040    -4.9900    -0.2000 C.3   1 <1>  -0.1600 
 28 C      -12.0170    -3.8180    -0.5780 C.3   1 <1>  -0.1600 
 29 H       -1.8030    -0.6790    -2.0550 H     1 <1>   0.1500 
 30 H       -3.8290     2.9040     0.6340 H     1 <1>   0.1500 
 31 H       -4.2510    -0.4980    -1.8940 H     1 <1>   0.1500 
 32 H        0.3510     3.8760     1.3650 H     1 <1>   0.0800 
 33 H        0.4690     3.1960    -0.2530 H     1 <1>   0.0800 
 34 H        0.4410     2.1300     1.1650 H     1 <1>   0.0800 
 35 H       -8.5630    -0.9330     0.7080 H     1 <1>   0.3700 
 36 H       -9.0900    -0.5510    -1.7110 H     1 <1>   0.0800 
 37 H       -9.8120     0.9950    -2.1130 H     1 <1>   0.0800 
 38 H      -10.6930    -0.1660    -1.1350 H     1 <1>   0.0800 
 39 H       -9.5700     2.2950     1.3520 H     1 <1>   0.0800 
 40 H      -10.9570     1.3730     0.8160 H     1 <1>   0.0800 
 41 H      -10.2760     2.6200    -0.2160 H     1 <1>   0.0800 
 42 H       -7.3170    -3.4680     0.1320 H     1 <1>   0.0800 
 43 H       -8.2540    -2.8280     2.9450 H     1 <1>   0.0800 
 44 H       -6.5950    -3.1490     2.4660 H     1 <1>   0.0800 
 45 H       -7.7970    -4.4110     2.3700 H     1 <1>   0.0800 
 46 H      -10.3210    -1.4640     1.3080 H     1 <1>   0.1500 
 47 H       -9.0570    -5.3290     0.3050 H     1 <1>   0.0800 
 48 H       -9.2720    -4.4870    -1.2040 H     1 <1>   0.0800 
 49 H      -12.3490    -1.7920     0.0370 H     1 <1>   0.0800 
 50 H      -12.4210    -2.9410     1.3440 H     1 <1>   0.0800 
 51 H      -11.3740    -5.3410     0.7810 H     1 <1>   0.0800 
 52 H      -11.2410    -5.8020    -0.8930 H     1 <1>   0.0800 
 53 H      -11.7350    -3.4520    -1.5510 H     1 <1>   0.0800 
 54 H      -13.0400    -4.1480    -0.6300 H     1 <1>   0.0800 
@<TRIPOS>BOND
  1   1   2  1   
  2   2   3  ar  
  3   2   4  ar  
  4   3   5  1   
  5   3   6  ar  
  6   4   7  ar  
  7   4  29  1   
  8   5   8  1   
  9   6   9  ar  
 10   6  30  1   
 11   7   9  ar  
 12   7  31  1   
 13   8  32  1   
 14   8  33  1   
 15   8  34  1   
 16   9  10  1   
 17  10  11  1   
 18  10  12  2   
 19  11  13  1   
 20  12  14  1   
 21  12  15  1   
 22  13  14  2   
 23  14  16  1   
 24  15  17  2   
 25  15  18  am  
 26  16  19  1   
 27  16  20  1   
 28  18  21  1   
 29  18  35  1   
 30  19  36  1   
 31  19  37  1   
 32  19  38  1   
 33  20  39  1   
 34  20  40  1   
 35  20  41  1   
 36  21  22  1   
 37  21  23  1   
 38  21  42  1   
 39  22  24  2   
 40  22  25  1   
 41  23  43  1   
 42  23  44  1   
 43  23  45  1   
 44  24  26  1   
 45  24  46  1   
 46  25  27  1   
 47  25  47  1   
 48  25  48  1   
 49  26  28  1   
 50  26  49  1   
 51  26  50  1   
 52  27  28  1   
 53  27  51  1   
 54  27  52  1   
 55  28  53  1   
 56  28  54  1   
@<TRIPOS>SUBSTRUCTURE
  1 ****  15 GROUP 4 **** **** 0

# MOE 2024.06 (io_trps.svl 2023.06)
