@<TRIPOS>MOLECULE
NONAME
47 50 1 0 0 
SMALL
USER_CHARGES


@<TRIPOS>ATOM
  1 O       -0.7840    -0.4510    -0.2460 O.3   1 <1>  -0.2800 
  2 C       -1.5900    -0.9260     0.6490 C.2   1 <1>   0.2980 
  3 C       -0.9980     0.8230    -0.2080 C.2   1 <1>   0.2980 
  4 N       -2.2700    -0.0070     1.2250 N.2   1 <1>  -0.3380 
  5 C       -1.6640    -2.4270     0.9130 C.3   1 <1>   0.2900 
  6 N       -1.8830     1.1390     0.6620 N.2   1 <1>  -0.3380 
  7 C       -0.2190     1.7300    -1.1460 C.3   1 <1>   0.0200 
  8 N       -2.3410    -3.1930    -0.1710 N.3   1 <1>  -0.8100 
  9 C       -0.5790     3.2160    -1.0020 C.3   1 <1>  -0.2400 
 10 C       -3.7030    -2.7070    -0.4390 C.3   1 <1>   0.1100 
 11 C       -2.5310    -4.5940     0.2240 C.3   1 <1>   0.1100 
 12 C       -4.6190    -3.3820     0.5830 C.3   1 <1>   0.2000 
 13 C       -3.9140    -4.7070     0.8970 C.3   1 <1>  -0.0800 
 14 O       -4.6810    -2.6280     1.7500 O.3   1 <1>  -0.6800 
 15 C       -4.7170    -5.9120     0.3670 C.3   1 <1>  -0.0170 
 16 C       -4.0760    -7.2900     0.5780 C.ar  1 <1>  -0.1440 
 17 C       -4.4710    -8.3990    -0.2130 C.ar  1 <1>   0.0000 
 18 C       -3.1210    -7.5200     1.5290 C.ar  1 <1>  -0.1500 
 19 C       -3.8150    -9.6370     0.0030 C.ar  1 <1>   0.3100 
 20 C       -5.4840    -8.3590    -1.2020 C.ar  1 <1>  -0.1500 
 21 C       -2.5460    -8.7890     1.6700 C.ar  1 <1>   0.1600 
 22 N       -2.8570    -9.8140     0.9450 N.ar  1 <1>  -0.6200 
 23 C       -4.1690   -10.7450    -0.7830 C.ar  1 <1>  -0.1500 
 24 C       -5.8080    -9.4590    -1.9480 C.ar  1 <1>  -0.1500 
 25 C       -5.1420   -10.6680    -1.7420 C.ar  1 <1>  -0.1500 
 26 H       -2.1700    -2.5810     1.8490 H     1 <1>   0.0800 
 27 H       -0.6600    -2.7950     1.0220 H     1 <1>   0.0800 
 28 H        0.8300     1.5990    -0.9510 H     1 <1>   0.0800 
 29 H       -0.4100     1.4160    -2.1560 H     1 <1>   0.0800 
 30 H       -0.3780     3.5510     0.0010 H     1 <1>   0.0800 
 31 H       -1.6240     3.3670    -1.2100 H     1 <1>   0.0800 
 32 H        0.0000     3.8080    -1.6880 H     1 <1>   0.0800 
 33 H       -3.7860    -1.6350    -0.4260 H     1 <1>   0.0800 
 34 H       -3.9830    -3.0460    -1.4220 H     1 <1>   0.0800 
 35 H       -2.5080    -5.1970    -0.6690 H     1 <1>   0.0800 
 36 H       -1.7420    -4.9340     0.8730 H     1 <1>   0.0800 
 37 H       -5.6210    -3.4990     0.2070 H     1 <1>   0.0800 
 38 H       -3.7960    -4.8040     1.9620 H     1 <1>   0.0800 
 39 H       -4.7480    -1.6740     1.5410 H     1 <1>   0.4000 
 40 H       -4.8580    -5.7520    -0.6870 H     1 <1>   0.0800 
 41 H       -5.6880    -5.9180     0.8310 H     1 <1>   0.0800 
 42 H       -2.7740    -6.7570     2.1980 H     1 <1>   0.1500 
 43 H       -6.0230    -7.4480    -1.3760 H     1 <1>   0.1500 
 44 H       -1.7950    -8.9180     2.4310 H     1 <1>   0.1500 
 45 H       -3.6450   -11.6650    -0.6020 H     1 <1>   0.1500 
 46 H       -6.5790    -9.4100    -2.6990 H     1 <1>   0.1500 
 47 H       -5.4030   -11.5270    -2.3370 H     1 <1>   0.1500 
@<TRIPOS>BOND
  1   1   2  1   
  2   1   3  1   
  3   2   4  2   
  4   2   5  1   
  5   3   6  2   
  6   3   7  1   
  7   4   6  1   
  8   5   8  1   
  9   5  26  1   
 10   5  27  1   
 11   7   9  1   
 12   7  28  1   
 13   7  29  1   
 14   8  10  1   
 15   8  11  1   
 16   9  30  1   
 17   9  31  1   
 18   9  32  1   
 19  10  12  1   
 20  10  33  1   
 21  10  34  1   
 22  11  13  1   
 23  11  35  1   
 24  11  36  1   
 25  12  13  1   
 26  12  14  1   
 27  12  37  1   
 28  13  15  1   
 29  13  38  1   
 30  14  39  1   
 31  15  16  1   
 32  15  40  1   
 33  15  41  1   
 34  16  17  ar  
 35  16  18  ar  
 36  17  19  ar  
 37  17  20  ar  
 38  18  21  ar  
 39  18  42  1   
 40  19  22  ar  
 41  19  23  ar  
 42  20  24  ar  
 43  20  43  1   
 44  21  22  ar  
 45  21  44  1   
 46  23  25  ar  
 47  23  45  1   
 48  24  25  ar  
 49  24  46  1   
 50  25  47  1   
@<TRIPOS>SUBSTRUCTURE
  1 ****  11 GROUP 4 **** **** 0

# MOE 2024.06 (io_trps.svl 2023.06)
