@<TRIPOS>MOLECULE
NONAME
39 41 1 0 0 
SMALL
USER_CHARGES


@<TRIPOS>ATOM
  1 CL      -2.5990     0.0680     3.0730 Cl    1 <1>  -0.1230 
  2 C       -2.9780     0.6560     1.4720 C.2   1 <1>   0.1230 
  3 C       -3.0170    -0.1160     0.3740 C.2   1 <1>  -0.1400 
  4 C       -3.2790     2.0360     1.2640 C.2   1 <1>  -0.1500 
  5 S       -3.4400     0.8710    -1.0200 S.3   1 <1>  -0.0800 
  6 C       -2.7540    -1.5900     0.1760 C.3   1 <1>   0.5230 
  7 C       -3.5510     2.3200    -0.0240 C.2   1 <1>  -0.1100 
  8 N       -4.0320    -2.3390     0.2720 N.4   1 <1>  -0.9590 
  9 C       -5.0700    -2.0020    -0.7400 C.3   1 <1>   0.3430 
 10 C       -3.8790    -3.8220     0.2290 C.3   1 <1>   0.3430 
 11 C       -6.0480    -3.1720    -0.6520 C.3   1 <1>   0.2000 
 12 C       -5.1080    -4.3720    -0.5100 C.3   1 <1>  -0.0800 
 13 O       -6.7880    -3.0130     0.5170 O.3   1 <1>  -0.6800 
 14 C       -5.6950    -5.6250     0.1690 C.3   1 <1>   0.0210 
 15 C       -4.7090    -6.7800     0.1420 C.2   1 <1>   0.1080 
 16 N       -3.4740    -6.6740     0.5280 N.2   1 <1>  -0.7070 
 17 C       -5.0170    -8.0650    -0.2910 C.2   1 <1>  -0.1500 
 18 N       -2.9590    -7.9120     0.3600 N.pl3 1 <1>   0.3000 
 19 C       -3.8750    -8.7660    -0.1400 C.2   1 <1>  -0.3320 
 20 C       -3.6000   -10.2280    -0.4420 C.3   1 <1>  -0.0600 
 21 H       -3.2750     2.7340     2.0840 H     1 <1>   0.1500 
 22 H       -2.0820    -1.9310     0.9470 H     1 <1>   0.0800 
 23 H       -2.2880    -1.7550    -0.7820 H     1 <1>   0.0800 
 24 H       -3.8100     3.2430    -0.5150 H     1 <1>   0.1500 
 25 H       -4.4720    -2.1190     1.1790 H     1 <1>   0.4500 
 26 H       -5.5580    -1.0650    -0.5250 H     1 <1>   0.0800 
 27 H       -4.6310    -1.9660    -1.7240 H     1 <1>   0.0800 
 28 H       -2.9830    -4.1140    -0.2950 H     1 <1>   0.0800 
 29 H       -3.8350    -4.2220     1.2300 H     1 <1>   0.0800 
 30 H       -6.7170    -3.2280    -1.4940 H     1 <1>   0.0800 
 31 H       -4.7810    -4.6570    -1.4950 H     1 <1>   0.0800 
 32 H       -7.5710    -3.6030     0.5300 H     1 <1>   0.4000 
 33 H       -6.5950    -5.9240    -0.3380 H     1 <1>   0.0800 
 34 H       -5.9410    -5.4190     1.1960 H     1 <1>   0.0800 
 35 H       -5.9680    -8.4070    -0.6590 H     1 <1>   0.1500 
 36 H       -1.9870    -8.1470     0.5970 H     1 <1>   0.2700 
 37 H       -4.4860   -10.6990    -0.8290 H     1 <1>   0.0800 
 38 H       -3.3020   -10.7440     0.4540 H     1 <1>   0.0800 
 39 H       -2.8180   -10.3180    -1.1750 H     1 <1>   0.0800 
@<TRIPOS>BOND
  1   1   2  1   
  2   2   3  2   
  3   2   4  1   
  4   3   5  1   
  5   3   6  1   
  6   4   7  2   
  7   4  21  1   
  8   5   7  1   
  9   6   8  1   
 10   6  22  1   
 11   6  23  1   
 12   7  24  1   
 13   8   9  1   
 14   8  10  1   
 15   8  25  1   
 16   9  11  1   
 17   9  26  1   
 18   9  27  1   
 19  10  12  1   
 20  10  28  1   
 21  10  29  1   
 22  11  12  1   
 23  11  13  1   
 24  11  30  1   
 25  12  14  1   
 26  12  31  1   
 27  13  32  1   
 28  14  15  1   
 29  14  33  1   
 30  14  34  1   
 31  15  16  2   
 32  15  17  1   
 33  16  18  1   
 34  17  19  2   
 35  17  35  1   
 36  18  19  1   
 37  18  36  1   
 38  19  20  1   
 39  20  37  1   
 40  20  38  1   
 41  20  39  1   
@<TRIPOS>SUBSTRUCTURE
  1 ****  10 GROUP 4 **** **** 0

# MOE 2024.06 (io_trps.svl 2023.06)
