@<TRIPOS>MOLECULE
NONAME
57 59 1 0 0 
SMALL
USER_CHARGES


@<TRIPOS>ATOM
  1 F       -0.6160    -0.3900     0.2560 F     1 <1>  -0.1900 
  2 C       -1.8230     0.1160     0.2800 C.ar  1 <1>   0.1900 
  3 C       -2.0540     1.4750     0.5140 C.ar  1 <1>   0.0830 
  4 C       -2.8630    -0.7670     0.0650 C.ar  1 <1>  -0.1500 
  5 O       -1.1170     2.4410     0.7380 O.3   1 <1>  -0.3630 
  6 C       -3.3690     1.9110     0.5220 C.ar  1 <1>  -0.1500 
  7 C       -4.1640    -0.2990     0.0810 C.ar  1 <1>  -0.1500 
  8 C        0.2700     2.1870     0.7190 C.3   1 <1>   0.0400 
  9 C       -4.4500     1.0500     0.3080 C.ar  1 <1>   0.0530 
 10 C       -5.8050     1.5530     0.3290 C.2   1 <1>   0.0870 
 11 O       -6.0800     2.6720     0.9510 O.3   1 <1>  -0.0190 
 12 C       -6.9780     1.0940    -0.1830 C.2   1 <1>  -0.0860 
 13 N       -7.3440     2.9950     0.8910 N.2   1 <1>  -0.4100 
 14 C       -7.9090     2.0650     0.2020 C.2   1 <1>   0.3720 
 15 C       -7.2430    -0.0780    -0.9560 C.2   1 <1>   0.7160 
 16 N       -9.2820     2.0450    -0.0930 N.pl3 1 <1>  -0.8210 
 17 O       -6.7130    -0.1820    -2.0490 O.2   1 <1>  -0.5700 
 18 N       -8.0310    -1.1170    -0.4980 N.am  1 <1>  -0.6600 
 19 C       -9.6720     1.9240    -1.5290 C.3   1 <1>   0.1290 
 20 C      -10.1580     2.9690     0.6780 C.3   1 <1>   0.1290 
 21 C       -8.6530    -1.1480     0.8550 C.3   1 <1>   0.1400 
 22 C       -8.3900    -2.2720    -1.3650 C.3   1 <1>   0.1400 
 23 C      -10.1800    -1.2300     0.7280 C.3   1 <1>  -0.1600 
 24 C       -9.9110    -2.3340    -1.5250 C.3   1 <1>  -0.1600 
 25 C      -10.6820    -2.3760    -0.1830 C.3   1 <1>   0.0610 
 26 C      -12.1910    -2.1630    -0.4690 C.2   1 <1>   0.5690 
 27 C      -10.4130    -3.7350     0.5170 C.3   1 <1>  -0.2400 
 28 O      -12.5480    -1.1490    -1.0250 O.2   1 <1>  -0.5700 
 29 N      -13.1020    -3.1080    -0.1000 N.am  1 <1>  -0.7300 
 30 C      -14.5680    -3.0260    -0.3200 C.3   1 <1>   0.0600 
 31 H       -2.6530    -1.8060    -0.1130 H     1 <1>   0.1500 
 32 H       -3.5540     2.9550     0.6970 H     1 <1>   0.1500 
 33 H       -4.9620    -0.9990    -0.0840 H     1 <1>   0.1500 
 34 H        0.7820     3.1150     0.8990 H     1 <1>   0.0800 
 35 H        0.5430     1.8020    -0.2470 H     1 <1>   0.0800 
 36 H        0.5080     1.4840     1.4980 H     1 <1>   0.0800 
 37 H       -8.8050     1.7970    -2.1540 H     1 <1>   0.0800 
 38 H      -10.1930     2.8090    -1.8530 H     1 <1>   0.0800 
 39 H      -10.3190     1.0730    -1.6560 H     1 <1>   0.0800 
 40 H       -9.9150     2.9150     1.7250 H     1 <1>   0.0800 
 41 H      -11.1900     2.6900     0.5490 H     1 <1>   0.0800 
 42 H      -10.0150     3.9800     0.3390 H     1 <1>   0.0800 
 43 H       -8.3950    -0.2710     1.4210 H     1 <1>   0.0800 
 44 H       -8.2790    -2.0010     1.3920 H     1 <1>   0.0800 
 45 H       -8.0150    -3.1780    -0.9230 H     1 <1>   0.0800 
 46 H       -7.9390    -2.1770    -2.3390 H     1 <1>   0.0800 
 47 H      -10.5230    -0.2910     0.3350 H     1 <1>   0.0800 
 48 H      -10.6110    -1.3270     1.7080 H     1 <1>   0.0800 
 49 H      -10.1720    -3.1900    -2.1210 H     1 <1>   0.0800 
 50 H      -10.2110    -1.4620    -2.0820 H     1 <1>   0.0800 
 51 H       -9.3690    -3.8790     0.7210 H     1 <1>   0.0800 
 52 H      -10.7410    -4.5490    -0.1040 H     1 <1>   0.0800 
 53 H      -10.9370    -3.7840     1.4560 H     1 <1>   0.0800 
 54 H      -12.7680    -3.9530     0.3650 H     1 <1>   0.3700 
 55 H      -14.8240    -2.1010    -0.8090 H     1 <1>   0.0800 
 56 H      -15.0820    -3.0720     0.6240 H     1 <1>   0.0800 
 57 H      -14.8900    -3.8450    -0.9400 H     1 <1>   0.0800 
@<TRIPOS>BOND
  1   1   2  1   
  2   2   3  ar  
  3   2   4  ar  
  4   3   5  1   
  5   3   6  ar  
  6   4   7  ar  
  7   4  31  1   
  8   5   8  1   
  9   6   9  ar  
 10   6  32  1   
 11   7   9  ar  
 12   7  33  1   
 13   8  34  1   
 14   8  35  1   
 15   8  36  1   
 16   9  10  1   
 17  10  11  1   
 18  10  12  2   
 19  11  13  1   
 20  12  14  1   
 21  12  15  1   
 22  13  14  2   
 23  14  16  1   
 24  15  17  2   
 25  15  18  am  
 26  16  19  1   
 27  16  20  1   
 28  18  21  1   
 29  18  22  1   
 30  19  37  1   
 31  19  38  1   
 32  19  39  1   
 33  20  40  1   
 34  20  41  1   
 35  20  42  1   
 36  21  23  1   
 37  21  43  1   
 38  21  44  1   
 39  22  24  1   
 40  22  45  1   
 41  22  46  1   
 42  23  25  1   
 43  23  47  1   
 44  23  48  1   
 45  24  25  1   
 46  24  49  1   
 47  24  50  1   
 48  25  26  1   
 49  25  27  1   
 50  26  28  2   
 51  26  29  am  
 52  27  51  1   
 53  27  52  1   
 54  27  53  1   
 55  29  30  1   
 56  29  54  1   
 57  30  55  1   
 58  30  56  1   
 59  30  57  1   
@<TRIPOS>SUBSTRUCTURE
  1 ****  15 GROUP 4 **** **** 0

# MOE 2024.06 (io_trps.svl 2023.06)
