@<TRIPOS>MOLECULE
NONAME
52 53 1 0 0 
SMALL
USER_CHARGES


@<TRIPOS>ATOM
  1 O       -0.8540     2.8180    -2.4670 O.co2 1 <1>  -0.9000 
  2 C       -1.2960     2.2060    -1.4820 C.2   1 <1>   0.9060 
  3 O       -2.1410     1.3160    -1.5910 O.co2 1 <1>  -0.9000 
  4 C       -0.9000     2.6730    -0.0810 C.3   1 <1>  -0.1060 
  5 C       -2.1540     3.2110     0.6380 C.3   1 <1>   0.2000 
  6 C        0.0840     3.8400    -0.2130 C.3   1 <1>   0.3430 
  7 C       -0.2460     1.5290     0.7470 C.3   1 <1>  -0.1600 
  8 O       -3.1100     2.2240     0.7170 O.3   1 <1>  -0.6800 
  9 C       -2.7830     4.4030    -0.0870 C.3   1 <1>  -0.1600 
 10 N       -0.5390     4.9760    -0.9540 N.4   1 <1>  -0.9590 
 11 C        1.0440     0.9610     0.1300 C.3   1 <1>  -0.1600 
 12 C       -1.7640     5.5160    -0.3070 C.3   1 <1>   0.3430 
 13 C        0.4390     5.9890    -1.4180 C.3   1 <1>   0.3430 
 14 C        1.5890    -0.1900     0.9800 C.3   1 <1>  -0.2400 
 15 C        1.0610     6.7650    -0.2510 C.3   1 <1>  -0.1600 
 16 C        2.0820     7.7860    -0.7710 C.3   1 <1>  -0.1600 
 17 C        2.7350     8.5730     0.3710 C.3   1 <1>  -0.0170 
 18 C        3.7390     9.5650    -0.1900 C.ar  1 <1>  -0.1430 
 19 C        5.0580     9.1870    -0.3940 C.ar  1 <1>  -0.1500 
 20 C        3.3460    10.8560    -0.5090 C.ar  1 <1>  -0.1500 
 21 C        5.9720    10.0880    -0.9110 C.ar  1 <1>  -0.1500 
 22 C        4.2600    11.7580    -1.0260 C.ar  1 <1>  -0.1500 
 23 C        5.5740    11.3750    -1.2270 C.ar  1 <1>  -0.1500 
 24 H       -1.9100     3.4930     1.6480 H     1 <1>   0.0800 
 25 H        0.9460     3.4960    -0.7600 H     1 <1>   0.0800 
 26 H        0.4000     4.1620     0.7640 H     1 <1>   0.0800 
 27 H       -0.0390     1.8770     1.7440 H     1 <1>   0.0800 
 28 H       -0.9560     0.7230     0.8330 H     1 <1>   0.0800 
 29 H       -3.0470     1.6810    -0.1240 H     1 <1>   0.4000 
 30 H       -3.1780     4.0940    -1.0410 H     1 <1>   0.0800 
 31 H       -3.5990     4.7840     0.5000 H     1 <1>   0.0800 
 32 H       -0.8510     4.4620    -1.8230 H     1 <1>   0.4500 
 33 H        0.8380     0.5900    -0.8620 H     1 <1>   0.0800 
 34 H        1.8020     1.7190     0.0530 H     1 <1>   0.0800 
 35 H       -1.5050     5.9550     0.6420 H     1 <1>   0.0800 
 36 H       -2.2000     6.2800    -0.9300 H     1 <1>   0.0800 
 37 H        1.2190     5.4960    -1.9750 H     1 <1>   0.0800 
 38 H       -0.0530     6.6790    -2.0850 H     1 <1>   0.0800 
 39 H        0.8640    -0.9820     1.0420 H     1 <1>   0.0800 
 40 H        1.8200     0.1480     1.9740 H     1 <1>   0.0800 
 41 H        2.4850    -0.5840     0.5330 H     1 <1>   0.0800 
 42 H        0.2950     7.2880     0.2930 H     1 <1>   0.0800 
 43 H        1.5620     6.0850     0.4150 H     1 <1>   0.0800 
 44 H        2.8540     7.2790    -1.3270 H     1 <1>   0.0800 
 45 H        1.5990     8.4800    -1.4380 H     1 <1>   0.0800 
 46 H        3.2370     7.9010     1.0460 H     1 <1>   0.0800 
 47 H        1.9850     9.1020     0.9330 H     1 <1>   0.0800 
 48 H        5.3800     8.1900    -0.1520 H     1 <1>   0.1500 
 49 H        2.3280    11.1670    -0.3570 H     1 <1>   0.1500 
 50 H        6.9940     9.7890    -1.0660 H     1 <1>   0.1500 
 51 H        3.9490    12.7590    -1.2710 H     1 <1>   0.1500 
 52 H        6.2850    12.0760    -1.6280 H     1 <1>   0.1500 
@<TRIPOS>BOND
  1   1   2  ar  
  2   2   3  ar  
  3   2   4  1   
  4   4   5  1   
  5   4   6  1   
  6   4   7  1   
  7   5   8  1   
  8   5   9  1   
  9   5  24  1   
 10   6  10  1   
 11   6  25  1   
 12   6  26  1   
 13   7  11  1   
 14   7  27  1   
 15   7  28  1   
 16   8  29  1   
 17   9  12  1   
 18   9  30  1   
 19   9  31  1   
 20  10  12  1   
 21  10  13  1   
 22  10  32  1   
 23  11  14  1   
 24  11  33  1   
 25  11  34  1   
 26  12  35  1   
 27  12  36  1   
 28  13  15  1   
 29  13  37  1   
 30  13  38  1   
 31  14  39  1   
 32  14  40  1   
 33  14  41  1   
 34  15  16  1   
 35  15  42  1   
 36  15  43  1   
 37  16  17  1   
 38  16  44  1   
 39  16  45  1   
 40  17  18  1   
 41  17  46  1   
 42  17  47  1   
 43  18  19  ar  
 44  18  20  ar  
 45  19  21  ar  
 46  19  48  1   
 47  20  22  ar  
 48  20  49  1   
 49  21  23  ar  
 50  21  50  1   
 51  22  23  ar  
 52  22  51  1   
 53  23  52  1   
@<TRIPOS>SUBSTRUCTURE
  1 ****  13 GROUP 4 **** **** 0

# MOE 2024.06 (io_trps.svl 2023.06)
