@<TRIPOS>MOLECULE
NONAME
58 61 1 0 0 
SMALL
USER_CHARGES


@<TRIPOS>ATOM
  1 O       -0.4290     0.2880     0.5650 O.2   1 <1>  -0.5700 
  2 C       -1.4340     0.8740     0.2040 C.2   1 <1>   0.5440 
  3 N       -2.6070     0.1590     0.1040 N.am  1 <1>  -0.6600 
  4 C       -1.3770     2.2920    -0.0890 C.ar  1 <1>   0.0860 
  5 C       -3.9630     0.7540     0.0950 C.3   1 <1>   0.1400 
  6 C       -2.6770    -1.2940     0.3650 C.3   1 <1>   0.1400 
  7 C       -0.7210     3.1750     0.7700 C.ar  1 <1>  -0.1500 
  8 C       -1.9660     2.8370    -1.2320 C.ar  1 <1>  -0.1500 
  9 C       -4.8620    -0.2880     0.7730 C.3   1 <1>  -0.0800 
 10 C       -4.1670    -1.6330     0.4840 C.3   1 <1>  -0.0800 
 11 C       -0.6750     4.5320     0.5130 C.ar  1 <1>  -0.1500 
 12 C       -1.9200     4.1930    -1.4900 C.ar  1 <1>  -0.1500 
 13 C       -6.3770    -0.2350     0.4050 C.3   1 <1>   0.2800 
 14 C       -4.7280    -2.2760    -0.7930 C.3   1 <1>  -0.1600 
 15 C       -1.2780     5.0670    -0.6200 C.ar  1 <1>   0.1000 
 16 O       -6.5490     0.3120    -0.8530 O.3   1 <1>  -0.6800 
 17 C       -6.9580    -1.6600     0.3430 C.3   1 <1>  -0.1600 
 18 C       -7.2000     0.6280     1.3870 C.3   1 <1>  -0.1600 
 19 C       -6.2320    -2.5810    -0.6620 C.3   1 <1>  -0.1600 
 20 N       -1.2440     6.4290    -0.8870 N.pl3 1 <1>  -0.8380 
 21 C       -6.7830     2.1060     1.4850 C.3   1 <1>  -0.2400 
 22 C       -0.0090     7.2360    -0.7120 C.3   1 <1>   0.2090 
 23 C       -2.4980     7.1930    -1.1150 C.3   1 <1>   0.2090 
 24 C       -0.2080     8.2530     0.4170 C.3   1 <1>  -0.1600 
 25 C       -2.6940     8.2090     0.0150 C.3   1 <1>  -0.1600 
 26 C       -1.4630     9.1100     0.1970 C.3   1 <1>  -0.1600 
 27 H       -3.9800     1.6920     0.6200 H     1 <1>   0.0800 
 28 H       -4.2470     0.9120    -0.9300 H     1 <1>   0.0800 
 29 H       -2.2000    -1.8390    -0.4310 H     1 <1>   0.0800 
 30 H       -2.1700    -1.5080     1.2910 H     1 <1>   0.0800 
 31 H       -0.2450     2.7780     1.6490 H     1 <1>   0.1500 
 32 H       -2.4590     2.1810    -1.9270 H     1 <1>   0.1500 
 33 H       -4.7730    -0.1340     1.8340 H     1 <1>   0.0800 
 34 H       -4.3090    -2.3180     1.3020 H     1 <1>   0.0800 
 35 H       -0.1750     5.1890     1.1980 H     1 <1>   0.1500 
 36 H       -2.3750     4.5900    -2.3780 H     1 <1>   0.1500 
 37 H       -4.5800    -1.5960    -1.6160 H     1 <1>   0.0800 
 38 H       -4.1950    -3.1830    -1.0230 H     1 <1>   0.0800 
 39 H       -7.4900     0.2700    -1.0950 H     1 <1>   0.4000 
 40 H       -6.8670    -2.0950     1.3230 H     1 <1>   0.0800 
 41 H       -8.0090    -1.6320     0.1130 H     1 <1>   0.0800 
 42 H       -8.2370     0.5840     1.1030 H     1 <1>   0.0800 
 43 H       -7.1310     0.1930     2.3680 H     1 <1>   0.0800 
 44 H       -6.3660    -3.6030    -0.3510 H     1 <1>   0.0800 
 45 H       -6.6840    -2.4780    -1.6330 H     1 <1>   0.0800 
 46 H       -6.7860     2.5700     0.5150 H     1 <1>   0.0800 
 47 H       -5.8010     2.2000     1.9120 H     1 <1>   0.0800 
 48 H       -7.4720     2.6380     2.1170 H     1 <1>   0.0800 
 49 H        0.8250     6.5920    -0.4920 H     1 <1>   0.0800 
 50 H        0.2020     7.7510    -1.6340 H     1 <1>   0.0800 
 51 H       -2.4310     7.7010    -2.0620 H     1 <1>   0.0800 
 52 H       -3.3380     6.5210    -1.1460 H     1 <1>   0.0800 
 53 H       -0.2920     7.7220     1.3480 H     1 <1>   0.0800 
 54 H        0.6580     8.8880     0.4780 H     1 <1>   0.0800 
 55 H       -3.5580     8.8130    -0.1980 H     1 <1>   0.0800 
 56 H       -2.8860     7.6710     0.9260 H     1 <1>   0.0800 
 57 H       -1.3320     9.7200    -0.6800 H     1 <1>   0.0800 
 58 H       -1.6110     9.7630     1.0400 H     1 <1>   0.0800 
@<TRIPOS>BOND
  1   1   2  2   
  2   2   3  am  
  3   2   4  1   
  4   3   5  1   
  5   3   6  1   
  6   4   7  ar  
  7   4   8  ar  
  8   5   9  1   
  9   5  27  1   
 10   5  28  1   
 11   6  10  1   
 12   6  29  1   
 13   6  30  1   
 14   7  11  ar  
 15   7  31  1   
 16   8  12  ar  
 17   8  32  1   
 18   9  10  1   
 19   9  13  1   
 20   9  33  1   
 21  10  14  1   
 22  10  34  1   
 23  11  15  ar  
 24  11  35  1   
 25  12  15  ar  
 26  12  36  1   
 27  13  16  1   
 28  13  17  1   
 29  13  18  1   
 30  14  19  1   
 31  14  37  1   
 32  14  38  1   
 33  15  20  1   
 34  16  39  1   
 35  17  19  1   
 36  17  40  1   
 37  17  41  1   
 38  18  21  1   
 39  18  42  1   
 40  18  43  1   
 41  19  44  1   
 42  19  45  1   
 43  20  22  1   
 44  20  23  1   
 45  21  46  1   
 46  21  47  1   
 47  21  48  1   
 48  22  24  1   
 49  22  49  1   
 50  22  50  1   
 51  23  25  1   
 52  23  51  1   
 53  23  52  1   
 54  24  26  1   
 55  24  53  1   
 56  24  54  1   
 57  25  26  1   
 58  25  55  1   
 59  25  56  1   
 60  26  57  1   
 61  26  58  1   
@<TRIPOS>SUBSTRUCTURE
  1 ****   8 GROUP 4 **** **** 0

# MOE 2024.06 (io_trps.svl 2023.06)
