@<TRIPOS>MOLECULE
NONAME
53 54 1 0 0 
SMALL
USER_CHARGES


@<TRIPOS>ATOM
  1 O       -2.7700     2.8800    -0.7210 O.co2 1 <1>  -0.9000 
  2 C       -1.6400     3.3690    -0.7300 C.2   1 <1>   0.9060 
  3 O       -1.3660     4.3740    -1.4050 O.co2 1 <1>  -0.9000 
  4 C       -0.5870     2.8020     0.2280 C.3   1 <1>  -0.1060 
  5 C       -1.1090     2.9130     1.6770 C.3   1 <1>   0.2000 
  6 C        0.6660     3.6760     0.1280 C.3   1 <1>   0.3430 
  7 C       -0.2460     1.3410    -0.1810 C.3   1 <1>  -0.1600 
  8 O       -2.2860     2.2140     1.8070 O.3   1 <1>  -0.6800 
  9 C       -1.3820     4.3610     2.0960 C.3   1 <1>  -0.1600 
 10 N        0.3340     5.0880     0.4840 N.4   1 <1>  -0.9590 
 11 C        0.8250     0.6410     0.6760 C.3   1 <1>  -0.1600 
 12 C       -0.1540     5.2420     1.8780 C.3   1 <1>   0.3430 
 13 C        1.3650     6.0810     0.0830 C.3   1 <1>   0.3430 
 14 C        1.1040    -0.7660     0.1430 C.3   1 <1>  -0.2400 
 15 C        1.4910     6.1750    -1.4460 C.3   1 <1>   0.1200 
 16 O        2.2900     7.2950    -1.7690 O.3   1 <1>  -0.3630 
 17 C        1.8910     8.5360    -1.3870 C.ar  1 <1>   0.0830 
 18 C        2.8390     9.4110    -0.8630 C.ar  1 <1>  -0.1430 
 19 C        0.5610     8.9320    -1.4940 C.ar  1 <1>  -0.1500 
 20 C        2.4330    10.6610    -0.4220 C.ar  1 <1>  -0.1500 
 21 C        4.3120     9.0340    -0.7600 C.3   1 <1>  -0.0170 
 22 C        0.1710    10.1830    -1.0530 C.ar  1 <1>  -0.1500 
 23 C        1.1060    11.0460    -0.5120 C.ar  1 <1>  -0.1500 
 24 C        4.6160     8.3710     0.5860 C.3   1 <1>  -0.2400 
 25 H       -0.4070     2.4780     2.3670 H     1 <1>   0.0800 
 26 H        1.0230     3.6320    -0.8880 H     1 <1>   0.0800 
 27 H        1.4340     3.3010     0.7820 H     1 <1>   0.0800 
 28 H       -1.1510     0.7560    -0.1420 H     1 <1>   0.0800 
 29 H        0.0730     1.3400    -1.2100 H     1 <1>   0.0800 
 30 H       -2.7930     2.3220     0.9490 H     1 <1>   0.4000 
 31 H       -2.2080     4.7630     1.5340 H     1 <1>   0.0800 
 32 H       -1.6500     4.3830     3.1370 H     1 <1>   0.0800 
 33 H       -0.4880     5.2540    -0.1560 H     1 <1>   0.4500 
 34 H        1.7460     1.1960     0.6710 H     1 <1>   0.0800 
 35 H        0.4830     0.5550     1.6930 H     1 <1>   0.0800 
 36 H        0.6230     4.9570     2.5670 H     1 <1>   0.0800 
 37 H       -0.4170     6.2710     2.0630 H     1 <1>   0.0800 
 38 H        1.0760     7.0490     0.4560 H     1 <1>   0.0800 
 39 H        2.3180     5.8180     0.5090 H     1 <1>   0.0800 
 40 H        1.4680    -0.7240    -0.8690 H     1 <1>   0.0800 
 41 H        0.2050    -1.3570     0.1610 H     1 <1>   0.0800 
 42 H        1.8440    -1.2540     0.7530 H     1 <1>   0.0800 
 43 H        0.5320     6.2780    -1.9210 H     1 <1>   0.0800 
 44 H        1.9850     5.3080    -1.8430 H     1 <1>   0.0800 
 45 H       -0.1780     8.2850    -1.9300 H     1 <1>   0.1500 
 46 H        3.1520    11.3470    -0.0080 H     1 <1>   0.1500 
 47 H        4.5830     8.3710    -1.5640 H     1 <1>   0.0800 
 48 H        4.9160     9.9190    -0.8650 H     1 <1>   0.0800 
 49 H       -0.8580    10.4880    -1.1360 H     1 <1>   0.1500 
 50 H        0.8050    12.0210    -0.1680 H     1 <1>   0.1500 
 51 H        4.0500     7.4650     0.6900 H     1 <1>   0.0800 
 52 H        4.3640     9.0370     1.3920 H     1 <1>   0.0800 
 53 H        5.6630     8.1340     0.6490 H     1 <1>   0.0800 
@<TRIPOS>BOND
  1   1   2  ar  
  2   2   3  ar  
  3   2   4  1   
  4   4   5  1   
  5   4   6  1   
  6   4   7  1   
  7   5   8  1   
  8   5   9  1   
  9   5  25  1   
 10   6  10  1   
 11   6  26  1   
 12   6  27  1   
 13   7  11  1   
 14   7  28  1   
 15   7  29  1   
 16   8  30  1   
 17   9  12  1   
 18   9  31  1   
 19   9  32  1   
 20  10  12  1   
 21  10  13  1   
 22  10  33  1   
 23  11  14  1   
 24  11  34  1   
 25  11  35  1   
 26  12  36  1   
 27  12  37  1   
 28  13  15  1   
 29  13  38  1   
 30  13  39  1   
 31  14  40  1   
 32  14  41  1   
 33  14  42  1   
 34  15  16  1   
 35  15  43  1   
 36  15  44  1   
 37  16  17  1   
 38  17  18  ar  
 39  17  19  ar  
 40  18  20  ar  
 41  18  21  1   
 42  19  22  ar  
 43  19  45  1   
 44  20  23  ar  
 45  20  46  1   
 46  21  24  1   
 47  21  47  1   
 48  21  48  1   
 49  22  23  ar  
 50  22  49  1   
 51  23  50  1   
 52  24  51  1   
 53  24  52  1   
 54  24  53  1   
@<TRIPOS>SUBSTRUCTURE
  1 ****  10 GROUP 4 **** **** 0

# MOE 2024.06 (io_trps.svl 2023.06)
