@<TRIPOS>MOLECULE
NONAME
56 59 1 0 0 
SMALL
USER_CHARGES


@<TRIPOS>ATOM
  1 O       -0.0970    -0.7360    -0.9580 O.2   1 <1>  -0.5700 
  2 C        0.7130    -1.5660    -0.6400 C.2   1 <1>   0.5690 
  3 N        0.3440    -2.8070    -0.2590 N.am  1 <1>  -0.7300 
  4 C        2.1930    -1.2520    -0.6440 C.3   1 <1>  -0.0990 
  5 C        1.3030    -3.8520     0.1430 C.3   1 <1>   0.1400 
  6 C        2.9940    -2.4220    -1.2540 C.3   1 <1>  -0.0800 
  7 C        2.5170    -3.8290    -0.8100 C.3   1 <1>  -0.0800 
  8 C        4.4930    -2.3540    -0.9370 C.3   1 <1>  -0.1600 
  9 C        3.7560    -4.5310    -0.2330 C.3   1 <1>  -0.1600 
 10 C        4.9300    -3.8140    -0.8960 C.3   1 <1>   0.4230 
 11 N        6.2600    -4.0520    -0.2510 N.4   1 <1>  -0.9590 
 12 C        6.3870    -3.6990     1.2200 C.3   1 <1>   0.4860 
 13 C        6.7340    -5.4460    -0.5050 C.3   1 <1>   0.2630 
 14 C        6.7140    -2.2200     1.4530 C.ar  1 <1>   0.4770 
 15 N        7.6040    -1.6780     0.6590 N.ar  1 <1>  -0.6200 
 16 N        6.0500    -1.6130     2.3930 N.ar  1 <1>  -0.6200 
 17 C        7.8020    -0.3930     0.8780 C.ar  1 <1>   0.7200 
 18 C        6.3370    -0.3410     2.4990 C.ar  1 <1>   0.7200 
 19 N        7.1900     0.3220     1.7830 N.ar  1 <1>  -0.6200 
 20 N        8.7390     0.1850     0.0750 N.pl3 1 <1>  -0.6000 
 21 N        5.6860     0.3410     3.4370 N.pl3 1 <1>  -0.9000 
 22 C        9.0630     1.5280    -0.1590 C.ar  1 <1>   0.1000 
 23 C       10.3780     1.8620    -0.4630 C.ar  1 <1>  -0.1500 
 24 C        8.1130     2.5430    -0.1270 C.ar  1 <1>  -0.1500 
 25 C       10.7460     3.1720    -0.7230 C.ar  1 <1>  -0.1440 
 26 C        8.4700     3.8540    -0.3850 C.ar  1 <1>  -0.1500 
 27 C        9.7840     4.1680    -0.6830 C.ar  1 <1>  -0.1500 
 28 C       12.1850     3.5260    -1.0500 C.3   1 <1>  -0.0960 
 29 H       -0.6590    -3.0050    -0.2150 H     1 <1>   0.3700 
 30 H        2.3650    -0.3500    -1.2040 H     1 <1>   0.0800 
 31 H        2.4850    -1.0750     0.3740 H     1 <1>   0.0800 
 32 H        1.6100    -3.6540     1.1560 H     1 <1>   0.0800 
 33 H        0.8240    -4.8170     0.1130 H     1 <1>   0.0800 
 34 H        2.8680    -2.3690    -2.3250 H     1 <1>   0.0800 
 35 H        2.2220    -4.3590    -1.7020 H     1 <1>   0.0800 
 36 H        4.6130    -1.8820     0.0170 H     1 <1>   0.0800 
 37 H        5.0250    -1.7940    -1.6870 H     1 <1>   0.0800 
 38 H        3.7430    -5.5820    -0.4650 H     1 <1>   0.0800 
 39 H        3.7710    -4.3930     0.8310 H     1 <1>   0.0800 
 40 H        4.9800    -4.1530    -1.9190 H     1 <1>   0.0800 
 41 H        6.9180    -3.3980    -0.7100 H     1 <1>   0.4500 
 42 H        5.4860    -3.9450     1.7520 H     1 <1>   0.0800 
 43 H        7.1900    -4.2680     1.6560 H     1 <1>   0.0800 
 44 H        6.0900    -6.1580    -0.0150 H     1 <1>   0.0800 
 45 H        7.7380    -5.5760    -0.1340 H     1 <1>   0.0800 
 46 H        6.7340    -5.6540    -1.5630 H     1 <1>   0.0800 
 47 H        9.3550    -0.4910    -0.3640 H     1 <1>   0.4000 
 48 H        6.0260     1.2770     3.6560 H     1 <1>   0.4000 
 49 H        5.2110    -0.1620     4.1820 H     1 <1>   0.4000 
 50 H       11.1220     1.0880    -0.4920 H     1 <1>   0.1500 
 51 H        7.0880     2.3120     0.0960 H     1 <1>   0.1500 
 52 H        7.7260     4.6300    -0.3550 H     1 <1>   0.1500 
 53 H       10.0550     5.1900    -0.8830 H     1 <1>   0.1500 
 54 H       12.4900     4.3880    -0.4850 H     1 <1>   0.0800 
 55 H       12.2770     3.7470    -2.0990 H     1 <1>   0.0800 
 56 H       12.8450     2.7120    -0.8090 H     1 <1>   0.0800 
@<TRIPOS>BOND
  1   1   2  2   
  2   2   3  am  
  3   2   4  1   
  4   3   5  1   
  5   3  29  1   
  6   4   6  1   
  7   4  30  1   
  8   4  31  1   
  9   5   7  1   
 10   5  32  1   
 11   5  33  1   
 12   6   7  1   
 13   6   8  1   
 14   6  34  1   
 15   7   9  1   
 16   7  35  1   
 17   8  10  1   
 18   8  36  1   
 19   8  37  1   
 20   9  10  1   
 21   9  38  1   
 22   9  39  1   
 23  10  11  1   
 24  10  40  1   
 25  11  12  1   
 26  11  13  1   
 27  11  41  1   
 28  12  14  1   
 29  12  42  1   
 30  12  43  1   
 31  13  44  1   
 32  13  45  1   
 33  13  46  1   
 34  14  15  ar  
 35  14  16  ar  
 36  15  17  ar  
 37  16  18  ar  
 38  17  19  ar  
 39  17  20  1   
 40  18  19  ar  
 41  18  21  1   
 42  20  22  1   
 43  20  47  1   
 44  21  48  1   
 45  21  49  1   
 46  22  23  ar  
 47  22  24  ar  
 48  23  25  ar  
 49  23  50  1   
 50  24  26  ar  
 51  24  51  1   
 52  25  27  ar  
 53  25  28  1   
 54  26  27  ar  
 55  26  52  1   
 56  27  53  1   
 57  28  54  1   
 58  28  55  1   
 59  28  56  1   
@<TRIPOS>SUBSTRUCTURE
  1 ****  15 GROUP 4 **** **** 0

# MOE 2024.06 (io_trps.svl 2023.06)
