@<TRIPOS>MOLECULE
NONAME
45 48 1 0 0 
SMALL
USER_CHARGES


@<TRIPOS>ATOM
  1 F       -0.5040     0.0970    -0.7550 F     1 <1>  -0.1370 
  2 C       -1.7030     0.4600    -0.3710 C.2   1 <1>  -0.0150 
  3 N       -1.9940     1.7470    -0.1800 N.pl3 1 <1>   0.3340 
  4 C       -2.7860    -0.3320    -0.1250 C.2   1 <1>   0.1410 
  5 C       -3.3170     1.7080     0.1930 C.2   1 <1>   0.1410 
  6 C       -1.3010     2.9480    -0.2810 C.2   1 <1>  -0.1810 
  7 N       -3.8160     0.4920     0.2350 N.2   1 <1>  -0.5650 
  8 C       -2.8430    -1.7890    -0.2150 C.2   1 <1>   0.7160 
  9 C       -3.9710     2.9350     0.4790 C.2   1 <1>  -0.1050 
 10 C       -1.9330     4.1190    -0.0070 C.2   1 <1>  -0.1500 
 11 O       -1.8070    -2.4320    -0.2290 O.2   1 <1>  -0.5700 
 12 N       -4.0250    -2.5040    -0.2920 N.am  1 <1>  -0.6600 
 13 C       -3.3010     4.1190     0.3830 C.2   1 <1>  -0.1380 
 14 C       -5.3950    -1.9370    -0.3550 C.3   1 <1>   0.1400 
 15 C       -4.0710    -3.9850    -0.3670 C.3   1 <1>   0.1400 
 16 C       -3.9650     5.4510     0.6810 C.3   1 <1>  -0.1020 
 17 C       -6.3160    -3.1400    -0.5600 C.3   1 <1>   0.2000 
 18 C       -5.5260    -4.3510    -0.0700 C.3   1 <1>  -0.0800 
 19 O       -7.4900    -3.0160     0.1680 O.3   1 <1>  -0.6800 
 20 C       -5.9900    -5.6650    -0.7210 C.3   1 <1>  -0.0170 
 21 C       -5.1990    -6.8550    -0.2070 C.ar  1 <1>   0.1670 
 22 N       -4.0460    -7.1000    -0.8110 N.ar  1 <1>  -0.6200 
 23 C       -5.7000    -7.6100     0.8440 C.ar  1 <1>  -0.1500 
 24 C       -3.3630    -8.1340    -0.3470 C.ar  1 <1>   0.1600 
 25 C       -4.9780    -8.6860     1.3150 C.ar  1 <1>  -0.1500 
 26 C       -3.7760    -8.9460     0.6950 C.ar  1 <1>  -0.1500 
 27 H       -0.2710     2.8810    -0.5800 H     1 <1>   0.1500 
 28 H       -5.0040     2.8790     0.7700 H     1 <1>   0.1500 
 29 H       -1.4190     5.0640    -0.0770 H     1 <1>   0.1500 
 30 H       -5.6150    -1.4380     0.5730 H     1 <1>   0.0800 
 31 H       -5.4780    -1.2450    -1.1760 H     1 <1>   0.0800 
 32 H       -3.7890    -4.2950    -1.3590 H     1 <1>   0.0800 
 33 H       -3.3980    -4.4320     0.3460 H     1 <1>   0.0800 
 34 H       -3.4540     5.9450     1.4870 H     1 <1>   0.0800 
 35 H       -4.9940     5.3120     0.9620 H     1 <1>   0.0800 
 36 H       -3.9320     6.0810    -0.1900 H     1 <1>   0.0800 
 37 H       -6.5700    -3.2320    -1.6020 H     1 <1>   0.0800 
 38 H       -5.6190    -4.4320     0.9990 H     1 <1>   0.0800 
 39 H       -7.2860    -2.8770     1.1130 H     1 <1>   0.4000 
 40 H       -5.8790    -5.6070    -1.7900 H     1 <1>   0.0800 
 41 H       -7.0350    -5.8130    -0.5130 H     1 <1>   0.0800 
 42 H       -6.6440    -7.3590     1.2910 H     1 <1>   0.1500 
 43 H       -2.4210    -8.3460    -0.8240 H     1 <1>   0.1500 
 44 H       -5.3370    -9.2940     2.1290 H     1 <1>   0.1500 
 45 H       -3.1620    -9.7690     1.0130 H     1 <1>   0.1500 
@<TRIPOS>BOND
  1   1   2  1   
  2   2   3  1   
  3   2   4  2   
  4   3   5  1   
  5   3   6  1   
  6   4   7  1   
  7   4   8  1   
  8   5   7  2   
  9   5   9  1   
 10   6  10  2   
 11   6  27  1   
 12   8  11  2   
 13   8  12  am  
 14   9  13  2   
 15   9  28  1   
 16  10  13  1   
 17  10  29  1   
 18  12  14  1   
 19  12  15  1   
 20  13  16  1   
 21  14  17  1   
 22  14  30  1   
 23  14  31  1   
 24  15  18  1   
 25  15  32  1   
 26  15  33  1   
 27  16  34  1   
 28  16  35  1   
 29  16  36  1   
 30  17  18  1   
 31  17  19  1   
 32  17  37  1   
 33  18  20  1   
 34  18  38  1   
 35  19  39  1   
 36  20  21  1   
 37  20  40  1   
 38  20  41  1   
 39  21  22  ar  
 40  21  23  ar  
 41  22  24  ar  
 42  23  25  ar  
 43  23  42  1   
 44  24  26  ar  
 45  24  43  1   
 46  25  26  ar  
 47  25  44  1   
 48  26  45  1   
@<TRIPOS>SUBSTRUCTURE
  1 ****  12 GROUP 4 **** **** 0

# MOE 2024.06 (io_trps.svl 2023.06)
