@<TRIPOS>MOLECULE
NONAME
44 46 1 0 0 
SMALL
USER_CHARGES


@<TRIPOS>ATOM
  1 O        1.4380    -0.7920     0.9200 O.3   1 <1>  -0.6800 
  2 C        1.1850    -1.2930    -0.3420 C.3   1 <1>   0.2000 
  3 C        1.4240    -2.8000    -0.3240 C.3   1 <1>  -0.1600 
  4 C        2.2440    -0.7530    -1.2970 C.3   1 <1>  -0.1600 
  5 C        2.9340    -2.9920    -0.5400 C.3   1 <1>  -0.0800 
  6 C        3.4550    -1.6860    -1.1600 C.3   1 <1>  -0.0800 
  7 C        3.7240    -3.1710     0.7670 C.3   1 <1>  -0.1600 
  8 C        4.5210    -1.1560    -0.1880 C.3   1 <1>  -0.1600 
  9 C        5.0170    -2.3670     0.5980 C.3   1 <1>   0.4230 
 10 N        6.0800    -3.0470    -0.2230 N.4   1 <1>  -0.9590 
 11 C        7.4540    -2.6900     0.2860 C.3   1 <1>   0.4860 
 12 C        5.9740    -4.5340    -0.3430 C.3   1 <1>   0.2630 
 13 C        7.7340    -1.1900     0.3030 C.ar  1 <1>   0.1670 
 14 N        7.3560    -0.5360     1.3910 N.ar  1 <1>  -0.6200 
 15 C        8.3470    -0.5920    -0.7890 C.ar  1 <1>  -0.1500 
 16 C        7.5930     0.7680     1.3900 C.ar  1 <1>   0.1600 
 17 C        8.5820     0.7660    -0.7750 C.ar  1 <1>  -0.1500 
 18 C        8.1900     1.4630     0.3490 C.ar  1 <1>  -0.1430 
 19 C        8.4190     2.9620     0.4340 C.3   1 <1>  -0.0970 
 20 H        0.7150    -1.0360     1.5290 H     1 <1>   0.4000 
 21 H        0.1830    -1.0180    -0.6310 H     1 <1>   0.0800 
 22 H        1.0550    -3.2680     0.5710 H     1 <1>   0.0800 
 23 H        0.9040    -3.2270    -1.1640 H     1 <1>   0.0800 
 24 H        1.8610    -0.8320    -2.2990 H     1 <1>   0.0800 
 25 H        2.4730     0.2820    -1.1060 H     1 <1>   0.0800 
 26 H        3.1130    -3.8200    -1.2030 H     1 <1>   0.0800 
 27 H        3.8930    -1.8750    -2.1250 H     1 <1>   0.0800 
 28 H        3.8570    -4.1980     1.0510 H     1 <1>   0.0800 
 29 H        3.1780    -2.7020     1.5680 H     1 <1>   0.0800 
 30 H        4.0630    -0.4830     0.5180 H     1 <1>   0.0800 
 31 H        5.2970    -0.6100    -0.6920 H     1 <1>   0.0800 
 32 H        5.4110    -2.0730     1.5590 H     1 <1>   0.0800 
 33 H        5.9820    -2.6310    -1.1570 H     1 <1>   0.4500 
 34 H        7.5720    -3.0590     1.2910 H     1 <1>   0.0800 
 35 H        8.2000    -3.1650    -0.3290 H     1 <1>   0.0800 
 36 H        6.0310    -4.9920     0.6320 H     1 <1>   0.0800 
 37 H        6.7720    -4.9210    -0.9550 H     1 <1>   0.0800 
 38 H        5.0360    -4.8080    -0.7970 H     1 <1>   0.0800 
 39 H        8.6420    -1.1680    -1.6480 H     1 <1>   0.1500 
 40 H        7.2940     1.3140     2.2690 H     1 <1>   0.1500 
 41 H        9.0540     1.2620    -1.6060 H     1 <1>   0.1500 
 42 H        8.1710     3.4310    -0.5020 H     1 <1>   0.0800 
 43 H        9.4530     3.1610     0.6570 H     1 <1>   0.0800 
 44 H        7.8100     3.4010     1.2030 H     1 <1>   0.0800 
@<TRIPOS>BOND
  1   1   2  1   
  2   1  20  1   
  3   2   3  1   
  4   2   4  1   
  5   2  21  1   
  6   3   5  1   
  7   3  22  1   
  8   3  23  1   
  9   4   6  1   
 10   4  24  1   
 11   4  25  1   
 12   5   6  1   
 13   5   7  1   
 14   5  26  1   
 15   6   8  1   
 16   6  27  1   
 17   7   9  1   
 18   7  28  1   
 19   7  29  1   
 20   8   9  1   
 21   8  30  1   
 22   8  31  1   
 23   9  10  1   
 24   9  32  1   
 25  10  11  1   
 26  10  12  1   
 27  10  33  1   
 28  11  13  1   
 29  11  34  1   
 30  11  35  1   
 31  12  36  1   
 32  12  37  1   
 33  12  38  1   
 34  13  14  ar  
 35  13  15  ar  
 36  14  16  ar  
 37  15  17  ar  
 38  15  39  1   
 39  16  18  ar  
 40  16  40  1   
 41  17  18  ar  
 42  17  41  1   
 43  18  19  1   
 44  19  42  1   
 45  19  43  1   
 46  19  44  1   
@<TRIPOS>SUBSTRUCTURE
  1 ****   8 GROUP 4 **** **** 0

# MOE 2024.06 (io_trps.svl 2023.06)
