@<TRIPOS>MOLECULE
NONAME
65 68 1 0 0 
SMALL
USER_CHARGES


@<TRIPOS>ATOM
  1 O        0.4140    -0.4540    -0.5460 O.2   1 <1>  -0.5700 
  2 C       -0.0260    -1.5780    -0.6990 C.2   1 <1>   0.5440 
  3 N       -1.3840    -1.7550    -0.8840 N.am  1 <1>  -0.6600 
  4 C        0.8880    -2.7040    -0.6910 C.ar  1 <1>   0.0860 
  5 C       -2.0120    -3.0780    -1.1580 C.3   1 <1>   0.1400 
  6 C       -2.3410    -0.6170    -0.8030 C.3   1 <1>   0.1400 
  7 C        1.2180    -3.3880     0.4850 C.ar  1 <1>  -0.1440 
  8 C        1.4520    -3.1420    -1.8880 C.ar  1 <1>  -0.1500 
  9 C       -3.0730    -3.3780    -0.0970 C.3   1 <1>  -0.1600 
 10 C       -3.3990    -0.9080     0.2650 C.3   1 <1>  -0.1600 
 11 C        2.0710    -4.4790     0.4420 C.ar  1 <1>  -0.1500 
 12 C        0.6470    -2.9340     1.8220 C.3   1 <1>  -0.0970 
 13 C        2.3040    -4.2300    -1.9270 C.ar  1 <1>  -0.1500 
 14 C       -4.1180    -2.2470     0.0090 C.3   1 <1>  -0.0190 
 15 C        2.6120    -4.9020    -0.7590 C.ar  1 <1>  -0.1500 
 16 C       -5.1780    -2.5160     1.0870 C.2   1 <1>   0.5690 
 17 O       -4.8590    -3.2010     2.0320 O.2   1 <1>  -0.5700 
 18 N       -6.4490    -1.9980     0.9820 N.am  1 <1>  -0.6600 
 19 C       -7.5090    -2.3450     1.9660 C.3   1 <1>   0.1400 
 20 C       -6.9480    -1.0680    -0.0630 C.3   1 <1>   0.1400 
 21 C       -8.6610    -3.0370     1.2360 C.3   1 <1>  -0.1600 
 22 C       -8.0840    -1.7460    -0.8330 C.3   1 <1>  -0.1600 
 23 C       -9.2480    -2.1910     0.0860 C.3   1 <1>   0.2800 
 24 O       -9.7690    -1.0270     0.6910 O.3   1 <1>  -0.5600 
 25 C      -10.3600    -3.0040    -0.6760 C.3   1 <1>   0.2000 
 26 C      -10.8300    -0.3820     0.0650 C.3   1 <1>   0.1200 
 27 O      -10.3880    -2.6750    -2.0440 O.3   1 <1>  -0.6800 
 28 C      -11.7760    -2.7790    -0.0690 C.3   1 <1>   0.2800 
 29 C      -12.0820    -1.2740     0.0660 C.3   1 <1>  -0.1600 
 30 O      -11.8130    -3.3320     1.1960 O.3   1 <1>  -0.6800 
 31 C      -12.8860    -3.5070    -0.8370 C.3   1 <1>  -0.2400 
 32 H       -2.4680    -3.0500    -2.1330 H     1 <1>   0.0800 
 33 H       -1.2780    -3.8650    -1.1580 H     1 <1>   0.0800 
 34 H       -1.8290     0.2980    -0.5570 H     1 <1>   0.0800 
 35 H       -2.8090    -0.4860    -1.7630 H     1 <1>   0.0800 
 36 H        1.2150    -2.6150    -2.7940 H     1 <1>   0.1500 
 37 H       -3.5690    -4.3010    -0.3400 H     1 <1>   0.0800 
 38 H       -2.5840    -3.5150     0.8510 H     1 <1>   0.0800 
 39 H       -2.9200    -0.9360     1.2280 H     1 <1>   0.0800 
 40 H       -4.1120    -0.1040     0.2820 H     1 <1>   0.0800 
 41 H        2.3240    -5.0060     1.3450 H     1 <1>   0.1500 
 42 H        1.0150    -3.5410     2.6290 H     1 <1>   0.0800 
 43 H       -0.4260    -2.9980     1.8100 H     1 <1>   0.0800 
 44 H        0.9270    -1.9120     2.0100 H     1 <1>   0.0800 
 45 H        2.7290    -4.5520    -2.8620 H     1 <1>   0.1500 
 46 H       -4.6110    -2.2010    -0.9430 H     1 <1>   0.0800 
 47 H        3.2750    -5.7500    -0.7820 H     1 <1>   0.1500 
 48 H       -7.1260    -2.9960     2.7330 H     1 <1>   0.0800 
 49 H       -7.8620    -1.4450     2.4410 H     1 <1>   0.0800 
 50 H       -7.3190    -0.1760     0.4140 H     1 <1>   0.0800 
 51 H       -6.1710    -0.7740    -0.7420 H     1 <1>   0.0800 
 52 H       -9.4260    -3.2650     1.9530 H     1 <1>   0.0800 
 53 H       -8.2990    -3.9720     0.8480 H     1 <1>   0.0800 
 54 H       -7.6860    -2.6060    -1.3420 H     1 <1>   0.0800 
 55 H       -8.4410    -1.0670    -1.5840 H     1 <1>   0.0800 
 56 H      -10.1250    -4.0520    -0.6380 H     1 <1>   0.0800 
 57 H      -11.0210     0.5310     0.6020 H     1 <1>   0.0800 
 58 H      -10.5270    -0.1300    -0.9370 H     1 <1>   0.0800 
 59 H      -10.6450    -1.7420    -2.1530 H     1 <1>   0.4000 
 60 H      -12.6920    -0.9540    -0.7590 H     1 <1>   0.0800 
 61 H      -12.6500    -1.0840     0.9600 H     1 <1>   0.0800 
 62 H      -12.6850    -3.1720     1.5990 H     1 <1>   0.4000 
 63 H      -12.9570    -3.1350    -1.8430 H     1 <1>   0.0800 
 64 H      -13.8400    -3.3660    -0.3610 H     1 <1>   0.0800 
 65 H      -12.6670    -4.5590    -0.8910 H     1 <1>   0.0800 
@<TRIPOS>BOND
  1   1   2  2   
  2   2   3  am  
  3   2   4  1   
  4   3   5  1   
  5   3   6  1   
  6   4   7  ar  
  7   4   8  ar  
  8   5   9  1   
  9   5  32  1   
 10   5  33  1   
 11   6  10  1   
 12   6  34  1   
 13   6  35  1   
 14   7  11  ar  
 15   7  12  1   
 16   8  13  ar  
 17   8  36  1   
 18   9  14  1   
 19   9  37  1   
 20   9  38  1   
 21  10  14  1   
 22  10  39  1   
 23  10  40  1   
 24  11  15  ar  
 25  11  41  1   
 26  12  42  1   
 27  12  43  1   
 28  12  44  1   
 29  13  15  ar  
 30  13  45  1   
 31  14  16  1   
 32  14  46  1   
 33  15  47  1   
 34  16  17  2   
 35  16  18  am  
 36  18  19  1   
 37  18  20  1   
 38  19  21  1   
 39  19  48  1   
 40  19  49  1   
 41  20  22  1   
 42  20  50  1   
 43  20  51  1   
 44  21  23  1   
 45  21  52  1   
 46  21  53  1   
 47  22  23  1   
 48  22  54  1   
 49  22  55  1   
 50  23  24  1   
 51  23  25  1   
 52  24  26  1   
 53  25  27  1   
 54  25  28  1   
 55  25  56  1   
 56  26  29  1   
 57  26  57  1   
 58  26  58  1   
 59  27  59  1   
 60  28  29  1   
 61  28  30  1   
 62  28  31  1   
 63  29  60  1   
 64  29  61  1   
 65  30  62  1   
 66  31  63  1   
 67  31  64  1   
 68  31  65  1   
@<TRIPOS>SUBSTRUCTURE
  1 ****  14 GROUP 4 **** **** 0

# MOE 2024.06 (io_trps.svl 2023.06)
