@<TRIPOS>MOLECULE
NONAME
47 49 1 0 0 
SMALL
USER_CHARGES


@<TRIPOS>ATOM
  1 O       -1.2530    -0.0330     0.4370 O.3   1 <1>  -0.3630 
  2 C       -1.8740    -1.0300    -0.2260 C.ar  1 <1>   0.0830 
  3 C       -1.1750     1.2730    -0.0930 C.3   1 <1>   0.0400 
  4 C       -1.8790    -2.2810     0.3490 C.ar  1 <1>  -0.1500 
  5 C       -2.5100    -0.8960    -1.4470 C.ar  1 <1>  -0.1500 
  6 C       -2.5090    -3.3280    -0.3000 C.ar  1 <1>   0.1670 
  7 C       -3.1120    -2.0030    -2.0130 C.ar  1 <1>   0.1600 
  8 N       -3.1330    -3.2140    -1.4690 N.ar  1 <1>  -0.6200 
  9 C       -2.5220    -4.7140     0.3400 C.3   1 <1>   0.4870 
 10 N       -3.8600    -5.3420     0.1230 N.4   1 <1>  -0.9590 
 11 C       -4.9110    -4.7160     0.9690 C.3   1 <1>   0.3430 
 12 C       -3.8320    -6.8240     0.2160 C.3   1 <1>   0.3430 
 13 C       -6.2810    -5.2540     0.5560 C.3   1 <1>  -0.1600 
 14 C       -5.1910    -7.3930    -0.1940 C.3   1 <1>  -0.1600 
 15 C       -6.3510    -6.7890     0.6220 C.3   1 <1>  -0.0800 
 16 C       -7.7240    -7.2660     0.1090 C.3   1 <1>  -0.1600 
 17 C       -7.9670    -8.7730     0.3020 C.3   1 <1>   0.0960 
 18 N       -9.2660    -9.1600    -0.2760 N.pl3 1 <1>   0.3140 
 19 N       -9.3940    -9.4470    -1.5830 N.2   1 <1>  -0.7070 
 20 C      -10.4450    -9.2680     0.3680 C.2   1 <1>  -0.3020 
 21 C      -10.6510    -9.7330    -1.7390 C.2   1 <1>   0.1390 
 22 C      -11.3620    -9.6380    -0.5500 C.2   1 <1>  -0.1500 
 23 H       -0.6300     1.8850     0.6040 H     1 <1>   0.0800 
 24 H       -2.1700     1.6610    -0.2170 H     1 <1>   0.0800 
 25 H       -0.6540     1.2390    -1.0330 H     1 <1>   0.0800 
 26 H       -1.3870    -2.4130     1.2960 H     1 <1>   0.1500 
 27 H       -2.5460     0.0440    -1.9630 H     1 <1>   0.1500 
 28 H       -3.6020    -1.8870    -2.9670 H     1 <1>   0.1500 
 29 H       -2.2980    -4.6460     1.3910 H     1 <1>   0.0800 
 30 H       -1.7610    -5.3080    -0.1390 H     1 <1>   0.0800 
 31 H       -4.0800    -5.0660    -0.8520 H     1 <1>   0.4500 
 32 H       -4.8960    -3.6440     0.8420 H     1 <1>   0.0800 
 33 H       -4.7310    -4.9420     2.0070 H     1 <1>   0.0800 
 34 H       -3.6080    -7.1210     1.2280 H     1 <1>   0.0800 
 35 H       -3.0680    -7.2210    -0.4330 H     1 <1>   0.0800 
 36 H       -6.5020    -4.9140    -0.4410 H     1 <1>   0.0800 
 37 H       -7.0250    -4.8310     1.2090 H     1 <1>   0.0800 
 38 H       -5.1590    -8.4590    -0.0560 H     1 <1>   0.0800 
 39 H       -5.3440    -7.2110    -1.2440 H     1 <1>   0.0800 
 40 H       -6.2460    -7.0890     1.6530 H     1 <1>   0.0800 
 41 H       -7.8160    -7.0320    -0.9390 H     1 <1>   0.0800 
 42 H       -8.5010    -6.7340     0.6330 H     1 <1>   0.0800 
 43 H       -7.9640    -9.0280     1.3450 H     1 <1>   0.0800 
 44 H       -7.2120    -9.3490    -0.1990 H     1 <1>   0.0800 
 45 H      -10.5650    -9.0810     1.4190 H     1 <1>   0.1500 
 46 H      -11.0820   -10.0110    -2.6870 H     1 <1>   0.1500 
 47 H      -12.4140    -9.8260    -0.4220 H     1 <1>   0.1500 
@<TRIPOS>BOND
  1   1   2  1   
  2   1   3  1   
  3   2   4  ar  
  4   2   5  ar  
  5   3  23  1   
  6   3  24  1   
  7   3  25  1   
  8   4   6  ar  
  9   4  26  1   
 10   5   7  ar  
 11   5  27  1   
 12   6   8  ar  
 13   6   9  1   
 14   7   8  ar  
 15   7  28  1   
 16   9  10  1   
 17   9  29  1   
 18   9  30  1   
 19  10  11  1   
 20  10  12  1   
 21  10  31  1   
 22  11  13  1   
 23  11  32  1   
 24  11  33  1   
 25  12  14  1   
 26  12  34  1   
 27  12  35  1   
 28  13  15  1   
 29  13  36  1   
 30  13  37  1   
 31  14  15  1   
 32  14  38  1   
 33  14  39  1   
 34  15  16  1   
 35  15  40  1   
 36  16  17  1   
 37  16  41  1   
 38  16  42  1   
 39  17  18  1   
 40  17  43  1   
 41  17  44  1   
 42  18  19  1   
 43  18  20  1   
 44  19  21  2   
 45  20  22  2   
 46  20  45  1   
 47  21  22  1   
 48  21  46  1   
 49  22  47  1   
@<TRIPOS>SUBSTRUCTURE
  1 ****  13 GROUP 4 **** **** 0

# MOE 2024.06 (io_trps.svl 2023.06)
