@<TRIPOS>MOLECULE
NONAME
53 56 1 0 0 
SMALL
USER_CHARGES


@<TRIPOS>ATOM
  1 O       -1.1710     1.1870    -2.2860 O.2   1 <1>  -0.5700 
  2 C       -1.7480     1.2770    -1.2130 C.2   1 <1>   0.5440 
  3 N       -2.2470     0.1140    -0.6400 N.am  1 <1>  -0.6600 
  4 C       -1.9130     2.6090    -0.6190 C.ar  1 <1>   0.3960 
  5 C       -3.0610     0.1430     0.6140 C.3   1 <1>   0.1400 
  6 C       -2.1230    -1.2100    -1.3160 C.3   1 <1>   0.1400 
  7 N       -1.6710     2.8110     0.6890 N.ar  1 <1>  -0.6200 
  8 C       -2.3170     3.6520    -1.4550 C.ar  1 <1>  -0.1500 
  9 C       -3.6920    -1.2160     0.9270 C.3   1 <1>  -0.1600 
 10 C       -3.5100    -1.8220    -1.5420 C.3   1 <1>  -0.1600 
 11 C       -1.8450     4.0310     1.1420 C.ar  1 <1>   0.4100 
 12 C       -2.4960     4.9290    -0.9670 C.ar  1 <1>  -0.1500 
 13 C       -4.4260    -1.7920    -0.2960 C.3   1 <1>   0.4240 
 14 N       -1.5790     4.1740     2.4630 N.pl3 1 <1>  -0.9000 
 15 C       -2.2520     5.1120     0.3710 C.ar  1 <1>  -0.1500 
 16 O       -5.4660    -0.8970    -0.6200 O.3   1 <1>  -0.5600 
 17 C       -4.9660    -3.2050     0.0150 C.ar  1 <1>  -0.1430 
 18 C       -6.6690    -1.0130     0.0740 C.3   1 <1>   0.1200 
 19 C       -6.3270    -3.4760     0.0280 C.ar  1 <1>  -0.1430 
 20 C       -4.0870    -4.2410     0.3020 C.ar  1 <1>  -0.1500 
 21 C       -7.3070    -2.3570    -0.2630 C.3   1 <1>  -0.0170 
 22 C       -6.7890    -4.7530     0.3020 C.ar  1 <1>  -0.1500 
 23 C       -4.5290    -5.5200     0.5920 C.ar  1 <1>   0.0830 
 24 C       -5.9060    -5.7940     0.5780 C.ar  1 <1>   0.0830 
 25 O       -3.5350    -6.4140     0.8660 O.3   1 <1>  -0.3630 
 26 O       -6.3580    -7.0610     0.8160 O.3   1 <1>  -0.3620 
 27 C       -3.7470    -7.5220     1.7120 C.3   1 <1>   0.0400 
 28 C       -7.6910    -7.4420     0.5540 C.3   1 <1>   0.0400 
 29 H       -3.8410     0.8780     0.5030 H     1 <1>   0.0800 
 30 H       -2.4340     0.4380     1.4380 H     1 <1>   0.0800 
 31 H       -1.5300    -1.8590    -0.6970 H     1 <1>   0.0800 
 32 H       -1.6190    -1.1170    -2.2630 H     1 <1>   0.0800 
 33 H       -2.4880     3.4450    -2.4960 H     1 <1>   0.1500 
 34 H       -4.3650    -1.1240     1.7580 H     1 <1>   0.0800 
 35 H       -2.9140    -1.8880     1.2380 H     1 <1>   0.0800 
 36 H       -3.3700    -2.8330    -1.8760 H     1 <1>   0.0800 
 37 H       -3.9820    -1.2980    -2.3530 H     1 <1>   0.0800 
 38 H       -2.8110     5.7380    -1.6050 H     1 <1>   0.1500 
 39 H       -1.1220     5.0390     2.7510 H     1 <1>   0.4000 
 40 H       -1.1360     3.3430     2.8590 H     1 <1>   0.4000 
 41 H       -2.3740     6.0750     0.8300 H     1 <1>   0.1500 
 42 H       -7.3060    -0.2050    -0.2370 H     1 <1>   0.0800 
 43 H       -6.4800    -0.9270     1.1290 H     1 <1>   0.0800 
 44 H       -3.0270    -4.0660     0.3050 H     1 <1>   0.1500 
 45 H       -7.5780    -2.3730    -1.3040 H     1 <1>   0.0800 
 46 H       -8.2000    -2.4800     0.3230 H     1 <1>   0.0800 
 47 H       -7.8490    -4.9190     0.2960 H     1 <1>   0.1500 
 48 H       -2.7900    -7.8790     2.0420 H     1 <1>   0.0800 
 49 H       -4.2500    -8.2910     1.1550 H     1 <1>   0.0800 
 50 H       -4.3380    -7.2110     2.5550 H     1 <1>   0.0800 
 51 H       -7.7710    -8.5030     0.7090 H     1 <1>   0.0800 
 52 H       -7.9290    -7.2020    -0.4670 H     1 <1>   0.0800 
 53 H       -8.3430    -6.9250     1.2360 H     1 <1>   0.0800 
@<TRIPOS>BOND
  1   1   2  2   
  2   2   3  am  
  3   2   4  1   
  4   3   5  1   
  5   3   6  1   
  6   4   7  ar  
  7   4   8  ar  
  8   5   9  1   
  9   5  29  1   
 10   5  30  1   
 11   6  10  1   
 12   6  31  1   
 13   6  32  1   
 14   7  11  ar  
 15   8  12  ar  
 16   8  33  1   
 17   9  13  1   
 18   9  34  1   
 19   9  35  1   
 20  10  13  1   
 21  10  36  1   
 22  10  37  1   
 23  11  14  1   
 24  11  15  ar  
 25  12  15  ar  
 26  12  38  1   
 27  13  16  1   
 28  13  17  1   
 29  14  39  1   
 30  14  40  1   
 31  15  41  1   
 32  16  18  1   
 33  17  19  ar  
 34  17  20  ar  
 35  18  21  1   
 36  18  42  1   
 37  18  43  1   
 38  19  21  1   
 39  19  22  ar  
 40  20  23  ar  
 41  20  44  1   
 42  21  45  1   
 43  21  46  1   
 44  22  24  ar  
 45  22  47  1   
 46  23  24  ar  
 47  23  25  1   
 48  24  26  1   
 49  25  27  1   
 50  26  28  1   
 51  27  48  1   
 52  27  49  1   
 53  27  50  1   
 54  28  51  1   
 55  28  52  1   
 56  28  53  1   
@<TRIPOS>SUBSTRUCTURE
  1 ****  13 GROUP 4 **** **** 0

# MOE 2024.06 (io_trps.svl 2023.06)
