@<TRIPOS>MOLECULE
NONAME
46 48 1 0 0 
SMALL
USER_CHARGES


@<TRIPOS>ATOM
  1 S       -2.5360     0.2700     1.5410 S.3   1 <1>  -0.0800 
  2 C       -1.8810    -0.9550     0.4630 C.2   1 <1>  -0.1400 
  3 C       -1.9930     1.5600     0.4840 C.2   1 <1>  -0.1100 
  4 C       -1.3020    -0.3720    -0.6070 C.2   1 <1>  -0.1500 
  5 C       -2.0670    -2.4020     0.8860 C.3   1 <1>   0.3800 
  6 C       -1.3650     1.0570    -0.5940 C.2   1 <1>  -0.1500 
  7 O       -1.2690    -3.1930     0.0790 O.3   1 <1>  -0.6800 
  8 C       -3.5340    -2.8740     0.7540 C.3   1 <1>  -0.0800 
  9 C       -3.7050    -4.3360     1.2160 C.3   1 <1>  -0.1600 
 10 C       -4.0850    -2.6980    -0.6790 C.3   1 <1>  -0.1600 
 11 C       -5.1310    -4.8430     1.0160 C.3   1 <1>   0.3430 
 12 C       -5.5010    -3.2460    -0.8250 C.3   1 <1>   0.3430 
 13 N       -5.5200    -4.6750    -0.4140 N.4   1 <1>  -0.9590 
 14 C       -6.8280    -5.3150    -0.7100 C.3   1 <1>   0.4860 
 15 C       -6.6760    -6.8180    -0.5780 C.ar  1 <1>  -0.1430 
 16 C       -7.0670    -7.4810     0.5810 C.ar  1 <1>   0.0830 
 17 C       -6.1300    -7.5490    -1.6240 C.ar  1 <1>  -0.1500 
 18 O       -7.5980    -6.7840     1.6120 O.3   1 <1>  -0.3630 
 19 C       -6.8860    -8.8510     0.7020 C.ar  1 <1>  -0.1500 
 20 C       -5.9620    -8.9180    -1.5070 C.ar  1 <1>  -0.1500 
 21 C       -9.0040    -6.8340     1.7900 C.3   1 <1>   1.3000 
 22 C       -6.3360    -9.5680    -0.3440 C.ar  1 <1>  -0.1500 
 23 F       -9.6210    -6.3990     0.6980 F     1 <1>  -0.3400 
 24 F       -9.3490    -6.0380     2.7890 F     1 <1>  -0.3400 
 25 F       -9.4290    -8.0570     2.0660 F     1 <1>  -0.3400 
 26 H       -2.2020     2.5720     0.7870 H     1 <1>   0.1500 
 27 H       -0.8260    -0.8890    -1.4230 H     1 <1>   0.1500 
 28 H       -1.7240    -2.5250     1.8990 H     1 <1>   0.0800 
 29 H       -0.9370     1.6370    -1.3940 H     1 <1>   0.1500 
 30 H       -0.3650    -2.8240     0.0820 H     1 <1>   0.4000 
 31 H       -4.1230    -2.2550     1.4090 H     1 <1>   0.0800 
 32 H       -3.4520    -4.4150     2.2590 H     1 <1>   0.0800 
 33 H       -3.0340    -4.9830     0.6770 H     1 <1>   0.0800 
 34 H       -3.4440    -3.1920    -1.3880 H     1 <1>   0.0800 
 35 H       -4.0970    -1.6530    -0.9350 H     1 <1>   0.0800 
 36 H       -5.8070    -4.2920     1.6500 H     1 <1>   0.0800 
 37 H       -5.1770    -5.8840     1.2950 H     1 <1>   0.0800 
 38 H       -5.8150    -3.1500    -1.8530 H     1 <1>   0.0800 
 39 H       -6.1750    -2.6760    -0.2070 H     1 <1>   0.0800 
 40 H       -4.8110    -5.1740    -0.9670 H     1 <1>   0.4500 
 41 H       -7.1350    -5.0810    -1.7160 H     1 <1>   0.0800 
 42 H       -7.5840    -4.9530    -0.0320 H     1 <1>   0.0800 
 43 H       -5.8300    -7.0700    -2.5410 H     1 <1>   0.1500 
 44 H       -7.1680    -9.3630     1.6060 H     1 <1>   0.1500 
 45 H       -5.5390    -9.4840    -2.3210 H     1 <1>   0.1500 
 46 H       -6.1980   -10.6330    -0.2550 H     1 <1>   0.1500 
@<TRIPOS>BOND
  1   1   2  1   
  2   1   3  1   
  3   2   4  2   
  4   2   5  1   
  5   3   6  2   
  6   3  26  1   
  7   4   6  1   
  8   4  27  1   
  9   5   7  1   
 10   5   8  1   
 11   5  28  1   
 12   6  29  1   
 13   7  30  1   
 14   8   9  1   
 15   8  10  1   
 16   8  31  1   
 17   9  11  1   
 18   9  32  1   
 19   9  33  1   
 20  10  12  1   
 21  10  34  1   
 22  10  35  1   
 23  11  13  1   
 24  11  36  1   
 25  11  37  1   
 26  12  13  1   
 27  12  38  1   
 28  12  39  1   
 29  13  14  1   
 30  13  40  1   
 31  14  15  1   
 32  14  41  1   
 33  14  42  1   
 34  15  16  ar  
 35  15  17  ar  
 36  16  18  1   
 37  16  19  ar  
 38  17  20  ar  
 39  17  43  1   
 40  18  21  1   
 41  19  22  ar  
 42  19  44  1   
 43  20  22  ar  
 44  20  45  1   
 45  21  23  1   
 46  21  24  1   
 47  21  25  1   
 48  22  46  1   
@<TRIPOS>SUBSTRUCTURE
  1 ****  11 GROUP 4 **** **** 0

# MOE 2024.06 (io_trps.svl 2023.06)
