@<TRIPOS>MOLECULE
NONAME
41 42 1 0 0 
SMALL
USER_CHARGES


@<TRIPOS>ATOM
  1 N       -1.0200     0.3450    -0.6980 N.ar  1 <1>  -0.6200 
  2 C       -2.0120     0.3460     0.1760 C.ar  1 <1>   0.4100 
  3 C       -0.8900    -0.7470    -1.4210 C.ar  1 <1>   0.4700 
  4 N       -2.1720     1.4760     0.9690 N.pl3 1 <1>  -0.8380 
  5 C       -2.8450    -0.7470     0.2760 C.ar  1 <1>  -0.1500 
  6 N       -1.6230    -1.8420    -1.3970 N.ar  1 <1>  -0.6200 
  7 C       -1.5990     2.7900     0.5720 C.3   1 <1>   0.2090 
  8 C       -2.8980     1.4470     2.2680 C.3   1 <1>   0.1290 
  9 C       -2.6160    -1.8330    -0.5320 C.ar  1 <1>   0.4100 
 10 C       -0.2590     2.9970     1.2720 C.3   1 <1>  -0.2400 
 11 N       -3.4370    -2.9330    -0.4580 N.pl3 1 <1>  -0.8690 
 12 C       -3.3030    -4.0910    -1.3720 C.3   1 <1>   0.4690 
 13 C       -4.6130    -4.8760    -1.4090 C.2   1 <1>   0.0070 
 14 C       -2.1420    -4.9860    -0.9290 C.3   1 <1>  -0.2400 
 15 N       -5.2050    -5.2200    -2.5000 N.2   1 <1>  -0.5650 
 16 N       -5.2980    -5.3050    -0.3330 N.pl3 1 <1>   0.3140 
 17 C       -6.2730    -5.8780    -2.0380 C.2   1 <1>   0.3660 
 18 N       -6.3750    -5.9580    -0.7550 N.2   1 <1>  -0.7070 
 19 C       -5.0370    -5.1450     1.1200 C.3   1 <1>   0.0960 
 20 C       -5.9800    -4.1090     1.7470 C.3   1 <1>  -0.2400 
 21 H       -0.0770    -0.7440    -2.1270 H     1 <1>   0.1500 
 22 H       -3.6600    -0.7570     0.9660 H     1 <1>   0.1500 
 23 H       -2.2830     3.5780     0.8390 H     1 <1>   0.0800 
 24 H       -1.4610     2.8250    -0.4960 H     1 <1>   0.0800 
 25 H       -2.7890     0.4820     2.7330 H     1 <1>   0.0800 
 26 H       -3.9420     1.6490     2.1030 H     1 <1>   0.0800 
 27 H       -2.5000     2.1890     2.9360 H     1 <1>   0.0800 
 28 H       -0.3830     3.0100     2.3380 H     1 <1>   0.0800 
 29 H        0.1700     3.9320     0.9630 H     1 <1>   0.0800 
 30 H        0.4160     2.2050     1.0010 H     1 <1>   0.0800 
 31 H       -4.4220    -2.6790    -0.3790 H     1 <1>   0.4000 
 32 H       -3.1040    -3.7330    -2.3690 H     1 <1>   0.0800 
 33 H       -2.2680    -5.3250     0.0800 H     1 <1>   0.0800 
 34 H       -1.2140    -4.4520    -1.0060 H     1 <1>   0.0800 
 35 H       -2.0890    -5.8420    -1.5760 H     1 <1>   0.0800 
 36 H       -6.9920    -6.3080    -2.7160 H     1 <1>   0.1500 
 37 H       -4.0190    -4.8480     1.2760 H     1 <1>   0.0800 
 38 H       -5.1870    -6.1010     1.5890 H     1 <1>   0.0800 
 39 H       -5.8360    -3.1440     1.2960 H     1 <1>   0.0800 
 40 H       -5.7810    -4.0280     2.8010 H     1 <1>   0.0800 
 41 H       -7.0040    -4.4140     1.6170 H     1 <1>   0.0800 
@<TRIPOS>BOND
  1   1   2  ar  
  2   1   3  ar  
  3   2   4  1   
  4   2   5  ar  
  5   3   6  ar  
  6   3  21  1   
  7   4   7  1   
  8   4   8  1   
  9   5   9  ar  
 10   5  22  1   
 11   6   9  ar  
 12   7  10  1   
 13   7  23  1   
 14   7  24  1   
 15   8  25  1   
 16   8  26  1   
 17   8  27  1   
 18   9  11  1   
 19  10  28  1   
 20  10  29  1   
 21  10  30  1   
 22  11  12  1   
 23  11  31  1   
 24  12  13  1   
 25  12  14  1   
 26  12  32  1   
 27  13  15  2   
 28  13  16  1   
 29  14  33  1   
 30  14  34  1   
 31  14  35  1   
 32  15  17  1   
 33  16  18  1   
 34  16  19  1   
 35  17  18  2   
 36  17  36  1   
 37  19  20  1   
 38  19  37  1   
 39  19  38  1   
 40  20  39  1   
 41  20  40  1   
 42  20  41  1   
@<TRIPOS>SUBSTRUCTURE
  1 ****  11 GROUP 4 **** **** 0

# MOE 2024.06 (io_trps.svl 2023.06)
