@<TRIPOS>MOLECULE
NONAME
51 54 1 0 0 
SMALL
USER_CHARGES


@<TRIPOS>ATOM
  1 S        0.4030     0.1820     0.6070 S.3   1 <1>  -0.0800 
  2 C        1.6970     0.9410    -0.3260 C.2   1 <1>  -0.0450 
  3 C        0.5260    -1.3150    -0.2920 C.2   1 <1>  -0.1400 
  4 C        2.0740     2.2980    -0.0080 C.2   1 <1>   0.7150 
  5 C        2.1380     0.0480    -1.2510 C.2   1 <1>  -0.1500 
  6 C        1.4840    -1.2180    -1.2300 C.2   1 <1>  -0.1500 
  7 C       -0.4150    -2.4370     0.0940 C.3   1 <1>  -0.0600 
  8 O        1.2290     3.0920     0.3670 O.2   1 <1>  -0.5700 
  9 N        3.3790     2.7380    -0.1280 N.am  1 <1>  -0.6600 
 10 C        4.5580     1.8190    -0.0150 C.3   1 <1>   0.1400 
 11 C        3.6720     4.1970    -0.2400 C.3   1 <1>   0.1400 
 12 C        5.4740     2.1700     1.1660 C.3   1 <1>   0.1400 
 13 C        4.0150     4.7840     1.1350 C.3   1 <1>  -0.1600 
 14 N        6.1630     3.4730     0.9350 N.am  1 <1>  -0.6600 
 15 C        5.4840     4.6410     1.5650 C.3   1 <1>   0.1400 
 16 C        7.3500     3.4970     0.2290 C.2   1 <1>   0.5690 
 17 O        7.7930     2.4720    -0.2400 O.2   1 <1>  -0.5700 
 18 C        8.1460     4.7720    -0.1020 C.3   1 <1>   0.1610 
 19 C        8.6420     5.5440     1.1200 C.2   1 <1>   0.0060 
 20 C        7.3800     5.6610    -1.1100 C.3   1 <1>  -0.1600 
 21 N        8.4170     5.2610     2.3480 N.2   1 <1>  -0.3380 
 22 N        9.4000     6.6250     1.0530 N.pl3 1 <1>   0.3140 
 23 C        8.2620     6.6250    -1.9210 C.3   1 <1>  -0.1600 
 24 N        9.0360     6.1950     3.0560 N.2   1 <1>   0.0000 
 25 N        9.6340     7.0250     2.2830 N.2   1 <1>  -0.4180 
 26 C        9.9640     7.3220    -0.1180 C.3   1 <1>   0.0960 
 27 C        8.8780     7.7720    -1.1050 C.3   1 <1>  -0.1600 
 28 H        2.9150     0.2490    -1.9680 H     1 <1>   0.1500 
 29 H        1.7600    -1.9970    -1.9200 H     1 <1>   0.1500 
 30 H       -0.2550    -2.7110     1.1210 H     1 <1>   0.0800 
 31 H       -0.2450    -3.2970    -0.5280 H     1 <1>   0.0800 
 32 H       -1.4340    -2.1160    -0.0260 H     1 <1>   0.0800 
 33 H        5.1270     1.8470    -0.9280 H     1 <1>   0.0800 
 34 H        4.2250     0.8090     0.1320 H     1 <1>   0.0800 
 35 H        2.8000     4.6990    -0.6260 H     1 <1>   0.0800 
 36 H        4.4730     4.3590    -0.9400 H     1 <1>   0.0800 
 37 H        6.2110     1.3940     1.2780 H     1 <1>   0.0800 
 38 H        4.9020     2.2020     2.0770 H     1 <1>   0.0800 
 39 H        3.3750     4.3410     1.8770 H     1 <1>   0.0800 
 40 H        3.7820     5.8330     1.1250 H     1 <1>   0.0800 
 41 H        5.5350     4.5380     2.6360 H     1 <1>   0.0800 
 42 H        5.9980     5.5490     1.3200 H     1 <1>   0.0800 
 43 H        9.0310     4.4260    -0.6060 H     1 <1>   0.0800 
 44 H        6.6110     6.2210    -0.6110 H     1 <1>   0.0800 
 45 H        6.8890     5.0090    -1.8130 H     1 <1>   0.0800 
 46 H        7.6470     7.0630    -2.6900 H     1 <1>   0.0800 
 47 H        9.0400     6.0740    -2.4240 H     1 <1>   0.0800 
 48 H       10.6680     6.6700    -0.6010 H     1 <1>   0.0800 
 49 H       10.4980     8.1850     0.2390 H     1 <1>   0.0800 
 50 H        8.1110     8.3190    -0.5820 H     1 <1>   0.0800 
 51 H        9.3340     8.4570    -1.7990 H     1 <1>   0.0800 
@<TRIPOS>BOND
  1   1   2  1   
  2   1   3  1   
  3   2   4  1   
  4   2   5  2   
  5   3   6  2   
  6   3   7  1   
  7   4   8  2   
  8   4   9  am  
  9   5   6  1   
 10   5  28  1   
 11   6  29  1   
 12   7  30  1   
 13   7  31  1   
 14   7  32  1   
 15   9  10  1   
 16   9  11  1   
 17  10  12  1   
 18  10  33  1   
 19  10  34  1   
 20  11  13  1   
 21  11  35  1   
 22  11  36  1   
 23  12  14  1   
 24  12  37  1   
 25  12  38  1   
 26  13  15  1   
 27  13  39  1   
 28  13  40  1   
 29  14  15  1   
 30  14  16  am  
 31  15  41  1   
 32  15  42  1   
 33  16  17  2   
 34  16  18  1   
 35  18  19  1   
 36  18  20  1   
 37  18  43  1   
 38  19  21  2   
 39  19  22  1   
 40  20  23  1   
 41  20  44  1   
 42  20  45  1   
 43  21  24  1   
 44  22  25  1   
 45  22  26  1   
 46  23  27  1   
 47  23  46  1   
 48  23  47  1   
 49  24  25  2   
 50  26  27  1   
 51  26  48  1   
 52  26  49  1   
 53  27  50  1   
 54  27  51  1   
@<TRIPOS>SUBSTRUCTURE
  1 ****  14 GROUP 4 **** **** 0

# MOE 2024.06 (io_trps.svl 2023.06)
