@<TRIPOS>MOLECULE
NONAME
50 52 1 0 0 
SMALL
USER_CHARGES


@<TRIPOS>ATOM
  1 O       -0.2890     0.1960    -0.1150 O.2   1 <1>  -0.5700 
  2 C       -1.3340     0.8170    -0.0730 C.2   1 <1>   0.5440 
  3 N       -2.5140     0.1150     0.0180 N.am  1 <1>  -0.6600 
  4 C       -1.3170     2.2670    -0.1400 C.ar  1 <1>   0.0860 
  5 C       -3.8530     0.6660    -0.3110 C.3   1 <1>   0.1400 
  6 C       -2.5530    -1.3670     0.0570 C.3   1 <1>   0.1400 
  7 C       -0.6240     2.9270    -1.1530 C.ar  1 <1>  -0.1500 
  8 C       -1.9850     3.0530     0.7970 C.ar  1 <1>  -0.1500 
  9 C       -4.7180    -0.5580    -0.6110 C.3   1 <1>   0.2000 
 10 C       -4.0400    -1.7260     0.1030 C.3   1 <1>  -0.0800 
 11 C       -0.6160     4.3070    -1.2410 C.ar  1 <1>  -0.1500 
 12 C       -1.9810     4.4340     0.7140 C.ar  1 <1>  -0.1500 
 13 O       -6.0110    -0.4010    -0.1360 O.3   1 <1>  -0.6800 
 14 C       -4.3820    -3.0850    -0.5300 C.3   1 <1>  -0.0170 
 15 C       -1.2990     5.0720    -0.3080 C.ar  1 <1>  -0.1430 
 16 C       -3.7460    -4.2360     0.2320 C.ar  1 <1>   0.1670 
 17 C       -1.2970     6.5930    -0.4000 C.3   1 <1>  -0.0170 
 18 N       -2.4910    -4.5250    -0.0710 N.ar  1 <1>  -0.6200 
 19 C       -4.4810    -4.9240     1.1970 C.ar  1 <1>   0.1600 
 20 C       -0.3530     7.2460     0.6270 C.3   1 <1>  -0.0800 
 21 C       -2.0230    -5.5320     0.6480 C.ar  1 <1>   0.1600 
 22 N       -4.0160    -5.9310     1.9180 N.ar  1 <1>  -0.6200 
 23 C       -0.4740     8.7740     0.5640 C.3   1 <1>  -0.2400 
 24 C        1.1090     6.8350     0.4020 C.3   1 <1>  -0.2400 
 25 C       -2.7610    -6.2110     1.6100 C.ar  1 <1>   0.1600 
 26 H       -4.2330     1.2040     0.5390 H     1 <1>   0.0800 
 27 H       -3.7960     1.3140    -1.1680 H     1 <1>   0.0800 
 28 H       -2.0880    -1.7550    -0.8340 H     1 <1>   0.0800 
 29 H       -2.0250    -1.7420     0.9180 H     1 <1>   0.0800 
 30 H       -0.0850     2.3400    -1.8770 H     1 <1>   0.1500 
 31 H       -2.5080     2.5710     1.6040 H     1 <1>   0.1500 
 32 H       -4.7620    -0.7210    -1.6750 H     1 <1>   0.0800 
 33 H       -4.3310    -1.7290     1.1380 H     1 <1>   0.0800 
 34 H       -0.0720     4.7850    -2.0370 H     1 <1>   0.1500 
 35 H       -2.5080     5.0150     1.4510 H     1 <1>   0.1500 
 36 H       -6.0050    -0.2540     0.8290 H     1 <1>   0.4000 
 37 H       -4.0450    -3.1120    -1.5510 H     1 <1>   0.0800 
 38 H       -5.4500    -3.2110    -0.5400 H     1 <1>   0.0800 
 39 H       -1.0130     6.8960    -1.3930 H     1 <1>   0.0800 
 40 H       -2.3000     6.9450    -0.2350 H     1 <1>   0.0800 
 41 H       -5.4980    -4.6280     1.3820 H     1 <1>   0.1500 
 42 H       -0.6470     6.9260     1.6120 H     1 <1>   0.0800 
 43 H       -1.0070    -5.8340     0.4680 H     1 <1>   0.1500 
 44 H       -0.1830     9.1390    -0.4060 H     1 <1>   0.0800 
 45 H        0.1590     9.2290     1.3050 H     1 <1>   0.0800 
 46 H       -1.4880     9.0790     0.7560 H     1 <1>   0.0800 
 47 H        1.4340     7.1090    -0.5860 H     1 <1>   0.0800 
 48 H        1.2240     5.7720     0.5190 H     1 <1>   0.0800 
 49 H        1.7470     7.3180     1.1200 H     1 <1>   0.0800 
 50 H       -2.2920    -7.0190     2.1440 H     1 <1>   0.1500 
@<TRIPOS>BOND
  1   1   2  2   
  2   2   3  am  
  3   2   4  1   
  4   3   5  1   
  5   3   6  1   
  6   4   7  ar  
  7   4   8  ar  
  8   5   9  1   
  9   5  26  1   
 10   5  27  1   
 11   6  10  1   
 12   6  28  1   
 13   6  29  1   
 14   7  11  ar  
 15   7  30  1   
 16   8  12  ar  
 17   8  31  1   
 18   9  10  1   
 19   9  13  1   
 20   9  32  1   
 21  10  14  1   
 22  10  33  1   
 23  11  15  ar  
 24  11  34  1   
 25  12  15  ar  
 26  12  35  1   
 27  13  36  1   
 28  14  16  1   
 29  14  37  1   
 30  14  38  1   
 31  15  17  1   
 32  16  18  ar  
 33  16  19  ar  
 34  17  20  1   
 35  17  39  1   
 36  17  40  1   
 37  18  21  ar  
 38  19  22  ar  
 39  19  41  1   
 40  20  23  1   
 41  20  24  1   
 42  20  42  1   
 43  21  25  ar  
 44  21  43  1   
 45  22  25  ar  
 46  23  44  1   
 47  23  45  1   
 48  23  46  1   
 49  24  47  1   
 50  24  48  1   
 51  24  49  1   
 52  25  50  1   
@<TRIPOS>SUBSTRUCTURE
  1 ****   3 GROUP 4 **** **** 0

# MOE 2024.06 (io_trps.svl 2023.06)
