@<TRIPOS>MOLECULE
NONAME
28 29 1 0 0 
SMALL
USER_CHARGES


@<TRIPOS>ATOM
  1 BR      -0.1570     0.1530     0.6350 Br    1 <1>  -0.1110 
  2 C       -0.0680    -1.7440     0.3270 C.ar  1 <1>   0.1110 
  3 C       -0.5520    -2.6000     1.2960 C.ar  1 <1>  -0.1500 
  4 C        0.4770    -2.2040    -0.8550 C.ar  1 <1>  -0.1500 
  5 C       -0.4840    -3.9650     1.0700 C.ar  1 <1>  -0.1500 
  6 C        0.5390    -3.5700    -1.0700 C.ar  1 <1>  -0.1500 
  7 C        0.0640    -4.4590    -0.1110 C.ar  1 <1>  -0.1430 
  8 C        0.1550    -5.9590    -0.3680 C.3   1 <1>   0.0640 
  9 C        1.0230    -6.6250     0.7120 C.3   1 <1>   0.3430 
 10 C       -1.2420    -6.6000    -0.4370 C.3   1 <1>  -0.1600 
 11 N        1.0680    -8.1120     0.5380 N.4   1 <1>  -0.9060 
 12 C       -1.1430    -8.1290    -0.5640 C.3   1 <1>  -0.1600 
 13 C       -0.2830    -8.7390     0.5470 C.3   1 <1>   0.3430 
 14 H       -0.9730    -2.2030     2.2030 H     1 <1>   0.1500 
 15 H        0.8410    -1.5060    -1.5880 H     1 <1>   0.1500 
 16 H       -0.8700    -4.6250     1.8270 H     1 <1>   0.1500 
 17 H        0.9610    -3.9250    -1.9950 H     1 <1>   0.1500 
 18 H        0.6410    -6.1120    -1.3160 H     1 <1>   0.0800 
 19 H        0.6130    -6.3890     1.6810 H     1 <1>   0.0800 
 20 H        2.0190    -6.2140     0.6650 H     1 <1>   0.0800 
 21 H       -1.8050    -6.3560     0.4480 H     1 <1>   0.0800 
 22 H       -1.7800    -6.1980    -1.2810 H     1 <1>   0.0800 
 23 H        1.5280    -8.3310    -0.3550 H     1 <1>   0.4500 
 24 H        1.6470    -8.5290     1.2790 H     1 <1>   0.4500 
 25 H       -0.7330    -8.3940    -1.5240 H     1 <1>   0.0800 
 26 H       -2.1320    -8.5520    -0.5130 H     1 <1>   0.0800 
 27 H       -0.2010    -9.8050     0.3980 H     1 <1>   0.0800 
 28 H       -0.7580    -8.5680     1.5010 H     1 <1>   0.0800 
@<TRIPOS>BOND
  1   1   2  1   
  2   2   3  ar  
  3   2   4  ar  
  4   3   5  ar  
  5   3  14  1   
  6   4   6  ar  
  7   4  15  1   
  8   5   7  ar  
  9   5  16  1   
 10   6   7  ar  
 11   6  17  1   
 12   7   8  1   
 13   8   9  1   
 14   8  10  1   
 15   8  18  1   
 16   9  11  1   
 17   9  19  1   
 18   9  20  1   
 19  10  12  1   
 20  10  21  1   
 21  10  22  1   
 22  11  13  1   
 23  11  23  1   
 24  11  24  1   
 25  12  13  1   
 26  12  25  1   
 27  12  26  1   
 28  13  27  1   
 29  13  28  1   
@<TRIPOS>SUBSTRUCTURE
  1 ****   7 GROUP 4 **** **** 0

# MOE 2024.06 (io_trps.svl 2023.06)
