@<TRIPOS>MOLECULE
NONAME
34 36 1 0 0 
SMALL
USER_CHARGES


@<TRIPOS>ATOM
  1 O       -0.0120    -0.1870    -0.3020 O.3   1 <1>  -0.2800 
  2 C        0.0030    -1.5090    -0.4420 C.2   1 <1>   0.5620 
  3 C        1.2190     0.1410     0.0380 C.ar  1 <1>   0.1400 
  4 N        1.1450    -2.0640    -0.2190 N.2   1 <1>  -0.5650 
  5 N       -1.1570    -2.1620    -0.7990 N.pl3 1 <1>  -0.8220 
  6 C        1.9480    -1.0180     0.0930 C.ar  1 <1>   0.2270 
  7 C        1.7700     1.3840     0.3080 C.ar  1 <1>  -0.1500 
  8 C       -1.2040    -3.6480    -0.9350 C.3   1 <1>   0.2090 
  9 C       -2.4520    -1.4600    -0.9810 C.3   1 <1>   0.2090 
 10 C        3.2960    -0.9680     0.4320 C.ar  1 <1>  -0.1500 
 11 C        3.1120     1.4340     0.6450 C.ar  1 <1>  -0.1500 
 12 C       -2.2560    -4.2380     0.0190 C.3   1 <1>   0.2000 
 13 C       -3.4730    -2.0210     0.0130 C.3   1 <1>  -0.1600 
 14 C        3.8700     0.2610     0.7060 C.ar  1 <1>  -0.1500 
 15 O       -2.4000    -5.5980    -0.2320 O.3   1 <1>  -0.6800 
 16 C       -3.6320    -3.5530    -0.1170 C.3   1 <1>  -0.0800 
 17 C       -4.6160    -4.1240     0.9190 C.3   1 <1>   0.1200 
 18 O       -5.8560    -3.5220     0.7730 O.3   1 <1>  -0.6800 
 19 H        1.1620     2.2690     0.2520 H     1 <1>   0.1500 
 20 H       -1.4560    -3.8880    -1.9520 H     1 <1>   0.0800 
 21 H       -0.2440    -4.0800    -0.7090 H     1 <1>   0.0800 
 22 H       -2.3420    -0.4010    -0.8280 H     1 <1>   0.0800 
 23 H       -2.7950    -1.6150    -1.9900 H     1 <1>   0.0800 
 24 H        3.8600    -1.8820     0.4720 H     1 <1>   0.1500 
 25 H        3.5780     2.3790     0.8620 H     1 <1>   0.1500 
 26 H       -1.8920    -4.1380     1.0270 H     1 <1>   0.0800 
 27 H       -3.1540    -1.7660     1.0090 H     1 <1>   0.0800 
 28 H       -4.4140    -1.5350    -0.1680 H     1 <1>   0.0800 
 29 H        4.9130     0.3200     0.9700 H     1 <1>   0.1500 
 30 H       -2.7930    -5.7450    -1.1140 H     1 <1>   0.4000 
 31 H       -4.0140    -3.7670    -1.1000 H     1 <1>   0.0800 
 32 H       -4.2700    -3.9510     1.9240 H     1 <1>   0.0800 
 33 H       -4.7510    -5.1830     0.7750 H     1 <1>   0.0800 
 34 H       -5.8120    -2.5830     1.0320 H     1 <1>   0.4000 
@<TRIPOS>BOND
  1   1   2  1   
  2   1   3  1   
  3   2   4  2   
  4   2   5  1   
  5   3   6  ar  
  6   3   7  ar  
  7   4   6  1   
  8   5   8  1   
  9   5   9  1   
 10   6  10  ar  
 11   7  11  ar  
 12   7  19  1   
 13   8  12  1   
 14   8  20  1   
 15   8  21  1   
 16   9  13  1   
 17   9  22  1   
 18   9  23  1   
 19  10  14  ar  
 20  10  24  1   
 21  11  14  ar  
 22  11  25  1   
 23  12  15  1   
 24  12  16  1   
 25  12  26  1   
 26  13  16  1   
 27  13  27  1   
 28  13  28  1   
 29  14  29  1   
 30  15  30  1   
 31  16  17  1   
 32  16  31  1   
 33  17  18  1   
 34  17  32  1   
 35  17  33  1   
 36  18  34  1   
@<TRIPOS>SUBSTRUCTURE
  1 ****   2 GROUP 4 **** **** 0

# MOE 2024.06 (io_trps.svl 2023.06)
