@<TRIPOS>MOLECULE
NONAME
54 57 1 0 0 
SMALL
USER_CHARGES


@<TRIPOS>ATOM
  1 O       -2.1350     2.6480     2.2740 O.2   1 <1>  -0.5700 
  2 C       -1.4720     2.5000     1.2760 C.2   1 <1>   0.5690 
  3 N       -1.9030     1.9740     0.1070 N.am  1 <1>  -0.6600 
  4 C       -0.0230     2.8860     1.1850 C.3   1 <1>  -0.0990 
  5 C       -0.8510     1.9280    -0.9230 C.3   1 <1>   0.1400 
  6 C       -3.2700     1.4750    -0.1490 C.3   1 <1>   0.1400 
  7 C        0.3020     2.7370    -0.3120 C.3   1 <1>  -0.1600 
  8 C       -3.2520    -0.0480    -0.2930 C.3   1 <1>  -0.1600 
  9 C       -4.6780    -0.6240    -0.3550 C.3   1 <1>  -0.0990 
 10 C       -4.7220    -2.1420    -0.5050 C.2   1 <1>   0.5690 
 11 O       -3.7810    -2.6930    -1.0260 O.2   1 <1>  -0.5700 
 12 N       -5.8110    -2.8530    -0.0720 N.am  1 <1>  -0.6600 
 13 C       -5.8020    -4.3520    -0.0460 C.3   1 <1>   0.1400 
 14 C       -7.1310    -2.2800     0.3400 C.3   1 <1>   0.1400 
 15 C       -7.0340    -4.9330    -0.7620 C.3   1 <1>   0.3430 
 16 C       -8.2980    -2.9760    -0.3980 C.3   1 <1>   0.2950 
 17 O       -8.2070    -4.3620    -0.2420 O.3   1 <1>  -0.5600 
 18 C       -7.0860    -6.4490    -0.5960 C.ar  1 <1>  -0.1440 
 19 C       -9.7010    -2.5680     0.0850 C.3   1 <1>  -0.1950 
 20 C       -7.7280    -7.0400     0.4840 C.ar  1 <1>  -0.1500 
 21 C       -6.4670    -7.2610    -1.5360 C.ar  1 <1>  -0.1500 
 22 C      -10.0400    -1.2070     0.6140 C.3   1 <1>  -0.2000 
 23 C      -10.0710    -2.4020     1.5270 C.3   1 <1>  -0.2000 
 24 C       -7.7510    -8.4170     0.6230 C.ar  1 <1>  -0.1500 
 25 C       -6.4890    -8.6390    -1.3990 C.ar  1 <1>  -0.1500 
 26 C       -7.1310    -9.2180    -0.3190 C.ar  1 <1>  -0.1500 
 27 H        0.1220     3.8930     1.5310 H     1 <1>   0.0800 
 28 H        0.5550     2.2040     1.7800 H     1 <1>   0.0800 
 29 H       -0.5560     0.9060    -1.0900 H     1 <1>   0.0800 
 30 H       -1.1970     2.3680    -1.8430 H     1 <1>   0.0800 
 31 H       -3.9030     1.7540     0.6780 H     1 <1>   0.0800 
 32 H       -3.6590     1.9350    -1.0410 H     1 <1>   0.0800 
 33 H        1.2480     2.2510    -0.4720 H     1 <1>   0.0800 
 34 H        0.3290     3.7080    -0.7750 H     1 <1>   0.0800 
 35 H       -2.7180    -0.3150    -1.1880 H     1 <1>   0.0800 
 36 H       -2.7400    -0.4770     0.5510 H     1 <1>   0.0800 
 37 H       -5.2050    -0.1930    -1.1860 H     1 <1>   0.0800 
 38 H       -5.1830    -0.3500     0.5530 H     1 <1>   0.0800 
 39 H       -4.9140    -4.7380    -0.5150 H     1 <1>   0.0800 
 40 H       -5.8010    -4.6880     0.9750 H     1 <1>   0.0800 
 41 H       -7.2470    -2.4090     1.4010 H     1 <1>   0.0800 
 42 H       -7.1720    -1.2290     0.1240 H     1 <1>   0.0800 
 43 H       -6.9870    -4.6950    -1.8100 H     1 <1>   0.0800 
 44 H       -8.2260    -2.7550    -1.4500 H     1 <1>   0.0800 
 45 H      -10.4490    -3.0240    -0.5420 H     1 <1>   0.1000 
 46 H       -8.2170    -6.4250     1.2210 H     1 <1>   0.1500 
 47 H       -5.9620    -6.8270    -2.3810 H     1 <1>   0.1500 
 48 H       -9.2770    -0.4680     0.7830 H     1 <1>   0.1000 
 49 H      -10.9770    -0.7620     0.3240 H     1 <1>   0.1000 
 50 H      -11.0230    -2.7870     1.8510 H     1 <1>   0.1000 
 51 H       -9.3160    -2.5020     2.2860 H     1 <1>   0.1000 
 52 H       -8.2540    -8.8630     1.4630 H     1 <1>   0.1500 
 53 H       -6.0060    -9.2600    -2.1330 H     1 <1>   0.1500 
 54 H       -7.1490   -10.2880    -0.2120 H     1 <1>   0.1500 
@<TRIPOS>BOND
  1   1   2  2   
  2   2   3  am  
  3   2   4  1   
  4   3   5  1   
  5   3   6  1   
  6   4   7  1   
  7   4  27  1   
  8   4  28  1   
  9   5   7  1   
 10   5  29  1   
 11   5  30  1   
 12   6   8  1   
 13   6  31  1   
 14   6  32  1   
 15   7  33  1   
 16   7  34  1   
 17   8   9  1   
 18   8  35  1   
 19   8  36  1   
 20   9  10  1   
 21   9  37  1   
 22   9  38  1   
 23  10  11  2   
 24  10  12  am  
 25  12  13  1   
 26  12  14  1   
 27  13  15  1   
 28  13  39  1   
 29  13  40  1   
 30  14  16  1   
 31  14  41  1   
 32  14  42  1   
 33  15  17  1   
 34  15  18  1   
 35  15  43  1   
 36  16  17  1   
 37  16  19  1   
 38  16  44  1   
 39  18  20  ar  
 40  18  21  ar  
 41  19  22  1   
 42  19  23  1   
 43  19  45  1   
 44  20  24  ar  
 45  20  46  1   
 46  21  25  ar  
 47  21  47  1   
 48  22  23  1   
 49  22  48  1   
 50  22  49  1   
 51  23  50  1   
 52  23  51  1   
 53  24  26  ar  
 54  24  52  1   
 55  25  26  ar  
 56  25  53  1   
 57  26  54  1   
@<TRIPOS>SUBSTRUCTURE
  1 ****  12 GROUP 4 **** **** 0

# MOE 2024.06 (io_trps.svl 2023.06)
