@<TRIPOS>MOLECULE
NONAME
54 56 1 0 0 
SMALL
USER_CHARGES


@<TRIPOS>ATOM
  1 O        0.2780    -0.1810     1.1830 O.2   1 <1>  -0.5700 
  2 C        1.0040    -0.6490     0.3340 C.2   1 <1>   0.5690 
  3 N        1.6660     0.1810    -0.5190 N.am  1 <1>  -0.7300 
  4 C        1.2150    -2.1890     0.2650 C.3   1 <1>   0.2040 
  5 C        1.7550     1.6570    -0.4120 C.3   1 <1>   0.1400 
  6 C       -0.1110    -2.9720     0.0880 C.ar  1 <1>  -0.1440 
  7 C        1.9830    -2.6020     1.5520 C.3   1 <1>  -0.1600 
  8 C        2.1690    -2.6160    -0.8820 C.3   1 <1>  -0.1600 
  9 C        3.2310     2.1070    -0.3270 C.3   1 <1>   0.2800 
 10 C       -0.1510    -4.3460     0.3160 C.ar  1 <1>  -0.1500 
 11 C       -1.2840    -2.3490    -0.3310 C.ar  1 <1>  -0.1500 
 12 C        3.3410    -3.1710     1.1240 C.3   1 <1>  -0.1600 
 13 C        3.5700    -2.6290    -0.2800 C.3   1 <1>  -0.1600 
 14 O        3.9580     1.4680    -1.3390 O.3   1 <1>  -0.5600 
 15 C        3.4070     3.6080    -0.5720 C.3   1 <1>  -0.1600 
 16 C        3.8750     1.6790     0.9980 C.3   1 <1>  -0.2400 
 17 C       -1.3140    -5.0760     0.1470 C.ar  1 <1>   0.0830 
 18 C       -2.4580    -3.0660    -0.4880 C.ar  1 <1>  -0.1500 
 19 C        4.7030     2.3620    -2.1070 C.3   1 <1>   0.1200 
 20 C        4.7020     3.6820    -1.3530 C.3   1 <1>  -0.1600 
 21 O       -1.2470    -6.4140     0.3590 O.3   1 <1>  -0.3630 
 22 C       -2.4900    -4.4240    -0.2340 C.ar  1 <1>   0.0830 
 23 C       -1.4830    -7.2390    -0.7600 C.3   1 <1>   0.0400 
 24 O       -3.6790    -5.0610    -0.3640 O.3   1 <1>  -0.3630 
 25 C       -4.2490    -5.5520     0.8290 C.3   1 <1>   0.0400 
 26 H        2.3940    -0.2010    -1.1310 H     1 <1>   0.3700 
 27 H        1.2170     2.0030     0.4540 H     1 <1>   0.0800 
 28 H        1.2960     2.0910    -1.2830 H     1 <1>   0.0800 
 29 H        1.4380    -3.3080     2.1530 H     1 <1>   0.0800 
 30 H        2.1580    -1.7390     2.1710 H     1 <1>   0.0800 
 31 H        2.0950    -2.0000    -1.7590 H     1 <1>   0.0800 
 32 H        1.9400    -3.6220    -1.1890 H     1 <1>   0.0800 
 33 H        0.7320    -4.8770     0.6190 H     1 <1>   0.1500 
 34 H       -1.3100    -1.2940    -0.5390 H     1 <1>   0.1500 
 35 H        3.2820    -4.2450     1.0870 H     1 <1>   0.0800 
 36 H        4.1290    -2.8860     1.7990 H     1 <1>   0.0800 
 37 H        3.9600    -1.6260    -0.2270 H     1 <1>   0.0800 
 38 H        4.2490    -3.2440    -0.8450 H     1 <1>   0.0800 
 39 H        3.4420     4.1750     0.3420 H     1 <1>   0.0800 
 40 H        2.6000     3.9820    -1.1770 H     1 <1>   0.0800 
 41 H        3.8190     0.6120     1.1140 H     1 <1>   0.0800 
 42 H        3.3570     2.1320     1.8230 H     1 <1>   0.0800 
 43 H        4.9050     1.9790     1.0340 H     1 <1>   0.0800 
 44 H       -3.3570    -2.5680    -0.8020 H     1 <1>   0.1500 
 45 H        4.2110     2.4630    -3.0590 H     1 <1>   0.0800 
 46 H        5.6950     1.9680    -2.2450 H     1 <1>   0.0800 
 47 H        5.5470     3.7130    -0.6870 H     1 <1>   0.0800 
 48 H        4.7430     4.5280    -2.0170 H     1 <1>   0.0800 
 49 H       -1.2650    -8.2540    -0.4820 H     1 <1>   0.0800 
 50 H       -0.8370    -6.9290    -1.5630 H     1 <1>   0.0800 
 51 H       -2.5130    -7.1530    -1.0560 H     1 <1>   0.0800 
 52 H       -5.2180    -5.9560     0.5990 H     1 <1>   0.0800 
 53 H       -4.3440    -4.7390     1.5270 H     1 <1>   0.0800 
 54 H       -3.6170    -6.3200     1.2360 H     1 <1>   0.0800 
@<TRIPOS>BOND
  1   1   2  2   
  2   2   3  am  
  3   2   4  1   
  4   3   5  1   
  5   3  26  1   
  6   4   6  1   
  7   4   7  1   
  8   4   8  1   
  9   5   9  1   
 10   5  27  1   
 11   5  28  1   
 12   6  10  ar  
 13   6  11  ar  
 14   7  12  1   
 15   7  29  1   
 16   7  30  1   
 17   8  13  1   
 18   8  31  1   
 19   8  32  1   
 20   9  14  1   
 21   9  15  1   
 22   9  16  1   
 23  10  17  ar  
 24  10  33  1   
 25  11  18  ar  
 26  11  34  1   
 27  12  13  1   
 28  12  35  1   
 29  12  36  1   
 30  13  37  1   
 31  13  38  1   
 32  14  19  1   
 33  15  20  1   
 34  15  39  1   
 35  15  40  1   
 36  16  41  1   
 37  16  42  1   
 38  16  43  1   
 39  17  21  1   
 40  17  22  ar  
 41  18  22  ar  
 42  18  44  1   
 43  19  20  1   
 44  19  45  1   
 45  19  46  1   
 46  20  47  1   
 47  20  48  1   
 48  21  23  1   
 49  22  24  1   
 50  23  49  1   
 51  23  50  1   
 52  23  51  1   
 53  24  25  1   
 54  25  52  1   
 55  25  53  1   
 56  25  54  1   
@<TRIPOS>SUBSTRUCTURE
  1 ****   4 GROUP 4 **** **** 0

# MOE 2024.06 (io_trps.svl 2023.06)
