@<TRIPOS>MOLECULE
NONAME
32 33 1 0 0 
SMALL
USER_CHARGES


@<TRIPOS>ATOM
  1 S        0.2540     0.1030    -0.6810 S.o   1 <1>   0.1130 
  2 O       -0.4960     1.3300    -0.2510 O.2   1 <1>  -0.5000 
  3 C       -0.1290    -1.2090     0.4980 C.3   1 <1>   0.1130 
  4 C        1.9360     0.3020    -0.0670 C.3   1 <1>   0.0330 
  5 C        1.1830    -1.9920     0.7090 C.3   1 <1>   0.2200 
  6 C       -1.3310    -2.0900     0.1030 C.3   1 <1>  -0.1600 
  7 C        2.4050    -1.0590     0.4550 C.3   1 <1>   0.2200 
  8 N        1.3950    -3.0650    -0.2930 N.am  1 <1>  -0.7300 
  9 C       -2.6650    -1.3320     0.1880 C.3   1 <1>  -0.1600 
 10 N        3.1530    -1.7740    -0.6010 N.am  1 <1>  -0.7300 
 11 C        2.5680    -2.9330    -0.9200 C.2   1 <1>   0.6900 
 12 C       -3.8490    -2.2720    -0.0770 C.3   1 <1>  -0.1600 
 13 O        3.0730    -3.7850    -1.6110 O.2   1 <1>  -0.5700 
 14 C       -5.1940    -1.5360     0.0520 C.3   1 <1>  -0.2660 
 15 C       -6.3810    -2.4580    -0.1330 C.2   1 <1>   0.9060 
 16 O       -6.7110    -3.1860     0.8080 O.co2 1 <1>  -0.9000 
 17 O       -6.9740    -2.4520    -1.2150 O.co2 1 <1>  -0.9000 
 18 H       -0.3590    -0.7460     1.4410 H     1 <1>   0.0800 
 19 H        2.6000     0.6860    -0.8200 H     1 <1>   0.0800 
 20 H        1.9270     0.9930     0.7560 H     1 <1>   0.0800 
 21 H        1.2160    -2.4120     1.6990 H     1 <1>   0.0800 
 22 H       -1.1980    -2.4590    -0.9000 H     1 <1>   0.0800 
 23 H       -1.3760    -2.9360     0.7670 H     1 <1>   0.0800 
 24 H        3.0130    -0.9510     1.3370 H     1 <1>   0.0800 
 25 H        0.9320    -3.9730    -0.2570 H     1 <1>   0.3700 
 26 H       -2.7760    -0.8990     1.1680 H     1 <1>   0.0800 
 27 H       -2.6800    -0.5310    -0.5310 H     1 <1>   0.0800 
 28 H        4.1540    -1.6600    -0.7620 H     1 <1>   0.3700 
 29 H       -3.8390    -3.0860     0.6290 H     1 <1>   0.0800 
 30 H       -3.7770    -2.6900    -1.0670 H     1 <1>   0.0800 
 31 H       -5.2610    -0.7570    -0.6830 H     1 <1>   0.0800 
 32 H       -5.2820    -1.0940     1.0260 H     1 <1>   0.0800 
@<TRIPOS>BOND
  1   1   2  2   
  2   1   3  1   
  3   1   4  1   
  4   3   5  1   
  5   3   6  1   
  6   3  18  1   
  7   4   7  1   
  8   4  19  1   
  9   4  20  1   
 10   5   7  1   
 11   5   8  1   
 12   5  21  1   
 13   6   9  1   
 14   6  22  1   
 15   6  23  1   
 16   7  10  1   
 17   7  24  1   
 18   8  11  am  
 19   8  25  1   
 20   9  12  1   
 21   9  26  1   
 22   9  27  1   
 23  10  11  am  
 24  10  28  1   
 25  11  13  2   
 26  12  14  1   
 27  12  29  1   
 28  12  30  1   
 29  14  15  1   
 30  14  31  1   
 31  14  32  1   
 32  15  16  ar  
 33  15  17  ar  
@<TRIPOS>SUBSTRUCTURE
  1 ****   6 GROUP 4 **** **** 0

# MOE 2024.06 (io_trps.svl 2023.06)
