@<TRIPOS>MOLECULE
NONAME
49 52 1 0 0 
SMALL
USER_CHARGES


@<TRIPOS>ATOM
  1 S       -2.0670     1.6480    -1.1140 S.3   1 <1>  -0.0800 
  2 C       -1.6260     2.4150     0.4040 C.2   1 <1>  -0.1400 
  3 C       -3.5340     0.9960    -0.3960 C.2   1 <1>  -0.1100 
  4 C       -2.5520     2.1740     1.3420 C.2   1 <1>  -0.1810 
  5 C       -0.3460     3.2260     0.5760 C.3   1 <1>   0.4600 
  6 C       -3.6410     1.3610     0.8960 C.2   1 <1>  -0.1500 
  7 C       -2.3740     2.7490     2.7290 C.3   1 <1>   0.0210 
  8 O       -0.2170     3.5810     1.9390 O.3   1 <1>  -0.5600 
  9 C        0.8940     2.3690     0.2580 C.3   1 <1>  -0.1600 
 10 C       -0.3950     4.5170    -0.2590 C.3   1 <1>  -0.1600 
 11 C       -1.3790     3.9230     2.6610 C.3   1 <1>   0.1200 
 12 C        1.4890     2.6750    -1.1170 C.3   1 <1>   0.1400 
 13 C        1.0050     5.0900    -0.4610 C.3   1 <1>   0.1400 
 14 N        1.8570     4.1210    -1.2180 N.am  1 <1>  -0.6600 
 15 C        2.9710     4.5040    -1.9320 C.2   1 <1>   0.5690 
 16 O        3.6280     3.7010    -2.5560 O.2   1 <1>  -0.5700 
 17 C        3.4100     5.9650    -2.0150 C.3   1 <1>   0.1810 
 18 O        3.5700     6.5450    -0.7280 O.3   1 <1>  -0.3630 
 19 C        3.6280     7.8900    -0.5810 C.ar  1 <1>   0.0820 
 20 C        3.3360     8.3970     0.6740 C.ar  1 <1>  -0.1500 
 21 C        3.9550     8.7610    -1.6160 C.ar  1 <1>  -0.1500 
 22 C        3.3500     9.7610     0.9060 C.ar  1 <1>   0.0820 
 23 C        3.9730    10.1260    -1.3890 C.ar  1 <1>  -0.1500 
 24 O        3.0420    10.1700     2.1630 O.3   1 <1>  -0.3620 
 25 C        3.6710    10.6290    -0.1340 C.ar  1 <1>  -0.1500 
 26 C        3.0490    11.5360     2.5120 C.3   1 <1>   0.0400 
 27 H       -4.1690     0.3990    -1.0270 H     1 <1>   0.1500 
 28 H       -4.4450     1.0920     1.5590 H     1 <1>   0.1500 
 29 H       -1.9990     1.9900     3.3920 H     1 <1>   0.0800 
 30 H       -3.3160     3.1010     3.1080 H     1 <1>   0.0800 
 31 H        0.6390     1.3260     0.3080 H     1 <1>   0.0800 
 32 H        1.6610     2.5490     0.9900 H     1 <1>   0.0800 
 33 H       -1.0280     5.2460     0.2080 H     1 <1>   0.0800 
 34 H       -0.8140     4.3110    -1.2270 H     1 <1>   0.0800 
 35 H       -1.0740     4.2080     3.6530 H     1 <1>   0.0800 
 36 H       -1.8390     4.7730     2.1880 H     1 <1>   0.0800 
 37 H        0.7780     2.4400    -1.8900 H     1 <1>   0.0800 
 38 H        2.3610     2.0620    -1.2700 H     1 <1>   0.0800 
 39 H        1.4600     5.2860     0.4960 H     1 <1>   0.0800 
 40 H        0.9330     6.0180    -1.0000 H     1 <1>   0.0800 
 41 H        2.6670     6.5220    -2.5540 H     1 <1>   0.0800 
 42 H        4.3530     6.0280    -2.5260 H     1 <1>   0.0800 
 43 H        3.0930     7.7250     1.4760 H     1 <1>   0.1500 
 44 H        4.2040     8.3960    -2.5950 H     1 <1>   0.1500 
 45 H        4.2260    10.8000    -2.1890 H     1 <1>   0.1500 
 46 H        3.6910    11.6920     0.0130 H     1 <1>   0.1500 
 47 H        2.7840    11.6150     3.5510 H     1 <1>   0.0800 
 48 H        2.3240    12.0540     1.9100 H     1 <1>   0.0800 
 49 H        4.0370    11.9310     2.3550 H     1 <1>   0.0800 
@<TRIPOS>BOND
  1   1   2  1   
  2   1   3  1   
  3   2   4  2   
  4   2   5  1   
  5   3   6  2   
  6   3  27  1   
  7   4   6  1   
  8   4   7  1   
  9   5   8  1   
 10   5   9  1   
 11   5  10  1   
 12   6  28  1   
 13   7  11  1   
 14   7  29  1   
 15   7  30  1   
 16   8  11  1   
 17   9  12  1   
 18   9  31  1   
 19   9  32  1   
 20  10  13  1   
 21  10  33  1   
 22  10  34  1   
 23  11  35  1   
 24  11  36  1   
 25  12  14  1   
 26  12  37  1   
 27  12  38  1   
 28  13  14  1   
 29  13  39  1   
 30  13  40  1   
 31  14  15  am  
 32  15  16  2   
 33  15  17  1   
 34  17  18  1   
 35  17  41  1   
 36  17  42  1   
 37  18  19  1   
 38  19  20  ar  
 39  19  21  ar  
 40  20  22  ar  
 41  20  43  1   
 42  21  23  ar  
 43  21  44  1   
 44  22  24  1   
 45  22  25  ar  
 46  23  25  ar  
 47  23  45  1   
 48  24  26  1   
 49  25  46  1   
 50  26  47  1   
 51  26  48  1   
 52  26  49  1   
@<TRIPOS>SUBSTRUCTURE
  1 ****  13 GROUP 4 **** **** 0

# MOE 2024.06 (io_trps.svl 2023.06)
