@<TRIPOS>MOLECULE
NONAME
40 41 1 0 0 
SMALL
USER_CHARGES


@<TRIPOS>ATOM
  1 O        2.6640    -2.3070     0.3300 O.co2 1 <1>  -0.9000 
  2 C        3.1670    -1.2670    -0.0820 C.2   1 <1>   0.9060 
  3 O        3.8040    -1.1790    -1.1400 O.co2 1 <1>  -0.9000 
  4 C        3.0130     0.0000     0.7310 C.3   1 <1>  -0.1860 
  5 C        4.3880     0.5470     1.1940 C.3   1 <1>   0.2000 
  6 C        2.1930     1.0460    -0.0660 C.3   1 <1>  -0.1600 
  7 O        5.3980     0.2230     0.2930 O.3   1 <1>  -0.6800 
  8 C        4.3360     2.0870     1.2820 C.3   1 <1>   0.3430 
  9 C        3.1320     1.8860    -0.9270 C.3   1 <1>   0.3430 
 10 N        4.0110     2.7340    -0.0530 N.4   1 <1>  -0.9590 
 11 C        5.2670     3.0510    -0.7820 C.3   1 <1>   0.4860 
 12 C        5.9290     4.2350    -0.0960 C.ar  1 <1>  -0.1440 
 13 C        7.1470     4.1170     0.5710 C.ar  1 <1>  -0.1440 
 14 C        5.2900     5.4680    -0.1450 C.ar  1 <1>  -0.1500 
 15 C        7.6900     5.2340     1.1900 C.ar  1 <1>  -0.1500 
 16 C        7.9350     2.8100     0.6410 C.3   1 <1>  -0.0170 
 17 C        5.8400     6.5720     0.4780 C.ar  1 <1>  -0.1500 
 18 C        7.0410     6.4530     1.1490 C.ar  1 <1>  -0.1500 
 19 C        8.7440     2.5930    -0.6400 C.3   1 <1>  -0.2400 
 20 H        2.4420    -0.2630     1.6020 H     1 <1>   0.0800 
 21 H        4.6560     0.1120     2.1420 H     1 <1>   0.0800 
 22 H        1.6300     1.6810     0.5940 H     1 <1>   0.0800 
 23 H        1.4890     0.5350    -0.7020 H     1 <1>   0.0800 
 24 H        5.0190    -0.4480    -0.3620 H     1 <1>   0.4000 
 25 H        5.2710     2.4580     1.6660 H     1 <1>   0.0800 
 26 H        3.5690     2.3460     1.9920 H     1 <1>   0.0800 
 27 H        2.5660     2.5050    -1.6040 H     1 <1>   0.0800 
 28 H        3.7380     1.2090    -1.5120 H     1 <1>   0.0800 
 29 H        3.5520     3.6280     0.1420 H     1 <1>   0.4500 
 30 H        5.9200     2.1950    -0.7960 H     1 <1>   0.0800 
 31 H        5.0450     3.3180    -1.8010 H     1 <1>   0.0800 
 32 H        4.3600     5.5890    -0.6730 H     1 <1>   0.1500 
 33 H        8.6310     5.1640     1.7080 H     1 <1>   0.1500 
 34 H        8.6130     2.8400     1.4770 H     1 <1>   0.0800 
 35 H        7.2840     1.9730     0.8050 H     1 <1>   0.0800 
 36 H        5.3410     7.5260     0.4390 H     1 <1>   0.1500 
 37 H        7.4750     7.3110     1.6350 H     1 <1>   0.1500 
 38 H        9.4260     3.4120    -0.7900 H     1 <1>   0.0800 
 39 H        8.0980     2.5230    -1.4950 H     1 <1>   0.0800 
 40 H        9.3120     1.6830    -0.5650 H     1 <1>   0.0800 
@<TRIPOS>BOND
  1   1   2  ar  
  2   2   3  ar  
  3   2   4  1   
  4   4   5  1   
  5   4   6  1   
  6   4  20  1   
  7   5   7  1   
  8   5   8  1   
  9   5  21  1   
 10   6   9  1   
 11   6  22  1   
 12   6  23  1   
 13   7  24  1   
 14   8  10  1   
 15   8  25  1   
 16   8  26  1   
 17   9  10  1   
 18   9  27  1   
 19   9  28  1   
 20  10  11  1   
 21  10  29  1   
 22  11  12  1   
 23  11  30  1   
 24  11  31  1   
 25  12  13  ar  
 26  12  14  ar  
 27  13  15  ar  
 28  13  16  1   
 29  14  17  ar  
 30  14  32  1   
 31  15  18  ar  
 32  15  33  1   
 33  16  19  1   
 34  16  34  1   
 35  16  35  1   
 36  17  18  ar  
 37  17  36  1   
 38  18  37  1   
 39  19  38  1   
 40  19  39  1   
 41  19  40  1   
@<TRIPOS>SUBSTRUCTURE
  1 ****  10 GROUP 4 **** **** 0

# MOE 2024.06 (io_trps.svl 2023.06)
