@<TRIPOS>MOLECULE
NONAME
49 51 1 0 0 
SMALL
USER_CHARGES


@<TRIPOS>ATOM
  1 S        0.1450    -0.1950     0.8860 S.3   1 <1>  -0.3320 
  2 C        0.1330     1.5830     0.6810 C.ar  1 <1>   0.4120 
  3 C       -1.3010    -0.5830     1.9860 C.3   1 <1>   0.1310 
  4 N        0.6180     2.0130    -0.4370 N.ar  1 <1>  -0.6200 
  5 C       -0.3860     2.3910     1.7040 C.ar  1 <1>  -0.1500 
  6 C       -1.6670    -2.0590     1.9110 C.2   1 <1>   0.5690 
  7 C        0.6080     3.3560    -0.6220 C.ar  1 <1>   0.3100 
  8 C       -0.4140     3.7440     1.5420 C.ar  1 <1>  -0.1440 
  9 O       -1.5270    -2.7000     2.9260 O.2   1 <1>  -0.5700 
 10 N       -2.1630    -2.6310     0.7610 N.am  1 <1>  -0.6600 
 11 C        0.0970     4.2690     0.3320 C.ar  1 <1>   0.0000 
 12 C        1.1290     3.8580    -1.8250 C.ar  1 <1>  -0.1500 
 13 C       -0.9700     4.6470     2.6340 C.3   1 <1>  -0.0970 
 14 C       -2.4420    -4.1000     0.6930 C.3   1 <1>   0.1400 
 15 C       -2.3840    -1.9140    -0.5270 C.3   1 <1>   0.1400 
 16 C        0.1310     5.6470     0.0210 C.ar  1 <1>  -0.1500 
 17 C        1.1490     5.1990    -2.0970 C.ar  1 <1>  -0.1500 
 18 C       -3.8710    -4.3560     0.1930 C.3   1 <1>   0.2000 
 19 C       -3.8220    -2.1380    -1.0090 C.3   1 <1>  -0.1600 
 20 C        0.6430     6.1080    -1.1640 C.ar  1 <1>  -0.1430 
 21 O       -4.0590    -5.7200     0.0280 O.3   1 <1>  -0.6800 
 22 C       -4.1640    -3.6390    -1.1390 C.3   1 <1>  -0.0800 
 23 C        0.6770     7.5900    -1.4930 C.3   1 <1>  -0.0970 
 24 C       -5.6260    -3.8690    -1.5600 C.3   1 <1>   0.1200 
 25 O       -5.8710    -3.2490    -2.7750 O.3   1 <1>  -0.6800 
 26 H       -1.0110    -0.3280     2.9880 H     1 <1>   0.0800 
 27 H       -2.1260     0.0270     1.6720 H     1 <1>   0.0800 
 28 H       -0.7410     1.9360     2.6060 H     1 <1>   0.1500 
 29 H        1.5150     3.1460    -2.5310 H     1 <1>   0.1500 
 30 H       -1.3040     4.0720     3.4780 H     1 <1>   0.0800 
 31 H       -1.8050     5.2110     2.2560 H     1 <1>   0.0800 
 32 H       -0.2090     5.3290     2.9700 H     1 <1>   0.0800 
 33 H       -1.7330    -4.5490     0.0210 H     1 <1>   0.0800 
 34 H       -2.3260    -4.5530     1.6630 H     1 <1>   0.0800 
 35 H       -2.2110    -0.8580    -0.4240 H     1 <1>   0.0800 
 36 H       -1.6890    -2.2900    -1.2590 H     1 <1>   0.0800 
 37 H       -0.2550     6.3480     0.7360 H     1 <1>   0.1500 
 38 H        1.5520     5.5620    -3.0260 H     1 <1>   0.1500 
 39 H       -4.5640    -4.0300     0.9510 H     1 <1>   0.0800 
 40 H       -4.4970    -1.6640    -0.3170 H     1 <1>   0.0800 
 41 H       -3.9320    -1.6530    -1.9620 H     1 <1>   0.0800 
 42 H       -3.4840    -6.0640    -0.6820 H     1 <1>   0.4000 
 43 H       -3.5250    -4.0640    -1.8940 H     1 <1>   0.0800 
 44 H        0.1100     7.7790    -2.3870 H     1 <1>   0.0800 
 45 H        1.6920     7.9060    -1.6520 H     1 <1>   0.0800 
 46 H        0.2580     8.1730    -0.6920 H     1 <1>   0.0800 
 47 H       -6.3120    -3.4720    -0.8300 H     1 <1>   0.0800 
 48 H       -5.8260    -4.9200    -1.6870 H     1 <1>   0.0800 
 49 H       -5.8340    -2.2780    -2.6800 H     1 <1>   0.4000 
@<TRIPOS>BOND
  1   1   2  1   
  2   1   3  1   
  3   2   4  ar  
  4   2   5  ar  
  5   3   6  1   
  6   3  26  1   
  7   3  27  1   
  8   4   7  ar  
  9   5   8  ar  
 10   5  28  1   
 11   6   9  2   
 12   6  10  am  
 13   7  11  ar  
 14   7  12  ar  
 15   8  11  ar  
 16   8  13  1   
 17  10  14  1   
 18  10  15  1   
 19  11  16  ar  
 20  12  17  ar  
 21  12  29  1   
 22  13  30  1   
 23  13  31  1   
 24  13  32  1   
 25  14  18  1   
 26  14  33  1   
 27  14  34  1   
 28  15  19  1   
 29  15  35  1   
 30  15  36  1   
 31  16  20  ar  
 32  16  37  1   
 33  17  20  ar  
 34  17  38  1   
 35  18  21  1   
 36  18  22  1   
 37  18  39  1   
 38  19  22  1   
 39  19  40  1   
 40  19  41  1   
 41  20  23  1   
 42  21  42  1   
 43  22  24  1   
 44  22  43  1   
 45  23  44  1   
 46  23  45  1   
 47  23  46  1   
 48  24  25  1   
 49  24  47  1   
 50  24  48  1   
 51  25  49  1   
@<TRIPOS>SUBSTRUCTURE
  1 ****   1 GROUP 4 **** **** 0

# MOE 2024.06 (io_trps.svl 2023.06)
