@<TRIPOS>MOLECULE
NONAME
42 42 1 0 0 
SMALL
USER_CHARGES


@<TRIPOS>ATOM
  1 O        1.3390    -0.8930     2.0710 O.2   1 <1>  -0.5700 
  2 C        1.5550    -1.1990     0.9200 C.2   1 <1>   0.5690 
  3 N        1.8690    -0.2700    -0.0330 N.am  1 <1>  -0.7300 
  4 C        1.4780    -2.6880     0.4830 C.3   1 <1>   0.2510 
  5 C        1.9820     1.1850     0.1030 C.3   1 <1>   0.3000 
  6 N        0.1150    -3.2020     0.1410 N.3   1 <1>  -0.8100 
  7 C        2.0680    -3.6050     1.5650 C.3   1 <1>  -0.2400 
  8 C        0.6380     1.7700     0.5350 C.3   1 <1>  -0.2400 
  9 C        2.3530     1.7220    -1.2780 C.3   1 <1>  -0.2400 
 10 C        3.0900     1.5300     1.1000 C.3   1 <1>  -0.2400 
 11 C        0.1650    -4.3370    -0.8150 C.3   1 <1>   0.2900 
 12 C       -0.8050    -2.1580    -0.3540 C.3   1 <1>   0.0300 
 13 C       -1.1080    -5.1620    -0.7530 C.2   1 <1>   0.0060 
 14 N       -1.8230    -5.2530     0.3860 N.pl3 1 <1>   0.0330 
 15 N       -1.6130    -5.8340    -1.7380 N.2   1 <1>  -0.5650 
 16 C       -2.8670    -6.0500     0.0920 C.2   1 <1>  -0.3320 
 17 C       -2.7190    -6.3930    -1.2070 C.2   1 <1>   0.0770 
 18 C       -3.9440    -6.4240     1.0930 C.3   1 <1>  -0.0600 
 19 H        2.0070    -0.5870    -0.9890 H     1 <1>   0.3700 
 20 H        2.0990    -2.7730    -0.3920 H     1 <1>   0.0800 
 21 H        1.4410    -3.5830     2.4390 H     1 <1>   0.0800 
 22 H        3.0430    -3.2510     1.8450 H     1 <1>   0.0800 
 23 H        2.1630    -4.6170     1.2210 H     1 <1>   0.0800 
 24 H       -0.1370     1.4850    -0.1520 H     1 <1>   0.0800 
 25 H        0.6920     2.8430     0.5640 H     1 <1>   0.0800 
 26 H        0.3740     1.4280     1.5200 H     1 <1>   0.0800 
 27 H        1.5890     1.4820    -1.9960 H     1 <1>   0.0800 
 28 H        3.2920     1.3120    -1.6050 H     1 <1>   0.0800 
 29 H        2.4520     2.7920    -1.2420 H     1 <1>   0.0800 
 30 H        2.8310     1.1930     2.0870 H     1 <1>   0.0800 
 31 H        3.2310     2.5950     1.1420 H     1 <1>   0.0800 
 32 H        4.0170     1.0740     0.8070 H     1 <1>   0.0800 
 33 H        0.9830    -4.9920    -0.5790 H     1 <1>   0.0800 
 34 H        0.3100    -3.9750    -1.8190 H     1 <1>   0.0800 
 35 H       -0.9720    -1.4180     0.4110 H     1 <1>   0.0800 
 36 H       -1.7600    -2.5870    -0.6070 H     1 <1>   0.0800 
 37 H       -0.4010    -1.6790    -1.2290 H     1 <1>   0.0800 
 38 H       -1.5850    -4.7640     1.2550 H     1 <1>   0.2700 
 39 H       -3.3610    -7.0230    -1.8000 H     1 <1>   0.1500 
 40 H       -4.4420    -5.5400     1.4490 H     1 <1>   0.0800 
 41 H       -3.5090    -6.9430     1.9280 H     1 <1>   0.0800 
 42 H       -4.6720    -7.0660     0.6300 H     1 <1>   0.0800 
@<TRIPOS>BOND
  1   1   2  2   
  2   2   3  am  
  3   2   4  1   
  4   3   5  1   
  5   3  19  1   
  6   4   6  1   
  7   4   7  1   
  8   4  20  1   
  9   5   8  1   
 10   5   9  1   
 11   5  10  1   
 12   6  11  1   
 13   6  12  1   
 14   7  21  1   
 15   7  22  1   
 16   7  23  1   
 17   8  24  1   
 18   8  25  1   
 19   8  26  1   
 20   9  27  1   
 21   9  28  1   
 22   9  29  1   
 23  10  30  1   
 24  10  31  1   
 25  10  32  1   
 26  11  13  1   
 27  11  33  1   
 28  11  34  1   
 29  12  35  1   
 30  12  36  1   
 31  12  37  1   
 32  13  14  1   
 33  13  15  2   
 34  14  16  1   
 35  14  38  1   
 36  15  17  1   
 37  16  17  2   
 38  16  18  1   
 39  17  39  1   
 40  18  40  1   
 41  18  41  1   
 42  18  42  1   
@<TRIPOS>SUBSTRUCTURE
  1 ****   6 GROUP 4 **** **** 0

# MOE 2024.06 (io_trps.svl 2023.06)
