@<TRIPOS>MOLECULE
NONAME
39 40 1 0 0 
SMALL
USER_CHARGES


@<TRIPOS>ATOM
  1 O        0.0520    -0.1140     0.9040 O.2   1 <1>  -0.5700 
  2 C        1.0610    -0.6480     0.4800 C.2   1 <1>   0.7160 
  3 N        2.1310     0.1150     0.0810 N.am  1 <1>  -0.4940 
  4 C        1.1780    -2.0880     0.3790 C.2   1 <1>  -0.0860 
  5 C        2.3900     1.5070     0.1300 C.2   1 <1>  -0.0880 
  6 C        0.2220    -3.0600     0.1810 C.2   1 <1>  -0.3320 
  7 C        2.3970    -2.7940     0.4760 C.2   1 <1>  -0.1500 
  8 N        1.5070     2.5300    -0.0520 N.pl3 1 <1>   0.3140 
  9 C        3.5980     2.0840     0.3420 C.2   1 <1>  -0.1810 
 10 N        0.7990    -4.2880     0.1540 N.pl3 1 <1>   0.0480 
 11 C       -1.2790    -2.8700     0.0060 C.3   1 <1>  -0.0600 
 12 C        2.1310    -4.1140     0.3330 C.2   1 <1>  -0.3020 
 13 N        2.1210     3.7310     0.0340 N.2   1 <1>  -0.7070 
 14 C        0.0840     2.4710    -0.4080 C.3   1 <1>   0.0160 
 15 C        3.3640     3.4550     0.2730 C.2   1 <1>   0.1080 
 16 C        4.9350     1.4140     0.6060 C.3   1 <1>  -0.0590 
 17 C        0.1290    -5.5880    -0.0260 C.3   1 <1>   0.0160 
 18 C        4.4060     4.5460     0.4440 C.3   1 <1>   0.0210 
 19 C        5.0740     4.8890    -0.8910 C.3   1 <1>  -0.2400 
 20 H        2.9160    -0.4510    -0.2290 H     1 <1>   0.3700 
 21 H        3.3630    -2.3530     0.6480 H     1 <1>   0.1500 
 22 H       -1.5380    -1.8280    -0.0300 H     1 <1>   0.0800 
 23 H       -1.8040    -3.3180     0.8300 H     1 <1>   0.0800 
 24 H       -1.6070    -3.3270    -0.9100 H     1 <1>   0.0800 
 25 H        2.8200    -4.9400     0.3550 H     1 <1>   0.1500 
 26 H       -0.0870     1.6350    -1.0590 H     1 <1>   0.0800 
 27 H       -0.1930     3.3800    -0.9070 H     1 <1>   0.0800 
 28 H       -0.4950     2.3620     0.4890 H     1 <1>   0.0800 
 29 H        4.8300     0.3450     0.6340 H     1 <1>   0.0800 
 30 H        5.3250     1.7410     1.5530 H     1 <1>   0.0800 
 31 H        5.6330     1.6730    -0.1690 H     1 <1>   0.0800 
 32 H       -0.6300    -5.7020     0.7250 H     1 <1>   0.0800 
 33 H        0.8480    -6.3800     0.0700 H     1 <1>   0.0800 
 34 H       -0.3170    -5.6240    -1.0030 H     1 <1>   0.0800 
 35 H        5.1460     4.2300     1.1560 H     1 <1>   0.0800 
 36 H        3.9220     5.4230     0.8380 H     1 <1>   0.0800 
 37 H        5.5670     4.0230    -1.2950 H     1 <1>   0.0800 
 38 H        5.7950     5.6740    -0.7550 H     1 <1>   0.0800 
 39 H        4.3280     5.2190    -1.5930 H     1 <1>   0.0800 
@<TRIPOS>BOND
  1   1   2  2   
  2   2   3  am  
  3   2   4  1   
  4   3   5  1   
  5   3  20  1   
  6   4   6  2   
  7   4   7  1   
  8   5   8  1   
  9   5   9  2   
 10   6  10  1   
 11   6  11  1   
 12   7  12  2   
 13   7  21  1   
 14   8  13  1   
 15   8  14  1   
 16   9  15  1   
 17   9  16  1   
 18  10  12  1   
 19  10  17  1   
 20  11  22  1   
 21  11  23  1   
 22  11  24  1   
 23  12  25  1   
 24  13  15  2   
 25  14  26  1   
 26  14  27  1   
 27  14  28  1   
 28  15  18  1   
 29  16  29  1   
 30  16  30  1   
 31  16  31  1   
 32  17  32  1   
 33  17  33  1   
 34  17  34  1   
 35  18  19  1   
 36  18  35  1   
 37  18  36  1   
 38  19  37  1   
 39  19  38  1   
 40  19  39  1   
@<TRIPOS>SUBSTRUCTURE
  1 ****   3 GROUP 4 **** **** 0

# MOE 2024.06 (io_trps.svl 2023.06)
