@<TRIPOS>MOLECULE
NONAME
55 58 1 0 0 
SMALL
USER_CHARGES


@<TRIPOS>ATOM
  1 S       -2.3130    -1.3240    -0.9300 S.3   1 <1>  -0.3320 
  2 C       -1.6120    -2.9470    -0.5820 C.ar  1 <1>   0.1020 
  3 C       -1.1430    -0.4580    -2.0660 C.3   1 <1>  -0.0100 
  4 C       -2.3080    -3.7770     0.2510 C.ar  1 <1>  -0.1500 
  5 C       -0.3970    -3.3540    -1.1420 C.ar  1 <1>  -0.1500 
  6 C       -1.8300    -5.0560     0.5700 C.ar  1 <1>   0.3100 
  7 C        0.0950    -4.5970    -0.8450 C.ar  1 <1>  -0.1500 
  8 N       -2.5840    -5.8250     1.3920 N.ar  1 <1>  -0.6200 
  9 C       -0.5960    -5.4800     0.0140 C.ar  1 <1>   0.0000 
 10 C       -2.1280    -7.0030     1.6770 C.ar  1 <1>   0.4100 
 11 C       -0.1300    -6.7680     0.3620 C.ar  1 <1>  -0.1430 
 12 N       -2.9340    -7.7420     2.4880 N.pl3 1 <1>  -0.8690 
 13 C       -0.9070    -7.5100     1.1970 C.ar  1 <1>  -0.1500 
 14 C        1.1930    -7.3100    -0.1610 C.3   1 <1>  -0.0970 
 15 C       -3.3800    -9.0950     2.1110 C.3   1 <1>   0.2090 
 16 C       -4.8900    -9.0990     1.8190 C.3   1 <1>  -0.0800 
 17 C       -5.3560   -10.5490     1.5730 C.3   1 <1>   0.3430 
 18 C       -5.2690    -8.1720     0.6440 C.3   1 <1>  -0.1600 
 19 N       -6.4910   -10.6380     0.5990 N.4   1 <1>  -0.9590 
 20 C       -6.7840    -8.2060     0.3710 C.3   1 <1>  -0.1600 
 21 C       -7.4640    -9.5220     0.7630 C.3   1 <1>   0.3430 
 22 C       -7.1600   -11.9700     0.6210 C.3   1 <1>   0.5230 
 23 C       -7.7690   -12.2510    -0.7410 C.2   1 <1>  -0.0400 
 24 O       -8.7330   -11.4700    -1.1920 O.3   1 <1>  -0.2800 
 25 C       -7.4890   -13.2200    -1.6400 C.2   1 <1>  -0.1500 
 26 C       -9.0900   -11.9190    -2.3790 C.2   1 <1>  -0.0100 
 27 C       -8.3580   -13.0000    -2.7170 C.2   1 <1>  -0.1500 
 28 H       -1.5550     0.5130    -2.2750 H     1 <1>   0.0800 
 29 H       -1.0620    -1.0390    -2.9670 H     1 <1>   0.0800 
 30 H       -0.1960    -0.3700    -1.5650 H     1 <1>   0.0800 
 31 H       -3.2400    -3.4620     0.6800 H     1 <1>   0.1500 
 32 H        0.1480    -2.7030    -1.7970 H     1 <1>   0.1500 
 33 H        1.0290    -4.9070    -1.2740 H     1 <1>   0.1500 
 34 H       -3.6720    -7.1440     2.8700 H     1 <1>   0.4000 
 35 H       -0.6110    -8.4880     1.5210 H     1 <1>   0.1500 
 36 H        2.0000    -6.6690     0.1450 H     1 <1>   0.0800 
 37 H        1.1710    -7.3640    -1.2340 H     1 <1>   0.0800 
 38 H        1.3820    -8.2960     0.2240 H     1 <1>   0.0800 
 39 H       -3.1550    -9.7630     2.9260 H     1 <1>   0.0800 
 40 H       -2.8370    -9.4270     1.2410 H     1 <1>   0.0800 
 41 H       -5.3880    -8.7470     2.7060 H     1 <1>   0.0800 
 42 H       -5.6480   -10.9780     2.5190 H     1 <1>   0.0800 
 43 H       -4.5290   -11.1260     1.1920 H     1 <1>   0.0800 
 44 H       -4.7360    -8.4820    -0.2390 H     1 <1>   0.0800 
 45 H       -4.9750    -7.1550     0.8470 H     1 <1>   0.0800 
 46 H       -6.1150   -10.5300    -0.3530 H     1 <1>   0.4500 
 47 H       -6.9600    -8.0090    -0.6730 H     1 <1>   0.0800 
 48 H       -7.2630    -7.4120     0.9180 H     1 <1>   0.0800 
 49 H       -7.7830    -9.4710     1.7910 H     1 <1>   0.0800 
 50 H       -8.3350    -9.6720     0.1450 H     1 <1>   0.0800 
 51 H       -7.9260   -11.9960     1.3790 H     1 <1>   0.0800 
 52 H       -6.4380   -12.7400     0.8370 H     1 <1>   0.0800 
 53 H       -6.7680   -14.0190    -1.5940 H     1 <1>   0.1500 
 54 H       -9.8750   -11.4140    -2.9180 H     1 <1>   0.1500 
 55 H       -8.4090   -13.5930    -3.6150 H     1 <1>   0.1500 
@<TRIPOS>BOND
  1   1   2  1   
  2   1   3  1   
  3   2   4  ar  
  4   2   5  ar  
  5   3  28  1   
  6   3  29  1   
  7   3  30  1   
  8   4   6  ar  
  9   4  31  1   
 10   5   7  ar  
 11   5  32  1   
 12   6   8  ar  
 13   6   9  ar  
 14   7   9  ar  
 15   7  33  1   
 16   8  10  ar  
 17   9  11  ar  
 18  10  12  1   
 19  10  13  ar  
 20  11  13  ar  
 21  11  14  1   
 22  12  15  1   
 23  12  34  1   
 24  13  35  1   
 25  14  36  1   
 26  14  37  1   
 27  14  38  1   
 28  15  16  1   
 29  15  39  1   
 30  15  40  1   
 31  16  17  1   
 32  16  18  1   
 33  16  41  1   
 34  17  19  1   
 35  17  42  1   
 36  17  43  1   
 37  18  20  1   
 38  18  44  1   
 39  18  45  1   
 40  19  21  1   
 41  19  22  1   
 42  19  46  1   
 43  20  21  1   
 44  20  47  1   
 45  20  48  1   
 46  21  49  1   
 47  21  50  1   
 48  22  23  1   
 49  22  51  1   
 50  22  52  1   
 51  23  24  1   
 52  23  25  2   
 53  24  26  1   
 54  25  27  1   
 55  25  53  1   
 56  26  27  2   
 57  26  54  1   
 58  27  55  1   
@<TRIPOS>SUBSTRUCTURE
  1 ****  18 GROUP 4 **** **** 0

# MOE 2024.06 (io_trps.svl 2023.06)
