@<TRIPOS>MOLECULE
NONAME
53 56 1 0 0 
SMALL
USER_CHARGES


@<TRIPOS>ATOM
  1 O        0.8450    -0.4430     1.1370 O.3   1 <1>  -0.5600 
  2 C        1.8780    -1.0380     0.3870 C.3   1 <1>   0.4240 
  3 C       -0.4680    -0.7300     0.7690 C.3   1 <1>   0.1200 
  4 C        1.5330    -2.4890    -0.0130 C.ar  1 <1>  -0.1440 
  5 C        2.1330    -0.1630    -0.8520 C.3   1 <1>  -0.1600 
  6 C        3.1070    -1.0180     1.3060 C.3   1 <1>  -0.1600 
  7 C       -0.7370    -2.2110     1.0140 C.3   1 <1>  -0.0160 
  8 C        0.2980    -3.0460     0.2860 C.ar  1 <1>  -0.1440 
  9 C        2.4590    -3.2710    -0.6910 C.ar  1 <1>  -0.1500 
 10 C        2.5630     1.2530    -0.4680 C.3   1 <1>   0.2090 
 11 C        3.5160     0.4100     1.6610 C.3   1 <1>   0.2090 
 12 C        0.0040    -4.3510    -0.0790 C.ar  1 <1>  -0.1500 
 13 C        2.1880    -4.5780    -1.0580 C.ar  1 <1>   0.0820 
 14 N        3.7720     1.1710     0.4030 N.pl3 1 <1>  -0.8380 
 15 C        0.9340    -5.1340    -0.7590 C.ar  1 <1>   0.0820 
 16 O        3.2110    -5.2100    -1.7010 O.3   1 <1>  -0.3630 
 17 C        4.9690     1.7340     0.0920 C.ar  1 <1>   0.1000 
 18 O        0.6380    -6.4090    -1.1480 O.3   1 <1>  -0.3630 
 19 C        3.3970    -6.6040    -1.5990 C.3   1 <1>   0.0400 
 20 C        5.0560     2.9720    -0.5580 C.ar  1 <1>  -0.1500 
 21 C        6.1790     1.1020     0.4070 C.ar  1 <1>  -0.1500 
 22 C       -0.6540    -6.9590    -1.0100 C.3   1 <1>   0.0400 
 23 C        6.2690     3.5330    -0.8670 C.ar  1 <1>   0.2180 
 24 C        7.3780     1.6810     0.0890 C.ar  1 <1>   0.2110 
 25 N        7.4130     2.8820    -0.5410 N.ar  1 <1>  -0.1790 
 26 C        6.3770     4.8770    -1.5670 C.3   1 <1>  -0.0970 
 27 H       -0.6100    -0.4770    -0.2670 H     1 <1>   0.0800 
 28 H       -1.1200    -0.1240     1.3730 H     1 <1>   0.0800 
 29 H        1.2540    -0.1280    -1.4660 H     1 <1>   0.0800 
 30 H        2.9140    -0.5990    -1.4450 H     1 <1>   0.0800 
 31 H        3.9380    -1.4990     0.8280 H     1 <1>   0.0800 
 32 H        2.8830    -1.5680     2.2010 H     1 <1>   0.0800 
 33 H       -1.7250    -2.4530     0.6670 H     1 <1>   0.0800 
 34 H       -0.6890    -2.4130     2.0700 H     1 <1>   0.0800 
 35 H        3.4240    -2.8760    -0.9480 H     1 <1>   0.1500 
 36 H        1.7690     1.7510     0.0640 H     1 <1>   0.0800 
 37 H        2.7760     1.8090    -1.3640 H     1 <1>   0.0800 
 38 H        4.3900     0.4010     2.2880 H     1 <1>   0.0800 
 39 H        2.7250     0.8910     2.2110 H     1 <1>   0.0800 
 40 H       -0.9610    -4.7400     0.1780 H     1 <1>   0.1500 
 41 H        4.4100    -6.8280    -1.8760 H     1 <1>   0.0800 
 42 H        2.7190    -7.0940    -2.2740 H     1 <1>   0.0800 
 43 H        3.2140    -6.9090    -0.5840 H     1 <1>   0.0800 
 44 H        4.1430     3.4850    -0.7970 H     1 <1>   0.1500 
 45 H        6.1500     0.1440     0.8940 H     1 <1>   0.1500 
 46 H       -0.6460    -7.9420    -1.4450 H     1 <1>   0.0800 
 47 H       -1.3570    -6.3350    -1.5320 H     1 <1>   0.0800 
 48 H       -0.8950    -7.0260     0.0360 H     1 <1>   0.0800 
 49 H        8.3080     1.1920     0.3300 H     1 <1>   0.1500 
 50 H        8.3150     3.3070    -0.7750 H     1 <1>   0.4570 
 51 H        5.3990     5.2800    -1.7640 H     1 <1>   0.0800 
 52 H        6.8900     4.7720    -2.5070 H     1 <1>   0.0800 
 53 H        6.9100     5.5800    -0.9510 H     1 <1>   0.0800 
@<TRIPOS>BOND
  1   1   2  1   
  2   1   3  1   
  3   2   4  1   
  4   2   5  1   
  5   2   6  1   
  6   3   7  1   
  7   3  27  1   
  8   3  28  1   
  9   4   8  ar  
 10   4   9  ar  
 11   5  10  1   
 12   5  29  1   
 13   5  30  1   
 14   6  11  1   
 15   6  31  1   
 16   6  32  1   
 17   7   8  1   
 18   7  33  1   
 19   7  34  1   
 20   8  12  ar  
 21   9  13  ar  
 22   9  35  1   
 23  10  14  1   
 24  10  36  1   
 25  10  37  1   
 26  11  14  1   
 27  11  38  1   
 28  11  39  1   
 29  12  15  ar  
 30  12  40  1   
 31  13  15  ar  
 32  13  16  1   
 33  14  17  1   
 34  15  18  1   
 35  16  19  1   
 36  17  20  ar  
 37  17  21  ar  
 38  18  22  1   
 39  19  41  1   
 40  19  42  1   
 41  19  43  1   
 42  20  23  ar  
 43  20  44  1   
 44  21  24  ar  
 45  21  45  1   
 46  22  46  1   
 47  22  47  1   
 48  22  48  1   
 49  23  25  ar  
 50  23  26  1   
 51  24  25  ar  
 52  24  49  1   
 53  25  50  1   
 54  26  51  1   
 55  26  52  1   
 56  26  53  1   
@<TRIPOS>SUBSTRUCTURE
  1 ****   2 GROUP 4 **** **** 0

# MOE 2024.06 (io_trps.svl 2023.06)
