@<TRIPOS>MOLECULE
NONAME
54 56 1 0 0 
SMALL
USER_CHARGES


@<TRIPOS>ATOM
  1 O        1.3080    -0.2510    -1.7970 O.2   1 <1>  -0.5700 
  2 C        1.8230    -0.6950    -0.8020 C.2   1 <1>   0.5690 
  3 N        2.4780     0.1290     0.0840 N.am  1 <1>  -0.6600 
  4 C        1.7320    -2.1940    -0.5910 C.3   1 <1>  -0.0990 
  5 C        3.3180    -0.3150     1.2390 C.3   1 <1>   0.1400 
  6 C        2.3930     1.6050    -0.0830 C.3   1 <1>   0.1400 
  7 C        0.5750    -2.5470     0.3490 C.3   1 <1>   0.0200 
  8 C        4.8300    -0.2390     0.9310 C.3   1 <1>   0.3430 
  9 C        3.4890     2.0990    -1.0330 C.3   1 <1>  -0.1600 
 10 C        0.5430    -4.0430     0.6140 C.2   1 <1>  -0.3320 
 11 N        5.2880     1.0820     0.3640 N.4   1 <1>  -0.9590 
 12 C        4.7730     1.2690    -1.0280 C.3   1 <1>   0.3430 
 13 N        0.1050    -4.9860    -0.2550 N.pl3 1 <1>   0.3140 
 14 C        0.9260    -4.6960     1.7320 C.2   1 <1>  -0.1500 
 15 C        6.7860     1.1330     0.4050 C.3   1 <1>   0.3430 
 16 N        0.2090    -6.2170     0.2690 N.2   1 <1>  -0.7070 
 17 C       -0.4420    -4.7950    -1.6060 C.3   1 <1>   0.0160 
 18 C        0.6970    -6.0370     1.4570 C.2   1 <1>   0.1390 
 19 C        7.3500     2.5450     0.1990 C.3   1 <1>   0.0200 
 20 C        8.8610     2.4920     0.3260 C.2   1 <1>   0.0060 
 21 N        9.5000     1.3880     0.5450 N.2   1 <1>  -0.5650 
 22 N        9.6690     3.5780     0.2230 N.pl3 1 <1>   0.0480 
 23 C       10.7910     1.7650     0.5890 C.2   1 <1>   0.0770 
 24 C       10.9100     3.0950     0.3940 C.2   1 <1>  -0.3020 
 25 C        9.3170     4.9900    -0.0200 C.3   1 <1>   0.0160 
 26 H        2.6570    -2.5840    -0.2130 H     1 <1>   0.0800 
 27 H        1.5630    -2.6570    -1.5460 H     1 <1>   0.0800 
 28 H        3.0700    -1.3230     1.5200 H     1 <1>   0.0800 
 29 H        3.0980     0.3000     2.0950 H     1 <1>   0.0800 
 30 H        2.4880     2.0840     0.8760 H     1 <1>   0.0800 
 31 H        1.4250     1.8740    -0.4780 H     1 <1>   0.0800 
 32 H       -0.3600    -2.2250    -0.0770 H     1 <1>   0.0800 
 33 H        0.6980    -2.0300     1.2840 H     1 <1>   0.0800 
 34 H        5.0780    -1.0270     0.2380 H     1 <1>   0.0800 
 35 H        5.3660    -0.4390     1.8450 H     1 <1>   0.0800 
 36 H        3.7090     3.1300    -0.8230 H     1 <1>   0.0800 
 37 H        3.0900     2.0700    -2.0330 H     1 <1>   0.0800 
 38 H        4.9170     1.8360     0.9530 H     1 <1>   0.4500 
 39 H        5.5090     1.7670    -1.6390 H     1 <1>   0.0800 
 40 H        4.5750     0.3080    -1.4750 H     1 <1>   0.0800 
 41 H        1.3220    -4.3060     2.6520 H     1 <1>   0.1500 
 42 H        7.2010     0.4770    -0.3440 H     1 <1>   0.0800 
 43 H        7.1330     0.7810     1.3640 H     1 <1>   0.0800 
 44 H       -1.0500    -3.9110    -1.6290 H     1 <1>   0.0800 
 45 H       -1.0410    -5.6490    -1.8630 H     1 <1>   0.0800 
 46 H        0.3680    -4.7050    -2.3040 H     1 <1>   0.0800 
 47 H        0.8950    -6.8440     2.1420 H     1 <1>   0.1500 
 48 H        6.9630     3.2080     0.9510 H     1 <1>   0.0800 
 49 H        7.1010     2.9150    -0.7770 H     1 <1>   0.0800 
 50 H       11.5810     1.0510     0.7600 H     1 <1>   0.1500 
 51 H       11.7960     3.7040     0.3700 H     1 <1>   0.1500 
 52 H        8.8040     5.0750    -0.9600 H     1 <1>   0.0800 
 53 H       10.2140     5.5820    -0.0520 H     1 <1>   0.0800 
 54 H        8.6880     5.3450     0.7750 H     1 <1>   0.0800 
@<TRIPOS>BOND
  1   1   2  2   
  2   2   3  am  
  3   2   4  1   
  4   3   5  1   
  5   3   6  1   
  6   4   7  1   
  7   4  26  1   
  8   4  27  1   
  9   5   8  1   
 10   5  28  1   
 11   5  29  1   
 12   6   9  1   
 13   6  30  1   
 14   6  31  1   
 15   7  10  1   
 16   7  32  1   
 17   7  33  1   
 18   8  11  1   
 19   8  34  1   
 20   8  35  1   
 21   9  12  1   
 22   9  36  1   
 23   9  37  1   
 24  10  13  1   
 25  10  14  2   
 26  11  12  1   
 27  11  15  1   
 28  11  38  1   
 29  12  39  1   
 30  12  40  1   
 31  13  16  1   
 32  13  17  1   
 33  14  18  1   
 34  14  41  1   
 35  15  19  1   
 36  15  42  1   
 37  15  43  1   
 38  16  18  2   
 39  17  44  1   
 40  17  45  1   
 41  17  46  1   
 42  18  47  1   
 43  19  20  1   
 44  19  48  1   
 45  19  49  1   
 46  20  21  2   
 47  20  22  1   
 48  21  23  1   
 49  22  24  1   
 50  22  25  1   
 51  23  24  2   
 52  23  50  1   
 53  24  51  1   
 54  25  52  1   
 55  25  53  1   
 56  25  54  1   
@<TRIPOS>SUBSTRUCTURE
  1 ****   8 GROUP 4 **** **** 0

# MOE 2024.06 (io_trps.svl 2023.06)
