@<TRIPOS>MOLECULE
NONAME
47 49 1 0 0 
SMALL
USER_CHARGES


@<TRIPOS>ATOM
  1 CL       0.4920     1.6740     0.9580 Cl    1 <1>  -0.1770 
  2 C        2.0760     2.2610     1.3940 C.ar  1 <1>   0.1770 
  3 C        2.5840     2.0150     2.6580 C.ar  1 <1>   0.1600 
  4 C        2.8110     2.9710     0.4740 C.ar  1 <1>  -0.1500 
  5 N        3.7780     2.4270     3.0620 N.ar  1 <1>  -0.6200 
  6 C        4.0650     3.4250     0.8680 C.ar  1 <1>   0.0860 
  7 C        4.4790     3.1040     2.1630 C.ar  1 <1>   0.1600 
  8 C        4.9260     4.1980    -0.0050 C.2   1 <1>   0.5440 
  9 O        6.1200     4.2950     0.2140 O.2   1 <1>  -0.5700 
 10 N        4.4390     4.9230    -1.0680 N.am  1 <1>  -0.6600 
 11 C        5.2210     4.9860    -2.3480 C.3   1 <1>   0.1400 
 12 C        3.5000     6.0500    -0.8320 C.3   1 <1>   0.1400 
 13 C        6.1450     6.2200    -2.4430 C.3   1 <1>   0.3430 
 14 C        4.1960     7.1610    -0.0300 C.3   1 <1>  -0.1600 
 15 N        6.4330     6.7860    -1.0900 N.4   1 <1>  -0.9590 
 16 C        5.4200     7.8050    -0.6950 C.3   1 <1>   0.3430 
 17 C        7.8350     7.2800    -0.9800 C.3   1 <1>   0.3430 
 18 C        8.3410     7.2030     0.4630 C.3   1 <1>   0.0200 
 19 C        9.7410     7.7790     0.5340 C.2   1 <1>   0.0060 
 20 N       10.2530     8.4830    -0.4230 N.2   1 <1>  -0.5650 
 21 N       10.5720     7.6130     1.5940 N.pl3 1 <1>   0.0480 
 22 C       11.4810     8.7960     0.0280 C.2   1 <1>   0.0770 
 23 C       11.6910     8.2730     1.2540 C.2   1 <1>  -0.3020 
 24 C       10.3450     6.8790     2.8530 C.3   1 <1>   0.0160 
 25 H        1.9840     1.4580     3.3570 H     1 <1>   0.1500 
 26 H        2.4200     3.1560    -0.5100 H     1 <1>   0.1500 
 27 H        5.4560     3.4330     2.4770 H     1 <1>   0.1500 
 28 H        4.5480     4.9710    -3.1870 H     1 <1>   0.0800 
 29 H        5.8320     4.1020    -2.4210 H     1 <1>   0.0800 
 30 H        2.6450     5.6940    -0.2810 H     1 <1>   0.0800 
 31 H        3.1420     6.4340    -1.7740 H     1 <1>   0.0800 
 32 H        5.6860     6.9700    -3.0640 H     1 <1>   0.0800 
 33 H        7.0620     5.9190    -2.9220 H     1 <1>   0.0800 
 34 H        4.4760     6.7850     0.9390 H     1 <1>   0.0800 
 35 H        3.4760     7.9400     0.1470 H     1 <1>   0.0800 
 36 H        6.3330     5.9650    -0.4530 H     1 <1>   0.4500 
 37 H        5.8600     8.4980     0.0040 H     1 <1>   0.0800 
 38 H        5.1140     8.3670    -1.5620 H     1 <1>   0.0800 
 39 H        7.9030     8.2970    -1.3330 H     1 <1>   0.0800 
 40 H        8.4890     6.6790    -1.5900 H     1 <1>   0.0800 
 41 H        8.3600     6.1760     0.7800 H     1 <1>   0.0800 
 42 H        7.7050     7.7710     1.1170 H     1 <1>   0.0800 
 43 H       12.1620     9.3890    -0.5610 H     1 <1>   0.1500 
 44 H       12.5600     8.3380     1.8840 H     1 <1>   0.1500 
 45 H        9.4310     7.2160     3.3060 H     1 <1>   0.0800 
 46 H       11.1620     7.0610     3.5270 H     1 <1>   0.0800 
 47 H       10.2830     5.8260     2.6460 H     1 <1>   0.0800 
@<TRIPOS>BOND
  1   1   2  1   
  2   2   3  ar  
  3   2   4  ar  
  4   3   5  ar  
  5   3  25  1   
  6   4   6  ar  
  7   4  26  1   
  8   5   7  ar  
  9   6   7  ar  
 10   6   8  1   
 11   7  27  1   
 12   8   9  2   
 13   8  10  am  
 14  10  11  1   
 15  10  12  1   
 16  11  13  1   
 17  11  28  1   
 18  11  29  1   
 19  12  14  1   
 20  12  30  1   
 21  12  31  1   
 22  13  15  1   
 23  13  32  1   
 24  13  33  1   
 25  14  16  1   
 26  14  34  1   
 27  14  35  1   
 28  15  16  1   
 29  15  17  1   
 30  15  36  1   
 31  16  37  1   
 32  16  38  1   
 33  17  18  1   
 34  17  39  1   
 35  17  40  1   
 36  18  19  1   
 37  18  41  1   
 38  18  42  1   
 39  19  20  2   
 40  19  21  1   
 41  20  22  1   
 42  21  23  1   
 43  21  24  1   
 44  22  23  2   
 45  22  43  1   
 46  23  44  1   
 47  24  45  1   
 48  24  46  1   
 49  24  47  1   
@<TRIPOS>SUBSTRUCTURE
  1 ****   9 GROUP 4 **** **** 0

# MOE 2024.06 (io_trps.svl 2023.06)
