@<TRIPOS>MOLECULE
NONAME
55 57 1 0 0 
SMALL
USER_CHARGES


@<TRIPOS>ATOM
  1 O        0.3060    -0.3510     0.3460 O.2   1 <1>  -0.5700 
  2 C        1.0520    -1.2850     0.4780 C.2   1 <1>   0.5690 
  3 N        0.7040    -2.3710     1.1980 N.am  1 <1>  -0.7300 
  4 C        2.4250    -1.2780    -0.1560 C.3   1 <1>  -0.0990 
  5 C        1.6080    -3.5090     1.4520 C.3   1 <1>   0.1400 
  6 C        2.7360    -2.6580    -0.7660 C.3   1 <1>  -0.0800 
  7 C        2.4180    -3.8450     0.1790 C.3   1 <1>  -0.0800 
  8 C        4.2070    -2.8050    -1.1870 C.3   1 <1>  -0.1600 
  9 C        3.7710    -4.5000     0.4830 C.3   1 <1>  -0.1600 
 10 C        4.6000    -4.2180    -0.7690 C.3   1 <1>   0.4230 
 11 N        6.0780    -4.4160    -0.6380 N.4   1 <1>  -0.9590 
 12 C        6.7280    -4.0390     0.6580 C.3   1 <1>   0.4860 
 13 C        6.4370    -5.8210    -0.9950 C.3   1 <1>   0.2630 
 14 C        6.8630    -2.5340     0.7460 C.ar  1 <1>  -0.1440 
 15 C        7.6850    -1.8600    -0.1450 C.ar  1 <1>  -0.1500 
 16 C        6.1670    -1.8130     1.7070 C.ar  1 <1>  -0.1500 
 17 C        7.7990    -0.4810    -0.1010 C.ar  1 <1>   0.0820 
 18 C        6.2780    -0.4340     1.7570 C.ar  1 <1>  -0.1500 
 19 O        8.6190     0.0790    -1.0240 O.3   1 <1>  -0.3620 
 20 C        7.0870     0.2340     0.8560 C.ar  1 <1>  -0.1500 
 21 C        9.0010     1.4430    -0.9880 C.3   1 <1>   0.1200 
 22 C       10.0510     1.6940     0.1120 C.3   1 <1>  -0.0800 
 23 C       10.4440     3.1760     0.1340 C.3   1 <1>  -0.2400 
 24 C       11.3040     0.8300    -0.0910 C.3   1 <1>  -0.2400 
 25 H       -0.2120    -2.3540     1.6550 H     1 <1>   0.3700 
 26 H        2.4610    -0.5180    -0.9160 H     1 <1>   0.0800 
 27 H        3.1370    -1.0260     0.6080 H     1 <1>   0.0800 
 28 H        2.2650    -3.2350     2.2600 H     1 <1>   0.0800 
 29 H        1.0330    -4.3660     1.7610 H     1 <1>   0.0800 
 30 H        2.1120    -2.7670    -1.6390 H     1 <1>   0.0800 
 31 H        1.8320    -4.5510    -0.3880 H     1 <1>   0.0800 
 32 H        4.7980    -2.0640    -0.6860 H     1 <1>   0.0800 
 33 H        4.3120    -2.6710    -2.2490 H     1 <1>   0.0800 
 34 H        3.6620    -5.5540     0.6650 H     1 <1>   0.0800 
 35 H        4.1910    -4.0170     1.3440 H     1 <1>   0.0800 
 36 H        4.2340    -4.8720    -1.5450 H     1 <1>   0.0800 
 37 H        6.5000    -3.7870    -1.3350 H     1 <1>   0.4500 
 38 H        6.1690    -4.4210     1.4950 H     1 <1>   0.0800 
 39 H        7.7180    -4.4640     0.7030 H     1 <1>   0.0800 
 40 H        6.0120    -6.5100    -0.2820 H     1 <1>   0.0800 
 41 H        7.5090    -5.9460    -1.0000 H     1 <1>   0.0800 
 42 H        6.0620    -6.0660    -1.9760 H     1 <1>   0.0800 
 43 H        8.2580    -2.3820    -0.8900 H     1 <1>   0.1500 
 44 H        5.5340    -2.3060     2.4240 H     1 <1>   0.1500 
 45 H        5.7360     0.1240     2.5020 H     1 <1>   0.1500 
 46 H        7.1520     1.3040     0.9170 H     1 <1>   0.1500 
 47 H        9.4240     1.6740    -1.9490 H     1 <1>   0.0800 
 48 H        8.1240     2.0500    -0.8550 H     1 <1>   0.0800 
 49 H        9.6200     1.4530     1.0680 H     1 <1>   0.0800 
 50 H       10.8920     3.4650    -0.8010 H     1 <1>   0.0800 
 51 H       11.1520     3.3620     0.9230 H     1 <1>   0.0800 
 52 H        9.5790     3.7910     0.3060 H     1 <1>   0.0800 
 53 H       11.7580     1.0370    -1.0440 H     1 <1>   0.0800 
 54 H       11.0500    -0.2140    -0.0540 H     1 <1>   0.0800 
 55 H       12.0240     1.0270     0.6830 H     1 <1>   0.0800 
@<TRIPOS>BOND
  1   1   2  2   
  2   2   3  am  
  3   2   4  1   
  4   3   5  1   
  5   3  25  1   
  6   4   6  1   
  7   4  26  1   
  8   4  27  1   
  9   5   7  1   
 10   5  28  1   
 11   5  29  1   
 12   6   7  1   
 13   6   8  1   
 14   6  30  1   
 15   7   9  1   
 16   7  31  1   
 17   8  10  1   
 18   8  32  1   
 19   8  33  1   
 20   9  10  1   
 21   9  34  1   
 22   9  35  1   
 23  10  11  1   
 24  10  36  1   
 25  11  12  1   
 26  11  13  1   
 27  11  37  1   
 28  12  14  1   
 29  12  38  1   
 30  12  39  1   
 31  13  40  1   
 32  13  41  1   
 33  13  42  1   
 34  14  15  ar  
 35  14  16  ar  
 36  15  17  ar  
 37  15  43  1   
 38  16  18  ar  
 39  16  44  1   
 40  17  19  1   
 41  17  20  ar  
 42  18  20  ar  
 43  18  45  1   
 44  19  21  1   
 45  20  46  1   
 46  21  22  1   
 47  21  47  1   
 48  21  48  1   
 49  22  23  1   
 50  22  24  1   
 51  22  49  1   
 52  23  50  1   
 53  23  51  1   
 54  23  52  1   
 55  24  53  1   
 56  24  54  1   
 57  24  55  1   
@<TRIPOS>SUBSTRUCTURE
  1 ****  14 GROUP 4 **** **** 0

# MOE 2024.06 (io_trps.svl 2023.06)
