@<TRIPOS>MOLECULE
NONAME
49 52 1 0 0 
SMALL
USER_CHARGES


@<TRIPOS>ATOM
  1 O        0.4570     1.2940     0.4690 O.2   1 <1>  -0.5700 
  2 C        0.1700     2.4160     0.1250 C.2   1 <1>   0.5690 
  3 N       -0.6680     3.2170     0.8540 N.am  1 <1>  -0.6600 
  4 C        0.7530     2.9390    -1.1890 C.3   1 <1>   0.1810 
  5 C       -1.0520     4.5850     0.3710 C.3   1 <1>   0.3640 
  6 C       -1.1860     2.8200     2.1960 C.3   1 <1>   0.0600 
  7 O        0.7820     4.3440    -1.2470 O.3   1 <1>  -0.5600 
  8 C       -2.5750     4.7840     0.4190 C.ar  1 <1>  -0.1430 
  9 C       -0.4790     4.9560    -1.0210 C.3   1 <1>   0.2610 
 10 C       -3.5120     3.9120    -0.1460 C.ar  1 <1>  -0.1430 
 11 C       -3.0320     5.9220     1.0750 C.ar  1 <1>  -0.1500 
 12 C       -0.3500     6.4770    -1.1260 C.2   1 <1>   0.5690 
 13 C       -4.8660     4.1990    -0.0330 C.ar  1 <1>  -0.1500 
 14 C       -3.1400     2.6320    -0.8880 C.3   1 <1>  -0.0960 
 15 C       -4.3820     6.1980     1.1790 C.ar  1 <1>  -0.1500 
 16 O       -1.3010     7.1420    -1.4610 O.2   1 <1>  -0.5700 
 17 N        0.8360     7.0660    -0.8350 N.am  1 <1>  -0.7300 
 18 C       -5.3020     5.3330     0.6240 C.ar  1 <1>  -0.1500 
 19 C        1.0980     8.5270    -0.8920 C.3   1 <1>   0.3210 
 20 C        2.3780     8.9140    -0.1510 C.2   1 <1>   0.3350 
 21 N        3.2200     8.1000     0.3580 N.2   1 <1>  -0.4100 
 22 N        2.7130    10.1870     0.0130 N.2   1 <1>  -0.5650 
 23 O        4.1660     8.8130     0.8910 O.3   1 <1>  -0.0190 
 24 C        3.8070    10.0490     0.6500 C.2   1 <1>   0.3930 
 25 C        4.7070    11.1720     1.1440 C.3   1 <1>  -0.0150 
 26 C        4.7710    12.4960     0.4430 C.3   1 <1>  -0.2000 
 27 C        5.9350    11.5530     0.3730 C.3   1 <1>  -0.2000 
 28 H        0.1730     2.5720    -2.0160 H     1 <1>   0.0800 
 29 H        1.7640     2.5880    -1.2910 H     1 <1>   0.0800 
 30 H       -0.6110     5.2740     1.0710 H     1 <1>   0.0800 
 31 H       -0.9300     3.5710     2.9230 H     1 <1>   0.0800 
 32 H       -0.7590     1.8820     2.5060 H     1 <1>   0.0800 
 33 H       -2.2560     2.7140     2.1610 H     1 <1>   0.0800 
 34 H       -1.1470     4.6310    -1.7960 H     1 <1>   0.0800 
 35 H       -2.3370     6.6180     1.5110 H     1 <1>   0.1500 
 36 H       -5.5980     3.5360    -0.4590 H     1 <1>   0.1500 
 37 H       -3.9800     2.2500    -1.4390 H     1 <1>   0.0800 
 38 H       -2.8340     1.8770    -0.1860 H     1 <1>   0.0800 
 39 H       -2.3470     2.8020    -1.5870 H     1 <1>   0.0800 
 40 H       -4.7140     7.0860     1.6870 H     1 <1>   0.1500 
 41 H        1.6560     6.4790    -0.6420 H     1 <1>   0.3700 
 42 H       -6.3550     5.5420     0.7010 H     1 <1>   0.1500 
 43 H        1.1870     8.8280    -1.9200 H     1 <1>   0.0800 
 44 H        0.2670     9.0540    -0.4580 H     1 <1>   0.0800 
 45 H        4.7740    11.1820     2.2170 H     1 <1>   0.1000 
 46 H        4.1660    12.6420    -0.4360 H     1 <1>   0.1000 
 47 H        4.8560    13.3890     1.0380 H     1 <1>   0.1000 
 48 H        6.8320    11.7920     0.9170 H     1 <1>   0.1000 
 49 H        6.1360    11.0540    -0.5600 H     1 <1>   0.1000 
@<TRIPOS>BOND
  1   1   2  2   
  2   2   3  am  
  3   2   4  1   
  4   3   5  1   
  5   3   6  1   
  6   4   7  1   
  7   4  28  1   
  8   4  29  1   
  9   5   8  1   
 10   5   9  1   
 11   5  30  1   
 12   6  31  1   
 13   6  32  1   
 14   6  33  1   
 15   7   9  1   
 16   8  10  ar  
 17   8  11  ar  
 18   9  12  1   
 19   9  34  1   
 20  10  13  ar  
 21  10  14  1   
 22  11  15  ar  
 23  11  35  1   
 24  12  16  2   
 25  12  17  am  
 26  13  18  ar  
 27  13  36  1   
 28  14  37  1   
 29  14  38  1   
 30  14  39  1   
 31  15  18  ar  
 32  15  40  1   
 33  17  19  1   
 34  17  41  1   
 35  18  42  1   
 36  19  20  1   
 37  19  43  1   
 38  19  44  1   
 39  20  21  2   
 40  20  22  1   
 41  21  23  1   
 42  22  24  2   
 43  23  24  1   
 44  24  25  1   
 45  25  26  1   
 46  25  27  1   
 47  25  45  1   
 48  26  27  1   
 49  26  46  1   
 50  26  47  1   
 51  27  48  1   
 52  27  49  1   
@<TRIPOS>SUBSTRUCTURE
  1 ****  12 GROUP 4 **** **** 0

# MOE 2024.06 (io_trps.svl 2023.06)
