@<TRIPOS>MOLECULE
NONAME
50 53 1 0 0 
SMALL
USER_CHARGES


@<TRIPOS>ATOM
  1 CL       2.8970    -1.0170     3.1690 Cl    1 <1>  -0.1770 
  2 C        2.8970    -2.1870     1.8750 C.ar  1 <1>   0.1770 
  3 C        1.6970    -2.5670     1.3040 C.ar  1 <1>  -0.1500 
  4 C        4.0980    -2.7160     1.4410 C.ar  1 <1>  -0.1500 
  5 C        1.7030    -3.4990     0.2800 C.ar  1 <1>  -0.1500 
  6 C        4.0970    -3.6470     0.4160 C.ar  1 <1>  -0.1500 
  7 C        2.8990    -4.0440    -0.1660 C.ar  1 <1>  -0.1430 
  8 C        2.8830    -5.0720    -1.2880 C.3   1 <1>   0.2840 
  9 N        2.2380    -6.3300    -0.8150 N.am  1 <1>  -0.6600 
 10 C        1.0520    -6.7550    -1.3550 C.2   1 <1>   0.5690 
 11 C        2.9490    -7.0250     0.3000 C.3   1 <1>   0.1400 
 12 O        0.4780    -6.0900    -2.1850 O.2   1 <1>  -0.5700 
 13 C        0.3490    -8.0480    -0.9640 C.3   1 <1>  -0.0990 
 14 C        3.4200    -8.4620    -0.0550 C.3   1 <1>   0.2800 
 15 C        1.1050    -9.0760    -0.1170 C.3   1 <1>   0.1200 
 16 O        2.3930    -9.2370    -0.6180 O.3   1 <1>  -0.5600 
 17 C        3.9070    -9.2150     1.2030 C.3   1 <1>  -0.1600 
 18 C        4.5110    -8.3890    -1.1410 C.3   1 <1>  -0.1600 
 19 C        5.4160    -9.0750     1.4080 C.3   1 <1>   0.2090 
 20 C        5.4370    -9.5980    -1.0880 C.3   1 <1>   0.2090 
 21 N        6.1510    -9.6070     0.2230 N.pl3 1 <1>  -0.8380 
 22 C        7.5410    -9.6270     0.2440 C.ar  1 <1>   0.4100 
 23 N        8.1410    -8.7250     1.0140 N.ar  1 <1>  -0.6200 
 24 C        8.2700   -10.5590    -0.5180 C.ar  1 <1>   0.1600 
 25 C        9.4600    -8.8100     0.9640 C.ar  1 <1>   0.1600 
 26 N        9.5870   -10.6420    -0.5740 N.ar  1 <1>  -0.6200 
 27 C       10.1600    -9.7310     0.1980 C.ar  1 <1>   0.1600 
 28 H        0.7760    -2.1390     1.6560 H     1 <1>   0.1500 
 29 H        5.0160    -2.4000     1.9020 H     1 <1>   0.1500 
 30 H        0.7740    -3.8060    -0.1740 H     1 <1>   0.1500 
 31 H        5.0320    -4.0590     0.0760 H     1 <1>   0.1500 
 32 H        3.8850    -5.2910    -1.6110 H     1 <1>   0.0800 
 33 H        2.3560    -4.6630    -2.1330 H     1 <1>   0.0800 
 34 H        2.3050    -7.0390     1.1600 H     1 <1>   0.0800 
 35 H        3.8130    -6.4540     0.5900 H     1 <1>   0.0800 
 36 H        0.0610    -8.5350    -1.8770 H     1 <1>   0.0800 
 37 H       -0.5590    -7.7870    -0.4550 H     1 <1>   0.0800 
 38 H        0.6120   -10.0300    -0.1940 H     1 <1>   0.0800 
 39 H        1.1360    -8.8040     0.9230 H     1 <1>   0.0800 
 40 H        3.6920   -10.2650     1.1080 H     1 <1>   0.0800 
 41 H        3.4010    -8.8570     2.0790 H     1 <1>   0.0800 
 42 H        5.1200    -7.5140    -1.0050 H     1 <1>   0.0800 
 43 H        4.0520    -8.3140    -2.1110 H     1 <1>   0.0800 
 44 H        5.7210    -9.6230     2.2840 H     1 <1>   0.0800 
 45 H        5.6720    -8.0390     1.5530 H     1 <1>   0.0800 
 46 H        6.1440    -9.5420    -1.8980 H     1 <1>   0.0800 
 47 H        4.8650   -10.5050    -1.1940 H     1 <1>   0.0800 
 48 H        7.7070   -11.2660    -1.0970 H     1 <1>   0.1500 
 49 H       10.0160    -8.1110     1.5630 H     1 <1>   0.1500 
 50 H       11.2350    -9.7180     0.2230 H     1 <1>   0.1500 
@<TRIPOS>BOND
  1   1   2  1   
  2   2   3  ar  
  3   2   4  ar  
  4   3   5  ar  
  5   3  28  1   
  6   4   6  ar  
  7   4  29  1   
  8   5   7  ar  
  9   5  30  1   
 10   6   7  ar  
 11   6  31  1   
 12   7   8  1   
 13   8   9  1   
 14   8  32  1   
 15   8  33  1   
 16   9  10  am  
 17   9  11  1   
 18  10  12  2   
 19  10  13  1   
 20  11  14  1   
 21  11  34  1   
 22  11  35  1   
 23  13  15  1   
 24  13  36  1   
 25  13  37  1   
 26  14  16  1   
 27  14  17  1   
 28  14  18  1   
 29  15  16  1   
 30  15  38  1   
 31  15  39  1   
 32  17  19  1   
 33  17  40  1   
 34  17  41  1   
 35  18  20  1   
 36  18  42  1   
 37  18  43  1   
 38  19  21  1   
 39  19  44  1   
 40  19  45  1   
 41  20  21  1   
 42  20  46  1   
 43  20  47  1   
 44  21  22  1   
 45  22  23  ar  
 46  22  24  ar  
 47  23  25  ar  
 48  24  26  ar  
 49  24  48  1   
 50  25  27  ar  
 51  25  49  1   
 52  26  27  ar  
 53  27  50  1   
@<TRIPOS>SUBSTRUCTURE
  1 ****  11 GROUP 4 **** **** 0

# MOE 2024.06 (io_trps.svl 2023.06)
