@<TRIPOS>MOLECULE
NONAME
52 56 1 0 0 
SMALL
USER_CHARGES


@<TRIPOS>ATOM
  1 O       -1.9670     0.8210    -1.2370 O.2   1 <1>  -0.5700 
  2 C       -1.5840     0.5770    -0.1030 C.2   1 <1>   0.7160 
  3 N       -1.7010    -0.7060     0.3460 N.am  1 <1>  -0.7300 
  4 C       -1.0380     1.5900     0.7900 C.2   1 <1>   0.2030 
  5 C       -2.2670    -1.8560    -0.3910 C.3   1 <1>   0.2200 
  6 N       -0.7000     1.3680     2.0530 N.2   1 <1>  -0.7070 
  7 C       -0.7910     2.9350     0.4640 C.2   1 <1>  -0.1810 
  8 C       -3.6760    -2.1780     0.0850 C.3   1 <1>  -0.0800 
  9 C       -1.5310    -3.1270     0.0130 C.3   1 <1>   0.1200 
 10 N       -0.2510     2.5450     2.5180 N.pl3 1 <1>   0.3000 
 11 C       -0.3040     3.5050     1.5780 C.2   1 <1>  -0.3320 
 12 C       -1.0020     3.6870    -0.8390 C.3   1 <1>   0.0210 
 13 C       -3.4320    -3.0740     1.3030 C.3   1 <1>   0.1200 
 14 C       -4.5850    -0.9660     0.3720 C.3   1 <1>  -0.0160 
 15 O       -2.1160    -3.5370     1.2120 O.3   1 <1>  -0.5600 
 16 C        0.1100     4.9570     1.7220 C.3   1 <1>   0.0200 
 17 C       -0.2540     5.0340    -0.8080 C.3   1 <1>  -0.1600 
 18 C       -5.9990    -1.4150     0.7250 C.ar  1 <1>  -0.1430 
 19 C       -0.4400     5.7700     0.5350 C.3   1 <1>  -0.1600 
 20 C       -6.9290    -1.8320    -0.2570 C.ar  1 <1>   0.0000 
 21 C       -6.4060    -1.4330     2.0260 C.ar  1 <1>  -0.1500 
 22 C       -8.2050    -2.2580     0.1860 C.ar  1 <1>   0.3100 
 23 C       -6.6710    -1.8500    -1.6480 C.ar  1 <1>  -0.1500 
 24 C       -7.6960    -1.8640     2.3570 C.ar  1 <1>   0.1600 
 25 N       -8.5730    -2.2680     1.4920 N.ar  1 <1>  -0.6200 
 26 C       -9.1440    -2.6910    -0.7640 C.ar  1 <1>  -0.1500 
 27 C       -7.6090    -2.2760    -2.5480 C.ar  1 <1>  -0.1500 
 28 C       -8.8610    -2.7050    -2.1030 C.ar  1 <1>  -0.1500 
 29 H       -1.4050    -0.8790     1.3120 H     1 <1>   0.3700 
 30 H       -2.2190    -1.6820    -1.4530 H     1 <1>   0.0800 
 31 H       -4.1430    -2.7880    -0.6670 H     1 <1>   0.0800 
 32 H       -0.4770    -2.9700     0.1570 H     1 <1>   0.0800 
 33 H       -1.6920    -3.9050    -0.7130 H     1 <1>   0.0800 
 34 H        0.0860     2.6670     3.4810 H     1 <1>   0.2700 
 35 H       -0.6490     3.0980    -1.6680 H     1 <1>   0.0800 
 36 H       -2.0560     3.8560    -0.9720 H     1 <1>   0.0800 
 37 H       -4.1020    -3.9160     1.3220 H     1 <1>   0.0800 
 38 H       -3.5150    -2.5220     2.2230 H     1 <1>   0.0800 
 39 H       -4.6090    -0.3090    -0.4800 H     1 <1>   0.0800 
 40 H       -4.1820    -0.3950     1.1900 H     1 <1>   0.0800 
 41 H       -0.2660     5.3660     2.6430 H     1 <1>   0.0800 
 42 H        1.1840     5.0150     1.7330 H     1 <1>   0.0800 
 43 H        0.7950     4.8500    -0.9610 H     1 <1>   0.0800 
 44 H       -0.6020     5.6520    -1.6170 H     1 <1>   0.0800 
 45 H       -1.4910     5.9430     0.6900 H     1 <1>   0.0800 
 46 H        0.0500     6.7270     0.4990 H     1 <1>   0.0800 
 47 H       -5.7570    -1.1220     2.8240 H     1 <1>   0.1500 
 48 H       -5.7170    -1.5180    -2.0120 H     1 <1>   0.1500 
 49 H       -7.9760    -1.8620     3.3960 H     1 <1>   0.1500 
 50 H      -10.1020    -3.0140    -0.3990 H     1 <1>   0.1500 
 51 H       -7.3990    -2.2850    -3.6040 H     1 <1>   0.1500 
 52 H       -9.5910    -3.0390    -2.8190 H     1 <1>   0.1500 
@<TRIPOS>BOND
  1   1   2  2   
  2   2   3  am  
  3   2   4  1   
  4   3   5  1   
  5   3  29  1   
  6   4   6  2   
  7   4   7  1   
  8   5   8  1   
  9   5   9  1   
 10   5  30  1   
 11   6  10  1   
 12   7  11  2   
 13   7  12  1   
 14   8  13  1   
 15   8  14  1   
 16   8  31  1   
 17   9  15  1   
 18   9  32  1   
 19   9  33  1   
 20  10  11  1   
 21  10  34  1   
 22  11  16  1   
 23  12  17  1   
 24  12  35  1   
 25  12  36  1   
 26  13  15  1   
 27  13  37  1   
 28  13  38  1   
 29  14  18  1   
 30  14  39  1   
 31  14  40  1   
 32  16  19  1   
 33  16  41  1   
 34  16  42  1   
 35  17  19  1   
 36  17  43  1   
 37  17  44  1   
 38  18  20  ar  
 39  18  21  ar  
 40  19  45  1   
 41  19  46  1   
 42  20  22  ar  
 43  20  23  ar  
 44  21  24  ar  
 45  21  47  1   
 46  22  25  ar  
 47  22  26  ar  
 48  23  27  ar  
 49  23  48  1   
 50  24  25  ar  
 51  24  49  1   
 52  26  28  ar  
 53  26  50  1   
 54  27  28  ar  
 55  27  51  1   
 56  28  52  1   
@<TRIPOS>SUBSTRUCTURE
  1 ****  14 GROUP 4 **** **** 0

# MOE 2024.06 (io_trps.svl 2023.06)
