@<TRIPOS>MOLECULE
NONAME
48 51 1 0 0 
SMALL
USER_CHARGES


@<TRIPOS>ATOM
  1 O       -0.1730    -0.9080    -1.1170 O.2   1 <1>  -0.5700 
  2 C        0.9630    -1.2670    -0.8510 C.2   1 <1>   0.5440 
  3 N        1.5290    -2.3110    -1.5440 N.am  1 <1>  -0.4200 
  4 C        1.7390    -0.6440     0.1840 C.ar  1 <1>   0.0860 
  5 C        2.7920    -2.7420    -1.2160 C.2   1 <1>   0.4500 
  6 C        0.7840    -3.0200    -2.6280 C.3   1 <1>   0.2010 
  7 C        3.0180    -1.1590     0.4270 C.ar  1 <1>   0.1790 
  8 C        1.2860     0.4320     0.9530 C.ar  1 <1>  -0.1500 
  9 N        3.5170    -2.2220    -0.3010 N.2   1 <1>  -0.6290 
 10 C        0.4630    -4.4640    -2.2550 C.2   1 <1>   0.5690 
 11 C        3.8050    -0.5930     1.4230 C.ar  1 <1>  -0.1500 
 12 C        2.0780     0.9840     1.9380 C.ar  1 <1>  -0.1500 
 13 O        1.1390    -5.3310    -2.7600 O.2   1 <1>  -0.5700 
 14 N       -0.5470    -4.7640    -1.3810 N.am  1 <1>  -0.6600 
 15 C        3.3450     0.4690     2.1750 C.ar  1 <1>  -0.1500 
 16 C       -1.4240    -3.7970    -0.6710 C.3   1 <1>   0.1400 
 17 C       -0.8730    -6.1560    -0.9860 C.3   1 <1>   0.1400 
 18 C       -2.4830    -4.6620     0.0110 C.3   1 <1>   0.2000 
 19 C       -1.8260    -6.0260     0.2030 C.3   1 <1>  -0.0800 
 20 O       -2.8650    -4.1360     1.2350 O.3   1 <1>  -0.6800 
 21 C       -2.8390    -7.1750     0.3090 C.3   1 <1>   0.0210 
 22 C       -2.1350    -8.5160     0.3740 C.2   1 <1>   0.1080 
 23 N       -1.3500    -8.8520     1.3500 N.2   1 <1>  -0.7070 
 24 C       -2.2350    -9.5160    -0.5880 C.2   1 <1>  -0.1500 
 25 N       -0.9240   -10.0890     1.0340 N.pl3 1 <1>   0.3000 
 26 C       -1.4450   -10.5120    -0.1370 C.2   1 <1>  -0.3320 
 27 C       -1.1500   -11.8630    -0.7630 C.3   1 <1>  -0.0600 
 28 H        3.1760    -3.5740    -1.7830 H     1 <1>   0.0600 
 29 H       -0.1290    -2.5100    -2.8670 H     1 <1>   0.0800 
 30 H        1.3910    -3.0250    -3.5150 H     1 <1>   0.0800 
 31 H        0.3030     0.8300     0.7660 H     1 <1>   0.1500 
 32 H        4.7850    -1.0000     1.5970 H     1 <1>   0.1500 
 33 H        1.7190     1.8130     2.5240 H     1 <1>   0.1500 
 34 H        3.9640     0.8980     2.9440 H     1 <1>   0.1500 
 35 H       -0.8450    -3.2640     0.0620 H     1 <1>   0.0800 
 36 H       -1.8790    -3.1070    -1.3610 H     1 <1>   0.0800 
 37 H       -1.3520    -6.6510    -1.8140 H     1 <1>   0.0800 
 38 H        0.0170    -6.7000    -0.7160 H     1 <1>   0.0800 
 39 H       -3.3550    -4.7280    -0.6170 H     1 <1>   0.0800 
 40 H       -1.2180    -6.0130     1.0910 H     1 <1>   0.0800 
 41 H       -2.1210    -4.1720     1.8670 H     1 <1>   0.4000 
 42 H       -3.5040    -7.1640    -0.5350 H     1 <1>   0.0800 
 43 H       -3.4290    -7.0520     1.2000 H     1 <1>   0.0800 
 44 H       -2.8210    -9.4760    -1.4880 H     1 <1>   0.1500 
 45 H       -0.2810   -10.6160     1.6370 H     1 <1>   0.2700 
 46 H       -1.6820   -11.9640    -1.6920 H     1 <1>   0.0800 
 47 H       -1.4600   -12.6540    -0.1030 H     1 <1>   0.0800 
 48 H       -0.0970   -11.9600    -0.9590 H     1 <1>   0.0800 
@<TRIPOS>BOND
  1   1   2  2   
  2   2   3  am  
  3   2   4  1   
  4   3   5  1   
  5   3   6  1   
  6   4   7  ar  
  7   4   8  ar  
  8   5   9  2   
  9   5  28  1   
 10   6  10  1   
 11   6  29  1   
 12   6  30  1   
 13   7   9  1   
 14   7  11  ar  
 15   8  12  ar  
 16   8  31  1   
 17  10  13  2   
 18  10  14  am  
 19  11  15  ar  
 20  11  32  1   
 21  12  15  ar  
 22  12  33  1   
 23  14  16  1   
 24  14  17  1   
 25  15  34  1   
 26  16  18  1   
 27  16  35  1   
 28  16  36  1   
 29  17  19  1   
 30  17  37  1   
 31  17  38  1   
 32  18  19  1   
 33  18  20  1   
 34  18  39  1   
 35  19  21  1   
 36  19  40  1   
 37  20  41  1   
 38  21  22  1   
 39  21  42  1   
 40  21  43  1   
 41  22  23  2   
 42  22  24  1   
 43  23  25  1   
 44  24  26  2   
 45  24  44  1   
 46  25  26  1   
 47  25  45  1   
 48  26  27  1   
 49  27  46  1   
 50  27  47  1   
 51  27  48  1   
@<TRIPOS>SUBSTRUCTURE
  1 ****  14 GROUP 4 **** **** 0

# MOE 2024.06 (io_trps.svl 2023.06)
