@<TRIPOS>MOLECULE
NONAME
36 37 1 0 0 
SMALL
USER_CHARGES


@<TRIPOS>ATOM
  1 S        0.6450    -1.8690    -1.9210 S.3   1 <1>  -0.0800 
  2 C       -0.5760    -1.7540    -0.6640 C.2   1 <1>  -0.1400 
  3 C        1.9380    -1.7190    -0.7440 C.2   1 <1>  -0.1100 
  4 C        0.0070    -1.6150     0.5430 C.2   1 <1>  -0.1500 
  5 C       -2.0220    -1.8330    -1.1180 C.3   1 <1>   0.2900 
  6 C        1.4370    -1.5940     0.4980 C.2   1 <1>  -0.1500 
  7 N       -2.9470    -1.4150    -0.0360 N.3   1 <1>  -0.8100 
  8 C       -4.1870    -2.2130    -0.0550 C.3   1 <1>   0.2480 
  9 C       -3.2680     0.0310    -0.0970 C.3   1 <1>   0.1100 
 10 C       -3.9560    -3.6650     0.3670 C.2   1 <1>  -0.0380 
 11 C       -2.0800     0.9250     0.2780 C.3   1 <1>   0.1200 
 12 N       -4.8730    -4.6150    -0.0130 N.pl3 1 <1>  -0.5500 
 13 C       -2.9110    -4.1050     1.1070 C.2   1 <1>  -0.1360 
 14 O       -2.4820     2.2540     0.2430 O.3   1 <1>  -0.6800 
 15 C       -4.7240    -5.9260     0.3350 C.2   1 <1>   0.4390 
 16 C       -2.7990    -5.4780     1.4460 C.2   1 <1>   0.7670 
 17 N       -3.7470    -6.3740     1.0280 N.2   1 <1>  -0.6610 
 18 C       -5.7940    -6.8750    -0.1450 C.3   1 <1>  -0.1790 
 19 O       -1.8630    -5.8850     2.1150 O.2   1 <1>  -0.5700 
 20 H        2.9480    -1.7430    -1.1130 H     1 <1>   0.1500 
 21 H       -0.5180    -1.5280     1.4780 H     1 <1>   0.1500 
 22 H       -2.2110    -2.8520    -1.4080 H     1 <1>   0.0800 
 23 H       -2.1650    -1.2160    -1.9890 H     1 <1>   0.0800 
 24 H        2.0150    -1.4890     1.3990 H     1 <1>   0.1500 
 25 H       -4.6120    -2.1840    -1.0440 H     1 <1>   0.0800 
 26 H       -4.9010    -1.7860     0.6280 H     1 <1>   0.0800 
 27 H       -4.0540     0.2430     0.6080 H     1 <1>   0.0800 
 28 H       -3.6190     0.2850    -1.0830 H     1 <1>   0.0800 
 29 H       -1.2570     0.8090    -0.4060 H     1 <1>   0.0800 
 30 H       -1.7550     0.7070     1.2800 H     1 <1>   0.0800 
 31 H       -5.6970    -4.3620    -0.5620 H     1 <1>   0.4000 
 32 H       -2.1360    -3.4590     1.4680 H     1 <1>   0.1500 
 33 H       -2.5580     2.5730    -0.6770 H     1 <1>   0.4000 
 34 H       -6.7480    -6.5860     0.2540 H     1 <1>   0.0800 
 35 H       -5.5730    -7.8740     0.1860 H     1 <1>   0.0800 
 36 H       -5.8350    -6.8710    -1.2180 H     1 <1>   0.0800 
@<TRIPOS>BOND
  1   1   2  1   
  2   1   3  1   
  3   2   4  2   
  4   2   5  1   
  5   3   6  2   
  6   3  20  1   
  7   4   6  1   
  8   4  21  1   
  9   5   7  1   
 10   5  22  1   
 11   5  23  1   
 12   6  24  1   
 13   7   8  1   
 14   7   9  1   
 15   8  10  1   
 16   8  25  1   
 17   8  26  1   
 18   9  11  1   
 19   9  27  1   
 20   9  28  1   
 21  10  12  1   
 22  10  13  2   
 23  11  14  1   
 24  11  29  1   
 25  11  30  1   
 26  12  15  1   
 27  12  31  1   
 28  13  16  1   
 29  13  32  1   
 30  14  33  1   
 31  15  17  2   
 32  15  18  1   
 33  16  17  1   
 34  16  19  2   
 35  18  34  1   
 36  18  35  1   
 37  18  36  1   
@<TRIPOS>SUBSTRUCTURE
  1 ****   7 GROUP 4 **** **** 0

# MOE 2024.06 (io_trps.svl 2023.06)
