@<TRIPOS>MOLECULE
NONAME
48 50 1 0 0 
SMALL
USER_CHARGES


@<TRIPOS>ATOM
  1 O       -2.9660     0.7920     2.5440 O.2   1 <1>  -0.5700 
  2 C       -2.4140     1.2840     1.5740 C.2   1 <1>   0.7150 
  3 N       -2.0590     0.4490     0.5280 N.am  1 <1>  -0.6600 
  4 C       -2.2020     2.7190     1.5820 C.2   1 <1>   0.0550 
  5 C       -2.0630    -1.0360     0.7170 C.3   1 <1>   0.4000 
  6 C       -1.8630     0.9230    -0.8710 C.3   1 <1>   0.1400 
  7 O       -1.2530     3.3210     0.8690 O.3   1 <1>  -0.2800 
  8 C       -2.8580     3.6740     2.2980 C.2   1 <1>  -0.1500 
  9 C       -0.6330    -1.5740     0.7060 C.2   1 <1>  -0.0400 
 10 C       -2.9290    -1.7550    -0.3380 C.3   1 <1>  -0.1600 
 11 C       -3.2240     1.2220    -1.5090 C.3   1 <1>  -0.1600 
 12 C       -1.2860     4.6190     1.0930 C.2   1 <1>   0.1600 
 13 C       -2.2710     4.8960     1.9790 C.2   1 <1>  -0.1500 
 14 O       -0.4410    -2.8790     0.7890 O.3   1 <1>  -0.2800 
 15 C        0.5570    -0.9340     0.6320 C.2   1 <1>  -0.1500 
 16 C       -4.2370    -1.0360    -0.7220 C.3   1 <1>  -0.1600 
 17 C       -4.0430    -0.0290    -1.8690 C.3   1 <1>  -0.1600 
 18 C       -0.3590     5.4810     0.4310 C.1   1 <1>  -0.0200 
 19 C        0.8580    -3.0980     0.7660 C.2   1 <1>  -0.0100 
 20 C        1.5350    -1.9350     0.6690 C.2   1 <1>  -0.1500 
 21 C        0.4130     6.2030    -0.1190 C.1   1 <1>  -0.2000 
 22 C        1.3800     7.1030    -0.8020 C.3   1 <1>   0.4800 
 23 O        0.6430     7.9940    -1.5280 O.3   1 <1>  -0.6800 
 24 C        2.2530     6.3290    -1.7830 C.3   1 <1>  -0.2400 
 25 C        2.2070     7.9020     0.1970 C.3   1 <1>  -0.2400 
 26 H       -2.4770    -1.2810     1.6790 H     1 <1>   0.0800 
 27 H       -1.3420     0.1780    -1.4470 H     1 <1>   0.0800 
 28 H       -1.2520     1.8040    -0.8880 H     1 <1>   0.0800 
 29 H       -3.6720     3.5230     2.9860 H     1 <1>   0.1500 
 30 H       -3.1770    -2.7180     0.0710 H     1 <1>   0.0800 
 31 H       -2.3420    -1.9470    -1.2180 H     1 <1>   0.0800 
 32 H       -3.0540     1.7790    -2.4130 H     1 <1>   0.0800 
 33 H       -3.7950     1.8560    -0.8530 H     1 <1>   0.0800 
 34 H       -2.5550     5.8560     2.3700 H     1 <1>   0.1500 
 35 H        0.7460     0.1230     0.5630 H     1 <1>   0.1500 
 36 H       -4.6680    -0.5510     0.1390 H     1 <1>   0.0800 
 37 H       -4.9400    -1.7790    -1.0550 H     1 <1>   0.0800 
 38 H       -3.5740    -0.5300    -2.6980 H     1 <1>   0.0800 
 39 H       -5.0140     0.2930    -2.2060 H     1 <1>   0.0800 
 40 H        1.2150    -4.1110     0.8240 H     1 <1>   0.1500 
 41 H        2.5980    -1.7730     0.6290 H     1 <1>   0.1500 
 42 H       -0.0760     7.5020    -1.9620 H     1 <1>   0.4000 
 43 H        1.6440     5.7950    -2.4890 H     1 <1>   0.0800 
 44 H        2.8550     5.6170    -1.2490 H     1 <1>   0.0800 
 45 H        2.9060     7.0010    -2.3100 H     1 <1>   0.0800 
 46 H        1.5600     8.4640     0.8460 H     1 <1>   0.0800 
 47 H        2.8640     8.5780    -0.3200 H     1 <1>   0.0800 
 48 H        2.7990     7.2370     0.7980 H     1 <1>   0.0800 
@<TRIPOS>BOND
  1   1   2  2   
  2   2   3  am  
  3   2   4  1   
  4   3   5  1   
  5   3   6  1   
  6   4   7  1   
  7   4   8  2   
  8   5   9  1   
  9   5  10  1   
 10   5  26  1   
 11   6  11  1   
 12   6  27  1   
 13   6  28  1   
 14   7  12  1   
 15   8  13  1   
 16   8  29  1   
 17   9  14  1   
 18   9  15  2   
 19  10  16  1   
 20  10  30  1   
 21  10  31  1   
 22  11  17  1   
 23  11  32  1   
 24  11  33  1   
 25  12  13  2   
 26  12  18  1   
 27  13  34  1   
 28  14  19  1   
 29  15  20  1   
 30  15  35  1   
 31  16  17  1   
 32  16  36  1   
 33  16  37  1   
 34  17  38  1   
 35  17  39  1   
 36  18  21  3   
 37  19  20  2   
 38  19  40  1   
 39  20  41  1   
 40  21  22  1   
 41  22  23  1   
 42  22  24  1   
 43  22  25  1   
 44  23  42  1   
 45  24  43  1   
 46  24  44  1   
 47  24  45  1   
 48  25  46  1   
 49  25  47  1   
 50  25  48  1   
@<TRIPOS>SUBSTRUCTURE
  1 ****   7 GROUP 4 **** **** 0

# MOE 2024.06 (io_trps.svl 2023.06)
