@<TRIPOS>MOLECULE
NONAME
41 44 1 0 0 
SMALL
USER_CHARGES


@<TRIPOS>ATOM
  1 CL      -1.6210     4.0350     3.0260 Cl    1 <1>  -0.1770 
  2 C       -2.0400     3.1280     1.5910 C.ar  1 <1>   0.1770 
  3 C       -1.0490     2.5530     0.8030 C.ar  1 <1>  -0.1440 
  4 C       -3.3820     2.9960     1.2850 C.ar  1 <1>  -0.1500 
  5 C       -1.4340     1.8130    -0.3090 C.ar  1 <1>  -0.1500 
  6 C        0.4350     2.7170     1.1330 C.3   1 <1>   0.0450 
  7 C       -3.7530     2.2650     0.1720 C.ar  1 <1>   0.0820 
  8 C       -2.7740     1.6780    -0.6320 C.ar  1 <1>   0.0820 
  9 C        0.9560     4.1450     1.0010 C.2   1 <1>   0.5690 
 10 O       -5.0720     2.1250    -0.1130 O.3   1 <1>  -0.3630 
 11 O       -3.1080     0.9710    -1.7420 O.3   1 <1>  -0.3630 
 12 O        1.6310     4.5750     1.9050 O.2   1 <1>  -0.5700 
 13 N        0.7050     4.9030    -0.1100 N.am  1 <1>  -0.6600 
 14 C       -5.4230     1.1120    -1.0370 C.3   1 <1>   0.1200 
 15 C       -4.4370     1.1020    -2.2130 C.3   1 <1>   0.1200 
 16 C        1.1240     6.3290    -0.1890 C.3   1 <1>   0.4000 
 17 C        0.2140     4.4220    -1.4170 C.3   1 <1>   0.1400 
 18 C        0.3260     7.2610     0.7280 C.2   1 <1>   0.1980 
 19 C        0.9380     6.7060    -1.6640 C.3   1 <1>  -0.1600 
 20 C        0.8310     5.3840    -2.4220 C.3   1 <1>  -0.1600 
 21 S       -1.3930     6.9510     0.9250 S.3   1 <1>  -0.0800 
 22 N        0.7450     8.2800     1.3730 N.2   1 <1>  -0.5650 
 23 C       -1.4940     8.3190     1.9930 C.2   1 <1>  -0.1100 
 24 C       -0.2780     8.8740     2.0960 C.2   1 <1>   0.0770 
 25 H       -4.1290     3.4520     1.9080 H     1 <1>   0.1500 
 26 H       -0.7060     1.3370    -0.9400 H     1 <1>   0.1500 
 27 H        1.0310     2.0890     0.4990 H     1 <1>   0.0800 
 28 H        0.6000     2.3900     2.1430 H     1 <1>   0.0800 
 29 H       -6.4240     1.3060    -1.3770 H     1 <1>   0.0800 
 30 H       -5.4010     0.1680    -0.5220 H     1 <1>   0.0800 
 31 H       -4.6370     0.2770    -2.8730 H     1 <1>   0.0800 
 32 H       -4.5070     2.0220    -2.7660 H     1 <1>   0.0800 
 33 H        2.1660     6.3950     0.0720 H     1 <1>   0.0800 
 34 H       -0.8610     4.4920    -1.4370 H     1 <1>   0.0800 
 35 H        0.5210     3.4090    -1.6090 H     1 <1>   0.0800 
 36 H        1.7520     7.3140    -2.0140 H     1 <1>   0.0800 
 37 H        0.0240     7.2620    -1.7810 H     1 <1>   0.0800 
 38 H        0.2340     5.4680    -3.3130 H     1 <1>   0.0800 
 39 H        1.8130     5.0330    -2.6870 H     1 <1>   0.0800 
 40 H       -2.4480     8.5540     2.4270 H     1 <1>   0.1500 
 41 H       -0.0310     9.7370     2.6910 H     1 <1>   0.1500 
@<TRIPOS>BOND
  1   1   2  1   
  2   2   3  ar  
  3   2   4  ar  
  4   3   5  ar  
  5   3   6  1   
  6   4   7  ar  
  7   4  25  1   
  8   5   8  ar  
  9   5  26  1   
 10   6   9  1   
 11   6  27  1   
 12   6  28  1   
 13   7   8  ar  
 14   7  10  1   
 15   8  11  1   
 16   9  12  2   
 17   9  13  am  
 18  10  14  1   
 19  11  15  1   
 20  13  16  1   
 21  13  17  1   
 22  14  15  1   
 23  14  29  1   
 24  14  30  1   
 25  15  31  1   
 26  15  32  1   
 27  16  18  1   
 28  16  19  1   
 29  16  33  1   
 30  17  20  1   
 31  17  34  1   
 32  17  35  1   
 33  18  21  1   
 34  18  22  2   
 35  19  20  1   
 36  19  36  1   
 37  19  37  1   
 38  20  38  1   
 39  20  39  1   
 40  21  23  1   
 41  22  24  1   
 42  23  24  2   
 43  23  40  1   
 44  24  41  1   
@<TRIPOS>SUBSTRUCTURE
  1 ****   3 GROUP 4 **** **** 0

# MOE 2024.06 (io_trps.svl 2023.06)
