@<TRIPOS>MOLECULE
NONAME
57 60 1 0 0 
SMALL
USER_CHARGES


@<TRIPOS>ATOM
  1 O        0.4680     1.4350     1.4810 O.2   1 <1>  -0.5700 
  2 C        0.1980     2.6100     1.3780 C.2   1 <1>   0.5690 
  3 N       -1.1090     3.0420     1.4190 N.am  1 <1>  -0.6600 
  4 C        1.3600     3.5960     1.1880 C.3   1 <1>  -0.0190 
  5 C       -2.2280     2.0670     1.5960 C.3   1 <1>   0.1400 
  6 C       -1.5940     4.4300     1.1810 C.3   1 <1>   0.1400 
  7 C        1.5520     3.9440    -0.3020 C.3   1 <1>  -0.1600 
  8 C        2.6900     3.0710     1.7700 C.3   1 <1>  -0.1600 
  9 C       -3.0820     1.9970     0.3160 C.3   1 <1>   0.0000 
 10 C       -2.4600     4.4630    -0.0850 C.3   1 <1>  -0.1600 
 11 C        2.7140     4.9190    -0.5150 C.3   1 <1>   0.1400 
 12 C        3.8340     4.0620     1.5420 C.3   1 <1>   0.1400 
 13 C       -4.2120     0.9620     0.4810 C.3   1 <1>   0.2000 
 14 C       -3.5950     3.4230    -0.0360 C.3   1 <1>  -0.1600 
 15 C       -2.2980     1.3880    -0.8620 C.3   1 <1>  -0.1600 
 16 N        3.9500     4.3500     0.0860 N.am  1 <1>  -0.6600 
 17 O       -5.3250     1.4730     1.1240 O.3   1 <1>  -0.6800 
 18 C       -4.5810     0.4970    -0.9280 C.3   1 <1>  -0.1600 
 19 C       -3.3510     0.7870    -1.7990 C.3   1 <1>  -0.1600 
 20 C        5.0590     4.0900    -0.6870 C.2   1 <1>   0.5770 
 21 O        5.1160     4.4490    -1.8410 O.2   1 <1>  -0.5700 
 22 C        6.2600     3.3440    -0.1010 C.3   1 <1>   0.0530 
 23 C        7.3510     2.8710    -1.1060 C.3   1 <1>   0.0000 
 24 C        6.0020     1.8390     0.1870 C.3   1 <1>   0.0000 
 25 C        7.4670     1.5840    -0.2510 C.3   1 <1>   0.0000 
 26 H        1.1260     4.4930     1.7290 H     1 <1>   0.0800 
 27 H       -1.8480     1.0890     1.8370 H     1 <1>   0.0800 
 28 H       -2.8430     2.3840     2.4200 H     1 <1>   0.0800 
 29 H       -2.1820     4.7390     2.0290 H     1 <1>   0.0800 
 30 H       -0.7830     5.1250     1.0740 H     1 <1>   0.0800 
 31 H        0.6540     4.3780    -0.7010 H     1 <1>   0.0800 
 32 H        1.7490     3.0440    -0.8580 H     1 <1>   0.0800 
 33 H        2.9500     2.1340     1.3090 H     1 <1>   0.0800 
 34 H        2.5750     2.8930     2.8240 H     1 <1>   0.0800 
 35 H       -2.8850     5.4460    -0.1920 H     1 <1>   0.0800 
 36 H       -1.8350     4.2930    -0.9420 H     1 <1>   0.0800 
 37 H        2.4980     5.8640    -0.0470 H     1 <1>   0.0800 
 38 H        2.8450     5.0930    -1.5700 H     1 <1>   0.0800 
 39 H        4.7460     3.6580     1.9400 H     1 <1>   0.0800 
 40 H        3.6290     4.9810     2.0630 H     1 <1>   0.0800 
 41 H       -3.8570     0.1200     1.0510 H     1 <1>   0.0800 
 42 H       -4.1170     3.4170    -0.9770 H     1 <1>   0.0800 
 43 H       -4.2880     3.7470     0.7200 H     1 <1>   0.0800 
 44 H       -1.6650     2.0930    -1.3680 H     1 <1>   0.0800 
 45 H       -1.6710     0.5920    -0.4950 H     1 <1>   0.0800 
 46 H       -5.7100     2.1890     0.5860 H     1 <1>   0.4000 
 47 H       -4.8050    -0.5550    -0.9210 H     1 <1>   0.0800 
 48 H       -5.4280     1.0410    -1.3090 H     1 <1>   0.0800 
 49 H       -2.9790    -0.1070    -2.2700 H     1 <1>   0.0800 
 50 H       -3.6080     1.5000    -2.5640 H     1 <1>   0.0800 
 51 H        6.7000     3.8500     0.7420 H     1 <1>   0.0000 
 52 H        6.9770     2.6630    -2.0940 H     1 <1>   0.0000 
 53 H        8.2400     3.4760    -1.1010 H     1 <1>   0.0000 
 54 H        5.8150     1.6150     1.2230 H     1 <1>   0.0000 
 55 H        5.2860     1.3970    -0.4850 H     1 <1>   0.0000 
 56 H        8.1670     1.6840     0.5610 H     1 <1>   0.0000 
 57 H        7.5990     0.6860    -0.8280 H     1 <1>   0.0000 
@<TRIPOS>BOND
  1   1   2  2   
  2   2   3  am  
  3   2   4  1   
  4   3   5  1   
  5   3   6  1   
  6   4   7  1   
  7   4   8  1   
  8   4  26  1   
  9   5   9  1   
 10   5  27  1   
 11   5  28  1   
 12   6  10  1   
 13   6  29  1   
 14   6  30  1   
 15   7  11  1   
 16   7  31  1   
 17   7  32  1   
 18   8  12  1   
 19   8  33  1   
 20   8  34  1   
 21   9  13  1   
 22   9  14  1   
 23   9  15  1   
 24  10  14  1   
 25  10  35  1   
 26  10  36  1   
 27  11  16  1   
 28  11  37  1   
 29  11  38  1   
 30  12  16  1   
 31  12  39  1   
 32  12  40  1   
 33  13  17  1   
 34  13  18  1   
 35  13  41  1   
 36  14  42  1   
 37  14  43  1   
 38  15  19  1   
 39  15  44  1   
 40  15  45  1   
 41  16  20  am  
 42  17  46  1   
 43  18  19  1   
 44  18  47  1   
 45  18  48  1   
 46  19  49  1   
 47  19  50  1   
 48  20  21  2   
 49  20  22  1   
 50  22  23  1   
 51  22  24  1   
 52  22  51  1   
 53  23  25  1   
 54  23  52  1   
 55  23  53  1   
 56  24  25  1   
 57  24  54  1   
 58  24  55  1   
 59  25  56  1   
 60  25  57  1   
@<TRIPOS>SUBSTRUCTURE
  1 ****   2 GROUP 4 **** **** 0

# MOE 2024.06 (io_trps.svl 2023.06)
