@<TRIPOS>MOLECULE
NONAME
48 50 1 0 0 
SMALL
USER_CHARGES


@<TRIPOS>ATOM
  1 F        0.0700    -2.3050    -1.8720 F     1 <1>  -0.1900 
  2 C       -0.7030    -3.1860    -1.2890 C.ar  1 <1>   0.1900 
  3 C       -0.2210    -4.4250    -0.8550 C.ar  1 <1>   0.0830 
  4 C       -2.0270    -2.8270    -1.1250 C.ar  1 <1>  -0.1500 
  5 O        1.0570    -4.8910    -0.9560 O.3   1 <1>  -0.3630 
  6 C       -1.1220    -5.2900    -0.2540 C.ar  1 <1>  -0.1500 
  7 C       -2.8980    -3.7140    -0.5190 C.ar  1 <1>  -0.1500 
  8 C        2.1170    -4.1190    -1.4780 C.3   1 <1>   0.0400 
  9 C       -2.4700    -4.9670    -0.0760 C.ar  1 <1>   0.0530 
 10 C       -3.3800    -5.9000     0.5460 C.2   1 <1>   0.0870 
 11 O       -2.9280    -6.8810     1.2940 O.3   1 <1>  -0.0190 
 12 C       -4.7290    -6.0270     0.5220 C.2   1 <1>  -0.2330 
 13 N       -3.8840    -7.6360     1.7730 N.2   1 <1>  -0.4100 
 14 C       -4.9790    -7.1210     1.3430 C.2   1 <1>   0.3720 
 15 C       -5.7230    -5.3170    -0.2020 C.2   1 <1>   1.0330 
 16 N       -6.2200    -7.6940     1.6610 N.pl3 1 <1>  -0.8210 
 17 O       -6.2580    -4.3050     0.2660 O.co2 1 <1>  -0.9000 
 18 O       -6.1090    -5.7710    -1.2940 O.co2 1 <1>  -0.9000 
 19 C       -7.1600    -7.9820     0.5130 C.3   1 <1>   0.2090 
 20 C       -6.9080    -6.8840     2.7050 C.3   1 <1>   0.1290 
 21 C       -6.4560    -8.6650    -0.6820 C.3   1 <1>   0.3430 
 22 N       -5.3790    -9.5700    -0.1850 N.4   1 <1>  -0.9590 
 23 C       -4.1600    -9.5550    -1.0080 C.3   1 <1>   0.3430 
 24 C       -5.7480   -10.9670     0.1020 C.3   1 <1>   0.3430 
 25 C       -3.3770   -10.7430    -0.4780 C.3   1 <1>  -0.1600 
 26 C       -4.4330   -11.7380     0.0180 C.3   1 <1>  -0.1600 
 27 H       -2.3740    -1.8690    -1.4650 H     1 <1>   0.1500 
 28 H       -0.7580    -6.2430     0.0830 H     1 <1>   0.1500 
 29 H       -3.9260    -3.4190    -0.3880 H     1 <1>   0.1500 
 30 H        3.0190    -4.7000    -1.4120 H     1 <1>   0.0800 
 31 H        2.2180    -3.2220    -0.8930 H     1 <1>   0.0800 
 32 H        1.9070    -3.8880    -2.5070 H     1 <1>   0.0800 
 33 H       -7.6430    -7.0790     0.1790 H     1 <1>   0.0800 
 34 H       -7.9330    -8.6400     0.8670 H     1 <1>   0.0800 
 35 H       -6.2360    -6.7000     3.5260 H     1 <1>   0.0800 
 36 H       -7.7700    -7.4090     3.0770 H     1 <1>   0.0800 
 37 H       -7.2180    -5.9340     2.2970 H     1 <1>   0.0800 
 38 H       -6.0150    -7.9010    -1.2970 H     1 <1>   0.0800 
 39 H       -7.1680    -9.1970    -1.2870 H     1 <1>   0.0800 
 40 H       -5.1160    -9.1270     0.7260 H     1 <1>   0.4500 
 41 H       -3.6190    -8.6280    -0.8930 H     1 <1>   0.0800 
 42 H       -4.4130    -9.7060    -2.0440 H     1 <1>   0.0800 
 43 H       -6.4320   -11.3300    -0.6470 H     1 <1>   0.0800 
 44 H       -6.1970   -11.0520     1.0780 H     1 <1>   0.0800 
 45 H       -2.7650   -10.4120     0.3440 H     1 <1>   0.0800 
 46 H       -2.7390   -11.1620    -1.2370 H     1 <1>   0.0800 
 47 H       -4.5430   -12.5580    -0.6700 H     1 <1>   0.0800 
 48 H       -4.1650   -12.1340     0.9820 H     1 <1>   0.0800 
@<TRIPOS>BOND
  1   1   2  1   
  2   2   3  ar  
  3   2   4  ar  
  4   3   5  1   
  5   3   6  ar  
  6   4   7  ar  
  7   4  27  1   
  8   5   8  1   
  9   6   9  ar  
 10   6  28  1   
 11   7   9  ar  
 12   7  29  1   
 13   8  30  1   
 14   8  31  1   
 15   8  32  1   
 16   9  10  1   
 17  10  11  1   
 18  10  12  2   
 19  11  13  1   
 20  12  14  1   
 21  12  15  1   
 22  13  14  2   
 23  14  16  1   
 24  15  17  ar  
 25  15  18  ar  
 26  16  19  1   
 27  16  20  1   
 28  19  21  1   
 29  19  33  1   
 30  19  34  1   
 31  20  35  1   
 32  20  36  1   
 33  20  37  1   
 34  21  22  1   
 35  21  38  1   
 36  21  39  1   
 37  22  23  1   
 38  22  24  1   
 39  22  40  1   
 40  23  25  1   
 41  23  41  1   
 42  23  42  1   
 43  24  26  1   
 44  24  43  1   
 45  24  44  1   
 46  25  26  1   
 47  25  45  1   
 48  25  46  1   
 49  26  47  1   
 50  26  48  1   
@<TRIPOS>SUBSTRUCTURE
  1 ****  10 GROUP 4 **** **** 0

# MOE 2024.06 (io_trps.svl 2023.06)
