@<TRIPOS>MOLECULE
NONAME
43 46 1 0 0 
SMALL
USER_CHARGES


@<TRIPOS>ATOM
  1 O        0.1110     0.0590    -0.1870 O.3   1 <1>  -0.5600 
  2 C        1.3530    -0.4660    -0.5740 C.3   1 <1>   0.3440 
  3 C       -0.0690     1.4190    -0.4550 C.3   1 <1>   0.2950 
  4 C        1.4100    -1.9510    -0.2450 C.ar  1 <1>  -0.1440 
  5 C        2.4910     0.2690     0.1740 C.3   1 <1>   0.3430 
  6 C       -1.4870     1.7890    -0.0180 C.3   1 <1>  -0.1950 
  7 C        0.9830     2.2540     0.3100 C.3   1 <1>   0.3430 
  8 C        2.1180    -2.8110    -1.0740 C.ar  1 <1>  -0.1500 
  9 C        0.7820    -2.4660     0.8820 C.ar  1 <1>  -0.1500 
 10 N        2.3860     1.7670     0.0680 N.4   1 <1>  -0.9590 
 11 C       -2.6610     1.5260    -0.9070 C.3   1 <1>  -0.2000 
 12 C       -2.2150     2.9380    -0.6470 C.3   1 <1>  -0.2000 
 13 C        2.2050    -4.1600    -0.7760 C.ar  1 <1>  -0.1500 
 14 C        0.8690    -3.8150     1.1800 C.ar  1 <1>  -0.1500 
 15 C        3.3810     2.5040     0.8900 C.3   1 <1>   0.5240 
 16 C        1.5820    -4.6620     0.3510 C.ar  1 <1>  -0.1500 
 17 C        3.5450     3.8760     0.2470 C.2   1 <1>   0.0460 
 18 N        3.4910     3.9970    -1.0980 N.2   1 <1>  -0.5650 
 19 C        3.7370     5.0800     0.8310 C.2   1 <1>  -0.3020 
 20 C        3.6640     5.2650    -1.3010 C.2   1 <1>   0.0360 
 21 N        3.8190     5.9810    -0.1670 N.pl3 1 <1>   0.0330 
 22 H        1.4550    -0.3320    -1.6370 H     1 <1>   0.0800 
 23 H        0.0310     1.5730    -1.5160 H     1 <1>   0.0800 
 24 H        3.4370    -0.0660    -0.2160 H     1 <1>   0.0800 
 25 H        2.4410    -0.0260     1.2090 H     1 <1>   0.0800 
 26 H       -1.6420     1.6330     1.0360 H     1 <1>   0.1000 
 27 H        0.7530     2.1960     1.3600 H     1 <1>   0.0800 
 28 H        0.8970     3.2860     0.0100 H     1 <1>   0.0800 
 29 H        2.6080    -2.4460    -1.9600 H     1 <1>   0.1500 
 30 H        0.2140    -1.8240     1.5340 H     1 <1>   0.1500 
 31 H        2.6400     2.0800    -0.8890 H     1 <1>   0.4500 
 32 H       -2.4950     1.0960    -1.8800 H     1 <1>   0.1000 
 33 H       -3.5770     1.1790    -0.4590 H     1 <1>   0.1000 
 34 H       -2.8450     3.5610    -0.0340 H     1 <1>   0.1000 
 35 H       -1.7800     3.4800    -1.4690 H     1 <1>   0.1000 
 36 H        2.7540    -4.8220    -1.4230 H     1 <1>   0.1500 
 37 H        0.3770    -4.2070     2.0530 H     1 <1>   0.1500 
 38 H        3.0580     2.5930     1.9130 H     1 <1>   0.0800 
 39 H        4.3310     1.9970     0.8590 H     1 <1>   0.0800 
 40 H        1.6470    -5.7120     0.5820 H     1 <1>   0.1500 
 41 H        3.8240     5.3520     1.8690 H     1 <1>   0.1500 
 42 H        3.6870     5.7290    -2.2740 H     1 <1>   0.1500 
 43 H        3.9730     6.9930    -0.0940 H     1 <1>   0.2700 
@<TRIPOS>BOND
  1   1   2  1   
  2   1   3  1   
  3   2   4  1   
  4   2   5  1   
  5   2  22  1   
  6   3   6  1   
  7   3   7  1   
  8   3  23  1   
  9   4   8  ar  
 10   4   9  ar  
 11   5  10  1   
 12   5  24  1   
 13   5  25  1   
 14   6  11  1   
 15   6  12  1   
 16   6  26  1   
 17   7  10  1   
 18   7  27  1   
 19   7  28  1   
 20   8  13  ar  
 21   8  29  1   
 22   9  14  ar  
 23   9  30  1   
 24  10  15  1   
 25  10  31  1   
 26  11  12  1   
 27  11  32  1   
 28  11  33  1   
 29  12  34  1   
 30  12  35  1   
 31  13  16  ar  
 32  13  36  1   
 33  14  16  ar  
 34  14  37  1   
 35  15  17  1   
 36  15  38  1   
 37  15  39  1   
 38  16  40  1   
 39  17  18  1   
 40  17  19  2   
 41  18  20  2   
 42  19  21  1   
 43  19  41  1   
 44  20  21  1   
 45  20  42  1   
 46  21  43  1   
@<TRIPOS>SUBSTRUCTURE
  1 ****   5 GROUP 4 **** **** 0

# MOE 2024.06 (io_trps.svl 2023.06)
