@<TRIPOS>MOLECULE
NONAME
56 58 1 0 0 
SMALL
USER_CHARGES


@<TRIPOS>ATOM
  1 O       -0.8180     0.8740     0.4590 O.2   1 <1>  -0.5700 
  2 C       -0.7040     2.0830     0.4200 C.2   1 <1>   0.7800 
  3 O        0.3470     2.6300    -0.1920 O.3   1 <1>  -0.4300 
  4 N       -1.6330     2.9290     0.9750 N.am  1 <1>  -0.6600 
  5 C        1.3460     1.8230    -0.7740 C.3   1 <1>   0.1200 
  6 C       -1.5350     4.4030     0.9100 C.3   1 <1>   0.1400 
  7 C       -2.8090     2.4120     1.7090 C.3   1 <1>   0.1400 
  8 C        2.4000     2.7410    -1.3840 C.3   1 <1>  -0.2400 
  9 C       -2.7840     4.9420     0.2110 C.3   1 <1>  -0.1600 
 10 C       -4.0770     2.9210     1.0240 C.3   1 <1>  -0.1600 
 11 C       -4.0790     4.4550     0.8880 C.3   1 <1>   0.4230 
 12 N       -5.2730     4.8950     0.0950 N.4   1 <1>  -0.9590 
 13 C       -6.5900     4.5020     0.6980 C.3   1 <1>   0.3430 
 14 C       -5.2830     6.3700    -0.1990 C.3   1 <1>   0.3430 
 15 C       -7.7080     4.5660    -0.3590 C.3   1 <1>   0.0000 
 16 C       -6.6430     6.8650    -0.7130 C.3   1 <1>  -0.1600 
 17 C       -9.0630     4.6320     0.3640 C.3   1 <1>   0.2000 
 18 C       -7.4850     5.7500    -1.3490 C.3   1 <1>  -0.1600 
 19 C       -7.8610     3.2580    -1.1520 C.3   1 <1>  -0.1600 
 20 O       -9.3010     5.9230     0.8290 O.3   1 <1>  -0.5600 
 21 C      -10.0940     4.1590    -0.6650 C.3   1 <1>  -0.1600 
 22 C       -9.3170     3.2560    -1.6350 C.3   1 <1>  -0.1600 
 23 C      -10.4400     6.0720     1.6210 C.3   1 <1>   0.0400 
 24 H        1.7730     1.2010    -0.0050 H     1 <1>   0.0800 
 25 H        0.8890     1.2030    -1.5280 H     1 <1>   0.0800 
 26 H       -1.4610     4.7960     1.9100 H     1 <1>   0.0800 
 27 H       -0.6550     4.7100     0.3690 H     1 <1>   0.0800 
 28 H       -2.8080     1.3340     1.7200 H     1 <1>   0.0800 
 29 H       -2.7640     2.7520     2.7300 H     1 <1>   0.0800 
 30 H        2.8380     3.3610    -0.6220 H     1 <1>   0.0800 
 31 H        1.9580     3.3600    -2.1440 H     1 <1>   0.0800 
 32 H        3.1780     2.1500    -1.8330 H     1 <1>   0.0800 
 33 H       -2.7560     4.6210    -0.8150 H     1 <1>   0.0800 
 34 H       -2.7190     6.0140     0.2380 H     1 <1>   0.0800 
 35 H       -4.9050     2.5860     1.6180 H     1 <1>   0.0800 
 36 H       -4.1400     2.4600     0.0540 H     1 <1>   0.0800 
 37 H       -4.1290     4.8850     1.8750 H     1 <1>   0.0800 
 38 H       -5.2270     4.4150    -0.8120 H     1 <1>   0.4500 
 39 H       -6.5570     3.5070     1.1050 H     1 <1>   0.0800 
 40 H       -6.8300     5.1840     1.4990 H     1 <1>   0.0800 
 41 H       -5.0290     6.9250     0.6910 H     1 <1>   0.0800 
 42 H       -4.5350     6.5840    -0.9450 H     1 <1>   0.0800 
 43 H       -7.1880     7.2950     0.1100 H     1 <1>   0.0800 
 44 H       -6.4850     7.6580    -1.4240 H     1 <1>   0.0800 
 45 H       -9.0640     3.9580     1.2060 H     1 <1>   0.0800 
 46 H       -6.9710     5.4100    -2.2310 H     1 <1>   0.0800 
 47 H       -8.4270     6.1580    -1.6770 H     1 <1>   0.0800 
 48 H       -7.1710     3.1660    -1.9730 H     1 <1>   0.0800 
 49 H       -7.7210     2.4130    -0.4970 H     1 <1>   0.0800 
 50 H      -10.8890     3.6150    -0.1860 H     1 <1>   0.0800 
 51 H      -10.5040     4.9980    -1.2010 H     1 <1>   0.0800 
 52 H       -9.7190     2.2560    -1.6510 H     1 <1>   0.0800 
 53 H       -9.3770     3.6640    -2.6300 H     1 <1>   0.0800 
 54 H      -10.4800     7.0910     1.9630 H     1 <1>   0.0800 
 55 H      -10.3810     5.4090     2.4670 H     1 <1>   0.0800 
 56 H      -11.3180     5.8590     1.0350 H     1 <1>   0.0800 
@<TRIPOS>BOND
  1   1   2  2   
  2   2   3  1   
  3   2   4  am  
  4   3   5  1   
  5   4   6  1   
  6   4   7  1   
  7   5   8  1   
  8   5  24  1   
  9   5  25  1   
 10   6   9  1   
 11   6  26  1   
 12   6  27  1   
 13   7  10  1   
 14   7  28  1   
 15   7  29  1   
 16   8  30  1   
 17   8  31  1   
 18   8  32  1   
 19   9  11  1   
 20   9  33  1   
 21   9  34  1   
 22  10  11  1   
 23  10  35  1   
 24  10  36  1   
 25  11  12  1   
 26  11  37  1   
 27  12  13  1   
 28  12  14  1   
 29  12  38  1   
 30  13  15  1   
 31  13  39  1   
 32  13  40  1   
 33  14  16  1   
 34  14  41  1   
 35  14  42  1   
 36  15  17  1   
 37  15  18  1   
 38  15  19  1   
 39  16  18  1   
 40  16  43  1   
 41  16  44  1   
 42  17  20  1   
 43  17  21  1   
 44  17  45  1   
 45  18  46  1   
 46  18  47  1   
 47  19  22  1   
 48  19  48  1   
 49  19  49  1   
 50  20  23  1   
 51  21  22  1   
 52  21  50  1   
 53  21  51  1   
 54  22  52  1   
 55  22  53  1   
 56  23  54  1   
 57  23  55  1   
 58  23  56  1   
@<TRIPOS>SUBSTRUCTURE
  1 ****  12 GROUP 4 **** **** 0

# MOE 2024.06 (io_trps.svl 2023.06)
