@<TRIPOS>MOLECULE
NONAME
45 46 1 0 0 
SMALL
USER_CHARGES


@<TRIPOS>ATOM
  1 N       -2.5300     0.5070    -1.9180 N.ar  1 <1>  -0.6200 
  2 C       -2.1030     0.7420    -0.6900 C.ar  1 <1>   0.4100 
  3 C       -3.1380    -0.6420    -2.1030 C.ar  1 <1>   0.4700 
  4 N       -1.4530     1.9370    -0.4450 N.pl3 1 <1>  -0.8380 
  5 C       -2.3040    -0.1820     0.3070 C.ar  1 <1>  -0.1500 
  6 N       -3.3900    -1.5990    -1.2250 N.ar  1 <1>  -0.6200 
  7 C       -0.1280     1.9280     0.2200 C.3   1 <1>   0.2090 
  8 C       -1.6990     3.1080    -1.3360 C.3   1 <1>   0.1290 
  9 C       -2.9500    -1.3530    -0.0020 C.ar  1 <1>   0.4100 
 10 C       -0.2340     2.6650     1.5500 C.3   1 <1>  -0.2400 
 11 N       -3.1690    -2.3040     0.9650 N.pl3 1 <1>  -0.8690 
 12 C       -3.3630    -3.7440     0.6680 C.3   1 <1>   0.2890 
 13 C       -4.8470    -4.0880     0.4350 C.3   1 <1>   0.4230 
 14 C       -2.9770    -4.6150     1.8550 C.3   1 <1>  -0.1600 
 15 N       -5.3320    -3.7260    -0.9350 N.4   1 <1>  -0.9590 
 16 C       -5.0050    -5.5630     0.8300 C.3   1 <1>  -0.1600 
 17 C       -3.7420    -5.9250     1.6310 C.3   1 <1>  -0.1600 
 18 C       -6.8170    -3.6230    -0.9910 C.3   1 <1>   0.2630 
 19 C       -4.7770    -4.5480    -2.0540 C.3   1 <1>   0.2630 
 20 H       -3.4760    -0.8210    -3.1110 H     1 <1>   0.1500 
 21 H       -1.9680     0.0210     1.3010 H     1 <1>   0.1500 
 22 H        0.1960     0.9140     0.3860 H     1 <1>   0.0800 
 23 H        0.6000     2.4070    -0.4130 H     1 <1>   0.0800 
 24 H       -1.4920     4.0240    -0.8100 H     1 <1>   0.0800 
 25 H       -2.7270     3.1210    -1.6520 H     1 <1>   0.0800 
 26 H       -1.0680     3.0440    -2.2050 H     1 <1>   0.0800 
 27 H       -0.9670     2.1930     2.1790 H     1 <1>   0.0800 
 28 H       -0.5150     3.6900     1.3880 H     1 <1>   0.0800 
 29 H        0.7150     2.6460     2.0520 H     1 <1>   0.0800 
 30 H       -2.6780    -2.1360     1.8490 H     1 <1>   0.4000 
 31 H       -2.7710    -4.0360    -0.1830 H     1 <1>   0.0800 
 32 H       -5.3940    -3.5070     1.1580 H     1 <1>   0.0800 
 33 H       -1.9140    -4.7800     1.9020 H     1 <1>   0.0800 
 34 H       -3.3150    -4.1620     2.7720 H     1 <1>   0.0800 
 35 H       -4.9270    -2.7690    -1.0580 H     1 <1>   0.4500 
 36 H       -5.8750    -5.6710     1.4520 H     1 <1>   0.0800 
 37 H       -5.0970    -6.2210    -0.0140 H     1 <1>   0.0800 
 38 H       -3.9840    -6.4030     2.5660 H     1 <1>   0.0800 
 39 H       -3.1320    -6.6010     1.0540 H     1 <1>   0.0800 
 40 H       -7.2650    -4.5900    -0.8310 H     1 <1>   0.0800 
 41 H       -7.1290    -3.2510    -1.9530 H     1 <1>   0.0800 
 42 H       -7.1720    -2.9460    -0.2310 H     1 <1>   0.0800 
 43 H       -5.1360    -5.5620    -1.9950 H     1 <1>   0.0800 
 44 H       -3.7000    -4.5540    -2.0140 H     1 <1>   0.0800 
 45 H       -5.0780    -4.1320    -3.0010 H     1 <1>   0.0800 
@<TRIPOS>BOND
  1   1   2  ar  
  2   1   3  ar  
  3   2   4  1   
  4   2   5  ar  
  5   3   6  ar  
  6   3  20  1   
  7   4   7  1   
  8   4   8  1   
  9   5   9  ar  
 10   5  21  1   
 11   6   9  ar  
 12   7  10  1   
 13   7  22  1   
 14   7  23  1   
 15   8  24  1   
 16   8  25  1   
 17   8  26  1   
 18   9  11  1   
 19  10  27  1   
 20  10  28  1   
 21  10  29  1   
 22  11  12  1   
 23  11  30  1   
 24  12  13  1   
 25  12  14  1   
 26  12  31  1   
 27  13  15  1   
 28  13  16  1   
 29  13  32  1   
 30  14  17  1   
 31  14  33  1   
 32  14  34  1   
 33  15  18  1   
 34  15  19  1   
 35  15  35  1   
 36  16  17  1   
 37  16  36  1   
 38  16  37  1   
 39  17  38  1   
 40  17  39  1   
 41  18  40  1   
 42  18  41  1   
 43  18  42  1   
 44  19  43  1   
 45  19  44  1   
 46  19  45  1   
@<TRIPOS>SUBSTRUCTURE
  1 ****   9 GROUP 4 **** **** 0

# MOE 2024.06 (io_trps.svl 2023.06)
