@<TRIPOS>MOLECULE
NONAME
36 38 1 0 0 
SMALL
USER_CHARGES


@<TRIPOS>ATOM
  1 S        0.5200    -0.8780    -1.3760 S.3   1 <1>  -0.0800 
  2 C        1.1440    -2.0150    -0.2090 C.2   1 <1>  -0.1400 
  3 C        1.7830     0.2440    -0.9200 C.2   1 <1>   0.2280 
  4 C        2.2140    -1.4670     0.3890 C.2   1 <1>   0.0770 
  5 C        0.4700    -3.3590    -0.0530 C.3   1 <1>   0.5230 
  6 N        2.5620    -0.1900    -0.0110 N.2   1 <1>  -0.5650 
  7 N       -0.7820    -3.1940     0.7450 N.4   1 <1>  -0.9590 
  8 C       -1.9180    -2.6320    -0.0650 C.3   1 <1>   0.3430 
  9 C       -1.2400    -4.5090     1.2870 C.3   1 <1>   0.3430 
 10 C       -3.0950    -3.6040     0.0950 C.3   1 <1>   0.2000 
 11 C       -2.4350    -4.9390     0.4290 C.3   1 <1>  -0.0800 
 12 O       -3.8920    -3.2140     1.1640 O.3   1 <1>  -0.6800 
 13 C       -2.0360    -5.6850    -0.8680 C.3   1 <1>  -0.0170 
 14 C       -0.9990    -6.7740    -0.6430 C.ar  1 <1>   0.1670 
 15 N        0.2660    -6.3750    -0.5950 N.ar  1 <1>  -0.6200 
 16 C       -1.3970    -8.1040    -0.5100 C.ar  1 <1>   0.1600 
 17 C        1.0970    -7.3960    -0.4270 C.ar  1 <1>   0.1600 
 18 N       -0.5660    -9.1120    -0.3190 N.ar  1 <1>  -0.6200 
 19 C        0.6940    -8.7190    -0.2920 C.ar  1 <1>   0.1600 
 20 H        1.8100     1.1950    -1.4260 H     1 <1>   0.1500 
 21 H        2.8280    -1.9230     1.1490 H     1 <1>   0.1500 
 22 H        1.1410    -4.0240     0.4650 H     1 <1>   0.0800 
 23 H        0.2580    -3.7900    -1.0180 H     1 <1>   0.0800 
 24 H       -0.5590    -2.5510     1.5160 H     1 <1>   0.4500 
 25 H       -2.1930    -1.6410     0.2590 H     1 <1>   0.0800 
 26 H       -1.6370    -2.5930    -1.1040 H     1 <1>   0.0800 
 27 H       -0.4520    -5.2440     1.2960 H     1 <1>   0.0800 
 28 H       -1.5780    -4.3730     2.3010 H     1 <1>   0.0800 
 29 H       -3.7200    -3.6390    -0.7820 H     1 <1>   0.0800 
 30 H       -3.0920    -5.5750     0.9970 H     1 <1>   0.0800 
 31 H       -3.4180    -3.1680     2.0160 H     1 <1>   0.4000 
 32 H       -1.6380    -5.0020    -1.5970 H     1 <1>   0.0800 
 33 H       -2.9190    -6.1200    -1.3050 H     1 <1>   0.0800 
 34 H       -2.4440    -8.3480    -0.5620 H     1 <1>   0.1500 
 35 H        2.1520    -7.1830    -0.3950 H     1 <1>   0.1500 
 36 H        1.4430    -9.4810    -0.1560 H     1 <1>   0.1500 
@<TRIPOS>BOND
  1   1   2  1   
  2   1   3  1   
  3   2   4  2   
  4   2   5  1   
  5   3   6  2   
  6   3  20  1   
  7   4   6  1   
  8   4  21  1   
  9   5   7  1   
 10   5  22  1   
 11   5  23  1   
 12   7   8  1   
 13   7   9  1   
 14   7  24  1   
 15   8  10  1   
 16   8  25  1   
 17   8  26  1   
 18   9  11  1   
 19   9  27  1   
 20   9  28  1   
 21  10  11  1   
 22  10  12  1   
 23  10  29  1   
 24  11  13  1   
 25  11  30  1   
 26  12  31  1   
 27  13  14  1   
 28  13  32  1   
 29  13  33  1   
 30  14  15  ar  
 31  14  16  ar  
 32  15  17  ar  
 33  16  18  ar  
 34  16  34  1   
 35  17  19  ar  
 36  17  35  1   
 37  18  19  ar  
 38  19  36  1   
@<TRIPOS>SUBSTRUCTURE
  1 ****   5 GROUP 4 **** **** 0

# MOE 2024.06 (io_trps.svl 2023.06)
