@<TRIPOS>MOLECULE
NONAME
42 44 1 0 0 
SMALL
USER_CHARGES


@<TRIPOS>ATOM
  1 O       -2.3850     0.7860    -2.4070 O.2   1 <1>  -0.5700 
  2 C       -2.0140     0.8780    -1.2620 C.2   1 <1>   0.5690 
  3 N       -1.9800    -0.2010    -0.4410 N.am  1 <1>  -0.7300 
  4 C       -1.5840     2.2400    -0.7230 C.3   1 <1>  -0.0190 
  5 C       -2.3720    -1.5730    -0.8280 C.3   1 <1>   0.2200 
  6 C       -0.1520     2.2920    -0.1860 C.3   1 <1>  -0.1600 
  7 C       -2.4270     2.7530     0.4480 C.3   1 <1>  -0.1600 
  8 C       -3.7370    -1.8840    -0.2400 C.3   1 <1>  -0.0800 
  9 C       -1.4850    -2.5810    -0.1060 C.3   1 <1>   0.1200 
 10 C       -0.1110     3.5360     0.7030 C.3   1 <1>  -0.1600 
 11 C       -1.5570     3.8060     1.1390 C.3   1 <1>  -0.1600 
 12 C       -3.3820    -2.3340     1.1820 C.3   1 <1>   0.1200 
 13 C       -4.4580    -2.9850    -1.0400 C.3   1 <1>  -0.0170 
 14 O       -2.0480    -2.7580     1.1600 O.3   1 <1>  -0.5600 
 15 C       -5.8380    -3.2750    -0.4690 C.ar  1 <1>  -0.1440 
 16 C       -6.8970    -2.4100    -0.6610 C.ar  1 <1>  -0.1500 
 17 C       -6.1060    -4.4120     0.2660 C.ar  1 <1>  -0.1500 
 18 C       -8.1350    -2.7130    -0.1200 C.ar  1 <1>   0.1600 
 19 C       -7.3810    -4.6200     0.7640 C.ar  1 <1>   0.1600 
 20 N       -8.4020    -3.7970     0.5910 N.ar  1 <1>  -0.6200 
 21 H       -1.6840    -0.0980     0.5310 H     1 <1>   0.3700 
 22 H       -1.6630     2.9540    -1.5260 H     1 <1>   0.0800 
 23 H       -2.3320    -1.6850    -1.8990 H     1 <1>   0.0800 
 24 H        0.0510     1.4230     0.4150 H     1 <1>   0.0800 
 25 H        0.5700     2.3420    -0.9830 H     1 <1>   0.0800 
 26 H       -3.3640     3.1630     0.1110 H     1 <1>   0.0800 
 27 H       -2.6260     1.9530     1.1390 H     1 <1>   0.0800 
 28 H       -4.3600    -1.0070    -0.2230 H     1 <1>   0.0800 
 29 H       -0.4680    -2.2440    -0.0070 H     1 <1>   0.0800 
 30 H       -1.5050    -3.5320    -0.6070 H     1 <1>   0.0800 
 31 H        0.5360     3.3850     1.5500 H     1 <1>   0.0800 
 32 H        0.2530     4.3750     0.1350 H     1 <1>   0.0800 
 33 H       -1.8500     4.7920     0.8210 H     1 <1>   0.0800 
 34 H       -1.6610     3.7440     2.2090 H     1 <1>   0.0800 
 35 H       -3.9990    -3.1390     1.5380 H     1 <1>   0.0800 
 36 H       -3.4460    -1.5070     1.8670 H     1 <1>   0.0800 
 37 H       -3.8730    -3.8890    -1.0450 H     1 <1>   0.0800 
 38 H       -4.5700    -2.6670    -2.0620 H     1 <1>   0.0800 
 39 H       -6.7700    -1.5050    -1.2270 H     1 <1>   0.1500 
 40 H       -5.3370    -5.1380     0.4580 H     1 <1>   0.1500 
 41 H       -8.9490    -2.0260    -0.2800 H     1 <1>   0.1500 
 42 H       -7.5720    -5.5120     1.3370 H     1 <1>   0.1500 
@<TRIPOS>BOND
  1   1   2  2   
  2   2   3  am  
  3   2   4  1   
  4   3   5  1   
  5   3  21  1   
  6   4   6  1   
  7   4   7  1   
  8   4  22  1   
  9   5   8  1   
 10   5   9  1   
 11   5  23  1   
 12   6  10  1   
 13   6  24  1   
 14   6  25  1   
 15   7  11  1   
 16   7  26  1   
 17   7  27  1   
 18   8  12  1   
 19   8  13  1   
 20   8  28  1   
 21   9  14  1   
 22   9  29  1   
 23   9  30  1   
 24  10  11  1   
 25  10  31  1   
 26  10  32  1   
 27  11  33  1   
 28  11  34  1   
 29  12  14  1   
 30  12  35  1   
 31  12  36  1   
 32  13  15  1   
 33  13  37  1   
 34  13  38  1   
 35  15  16  ar  
 36  15  17  ar  
 37  16  18  ar  
 38  16  39  1   
 39  17  19  ar  
 40  17  40  1   
 41  18  20  ar  
 42  18  41  1   
 43  19  20  ar  
 44  19  42  1   
@<TRIPOS>SUBSTRUCTURE
  1 ****   8 GROUP 4 **** **** 0

# MOE 2024.06 (io_trps.svl 2023.06)
