@<TRIPOS>MOLECULE
NONAME
47 48 1 0 0 
SMALL
USER_CHARGES


@<TRIPOS>ATOM
  1 CL      -2.1960    -1.0900    -2.0340 Cl    1 <1>  -0.1770 
  2 C       -2.6340     0.1960    -0.9350 C.ar  1 <1>   0.1770 
  3 C       -3.6420     0.0370     0.0200 C.ar  1 <1>   0.0860 
  4 C       -1.9190     1.3720    -1.0530 C.ar  1 <1>  -0.1500 
  5 C       -4.4400    -1.1680     0.1740 C.2   1 <1>   0.5440 
  6 C       -3.8690     1.1230     0.8700 C.ar  1 <1>  -0.1500 
  7 C       -2.1820     2.4330    -0.2060 C.ar  1 <1>  -0.1500 
  8 O       -4.8780    -1.4850     1.2620 O.2   1 <1>  -0.5700 
  9 N       -4.8540    -1.9350    -0.8760 N.am  1 <1>  -0.6600 
 10 C       -3.1650     2.3190     0.7720 C.ar  1 <1>  -0.1430 
 11 C       -4.4000    -3.3570    -0.9770 C.3   1 <1>   0.3210 
 12 C       -5.8340    -1.4360    -1.8870 C.3   1 <1>   0.1400 
 13 C       -3.4760     3.4760     1.7390 C.3   1 <1>   1.1640 
 14 C       -5.4570    -4.3620    -0.5230 C.2   1 <1>   0.0460 
 15 C       -7.2860    -1.7910    -1.5010 C.3   1 <1>   0.3430 
 16 F       -4.7840     3.6570     1.8830 F     1 <1>  -0.3400 
 17 F       -2.9930     3.2510     2.9520 F     1 <1>  -0.3400 
 18 F       -2.9800     4.6410     1.3420 F     1 <1>  -0.3400 
 19 N       -6.4240    -4.7950    -1.3610 N.2   1 <1>  -0.5650 
 20 C       -5.5540    -4.9830     0.6780 C.2   1 <1>  -0.3320 
 21 N       -7.5030    -1.6770    -0.0230 N.4   1 <1>  -0.9590 
 22 C       -7.0510    -5.6960    -0.6760 C.2   1 <1>   0.0360 
 23 N       -6.5750    -5.8540     0.5760 N.pl3 1 <1>   0.0330 
 24 C       -4.7210    -4.8420     1.9420 C.3   1 <1>  -0.0600 
 25 C       -8.5210    -2.6520     0.4490 C.3   1 <1>   0.2630 
 26 C       -7.7930    -0.2900     0.4360 C.3   1 <1>   0.2630 
 27 H       -1.1530     1.4550    -1.8050 H     1 <1>   0.1500 
 28 H       -4.6200     1.0210     1.6370 H     1 <1>   0.1500 
 29 H       -1.6110     3.3420    -0.3140 H     1 <1>   0.1500 
 30 H       -3.5200    -3.4850    -0.3730 H     1 <1>   0.0800 
 31 H       -4.1230    -3.5750    -1.9940 H     1 <1>   0.0800 
 32 H       -5.6070    -1.8550    -2.8530 H     1 <1>   0.0800 
 33 H       -5.7460    -0.3670    -1.9690 H     1 <1>   0.0800 
 34 H       -7.4720    -2.8050    -1.8110 H     1 <1>   0.0800 
 35 H       -7.9770    -1.1620    -2.0360 H     1 <1>   0.0800 
 36 H       -6.5850    -1.9660     0.3950 H     1 <1>   0.4500 
 37 H       -7.8740    -6.2810    -1.0510 H     1 <1>   0.1500 
 38 H       -6.8980    -6.5220     1.2830 H     1 <1>   0.2700 
 39 H       -3.9790    -4.0720     1.8290 H     1 <1>   0.0800 
 40 H       -4.2200    -5.7680     2.1630 H     1 <1>   0.0800 
 41 H       -5.3490    -4.5790     2.7750 H     1 <1>   0.0800 
 42 H       -9.4870    -2.4200     0.0320 H     1 <1>   0.0800 
 43 H       -8.5870    -2.6280     1.5240 H     1 <1>   0.0800 
 44 H       -8.2420    -3.6470     0.1460 H     1 <1>   0.0800 
 45 H       -8.7270     0.0540     0.0250 H     1 <1>   0.0800 
 46 H       -7.0060     0.3760     0.1240 H     1 <1>   0.0800 
 47 H       -7.8530    -0.2640     1.5120 H     1 <1>   0.0800 
@<TRIPOS>BOND
  1   1   2  1   
  2   2   3  ar  
  3   2   4  ar  
  4   3   5  1   
  5   3   6  ar  
  6   4   7  ar  
  7   4  27  1   
  8   5   8  2   
  9   5   9  am  
 10   6  10  ar  
 11   6  28  1   
 12   7  10  ar  
 13   7  29  1   
 14   9  11  1   
 15   9  12  1   
 16  10  13  1   
 17  11  14  1   
 18  11  30  1   
 19  11  31  1   
 20  12  15  1   
 21  12  32  1   
 22  12  33  1   
 23  13  16  1   
 24  13  17  1   
 25  13  18  1   
 26  14  19  1   
 27  14  20  2   
 28  15  21  1   
 29  15  34  1   
 30  15  35  1   
 31  19  22  2   
 32  20  23  1   
 33  20  24  1   
 34  21  25  1   
 35  21  26  1   
 36  21  36  1   
 37  22  23  1   
 38  22  37  1   
 39  23  38  1   
 40  24  39  1   
 41  24  40  1   
 42  24  41  1   
 43  25  42  1   
 44  25  43  1   
 45  25  44  1   
 46  26  45  1   
 47  26  46  1   
 48  26  47  1   
@<TRIPOS>SUBSTRUCTURE
  1 ****   5 GROUP 4 **** **** 0

# MOE 2024.06 (io_trps.svl 2023.06)
