@<TRIPOS>MOLECULE
NONAME
54 56 1 0 0 
SMALL
USER_CHARGES


@<TRIPOS>ATOM
  1 N       -0.6590     0.9930    -1.7550 N.ar  1 <1>  -0.6200 
  2 C       -1.2880     1.3780    -0.6770 C.ar  1 <1>   0.7200 
  3 C       -0.2030     1.9640    -2.4800 C.ar  1 <1>   0.7200 
  4 N       -1.4630     2.6300    -0.3070 N.ar  1 <1>  -0.6200 
  5 N       -1.8320     0.4570     0.1660 N.pl3 1 <1>  -0.6000 
  6 N       -0.3100     3.2440    -2.2310 N.ar  1 <1>  -0.6200 
  7 N        0.4500     1.6260    -3.5890 N.pl3 1 <1>  -0.9000 
  8 C       -0.9510     3.5080    -1.1270 C.ar  1 <1>   0.4770 
  9 C       -1.7200    -0.9370     0.2330 C.ar  1 <1>   0.1000 
 10 C       -1.0610     4.9880    -0.7300 C.3   1 <1>   0.4860 
 11 C       -2.7950    -1.6750     0.7140 C.ar  1 <1>  -0.1500 
 12 C       -0.5630    -1.6160    -0.1350 C.ar  1 <1>  -0.1500 
 13 N        0.1610     5.5140    -0.0080 N.4   1 <1>  -0.9590 
 14 C       -2.7300    -3.0540     0.8220 C.ar  1 <1>  -0.1430 
 15 C       -0.4880    -2.9930    -0.0320 C.ar  1 <1>  -0.1500 
 16 C        1.3760     5.4070    -0.8660 C.3   1 <1>   0.5240 
 17 C        0.3670     4.8180     1.3040 C.3   1 <1>   0.2630 
 18 C       -1.5690    -3.7110     0.4470 C.ar  1 <1>  -0.1500 
 19 C       -3.9120    -3.8500     1.3470 C.3   1 <1>  -0.0970 
 20 C        2.4920     6.1350    -0.1600 C.2   1 <1>  -0.1810 
 21 C        3.5640     5.5310     0.4910 C.2   1 <1>   0.1080 
 22 C        2.6850     7.4640     0.0070 C.2   1 <1>  -0.3320 
 23 N        4.3410     6.4020     1.0390 N.2   1 <1>  -0.7070 
 24 C        3.8590     4.0490     0.5950 C.3   1 <1>  -0.0590 
 25 N        3.8160     7.5980     0.7370 N.pl3 1 <1>   0.3140 
 26 C        1.8700     8.6490    -0.4950 C.3   1 <1>  -0.0600 
 27 C        4.4670     8.8400     1.1760 C.3   1 <1>   0.0160 
 28 H       -2.4820     0.8730     0.8250 H     1 <1>   0.4000 
 29 H        0.5380     2.3070    -4.3390 H     1 <1>   0.4000 
 30 H        0.3830     0.6500    -3.8780 H     1 <1>   0.4000 
 31 H       -1.9280     5.1030    -0.1020 H     1 <1>   0.0800 
 32 H       -1.2250     5.5610    -1.6270 H     1 <1>   0.0800 
 33 H       -3.6950    -1.1650     1.0030 H     1 <1>   0.1500 
 34 H        0.2870    -1.0700    -0.5010 H     1 <1>   0.1500 
 35 H        0.0570     6.5180     0.1850 H     1 <1>   0.4500 
 36 H        0.4110    -3.5070    -0.3220 H     1 <1>   0.1500 
 37 H        1.2020     5.8680    -1.8250 H     1 <1>   0.0800 
 38 H        1.6430     4.3750    -1.0250 H     1 <1>   0.0800 
 39 H        0.5540     3.7670     1.1490 H     1 <1>   0.0800 
 40 H       -0.5060     4.9230     1.9280 H     1 <1>   0.0800 
 41 H        1.2110     5.2430     1.8250 H     1 <1>   0.0800 
 42 H       -1.5040    -4.7820     0.5250 H     1 <1>   0.1500 
 43 H       -4.8100    -3.2590     1.3260 H     1 <1>   0.0800 
 44 H       -3.7230    -4.1580     2.3590 H     1 <1>   0.0800 
 45 H       -4.0670    -4.7240     0.7400 H     1 <1>   0.0800 
 46 H        3.5140     3.5210    -0.2740 H     1 <1>   0.0800 
 47 H        3.3960     3.6440     1.4750 H     1 <1>   0.0800 
 48 H        4.9220     3.9050     0.6760 H     1 <1>   0.0800 
 49 H        1.0420     8.3250    -1.0970 H     1 <1>   0.0800 
 50 H        2.4900     9.2900    -1.0980 H     1 <1>   0.0800 
 51 H        1.4930     9.2210     0.3350 H     1 <1>   0.0800 
 52 H        3.7780     9.4120     1.7680 H     1 <1>   0.0800 
 53 H        4.7720     9.4030     0.3150 H     1 <1>   0.0800 
 54 H        5.3300     8.5950     1.7670 H     1 <1>   0.0800 
@<TRIPOS>BOND
  1   1   2  ar  
  2   1   3  ar  
  3   2   4  ar  
  4   2   5  1   
  5   3   6  ar  
  6   3   7  1   
  7   4   8  ar  
  8   5   9  1   
  9   5  28  1   
 10   6   8  ar  
 11   7  29  1   
 12   7  30  1   
 13   8  10  1   
 14   9  11  ar  
 15   9  12  ar  
 16  10  13  1   
 17  10  31  1   
 18  10  32  1   
 19  11  14  ar  
 20  11  33  1   
 21  12  15  ar  
 22  12  34  1   
 23  13  16  1   
 24  13  17  1   
 25  13  35  1   
 26  14  18  ar  
 27  14  19  1   
 28  15  18  ar  
 29  15  36  1   
 30  16  20  1   
 31  16  37  1   
 32  16  38  1   
 33  17  39  1   
 34  17  40  1   
 35  17  41  1   
 36  18  42  1   
 37  19  43  1   
 38  19  44  1   
 39  19  45  1   
 40  20  21  1   
 41  20  22  2   
 42  21  23  2   
 43  21  24  1   
 44  22  25  1   
 45  22  26  1   
 46  23  25  1   
 47  24  46  1   
 48  24  47  1   
 49  24  48  1   
 50  25  27  1   
 51  26  49  1   
 52  26  50  1   
 53  26  51  1   
 54  27  52  1   
 55  27  53  1   
 56  27  54  1   
@<TRIPOS>SUBSTRUCTURE
  1 ****   8 GROUP 4 **** **** 0

# MOE 2024.06 (io_trps.svl 2023.06)
