@<TRIPOS>MOLECULE
NONAME
37 37 1 0 0 
SMALL
USER_CHARGES


@<TRIPOS>ATOM
  1 O        0.0230     0.4960    -0.8900 O.2   1 <1>  -0.5700 
  2 C        0.1160     1.4170    -0.1000 C.2   1 <1>   0.7800 
  3 O       -0.9820     1.9460     0.4530 O.3   1 <1>  -0.4300 
  4 N        1.3140     1.9800     0.2390 N.am  1 <1>  -0.6600 
  5 C       -2.3160     1.5230     0.2860 C.3   1 <1>   0.2800 
  6 C        2.6440     1.3960    -0.2050 C.3   1 <1>   0.1140 
  7 C        1.4550     3.1890     1.0850 C.3   1 <1>   0.1400 
  8 C       -2.7510     1.6980    -1.1740 C.3   1 <1>  -0.2400 
  9 C       -3.1420     2.4580     1.1720 C.3   1 <1>  -0.2400 
 10 C       -2.4820     0.0820     0.7820 C.3   1 <1>  -0.2400 
 11 C        3.3040     0.4050     0.7880 C.2   1 <1>   0.9060 
 12 C        3.6300     2.5410    -0.5530 C.3   1 <1>  -0.1600 
 13 C        2.0210     4.3490     0.2350 C.3   1 <1>  -0.0800 
 14 O        3.4100     0.7060     1.9890 O.co2 1 <1>  -0.9000 
 15 O        3.7900    -0.6460     0.3460 O.co2 1 <1>  -0.9000 
 16 C        2.9170     3.8520    -0.9250 C.3   1 <1>  -0.1600 
 17 C        2.7860     5.3290     1.1350 C.3   1 <1>  -0.2400 
 18 H        2.4680     0.8350    -1.1030 H     1 <1>   0.0800 
 19 H        2.1350     2.9500     1.8860 H     1 <1>   0.0800 
 20 H        0.5180     3.4730     1.5270 H     1 <1>   0.0800 
 21 H       -2.5470     2.6990    -1.5060 H     1 <1>   0.0800 
 22 H       -3.8050     1.5120    -1.2680 H     1 <1>   0.0800 
 23 H       -2.2400     1.0030    -1.8140 H     1 <1>   0.0800 
 24 H       -3.0160     3.4770     0.8550 H     1 <1>   0.0800 
 25 H       -2.8290     2.3680     2.1960 H     1 <1>   0.0800 
 26 H       -4.1850     2.2070     1.1100 H     1 <1>   0.0800 
 27 H       -1.9720    -0.6100     0.1380 H     1 <1>   0.0800 
 28 H       -3.5220    -0.1880     0.7910 H     1 <1>   0.0800 
 29 H       -2.0910    -0.0150     1.7790 H     1 <1>   0.0800 
 30 H        4.2650     2.2150    -1.3570 H     1 <1>   0.0800 
 31 H        4.2670     2.7180     0.2970 H     1 <1>   0.0800 
 32 H        1.1880     4.8780    -0.1940 H     1 <1>   0.0800 
 33 H        2.2950     3.6590    -1.7820 H     1 <1>   0.0800 
 34 H        3.6350     4.6020    -1.2050 H     1 <1>   0.0800 
 35 H        3.6400     4.8430     1.5750 H     1 <1>   0.0800 
 36 H        2.1490     5.6840     1.9260 H     1 <1>   0.0800 
 37 H        3.1260     6.1760     0.5660 H     1 <1>   0.0800 
@<TRIPOS>BOND
  1   1   2  2   
  2   2   3  1   
  3   2   4  am  
  4   3   5  1   
  5   4   6  1   
  6   4   7  1   
  7   5   8  1   
  8   5   9  1   
  9   5  10  1   
 10   6  11  1   
 11   6  12  1   
 12   6  18  1   
 13   7  13  1   
 14   7  19  1   
 15   7  20  1   
 16   8  21  1   
 17   8  22  1   
 18   8  23  1   
 19   9  24  1   
 20   9  25  1   
 21   9  26  1   
 22  10  27  1   
 23  10  28  1   
 24  10  29  1   
 25  11  14  ar  
 26  11  15  ar  
 27  12  16  1   
 28  12  30  1   
 29  12  31  1   
 30  13  16  1   
 31  13  17  1   
 32  13  32  1   
 33  16  33  1   
 34  16  34  1   
 35  17  35  1   
 36  17  36  1   
 37  17  37  1   
@<TRIPOS>SUBSTRUCTURE
  1 ****   4 GROUP 4 **** **** 0

# MOE 2024.06 (io_trps.svl 2023.06)
