@<TRIPOS>MOLECULE
NONAME
40 42 1 0 0 
SMALL
USER_CHARGES


@<TRIPOS>ATOM
  1 O       -0.4000     0.1120     0.0290 O.2   1 <1>  -0.5700 
  2 C       -1.4130     0.7180     0.3260 C.2   1 <1>   0.7030 
  3 N       -2.6000     0.0150     0.3810 N.am  1 <1>  -0.6600 
  4 C       -1.3390     2.1490     0.6070 C.2   1 <1>   0.2770 
  5 C       -3.9390     0.5740     0.0490 C.3   1 <1>   0.1400 
  6 C       -2.6250    -1.4690     0.2380 C.3   1 <1>   0.1400 
  7 N       -0.4210     3.0730     0.0920 N.pl3 1 <1>  -0.7640 
  8 C       -2.1350     2.8650     1.4430 C.2   1 <1>   0.2000 
  9 C       -4.7290    -0.5970    -0.5340 C.3   1 <1>   0.2000 
 10 C       -4.0980    -1.8480     0.0700 C.3   1 <1>  -0.0800 
 11 C       -0.6900     4.2620     0.6110 C.cat 1 <1>   0.6500 
 12 C        0.6850     2.7250    -0.8470 C.3   1 <1>   0.2740 
 13 N       -1.7270     4.1700     1.4290 N.pl3 1 <1>  -0.7000 
 14 O       -6.0680    -0.5170    -0.1960 O.3   1 <1>  -0.6800 
 15 C       -4.3190    -3.1060    -0.7840 C.3   1 <1>  -0.0160 
 16 C       -3.6530    -4.3170    -0.1510 C.ar  1 <1>  -0.1440 
 17 C       -2.4210    -4.7800    -0.5680 C.ar  1 <1>  -0.1500 
 18 C       -4.2500    -5.0160     0.8790 C.ar  1 <1>  -0.1500 
 19 C       -1.8580    -5.8840     0.0530 C.ar  1 <1>   0.1600 
 20 C       -3.6020    -6.1090     1.4310 C.ar  1 <1>   0.1600 
 21 N       -2.4190    -6.5570     1.0450 N.ar  1 <1>  -0.6200 
 22 H       -4.4130     0.9260     0.9480 H     1 <1>   0.0800 
 23 H       -3.8620     1.3690    -0.6740 H     1 <1>   0.0800 
 24 H       -2.0600    -1.7510    -0.6350 H     1 <1>   0.0800 
 25 H       -2.1940    -1.9470     1.1030 H     1 <1>   0.0800 
 26 H       -2.9560     2.5090     2.0460 H     1 <1>   0.1500 
 27 H       -4.6490    -0.5930    -1.6080 H     1 <1>   0.0800 
 28 H       -4.4980    -2.0130     1.0560 H     1 <1>   0.0800 
 29 H       -0.1420     5.1720     0.4040 H     1 <1>   0.1500 
 30 H        0.2870     2.2360    -1.7210 H     1 <1>   0.0800 
 31 H        1.3780     2.0550    -0.3650 H     1 <1>   0.0800 
 32 H        1.2160     3.6090    -1.1550 H     1 <1>   0.0800 
 33 H       -2.1390     4.9410     1.9670 H     1 <1>   0.4500 
 34 H       -6.2100    -0.7350     0.7460 H     1 <1>   0.4000 
 35 H       -3.9290    -2.9540    -1.7760 H     1 <1>   0.0800 
 36 H       -5.3750    -3.2920    -0.8790 H     1 <1>   0.0800 
 37 H       -1.8900    -4.2980    -1.3680 H     1 <1>   0.1500 
 38 H       -5.2120    -4.7250     1.2570 H     1 <1>   0.1500 
 39 H       -0.8970    -6.2310    -0.2840 H     1 <1>   0.1500 
 40 H       -4.0820    -6.6420     2.2340 H     1 <1>   0.1500 
@<TRIPOS>BOND
  1   1   2  2   
  2   2   3  am  
  3   2   4  1   
  4   3   5  1   
  5   3   6  1   
  6   4   7  1   
  7   4   8  2   
  8   5   9  1   
  9   5  22  1   
 10   5  23  1   
 11   6  10  1   
 12   6  24  1   
 13   6  25  1   
 14   7  11  ar  
 15   7  12  1   
 16   8  13  1   
 17   8  26  1   
 18   9  10  1   
 19   9  14  1   
 20   9  27  1   
 21  10  15  1   
 22  10  28  1   
 23  11  13  ar  
 24  11  29  1   
 25  12  30  1   
 26  12  31  1   
 27  12  32  1   
 28  13  33  1   
 29  14  34  1   
 30  15  16  1   
 31  15  35  1   
 32  15  36  1   
 33  16  17  ar  
 34  16  18  ar  
 35  17  19  ar  
 36  17  37  1   
 37  18  20  ar  
 38  18  38  1   
 39  19  21  ar  
 40  19  39  1   
 41  20  21  ar  
 42  20  40  1   
@<TRIPOS>SUBSTRUCTURE
  1 ****   6 GROUP 4 **** **** 0

# MOE 2024.06 (io_trps.svl 2023.06)
