@<TRIPOS>MOLECULE
NONAME
45 47 1 0 0 
SMALL
USER_CHARGES


@<TRIPOS>ATOM
  1 CL      -1.0570    -0.4470    -1.8060 Cl    1 <1>  -0.1770 
  2 C       -1.9340    -1.0770    -0.4280 C.ar  1 <1>   0.1770 
  3 C       -2.0630    -2.4510    -0.1800 C.ar  1 <1>   0.0820 
  4 C       -2.5310    -0.1450     0.3980 C.ar  1 <1>  -0.1500 
  5 O       -1.4930    -3.4260    -0.9420 O.3   1 <1>  -0.3630 
  6 C       -2.8390    -2.8760     0.8990 C.ar  1 <1>  -0.1440 
  7 C       -3.2770    -0.5890     1.4710 C.ar  1 <1>   0.1770 
  8 C       -0.1440    -3.3130    -1.3580 C.3   1 <1>   0.0400 
  9 C       -3.4410    -1.9380     1.7270 C.ar  1 <1>  -0.1500 
 10 C       -3.0280    -4.3590     1.1730 C.3   1 <1>   0.4870 
 11 CL      -4.0410     0.5720     2.5230 Cl    1 <1>  -0.1770 
 12 N       -3.6760    -4.9810    -0.0080 N.4   1 <1>  -0.9590 
 13 C       -5.0510    -4.4630    -0.2920 C.3   1 <1>   0.3430 
 14 C       -3.7380    -6.4710     0.0610 C.3   1 <1>   0.3430 
 15 C       -5.8620    -5.6790    -0.7390 C.3   1 <1>   0.2000 
 16 C       -5.2150    -6.8610    -0.0290 C.3   1 <1>  -0.0800 
 17 O       -7.1970    -5.5680    -0.3820 O.3   1 <1>  -0.6800 
 18 C       -5.4490    -8.2000    -0.7530 C.3   1 <1>  -0.0170 
 19 C       -4.8130    -9.3660    -0.0100 C.ar  1 <1>   0.1670 
 20 N       -3.4910    -9.3540     0.0840 N.ar  1 <1>  -0.6200 
 21 C       -5.6190   -10.3650     0.5180 C.ar  1 <1>  -0.1500 
 22 C       -2.9520   -10.3870     0.7170 C.ar  1 <1>   0.1600 
 23 C       -5.0440   -11.4270     1.1820 C.ar  1 <1>  -0.1500 
 24 C       -3.6700   -11.4290     1.2770 C.ar  1 <1>  -0.1500 
 25 H       -2.4230     0.9070     0.2070 H     1 <1>   0.1500 
 26 H        0.2730    -4.3010    -1.4300 H     1 <1>   0.0800 
 27 H        0.4110    -2.7350    -0.6380 H     1 <1>   0.0800 
 28 H       -0.1120    -2.8430    -2.3250 H     1 <1>   0.0800 
 29 H       -4.0370    -2.2290     2.5760 H     1 <1>   0.1500 
 30 H       -3.6330    -4.5040     2.0530 H     1 <1>   0.0800 
 31 H       -2.0630    -4.8100     1.3410 H     1 <1>   0.0800 
 32 H       -3.0610    -4.7130    -0.7980 H     1 <1>   0.4500 
 33 H       -5.4840    -4.0570     0.6070 H     1 <1>   0.0800 
 34 H       -5.0310    -3.7060    -1.0590 H     1 <1>   0.0800 
 35 H       -3.2040    -6.8950    -0.7760 H     1 <1>   0.0800 
 36 H       -3.3000    -6.8550     0.9690 H     1 <1>   0.0800 
 37 H       -5.8070    -5.7760    -1.8110 H     1 <1>   0.0800 
 38 H       -5.5880    -6.9340     0.9770 H     1 <1>   0.0800 
 39 H       -7.3550    -5.7560     0.5640 H     1 <1>   0.4000 
 40 H       -5.0360    -8.1640    -1.7460 H     1 <1>   0.0800 
 41 H       -6.5070    -8.3690    -0.8520 H     1 <1>   0.0800 
 42 H       -6.6880   -10.3230     0.4120 H     1 <1>   0.1500 
 43 H       -1.8780   -10.4090     0.7960 H     1 <1>   0.1500 
 44 H       -5.6390   -12.2200     1.6030 H     1 <1>   0.1500 
 45 H       -3.1590   -12.2320     1.7770 H     1 <1>   0.1500 
@<TRIPOS>BOND
  1   1   2  1   
  2   2   3  ar  
  3   2   4  ar  
  4   3   5  1   
  5   3   6  ar  
  6   4   7  ar  
  7   4  25  1   
  8   5   8  1   
  9   6   9  ar  
 10   6  10  1   
 11   7   9  ar  
 12   7  11  1   
 13   8  26  1   
 14   8  27  1   
 15   8  28  1   
 16   9  29  1   
 17  10  12  1   
 18  10  30  1   
 19  10  31  1   
 20  12  13  1   
 21  12  14  1   
 22  12  32  1   
 23  13  15  1   
 24  13  33  1   
 25  13  34  1   
 26  14  16  1   
 27  14  35  1   
 28  14  36  1   
 29  15  16  1   
 30  15  17  1   
 31  15  37  1   
 32  16  18  1   
 33  16  38  1   
 34  17  39  1   
 35  18  19  1   
 36  18  40  1   
 37  18  41  1   
 38  19  20  ar  
 39  19  21  ar  
 40  20  22  ar  
 41  21  23  ar  
 42  21  42  1   
 43  22  24  ar  
 44  22  43  1   
 45  23  24  ar  
 46  23  44  1   
 47  24  45  1   
@<TRIPOS>SUBSTRUCTURE
  1 ****  12 GROUP 4 **** **** 0

# MOE 2024.06 (io_trps.svl 2023.06)
