@<TRIPOS>MOLECULE
NONAME
60 61 1 0 0 
SMALL
USER_CHARGES


@<TRIPOS>ATOM
  1 O       -1.8470     1.0850     2.6980 O.2   1 <1>  -0.5700 
  2 C       -1.5620     1.6450     1.6620 C.2   1 <1>   0.5690 
  3 N       -2.5360     2.1960     0.8600 N.am  1 <1>  -0.6600 
  4 C       -0.0770     1.6550     1.2750 C.3   1 <1>   0.1810 
  5 C       -2.2350     2.8590    -0.4420 C.3   1 <1>   0.1400 
  6 C       -3.9570     2.2250     1.3110 C.3   1 <1>   0.1400 
  7 O        0.3910     2.9250     0.8900 O.3   1 <1>  -0.5600 
  8 C       -3.4670     2.8110    -1.3440 C.3   1 <1>  -0.1600 
  9 C       -4.6610     3.4830     0.7950 C.3   1 <1>  -0.1600 
 10 C        1.7530     2.9750     0.6360 C.3   1 <1>   0.1200 
 11 C       -4.6470     3.6230    -0.7510 C.3   1 <1>   0.2800 
 12 C        2.0830     4.3950     0.1960 C.3   1 <1>  -0.2400 
 13 O       -4.3690     4.9880    -0.9820 O.3   1 <1>  -0.5600 
 14 C       -6.0440     3.2320    -1.3600 C.3   1 <1>   0.2000 
 15 C       -4.7420     5.5500    -2.2040 C.3   1 <1>   0.1200 
 16 O       -5.9040     2.6090    -2.6130 O.3   1 <1>  -0.6800 
 17 C       -6.9820     4.4700    -1.5030 C.3   1 <1>   0.3000 
 18 C       -6.2690     5.5210    -2.3790 C.3   1 <1>  -0.1600 
 19 N       -7.1810     5.1240    -0.1850 N.am  1 <1>  -0.7300 
 20 C       -8.3320     4.1220    -2.1500 C.3   1 <1>  -0.2400 
 21 C       -8.0440     5.0740     0.8600 C.2   1 <1>   0.5690 
 22 O       -7.7890     5.7390     1.8300 O.2   1 <1>  -0.5700 
 23 C       -9.3090     4.2290     0.9090 C.3   1 <1>  -0.0990 
 24 C       -9.0530     2.7330     1.1840 C.3   1 <1>  -0.0800 
 25 C      -10.3600     1.9420     1.0590 C.3   1 <1>  -0.2400 
 26 C       -8.4500     2.5120     2.5780 C.3   1 <1>  -0.2400 
 27 H        0.0760     0.9740     0.4590 H     1 <1>   0.0800 
 28 H        0.4980     1.3270     2.1220 H     1 <1>   0.0800 
 29 H       -1.9470     3.8820    -0.2610 H     1 <1>   0.0800 
 30 H       -1.4180     2.3570    -0.9300 H     1 <1>   0.0800 
 31 H       -4.4580     1.3440     0.9470 H     1 <1>   0.0800 
 32 H       -3.9990     2.2120     2.3870 H     1 <1>   0.0800 
 33 H       -3.7480     1.7780    -1.4520 H     1 <1>   0.0800 
 34 H       -3.2090     3.1720    -2.3200 H     1 <1>   0.0800 
 35 H       -4.1690     4.3280     1.2450 H     1 <1>   0.0800 
 36 H       -5.6640     3.4710     1.1710 H     1 <1>   0.0800 
 37 H        2.2850     2.7240     1.5390 H     1 <1>   0.0800 
 38 H        1.9910     2.2710    -0.1430 H     1 <1>   0.0800 
 39 H        1.8280     5.0900     0.9770 H     1 <1>   0.0800 
 40 H        1.5350     4.6420    -0.6960 H     1 <1>   0.0800 
 41 H        3.1340     4.4800    -0.0100 H     1 <1>   0.0800 
 42 H       -6.5090     2.4970    -0.7310 H     1 <1>   0.0800 
 43 H       -4.3840     6.5660    -2.2180 H     1 <1>   0.0800 
 44 H       -4.2500     5.0090    -2.9930 H     1 <1>   0.0800 
 45 H       -5.4080     3.1880    -3.2200 H     1 <1>   0.4000 
 46 H       -6.6760     6.4970    -2.1840 H     1 <1>   0.0800 
 47 H       -6.4580     5.3230    -3.4190 H     1 <1>   0.0800 
 48 H       -6.3520     5.6860     0.0400 H     1 <1>   0.3700 
 49 H       -8.1940     3.8360    -3.1770 H     1 <1>   0.0800 
 50 H       -8.9920     4.9700    -2.1280 H     1 <1>   0.0800 
 51 H       -8.7870     3.2840    -1.6600 H     1 <1>   0.0800 
 52 H       -9.9300     4.6180     1.6950 H     1 <1>   0.0800 
 53 H       -9.8610     4.3630     0.0020 H     1 <1>   0.0800 
 54 H       -8.3630     2.3520     0.4540 H     1 <1>   0.0800 
 55 H      -11.0830     2.2870     1.7780 H     1 <1>   0.0800 
 56 H      -10.1810     0.8950     1.2300 H     1 <1>   0.0800 
 57 H      -10.7750     2.0550     0.0730 H     1 <1>   0.0800 
 58 H       -9.1190     2.8700     3.3410 H     1 <1>   0.0800 
 59 H       -7.5150     3.0350     2.6790 H     1 <1>   0.0800 
 60 H       -8.2680     1.4650     2.7460 H     1 <1>   0.0800 
@<TRIPOS>BOND
  1   1   2  2   
  2   2   3  am  
  3   2   4  1   
  4   3   5  1   
  5   3   6  1   
  6   4   7  1   
  7   4  27  1   
  8   4  28  1   
  9   5   8  1   
 10   5  29  1   
 11   5  30  1   
 12   6   9  1   
 13   6  31  1   
 14   6  32  1   
 15   7  10  1   
 16   8  11  1   
 17   8  33  1   
 18   8  34  1   
 19   9  11  1   
 20   9  35  1   
 21   9  36  1   
 22  10  12  1   
 23  10  37  1   
 24  10  38  1   
 25  11  13  1   
 26  11  14  1   
 27  12  39  1   
 28  12  40  1   
 29  12  41  1   
 30  13  15  1   
 31  14  16  1   
 32  14  17  1   
 33  14  42  1   
 34  15  18  1   
 35  15  43  1   
 36  15  44  1   
 37  16  45  1   
 38  17  18  1   
 39  17  19  1   
 40  17  20  1   
 41  18  46  1   
 42  18  47  1   
 43  19  21  am  
 44  19  48  1   
 45  20  49  1   
 46  20  50  1   
 47  20  51  1   
 48  21  22  2   
 49  21  23  1   
 50  23  24  1   
 51  23  52  1   
 52  23  53  1   
 53  24  25  1   
 54  24  26  1   
 55  24  54  1   
 56  25  55  1   
 57  25  56  1   
 58  25  57  1   
 59  26  58  1   
 60  26  59  1   
 61  26  60  1   
@<TRIPOS>SUBSTRUCTURE
  1 ****   9 GROUP 4 **** **** 0

# MOE 2024.06 (io_trps.svl 2023.06)
