@<TRIPOS>MOLECULE
NONAME
48 50 1 0 0 
SMALL
USER_CHARGES


@<TRIPOS>ATOM
  1 O        1.6360    -0.8370    -3.6440 O.2   1 <1>  -0.5700 
  2 C        1.1210    -1.2860    -2.6470 C.2   1 <1>   0.5690 
  3 N        1.2180    -0.6990    -1.4230 N.am  1 <1>  -0.4930 
  4 C        0.3430    -2.5890    -2.7520 C.3   1 <1>   0.0820 
  5 C        1.9770     0.4120    -0.9950 C.2   1 <1>   0.0630 
  6 C       -0.3370    -2.9650    -1.4350 C.2   1 <1>  -0.1810 
  7 C        2.2390     0.7450     0.2870 C.2   1 <1>  -0.3320 
  8 C        2.6140     1.3880    -1.7580 C.2   1 <1>   0.1390 
  9 C        0.3240    -3.4590    -0.2730 C.ar  1 <1>   0.0000 
 10 C       -1.6550    -2.8300    -1.1440 C.2   1 <1>  -0.3320 
 11 N        2.9950     1.8720     0.2450 N.pl3 1 <1>   0.3140 
 12 C        1.8110     0.0310     1.5630 C.3   1 <1>  -0.0600 
 13 N        3.2240     2.2690    -1.0220 N.2   1 <1>  -0.7070 
 14 C        1.6460    -3.8070     0.0740 C.ar  1 <1>  -0.1430 
 15 C       -0.6700    -3.5690     0.7010 C.ar  1 <1>  -0.1520 
 16 N       -1.8670    -3.2080     0.1470 N.pl3 1 <1>   0.0330 
 17 C       -2.8160    -2.3320    -1.9920 C.3   1 <1>  -0.0600 
 18 C        3.5410     2.6340     1.3880 C.3   1 <1>   0.0960 
 19 C        1.9130    -4.2110     1.3640 C.ar  1 <1>  -0.1500 
 20 C        2.7920    -3.7710    -0.9260 C.3   1 <1>  -0.0970 
 21 C       -0.3940    -3.9800     2.0080 C.ar  1 <1>  -0.1430 
 22 C        4.9130     2.0940     1.8110 C.3   1 <1>  -0.2400 
 23 C        0.9040    -4.2940     2.3270 C.ar  1 <1>  -0.1500 
 24 C       -1.5060    -4.0760     3.0380 C.3   1 <1>  -0.0970 
 25 H        0.7480    -1.2140    -0.6720 H     1 <1>   0.3700 
 26 H        1.0040    -3.3720    -3.0640 H     1 <1>   0.0800 
 27 H       -0.3880    -2.4730    -3.5280 H     1 <1>   0.0800 
 28 H        2.6030     1.4090    -2.8350 H     1 <1>   0.1500 
 29 H        1.2470    -0.8560     1.3360 H     1 <1>   0.0800 
 30 H        1.1960     0.6780     2.1630 H     1 <1>   0.0800 
 31 H        2.6740    -0.2610     2.1330 H     1 <1>   0.0800 
 32 H       -2.7640    -3.2160     0.6420 H     1 <1>   0.2700 
 33 H       -2.4880    -2.0130    -2.9630 H     1 <1>   0.0800 
 34 H       -3.2910    -1.4970    -1.5100 H     1 <1>   0.0800 
 35 H       -3.5400    -3.1170    -2.1200 H     1 <1>   0.0800 
 36 H        2.8470     2.5790     2.2050 H     1 <1>   0.0800 
 37 H        3.6310     3.6620     1.0870 H     1 <1>   0.0800 
 38 H        2.9120    -4.4780     1.6570 H     1 <1>   0.1500 
 39 H        2.5610    -4.3860    -1.7760 H     1 <1>   0.0800 
 40 H        3.6950    -4.1530    -0.4850 H     1 <1>   0.0800 
 41 H        2.9870    -2.7660    -1.2480 H     1 <1>   0.0800 
 42 H        4.8360     1.0670     2.1180 H     1 <1>   0.0800 
 43 H        5.2970     2.6730     2.6310 H     1 <1>   0.0800 
 44 H        5.6030     2.1660     0.9880 H     1 <1>   0.0800 
 45 H        1.1640    -4.6160     3.3200 H     1 <1>   0.1500 
 46 H       -2.2520    -4.7760     2.7070 H     1 <1>   0.0800 
 47 H       -1.9610    -3.1130     3.1770 H     1 <1>   0.0800 
 48 H       -1.1210    -4.4120     3.9840 H     1 <1>   0.0800 
@<TRIPOS>BOND
  1   1   2  2   
  2   2   3  am  
  3   2   4  1   
  4   3   5  1   
  5   3  25  1   
  6   4   6  1   
  7   4  26  1   
  8   4  27  1   
  9   5   7  2   
 10   5   8  1   
 11   6   9  1   
 12   6  10  2   
 13   7  11  1   
 14   7  12  1   
 15   8  13  2   
 16   8  28  1   
 17   9  14  ar  
 18   9  15  ar  
 19  10  16  1   
 20  10  17  1   
 21  11  13  1   
 22  11  18  1   
 23  12  29  1   
 24  12  30  1   
 25  12  31  1   
 26  14  19  ar  
 27  14  20  1   
 28  15  16  1   
 29  15  21  ar  
 30  16  32  1   
 31  17  33  1   
 32  17  34  1   
 33  17  35  1   
 34  18  22  1   
 35  18  36  1   
 36  18  37  1   
 37  19  23  ar  
 38  19  38  1   
 39  20  39  1   
 40  20  40  1   
 41  20  41  1   
 42  21  23  ar  
 43  21  24  1   
 44  22  42  1   
 45  22  43  1   
 46  22  44  1   
 47  23  45  1   
 48  24  46  1   
 49  24  47  1   
 50  24  48  1   
@<TRIPOS>SUBSTRUCTURE
  1 ****   3 GROUP 4 **** **** 0

# MOE 2024.06 (io_trps.svl 2023.06)
