@<TRIPOS>MOLECULE
NONAME
49 51 1 0 0 
SMALL
USER_CHARGES


@<TRIPOS>ATOM
  1 O       -1.3230     0.1900     0.6330 O.2   1 <1>  -0.5700 
  2 C       -1.9370     0.9850    -0.0560 C.2   1 <1>   0.5440 
  3 N       -2.9030     0.4710    -0.8960 N.am  1 <1>  -0.6600 
  4 C       -1.6820     2.4120     0.0500 C.ar  1 <1>   0.0860 
  5 C       -2.8710    -0.9750    -1.2300 C.3   1 <1>   0.1400 
  6 C       -4.2700     1.0580    -0.9250 C.3   1 <1>   0.1400 
  7 C       -1.3020     2.9860     1.2630 C.ar  1 <1>  -0.1500 
  8 C       -1.8010     3.2630    -1.0490 C.ar  1 <1>  -0.1500 
  9 C       -3.6920    -1.7400    -0.1700 C.3   1 <1>   0.4230 
 10 C       -5.1310     0.3160     0.1080 C.3   1 <1>  -0.1600 
 11 C       -1.0700     4.3450     1.3780 C.ar  1 <1>  -0.1500 
 12 C       -1.5710     4.6220    -0.9390 C.ar  1 <1>  -0.1500 
 13 N       -3.5600    -3.2540    -0.2560 N.4   1 <1>  -0.9590 
 14 C       -5.1640    -1.2290    -0.0920 C.3   1 <1>   0.0000 
 15 C       -1.2080     5.1730     0.2780 C.ar  1 <1>  -0.1430 
 16 C       -4.6360    -4.0040     0.4680 C.3   1 <1>   0.3430 
 17 C       -3.3810    -3.8110    -1.6360 C.3   1 <1>   0.2630 
 18 C       -5.8670    -1.8780     1.1370 C.3   1 <1>  -0.1600 
 19 C       -5.9230    -1.5860    -1.4030 C.3   1 <1>   0.1200 
 20 C       -0.9530     6.6640     0.4030 C.3   1 <1>  -0.0970 
 21 C       -5.1980    -3.1780     1.6240 C.3   1 <1>  -0.1600 
 22 O       -7.1690    -0.9850    -1.4550 O.3   1 <1>  -0.6800 
 23 H       -3.2640    -1.1120    -2.2200 H     1 <1>   0.0800 
 24 H       -1.8500    -1.3170    -1.2190 H     1 <1>   0.0800 
 25 H       -4.2380     2.1060    -0.6780 H     1 <1>   0.0800 
 26 H       -4.6890     0.9630    -1.9120 H     1 <1>   0.0800 
 27 H       -1.1850     2.3540     2.1260 H     1 <1>   0.1500 
 28 H       -2.0730     2.8530    -2.0060 H     1 <1>   0.1500 
 29 H       -3.2490    -1.4560     0.7720 H     1 <1>   0.0800 
 30 H       -4.7280     0.5480     1.0790 H     1 <1>   0.0800 
 31 H       -6.1260     0.7250     0.0870 H     1 <1>   0.0800 
 32 H       -0.7790     4.7550     2.3300 H     1 <1>   0.1500 
 33 H       -1.6730     5.2520    -1.8060 H     1 <1>   0.1500 
 34 H       -2.6860    -3.4490     0.2580 H     1 <1>   0.4500 
 35 H       -5.4420    -4.2320    -0.2110 H     1 <1>   0.0800 
 36 H       -4.2450    -4.9370     0.8420 H     1 <1>   0.0800 
 37 H       -4.2430    -3.5970    -2.2450 H     1 <1>   0.0800 
 38 H       -3.2490    -4.8810    -1.5920 H     1 <1>   0.0800 
 39 H       -2.5090    -3.3840    -2.1060 H     1 <1>   0.0800 
 40 H       -5.8790    -1.1950     1.9710 H     1 <1>   0.0800 
 41 H       -6.8990    -2.0820     0.9090 H     1 <1>   0.0800 
 42 H       -6.0760    -2.6470    -1.4940 H     1 <1>   0.0800 
 43 H       -5.3900    -1.2450    -2.2710 H     1 <1>   0.0800 
 44 H       -1.2040     7.0080     1.3900 H     1 <1>   0.0800 
 45 H       -1.5480     7.2100    -0.3070 H     1 <1>   0.0800 
 46 H        0.0860     6.8720     0.2170 H     1 <1>   0.0800 
 47 H       -5.9220    -3.7670     2.1620 H     1 <1>   0.0800 
 48 H       -4.4030    -2.9510     2.3140 H     1 <1>   0.0800 
 49 H       -7.7530    -1.2750    -0.7260 H     1 <1>   0.4000 
@<TRIPOS>BOND
  1   1   2  2   
  2   2   3  am  
  3   2   4  1   
  4   3   5  1   
  5   3   6  1   
  6   4   7  ar  
  7   4   8  ar  
  8   5   9  1   
  9   5  23  1   
 10   5  24  1   
 11   6  10  1   
 12   6  25  1   
 13   6  26  1   
 14   7  11  ar  
 15   7  27  1   
 16   8  12  ar  
 17   8  28  1   
 18   9  13  1   
 19   9  14  1   
 20   9  29  1   
 21  10  14  1   
 22  10  30  1   
 23  10  31  1   
 24  11  15  ar  
 25  11  32  1   
 26  12  15  ar  
 27  12  33  1   
 28  13  16  1   
 29  13  17  1   
 30  13  34  1   
 31  14  18  1   
 32  14  19  1   
 33  15  20  1   
 34  16  21  1   
 35  16  35  1   
 36  16  36  1   
 37  17  37  1   
 38  17  38  1   
 39  17  39  1   
 40  18  21  1   
 41  18  40  1   
 42  18  41  1   
 43  19  22  1   
 44  19  42  1   
 45  19  43  1   
 46  20  44  1   
 47  20  45  1   
 48  20  46  1   
 49  21  47  1   
 50  21  48  1   
 51  22  49  1   
@<TRIPOS>SUBSTRUCTURE
  1 ****   3 GROUP 4 **** **** 0

# MOE 2024.06 (io_trps.svl 2023.06)
