@<TRIPOS>MOLECULE
NONAME
45 46 1 0 0 
SMALL
USER_CHARGES


@<TRIPOS>ATOM
  1 O       -1.0160    -0.3820    -0.6840 O.2   1 <1>  -0.5700 
  2 C       -1.7600     0.3380    -0.0440 C.2   1 <1>   0.5440 
  3 N       -2.6570    -0.2310     0.8330 N.am  1 <1>  -0.6600 
  4 C       -1.6700     1.7760    -0.2080 C.ar  1 <1>   0.0860 
  5 C       -2.7870    -1.7170     0.9450 C.3   1 <1>   0.3210 
  6 C       -3.5600     0.5660     1.7270 C.3   1 <1>   0.1400 
  7 C       -0.8050     2.5650     0.5550 C.ar  1 <1>  -0.1440 
  8 C       -2.4730     2.4120    -1.1500 C.ar  1 <1>  -0.1500 
  9 C       -4.1190    -2.1880     0.3730 C.2   1 <1>   0.0460 
 10 C       -4.7170     1.2950     1.0110 C.3   1 <1>   0.1200 
 11 C       -0.7790     3.9370     0.3770 C.ar  1 <1>  -0.1500 
 12 C        0.1210     1.9210     1.5790 C.3   1 <1>  -0.0960 
 13 C       -2.4510     3.7840    -1.3300 C.ar  1 <1>  -0.1440 
 14 N       -5.2350    -2.2160     1.1340 N.2   1 <1>  -0.5650 
 15 C       -4.3900    -2.5910    -0.8900 C.2   1 <1>  -0.3320 
 16 O       -5.2460     0.5430    -0.0270 O.3   1 <1>  -0.6800 
 17 C       -1.5950     4.5570    -0.5570 C.ar  1 <1>  -0.1440 
 18 C       -3.3700     4.4050    -2.3720 C.3   1 <1>  -0.0970 
 19 C       -6.1510    -2.6410     0.3260 C.2   1 <1>   0.0360 
 20 N       -5.7020    -2.8880    -0.9210 N.pl3 1 <1>   0.0330 
 21 C       -3.4860    -2.6950    -2.1070 C.3   1 <1>  -0.0600 
 22 C       -1.5280     6.0690    -0.7150 C.3   1 <1>  -0.0970 
 23 H       -2.7210    -2.0070     1.9780 H     1 <1>   0.0800 
 24 H       -1.9880    -2.2100     0.4230 H     1 <1>   0.0800 
 25 H       -2.9750     1.2940     2.2600 H     1 <1>   0.0800 
 26 H       -3.9870    -0.0880     2.4670 H     1 <1>   0.0800 
 27 H       -3.1340     1.7990    -1.7400 H     1 <1>   0.1500 
 28 H       -4.3880     2.2350     0.6070 H     1 <1>   0.0800 
 29 H       -5.5080     1.4910     1.7120 H     1 <1>   0.0800 
 30 H       -0.1100     4.5340     0.9710 H     1 <1>   0.1500 
 31 H        0.7510     1.1960     1.0940 H     1 <1>   0.0800 
 32 H       -0.4530     1.4250     2.3400 H     1 <1>   0.0800 
 33 H        0.7500     2.6550     2.0490 H     1 <1>   0.0800 
 34 H       -5.1530    -0.4190     0.1940 H     1 <1>   0.4000 
 35 H       -3.9820     3.6560    -2.8420 H     1 <1>   0.0800 
 36 H       -2.7870     4.8920    -3.1330 H     1 <1>   0.0800 
 37 H       -4.0190     5.1260    -1.9090 H     1 <1>   0.0800 
 38 H       -7.1810    -2.7870     0.6010 H     1 <1>   0.1500 
 39 H       -6.2480    -3.2150    -1.7220 H     1 <1>   0.2700 
 40 H       -2.4880    -2.3730    -1.8670 H     1 <1>   0.0800 
 41 H       -3.8580    -2.0660    -2.8960 H     1 <1>   0.0800 
 42 H       -3.4430    -3.7110    -2.4560 H     1 <1>   0.0800 
 43 H       -0.7980     6.4960    -0.0520 H     1 <1>   0.0800 
 44 H       -2.4840     6.5060    -0.4910 H     1 <1>   0.0800 
 45 H       -1.2540     6.3210    -1.7230 H     1 <1>   0.0800 
@<TRIPOS>BOND
  1   1   2  2   
  2   2   3  am  
  3   2   4  1   
  4   3   5  1   
  5   3   6  1   
  6   4   7  ar  
  7   4   8  ar  
  8   5   9  1   
  9   5  23  1   
 10   5  24  1   
 11   6  10  1   
 12   6  25  1   
 13   6  26  1   
 14   7  11  ar  
 15   7  12  1   
 16   8  13  ar  
 17   8  27  1   
 18   9  14  1   
 19   9  15  2   
 20  10  16  1   
 21  10  28  1   
 22  10  29  1   
 23  11  17  ar  
 24  11  30  1   
 25  12  31  1   
 26  12  32  1   
 27  12  33  1   
 28  13  17  ar  
 29  13  18  1   
 30  14  19  2   
 31  15  20  1   
 32  15  21  1   
 33  16  34  1   
 34  17  22  1   
 35  18  35  1   
 36  18  36  1   
 37  18  37  1   
 38  19  20  1   
 39  19  38  1   
 40  20  39  1   
 41  21  40  1   
 42  21  41  1   
 43  21  42  1   
 44  22  43  1   
 45  22  44  1   
 46  22  45  1   
@<TRIPOS>SUBSTRUCTURE
  1 ****   2 GROUP 4 **** **** 0

# MOE 2024.06 (io_trps.svl 2023.06)
