@<TRIPOS>MOLECULE
NONAME
52 54 1 0 0 
SMALL
USER_CHARGES


@<TRIPOS>ATOM
  1 O       -0.8510     0.2550     1.9510 O.2   1 <1>  -0.5700 
  2 C       -1.5440     0.9080     1.1960 C.2   1 <1>   0.5440 
  3 N       -2.4310     0.2520     0.3780 N.am  1 <1>  -0.6600 
  4 C       -1.4220     2.3510     1.1610 C.ar  1 <1>   0.0860 
  5 C       -3.2260     0.8680    -0.7140 C.3   1 <1>   0.1400 
  6 C       -2.5370    -1.2290     0.3160 C.3   1 <1>   0.1400 
  7 C       -0.2630     2.9570     0.6830 C.ar  1 <1>  -0.1500 
  8 C       -2.4570     3.1770     1.5950 C.ar  1 <1>  -0.1500 
  9 C       -4.2260    -0.2190    -1.1030 C.3   1 <1>   0.2000 
 10 C       -3.4390    -1.5150    -0.8900 C.3   1 <1>  -0.0800 
 11 C       -0.1320     4.3350     0.6140 C.ar  1 <1>   0.0730 
 12 C       -2.3440     4.5530     1.5370 C.ar  1 <1>  -0.1500 
 13 O       -5.2810    -0.1640    -0.2040 O.3   1 <1>  -0.6800 
 14 C       -4.2870    -2.7910    -0.7440 C.3   1 <1>   0.0210 
 15 C        1.0640     4.9340     0.1050 C.1   1 <1>  -0.0730 
 16 C       -1.1860     5.1270     1.0450 C.ar  1 <1>  -0.1500 
 17 C       -3.4010    -4.0050    -0.5470 C.2   1 <1>   0.1080 
 18 C        2.0500     5.4480    -0.3210 C.1   1 <1>  -0.2000 
 19 N       -2.5710    -4.4240    -1.4510 N.2   1 <1>  -0.7070 
 20 C       -3.3650    -4.7870     0.6030 C.2   1 <1>  -0.1500 
 21 C        3.2810     6.0980    -0.8490 C.3   1 <1>   0.4800 
 22 N       -1.9770    -5.4970    -0.8960 N.pl3 1 <1>   0.3000 
 23 C       -2.4400    -5.7370     0.3490 C.2   1 <1>  -0.3320 
 24 O        2.9490     7.3740    -1.2190 O.3   1 <1>  -0.6800 
 25 C        4.3520     6.2040     0.2300 C.3   1 <1>  -0.2400 
 26 C        3.7920     5.3830    -2.0940 C.3   1 <1>  -0.2400 
 27 C       -1.9620    -6.8740     1.2320 C.3   1 <1>  -0.0600 
 28 H       -3.7230     1.7700    -0.4020 H     1 <1>   0.0800 
 29 H       -2.5740     1.0810    -1.5430 H     1 <1>   0.0800 
 30 H       -1.5660    -1.6790     0.1940 H     1 <1>   0.0800 
 31 H       -2.9800    -1.5880     1.2290 H     1 <1>   0.0800 
 32 H        0.5510     2.3330     0.3590 H     1 <1>   0.1500 
 33 H       -3.3550     2.7280     1.9820 H     1 <1>   0.1500 
 34 H       -4.6140    -0.1080    -2.1010 H     1 <1>   0.0800 
 35 H       -2.7930    -1.6470    -1.7420 H     1 <1>   0.0800 
 36 H       -3.1530     5.1790     1.8750 H     1 <1>   0.1500 
 37 H       -4.9090    -0.1450     0.7010 H     1 <1>   0.4000 
 38 H       -4.8760    -2.9360    -1.6310 H     1 <1>   0.0800 
 39 H       -4.9590    -2.7080     0.0910 H     1 <1>   0.0800 
 40 H       -1.0930     6.1990     0.9960 H     1 <1>   0.1500 
 41 H       -3.9570    -4.6430     1.4890 H     1 <1>   0.1500 
 42 H       -1.2610    -6.0420    -1.3920 H     1 <1>   0.2700 
 43 H        3.7400     7.8180    -1.5660 H     1 <1>   0.4000 
 44 H        4.6250     5.2190     0.5650 H     1 <1>   0.0800 
 45 H        3.9710     6.7510     1.0750 H     1 <1>   0.0800 
 46 H        5.2310     6.6920    -0.1470 H     1 <1>   0.0800 
 47 H        4.0460     4.3680    -1.8480 H     1 <1>   0.0800 
 48 H        4.6670     5.8690    -2.4840 H     1 <1>   0.0800 
 49 H        3.0240     5.3640    -2.8470 H     1 <1>   0.0800 
 50 H       -2.4810    -6.8530     2.1740 H     1 <1>   0.0800 
 51 H       -0.9070    -6.7810     1.4200 H     1 <1>   0.0800 
 52 H       -2.1540    -7.8200     0.7570 H     1 <1>   0.0800 
@<TRIPOS>BOND
  1   1   2  2   
  2   2   3  am  
  3   2   4  1   
  4   3   5  1   
  5   3   6  1   
  6   4   7  ar  
  7   4   8  ar  
  8   5   9  1   
  9   5  28  1   
 10   5  29  1   
 11   6  10  1   
 12   6  30  1   
 13   6  31  1   
 14   7  11  ar  
 15   7  32  1   
 16   8  12  ar  
 17   8  33  1   
 18   9  10  1   
 19   9  13  1   
 20   9  34  1   
 21  10  14  1   
 22  10  35  1   
 23  11  15  1   
 24  11  16  ar  
 25  12  16  ar  
 26  12  36  1   
 27  13  37  1   
 28  14  17  1   
 29  14  38  1   
 30  14  39  1   
 31  15  18  3   
 32  16  40  1   
 33  17  19  2   
 34  17  20  1   
 35  18  21  1   
 36  19  22  1   
 37  20  23  2   
 38  20  41  1   
 39  21  24  1   
 40  21  25  1   
 41  21  26  1   
 42  22  23  1   
 43  22  42  1   
 44  23  27  1   
 45  24  43  1   
 46  25  44  1   
 47  25  45  1   
 48  25  46  1   
 49  26  47  1   
 50  26  48  1   
 51  26  49  1   
 52  27  50  1   
 53  27  51  1   
 54  27  52  1   
@<TRIPOS>SUBSTRUCTURE
  1 ****   2 GROUP 4 **** **** 0

# MOE 2024.06 (io_trps.svl 2023.06)
