@<TRIPOS>MOLECULE
NONAME
50 53 1 0 0 
SMALL
USER_CHARGES


@<TRIPOS>ATOM
  1 O        1.5050    -0.9780     2.6650 O.2   1 <1>  -0.5700 
  2 C        1.7430    -1.1210     1.4780 C.2   1 <1>   0.5440 
  3 N        2.2940    -0.0710     0.7770 N.am  1 <1>  -0.6600 
  4 C        1.4660    -2.3830     0.8360 C.ar  1 <1>   0.0860 
  5 C        2.1320     1.3340     1.2780 C.3   1 <1>   0.4000 
  6 C        2.8770    -0.2690    -0.5840 C.3   1 <1>   0.1400 
  7 C        0.2910    -2.6000     0.0910 C.ar  1 <1>   0.1000 
  8 C        2.4030    -3.4140     0.9230 C.ar  1 <1>  -0.1500 
  9 C        0.9420     2.0180     0.5950 C.2   1 <1>   0.2980 
 10 C        3.4450     2.1390     1.1380 C.3   1 <1>  -0.1600 
 11 C        3.8820     0.8300    -0.9640 C.3   1 <1>  -0.1600 
 12 N       -0.7400    -1.6690    -0.0190 N.pl3 1 <1>  -0.8380 
 13 C        0.1270    -3.8150    -0.5670 C.ar  1 <1>  -0.1500 
 14 C        2.2170    -4.6160     0.2710 C.ar  1 <1>  -0.1500 
 15 O        0.9850     2.2230    -0.7000 O.3   1 <1>  -0.0190 
 16 N       -0.1260     2.4150     1.1690 N.2   1 <1>  -0.5650 
 17 C        4.5240     1.4740     0.2680 C.3   1 <1>  -0.1600 
 18 C       -1.3390    -1.0240     1.1870 C.3   1 <1>   0.2090 
 19 C       -0.9190    -0.8580    -1.2540 C.3   1 <1>   0.2090 
 20 C        1.0740    -4.8150    -0.4850 C.ar  1 <1>  -0.1500 
 21 N       -0.1590     2.7690    -0.9750 N.2   1 <1>  -0.4100 
 22 C       -0.7960     2.8680     0.1220 C.2   1 <1>   0.3350 
 23 C       -2.7920    -0.6060     0.9010 C.3   1 <1>   0.1200 
 24 C       -2.3910    -0.4340    -1.4120 C.3   1 <1>   0.1200 
 25 C       -2.1870     3.4320     0.2740 C.3   1 <1>  -0.0590 
 26 O       -2.8810     0.1900    -0.2530 O.3   1 <1>  -0.5600 
 27 H        1.8940     1.3080     2.3270 H     1 <1>   0.0800 
 28 H        2.0850    -0.3090    -1.3130 H     1 <1>   0.0800 
 29 H        3.3900    -1.2150    -0.6020 H     1 <1>   0.0800 
 30 H        3.2890    -3.2560     1.5130 H     1 <1>   0.1500 
 31 H        3.8490     2.3050     2.1210 H     1 <1>   0.0800 
 32 H        3.2150     3.1110     0.7360 H     1 <1>   0.0800 
 33 H        3.3840     1.5850    -1.5460 H     1 <1>   0.0800 
 34 H        4.6440     0.4040    -1.5930 H     1 <1>   0.0800 
 35 H       -0.7700    -3.9700    -1.1390 H     1 <1>   0.1500 
 36 H        2.9540    -5.3970     0.3480 H     1 <1>   0.1500 
 37 H        5.0260     0.7120     0.8410 H     1 <1>   0.0800 
 38 H        5.2570     2.2040    -0.0300 H     1 <1>   0.0800 
 39 H       -0.7740    -0.1500     1.4550 H     1 <1>   0.0800 
 40 H       -1.3100    -1.7080     2.0170 H     1 <1>   0.0800 
 41 H       -0.6100    -1.4280    -2.1120 H     1 <1>   0.0800 
 42 H       -0.3040     0.0200    -1.1950 H     1 <1>   0.0800 
 43 H        0.9230    -5.7480    -0.9980 H     1 <1>   0.1500 
 44 H       -3.1770    -0.0330     1.7250 H     1 <1>   0.0800 
 45 H       -3.4080    -1.4770     0.7650 H     1 <1>   0.0800 
 46 H       -3.0040    -1.2930    -1.6190 H     1 <1>   0.0800 
 47 H       -2.4860     0.2650    -2.2230 H     1 <1>   0.0800 
 48 H       -2.8190     2.7040     0.7460 H     1 <1>   0.0800 
 49 H       -2.5930     3.6740    -0.6900 H     1 <1>   0.0800 
 50 H       -2.1530     4.3180     0.8800 H     1 <1>   0.0800 
@<TRIPOS>BOND
  1   1   2  2   
  2   2   3  am  
  3   2   4  1   
  4   3   5  1   
  5   3   6  1   
  6   4   7  ar  
  7   4   8  ar  
  8   5   9  1   
  9   5  10  1   
 10   5  27  1   
 11   6  11  1   
 12   6  28  1   
 13   6  29  1   
 14   7  12  1   
 15   7  13  ar  
 16   8  14  ar  
 17   8  30  1   
 18   9  15  1   
 19   9  16  2   
 20  10  17  1   
 21  10  31  1   
 22  10  32  1   
 23  11  17  1   
 24  11  33  1   
 25  11  34  1   
 26  12  18  1   
 27  12  19  1   
 28  13  20  ar  
 29  13  35  1   
 30  14  20  ar  
 31  14  36  1   
 32  15  21  1   
 33  16  22  1   
 34  17  37  1   
 35  17  38  1   
 36  18  23  1   
 37  18  39  1   
 38  18  40  1   
 39  19  24  1   
 40  19  41  1   
 41  19  42  1   
 42  20  43  1   
 43  21  22  2   
 44  22  25  1   
 45  23  26  1   
 46  23  44  1   
 47  23  45  1   
 48  24  26  1   
 49  24  46  1   
 50  24  47  1   
 51  25  48  1   
 52  25  49  1   
 53  25  50  1   
@<TRIPOS>SUBSTRUCTURE
  1 ****   3 GROUP 4 **** **** 0

# MOE 2024.06 (io_trps.svl 2023.06)
