@<TRIPOS>MOLECULE
NONAME
46 49 1 0 0 
SMALL
USER_CHARGES


@<TRIPOS>ATOM
  1 O        0.8080    -0.5670    -0.9180 O.2   1 <1>  -0.5700 
  2 C        1.5190    -1.0240    -0.0440 C.2   1 <1>   0.7030 
  3 N        2.4430    -0.2180     0.5860 N.am  1 <1>  -0.4940 
  4 C        1.3730    -2.4310     0.2900 C.2   1 <1>   0.2770 
  5 C        2.5210     1.1960     0.5440 C.2   1 <1>  -0.0880 
  6 N        0.6250    -3.3290    -0.4530 N.pl3 1 <1>  -0.7000 
  7 C        1.8730    -3.1480     1.3270 C.2   1 <1>   0.2000 
  8 N        3.6620     1.9170     0.3410 N.pl3 1 <1>   0.3140 
  9 C        1.5230     2.0990     0.7040 C.2   1 <1>  -0.1810 
 10 C        0.6760    -4.5400     0.1140 C.cat 1 <1>   0.7910 
 11 N        1.4510    -4.4550     1.2230 N.pl3 1 <1>  -0.6290 
 12 N        3.4120     3.2470     0.3890 N.2   1 <1>  -0.7070 
 13 C        5.0230     1.3770     0.0500 C.3   1 <1>   0.1760 
 14 C        2.1370     3.3410     0.5960 C.2   1 <1>   0.1390 
 15 C        0.0400     1.8890     0.9510 C.3   1 <1>  -0.0590 
 16 C        0.0770    -5.7600    -0.2680 C.2   1 <1>  -0.1290 
 17 C        1.6670    -5.5700     2.0050 C.2   1 <1>   0.2290 
 18 C        6.0470     1.7170     1.1350 C.3   1 <1>  -0.1600 
 19 C        5.6440     1.9390    -1.2290 C.3   1 <1>  -0.1600 
 20 C        0.2940    -6.8690     0.5070 C.2   1 <1>  -0.1500 
 21 C       -0.7920    -5.8380    -1.5190 C.3   1 <1>  -0.1020 
 22 C        1.1020    -6.7620     1.6580 C.2   1 <1>  -0.1500 
 23 C        7.4130     1.6490     0.4420 C.3   1 <1>  -0.1600 
 24 C        7.1450     1.6920    -1.0680 C.3   1 <1>  -0.1600 
 25 H        3.1820    -0.6680     1.1230 H     1 <1>   0.3700 
 26 H        0.1000    -3.0690    -1.2940 H     1 <1>   0.4500 
 27 H        2.4970    -2.8110     2.1390 H     1 <1>   0.1500 
 28 H        4.9640     0.3100    -0.0490 H     1 <1>   0.0800 
 29 H        1.6230     4.2840     0.6760 H     1 <1>   0.1500 
 30 H       -0.1380     0.9270     1.3940 H     1 <1>   0.0800 
 31 H       -0.4930     1.9460     0.0190 H     1 <1>   0.0800 
 32 H       -0.3360     2.6470     1.6150 H     1 <1>   0.0800 
 33 H        2.2870    -5.4690     2.8830 H     1 <1>   0.1500 
 34 H        5.9890     1.0420     1.9700 H     1 <1>   0.0800 
 35 H        5.8840     2.7260     1.4790 H     1 <1>   0.0800 
 36 H        5.4710     3.0010    -1.2840 H     1 <1>   0.0800 
 37 H        5.2500     1.4660    -2.1110 H     1 <1>   0.0800 
 38 H       -0.1360    -7.8280     0.2650 H     1 <1>   0.1500 
 39 H       -1.6360    -5.1760    -1.4320 H     1 <1>   0.0800 
 40 H       -1.1670    -6.8370    -1.6630 H     1 <1>   0.0800 
 41 H       -0.2220    -5.5680    -2.3910 H     1 <1>   0.0800 
 42 H        1.2620    -7.6430     2.2580 H     1 <1>   0.1500 
 43 H        7.9220     0.7340     0.6980 H     1 <1>   0.0800 
 44 H        8.0270     2.4800     0.7460 H     1 <1>   0.0800 
 45 H        7.7190     2.4660    -1.5500 H     1 <1>   0.0800 
 46 H        7.4070     0.7440    -1.5070 H     1 <1>   0.0800 
@<TRIPOS>BOND
  1   1   2  2   
  2   2   3  am  
  3   2   4  1   
  4   3   5  1   
  5   3  25  1   
  6   4   6  1   
  7   4   7  2   
  8   5   8  1   
  9   5   9  2   
 10   6  10  ar  
 11   6  26  1   
 12   7  11  1   
 13   7  27  1   
 14   8  12  1   
 15   8  13  1   
 16   9  14  1   
 17   9  15  1   
 18  10  11  ar  
 19  10  16  1   
 20  11  17  1   
 21  12  14  2   
 22  13  18  1   
 23  13  19  1   
 24  13  28  1   
 25  14  29  1   
 26  15  30  1   
 27  15  31  1   
 28  15  32  1   
 29  16  20  2   
 30  16  21  1   
 31  17  22  2   
 32  17  33  1   
 33  18  23  1   
 34  18  34  1   
 35  18  35  1   
 36  19  24  1   
 37  19  36  1   
 38  19  37  1   
 39  20  22  1   
 40  20  38  1   
 41  21  39  1   
 42  21  40  1   
 43  21  41  1   
 44  22  42  1   
 45  23  24  1   
 46  23  43  1   
 47  23  44  1   
 48  24  45  1   
 49  24  46  1   
@<TRIPOS>SUBSTRUCTURE
  1 ****   2 GROUP 4 **** **** 0

# MOE 2024.06 (io_trps.svl 2023.06)
