@<TRIPOS>MOLECULE
NONAME
24 24 1 0 0 
SMALL
USER_CHARGES


@<TRIPOS>ATOM
  1 O        0.7010     0.0300     1.4400 O.2   1 <1>  -0.5700 
  2 C        1.2560    -0.6510     0.6120 C.2   1 <1>   0.5690 
  3 N        0.8570    -1.9300     0.4460 N.am  1 <1>  -0.7300 
  4 C        2.4230    -0.0950    -0.2050 C.3   1 <1>  -0.0190 
  5 C        1.5270    -2.9910    -0.3280 C.3   1 <1>   0.1400 
  6 C        3.7540    -0.7330     0.2460 C.3   1 <1>  -0.1600 
  7 C        2.5060     1.4400    -0.1130 C.3   1 <1>   0.0860 
  8 C        2.9530    -3.2080     0.1900 C.3   1 <1>  -0.1600 
  9 C        3.9690    -2.1580    -0.2940 C.3   1 <1>  -0.1600 
 10 N        1.4000     2.0590    -0.8380 N.2   1 <1>  -0.5640 
 11 N        0.5680     2.7350    -0.1860 N.1   1 <1>   0.6880 
 12 N       -0.2360     3.4290     0.4410 N.1   1 <1>  -0.3700 
 13 H        0.0850    -2.2240     1.0480 H     1 <1>   0.3700 
 14 H        2.2630    -0.3400    -1.2390 H     1 <1>   0.0800 
 15 H        1.5370    -2.7320    -1.3730 H     1 <1>   0.0800 
 16 H        0.9650    -3.9020    -0.2140 H     1 <1>   0.0800 
 17 H        3.8040    -0.7390     1.3230 H     1 <1>   0.0800 
 18 H        4.5730    -0.1320    -0.1090 H     1 <1>   0.0800 
 19 H        3.4220     1.7820    -0.5610 H     1 <1>   0.0800 
 20 H        2.5060     1.7460     0.9220 H     1 <1>   0.0800 
 21 H        3.2850    -4.1660    -0.1690 H     1 <1>   0.0800 
 22 H        2.9480    -3.2580     1.2650 H     1 <1>   0.0800 
 23 H        4.9500    -2.4810     0.0120 H     1 <1>   0.0800 
 24 H        3.9700    -2.1340    -1.3700 H     1 <1>   0.0800 
@<TRIPOS>BOND
  1   1   2  2   
  2   2   3  am  
  3   2   4  1   
  4   3   5  1   
  5   3  13  1   
  6   4   6  1   
  7   4   7  1   
  8   4  14  1   
  9   5   8  1   
 10   5  15  1   
 11   5  16  1   
 12   6   9  1   
 13   6  17  1   
 14   6  18  1   
 15   7  10  1   
 16   7  19  1   
 17   7  20  1   
 18   8   9  1   
 19   8  21  1   
 20   8  22  1   
 21   9  23  1   
 22   9  24  1   
 23  10  11  2   
 24  11  12  3   
@<TRIPOS>SUBSTRUCTURE
  1 ****   4 GROUP 4 **** **** 0

# MOE 2024.06 (io_trps.svl 2023.06)
