@<TRIPOS>MOLECULE
NONAME
49 51 1 0 0 
SMALL
USER_CHARGES


@<TRIPOS>ATOM
  1 O       -1.7660     0.3420     2.4300 O.2   1 <1>  -0.5700 
  2 C       -1.8020     0.1420     1.2400 C.2   1 <1>   0.5690 
  3 N       -0.6820    -0.1460     0.5220 N.am  1 <1>  -0.7300 
  4 C       -3.1380     0.2410     0.5370 C.3   1 <1>   0.1570 
  5 C        0.6950    -0.2700     1.0570 C.3   1 <1>   0.0600 
  6 N       -3.2790    -0.8370    -0.4550 N.pl3 1 <1>   0.3140 
  7 N       -2.6490    -0.7940    -1.6480 N.2   1 <1>  -0.7070 
  8 C       -4.0140    -1.9630    -0.3260 C.2   1 <1>  -0.3020 
  9 C       -3.0020    -1.8950    -2.2460 C.2   1 <1>   0.1390 
 10 C       -3.8590    -2.6700    -1.4630 C.2   1 <1>   0.0630 
 11 N       -4.4540    -3.9190    -1.7540 N.am  1 <1>  -0.4930 
 12 C       -4.2490    -4.7560    -2.8100 C.2   1 <1>   0.5690 
 13 O       -3.4830    -4.5080    -3.7120 O.2   1 <1>  -0.5700 
 14 C       -5.0100    -6.0720    -2.8490 C.3   1 <1>   0.0820 
 15 C       -5.9840    -6.2150    -1.6820 C.2   1 <1>  -0.1810 
 16 C       -5.6290    -6.5340    -0.3400 C.ar  1 <1>   0.0000 
 17 C       -7.3250    -6.0140    -1.7270 C.2   1 <1>  -0.3320 
 18 C       -4.4380    -6.8380     0.3500 C.ar  1 <1>  -0.1440 
 19 C       -6.8240    -6.4970     0.3790 C.ar  1 <1>  -0.1520 
 20 N       -7.8440    -6.1970    -0.4810 N.pl3 1 <1>   0.0330 
 21 C       -8.2340    -5.6330    -2.8850 C.3   1 <1>  -0.0600 
 22 C       -4.4940    -7.0690     1.7070 C.ar  1 <1>  -0.1500 
 23 C       -3.0890    -6.9310    -0.3490 C.3   1 <1>  -0.0970 
 24 C       -6.8760    -6.7340     1.7550 C.ar  1 <1>  -0.1430 
 25 C       -5.7010    -7.0170     2.4080 C.ar  1 <1>  -0.1500 
 26 C       -8.1990    -6.6810     2.4990 C.3   1 <1>  -0.0970 
 27 H       -0.8150    -0.3790    -0.4760 H     1 <1>   0.3700 
 28 H       -3.2050     1.1840     0.0330 H     1 <1>   0.0800 
 29 H       -3.9300     0.1650     1.2550 H     1 <1>   0.0800 
 30 H        0.7110    -0.0340     2.1070 H     1 <1>   0.0800 
 31 H        1.3490     0.4090     0.5380 H     1 <1>   0.0800 
 32 H        1.0480    -1.2770     0.9200 H     1 <1>   0.0800 
 33 H       -4.5910    -2.1980     0.5490 H     1 <1>   0.1500 
 34 H       -2.6710    -2.1760    -3.2320 H     1 <1>   0.1500 
 35 H       -5.1030    -4.2820    -1.0470 H     1 <1>   0.3700 
 36 H       -4.3130    -6.8860    -2.8530 H     1 <1>   0.0800 
 37 H       -5.5400    -6.1170    -3.7800 H     1 <1>   0.0800 
 38 H       -8.8290    -6.1220    -0.2130 H     1 <1>   0.2700 
 39 H       -7.6740    -5.4530    -3.7830 H     1 <1>   0.0800 
 40 H       -8.7770    -4.7360    -2.6460 H     1 <1>   0.0800 
 41 H       -8.9370    -6.4230    -3.0760 H     1 <1>   0.0800 
 42 H       -3.6010    -7.3000     2.2600 H     1 <1>   0.1500 
 43 H       -2.8260    -5.9900    -0.7930 H     1 <1>   0.0800 
 44 H       -3.1180    -7.6940    -1.1040 H     1 <1>   0.0800 
 45 H       -2.3150    -7.1900     0.3500 H     1 <1>   0.0800 
 46 H       -5.6910    -7.2050     3.4660 H     1 <1>   0.1500 
 47 H       -8.8770    -7.4100     2.0940 H     1 <1>   0.0800 
 48 H       -8.6340    -5.7020     2.4050 H     1 <1>   0.0800 
 49 H       -8.0580    -6.8920     3.5440 H     1 <1>   0.0800 
@<TRIPOS>BOND
  1   1   2  2   
  2   2   3  am  
  3   2   4  1   
  4   3   5  1   
  5   3  27  1   
  6   4   6  1   
  7   4  28  1   
  8   4  29  1   
  9   5  30  1   
 10   5  31  1   
 11   5  32  1   
 12   6   7  1   
 13   6   8  1   
 14   7   9  2   
 15   8  10  2   
 16   8  33  1   
 17   9  10  1   
 18   9  34  1   
 19  10  11  1   
 20  11  12  am  
 21  11  35  1   
 22  12  13  2   
 23  12  14  1   
 24  14  15  1   
 25  14  36  1   
 26  14  37  1   
 27  15  16  1   
 28  15  17  2   
 29  16  18  ar  
 30  16  19  ar  
 31  17  20  1   
 32  17  21  1   
 33  18  22  ar  
 34  18  23  1   
 35  19  20  1   
 36  19  24  ar  
 37  20  38  1   
 38  21  39  1   
 39  21  40  1   
 40  21  41  1   
 41  22  25  ar  
 42  22  42  1   
 43  23  43  1   
 44  23  44  1   
 45  23  45  1   
 46  24  25  ar  
 47  24  26  1   
 48  25  46  1   
 49  26  47  1   
 50  26  48  1   
 51  26  49  1   
@<TRIPOS>SUBSTRUCTURE
  1 ****  11 GROUP 4 **** **** 0

# MOE 2024.06 (io_trps.svl 2023.06)
