@<TRIPOS>MOLECULE
NONAME
45 48 1 0 0 
SMALL
USER_CHARGES


@<TRIPOS>ATOM
  1 O       -0.7160     0.4060     1.7160 O.2   1 <1>  -0.5700 
  2 C       -1.6100     1.0200     1.1650 C.2   1 <1>   0.5440 
  3 N       -2.6930     0.3160     0.6860 N.am  1 <1>  -0.6600 
  4 C       -1.5150     2.4560     1.0090 C.ar  1 <1>   0.0860 
  5 C       -3.6400     0.8290    -0.3390 C.3   1 <1>   0.1400 
  6 C       -2.7740    -1.1650     0.7630 C.3   1 <1>   0.1400 
  7 C       -0.4350     3.0320     0.3580 C.ar  1 <1>  -0.1500 
  8 C       -2.5220     3.3050     1.5160 C.ar  1 <1>  -0.1500 
  9 C       -4.5860    -0.3410    -0.6050 C.3   1 <1>   0.2000 
 10 C       -3.7080    -1.5760    -0.3820 C.3   1 <1>  -0.0800 
 11 C       -0.3700     4.4100     0.1930 C.ar  1 <1>   0.2270 
 12 C       -2.4680     4.6710     1.3640 C.ar  1 <1>  -0.1500 
 13 O       -5.5900    -0.3080     0.3510 O.3   1 <1>  -0.6800 
 14 C       -4.4780    -2.8850    -0.1230 C.3   1 <1>   0.0200 
 15 N        0.5820     5.1650    -0.4230 N.2   1 <1>  -0.5650 
 16 C       -1.3750     5.2170     0.6900 C.ar  1 <1>  -0.1520 
 17 C       -3.5740    -4.1040    -0.0470 C.2   1 <1>  -0.0400 
 18 C        0.1670     6.3740    -0.2960 C.2   1 <1>   0.0060 
 19 N       -1.0120     6.4820     0.3680 N.pl3 1 <1>   0.0330 
 20 O       -4.0980    -5.2510     0.2950 O.3   1 <1>  -0.0190 
 21 C       -2.2630    -4.3040    -0.2650 C.2   1 <1>  -0.1500 
 22 C        0.9090     7.5800    -0.8300 C.3   1 <1>  -0.0600 
 23 N       -3.2120    -6.2040     0.3200 N.2   1 <1>  -0.4100 
 24 C       -2.0970    -5.6630    -0.0130 C.2   1 <1>   0.1080 
 25 C       -0.7850    -6.4090    -0.1130 C.3   1 <1>  -0.0590 
 26 H       -4.1750     1.6980     0.0010 H     1 <1>   0.0800 
 27 H       -3.0910     1.0690    -1.2330 H     1 <1>   0.0800 
 28 H       -1.7990    -1.6100     0.6580 H     1 <1>   0.0800 
 29 H       -3.1860    -1.4430     1.7180 H     1 <1>   0.0800 
 30 H        0.3650     2.4280    -0.0270 H     1 <1>   0.1500 
 31 H       -3.3480     2.8560     2.0390 H     1 <1>   0.1500 
 32 H       -5.0400    -0.3050    -1.5810 H     1 <1>   0.0800 
 33 H       -3.1050    -1.7050    -1.2640 H     1 <1>   0.0800 
 34 H       -3.2410     5.3110     1.7550 H     1 <1>   0.1500 
 35 H       -5.1810    -0.2000     1.2330 H     1 <1>   0.4000 
 36 H       -5.1920    -3.0410    -0.9120 H     1 <1>   0.0800 
 37 H       -5.0270    -2.8130     0.8000 H     1 <1>   0.0800 
 38 H       -1.5220     7.3410     0.5870 H     1 <1>   0.2700 
 39 H       -1.4910    -3.6210    -0.5640 H     1 <1>   0.1500 
 40 H        1.8130     7.2620    -1.3180 H     1 <1>   0.0800 
 41 H        1.1680     8.2420    -0.0250 H     1 <1>   0.0800 
 42 H        0.3000     8.1040    -1.5440 H     1 <1>   0.0800 
 43 H       -0.4040    -6.3440    -1.1150 H     1 <1>   0.0800 
 44 H       -0.9320    -7.4440     0.1380 H     1 <1>   0.0800 
 45 H       -0.0710    -5.9840     0.5680 H     1 <1>   0.0800 
@<TRIPOS>BOND
  1   1   2  2   
  2   2   3  am  
  3   2   4  1   
  4   3   5  1   
  5   3   6  1   
  6   4   7  ar  
  7   4   8  ar  
  8   5   9  1   
  9   5  26  1   
 10   5  27  1   
 11   6  10  1   
 12   6  28  1   
 13   6  29  1   
 14   7  11  ar  
 15   7  30  1   
 16   8  12  ar  
 17   8  31  1   
 18   9  10  1   
 19   9  13  1   
 20   9  32  1   
 21  10  14  1   
 22  10  33  1   
 23  11  15  1   
 24  11  16  ar  
 25  12  16  ar  
 26  12  34  1   
 27  13  35  1   
 28  14  17  1   
 29  14  36  1   
 30  14  37  1   
 31  15  18  2   
 32  16  19  1   
 33  17  20  1   
 34  17  21  2   
 35  18  19  1   
 36  18  22  1   
 37  19  38  1   
 38  20  23  1   
 39  21  24  1   
 40  21  39  1   
 41  22  40  1   
 42  22  41  1   
 43  22  42  1   
 44  23  24  2   
 45  24  25  1   
 46  25  43  1   
 47  25  44  1   
 48  25  45  1   
@<TRIPOS>SUBSTRUCTURE
  1 ****   3 GROUP 4 **** **** 0

# MOE 2024.06 (io_trps.svl 2023.06)
