@<TRIPOS>MOLECULE
NONAME
47 50 1 0 0 
SMALL
USER_CHARGES


@<TRIPOS>ATOM
  1 O       -4.9710     0.5970    -1.9150 O.2   1 <1>  -0.5700 
  2 C       -4.4040    -0.1370    -1.1530 C.2   1 <1>   0.5690 
  3 N       -3.7820     0.3560    -0.0690 N.am  1 <1>  -0.7300 
  4 C       -4.4200    -1.6220    -1.3950 C.3   1 <1>  -0.0190 
  5 C       -3.0570    -0.4390     0.9480 C.3   1 <1>   0.2200 
  6 C       -2.9950    -2.1830    -1.5950 C.3   1 <1>   0.1200 
  7 C       -5.2750    -2.2890    -0.3100 C.3   1 <1>   0.3430 
  8 C       -1.8840    -1.2130     0.2950 C.3   1 <1>   0.1200 
  9 C       -4.0460    -1.3490     1.7300 C.3   1 <1>   0.3430 
 10 O       -2.3010    -2.3680    -0.3900 O.3   1 <1>  -0.5600 
 11 N       -4.5490    -2.5570     0.9810 N.4   1 <1>  -0.9590 
 12 C       -5.2900    -3.4950     1.8620 C.3   1 <1>   0.5240 
 13 C       -5.3480    -4.8480     1.1900 C.2   1 <1>  -0.1810 
 14 C       -6.4050    -5.3120     0.3980 C.2   1 <1>   0.2350 
 15 C       -4.4330    -5.8410     1.1890 C.2   1 <1>  -0.3020 
 16 N       -6.1380    -6.4990    -0.0750 N.2   1 <1>  -0.7070 
 17 C       -7.6050    -4.5650     0.0990 C.ar  1 <1>   0.0540 
 18 N       -4.9370    -6.8290     0.4250 N.pl3 1 <1>   0.3000 
 19 C       -8.4370    -4.0800     1.1060 C.ar  1 <1>  -0.1500 
 20 C       -7.9420    -4.2730    -1.2190 C.ar  1 <1>  -0.1500 
 21 C       -9.5300    -3.2880     0.8080 C.ar  1 <1>  -0.1500 
 22 C       -9.0330    -3.4800    -1.5210 C.ar  1 <1>  -0.1500 
 23 C       -9.8280    -2.9730    -0.5070 C.ar  1 <1>  -0.1440 
 24 C      -11.0280    -2.1040    -0.8400 C.3   1 <1>  -0.0970 
 25 H       -3.7610     1.3800     0.0090 H     1 <1>   0.3700 
 26 H       -4.9400    -1.7590    -2.3260 H     1 <1>   0.0800 
 27 H       -2.6340     0.2620     1.6460 H     1 <1>   0.0800 
 28 H       -2.4140    -1.5390    -2.2360 H     1 <1>   0.0800 
 29 H       -3.0570    -3.1490    -2.0670 H     1 <1>   0.0800 
 30 H       -5.6070    -3.2290    -0.7160 H     1 <1>   0.0800 
 31 H       -6.1530    -1.6900    -0.1250 H     1 <1>   0.0800 
 32 H       -1.2060    -1.5410     1.0640 H     1 <1>   0.0800 
 33 H       -1.3330    -0.5810    -0.3820 H     1 <1>   0.0800 
 34 H       -4.8810    -0.7470     2.0510 H     1 <1>   0.0800 
 35 H       -3.5350    -1.6900     2.6150 H     1 <1>   0.0800 
 36 H       -3.6910    -3.0550     0.6710 H     1 <1>   0.4500 
 37 H       -4.7740    -3.5990     2.8020 H     1 <1>   0.0800 
 38 H       -6.2830    -3.1240     2.0540 H     1 <1>   0.0800 
 39 H       -3.4720    -5.9150     1.6680 H     1 <1>   0.1500 
 40 H       -4.4900    -7.7340     0.2200 H     1 <1>   0.2700 
 41 H       -8.2360    -4.3360     2.1300 H     1 <1>   0.1500 
 42 H       -7.3400    -4.6800    -2.0140 H     1 <1>   0.1500 
 43 H      -10.1590    -2.9220     1.6030 H     1 <1>   0.1500 
 44 H       -9.2700    -3.2660    -2.5490 H     1 <1>   0.1500 
 45 H      -11.2770    -1.4650    -0.0120 H     1 <1>   0.0800 
 46 H      -11.8760    -2.7260    -1.0640 H     1 <1>   0.0800 
 47 H      -10.8170    -1.4850    -1.6940 H     1 <1>   0.0800 
@<TRIPOS>BOND
  1   1   2  2   
  2   2   3  am  
  3   2   4  1   
  4   3   5  1   
  5   3  25  1   
  6   4   6  1   
  7   4   7  1   
  8   4  26  1   
  9   5   8  1   
 10   5   9  1   
 11   5  27  1   
 12   6  10  1   
 13   6  28  1   
 14   6  29  1   
 15   7  11  1   
 16   7  30  1   
 17   7  31  1   
 18   8  10  1   
 19   8  32  1   
 20   8  33  1   
 21   9  11  1   
 22   9  34  1   
 23   9  35  1   
 24  11  12  1   
 25  11  36  1   
 26  12  13  1   
 27  12  37  1   
 28  12  38  1   
 29  13  14  1   
 30  13  15  2   
 31  14  16  2   
 32  14  17  1   
 33  15  18  1   
 34  15  39  1   
 35  16  18  1   
 36  17  19  ar  
 37  17  20  ar  
 38  18  40  1   
 39  19  21  ar  
 40  19  41  1   
 41  20  22  ar  
 42  20  42  1   
 43  21  23  ar  
 44  21  43  1   
 45  22  23  ar  
 46  22  44  1   
 47  23  24  1   
 48  24  45  1   
 49  24  46  1   
 50  24  47  1   
@<TRIPOS>SUBSTRUCTURE
  1 ****   7 GROUP 4 **** **** 0

# MOE 2024.06 (io_trps.svl 2023.06)
