@<TRIPOS>MOLECULE
NONAME
52 55 1 0 0 
SMALL
USER_CHARGES


@<TRIPOS>ATOM
  1 O        0.1930     0.6210     0.1810 O.2   1 <1>  -0.5700 
  2 C        0.1230     1.8120     0.3780 C.2   1 <1>   0.5690 
  3 N       -1.0700     2.4860     0.4470 N.am  1 <1>  -0.5090 
  4 C        1.4390     2.5830     0.5140 C.3   1 <1>   0.1810 
  5 C       -1.1130     3.9810     0.5350 C.3   1 <1>   0.3640 
  6 C       -2.3790     1.7870     0.4950 C.3   1 <1>   0.0490 
  7 O        1.2760     3.8950     0.9970 O.3   1 <1>  -0.5600 
  8 C       -2.0830     4.5600    -0.4940 C.ar  1 <1>  -0.1440 
  9 C        0.2740     4.6300     0.3280 C.3   1 <1>   0.2610 
 10 C       -3.2890     2.0340     1.6590 C.3   1 <1>  -0.2000 
 11 C       -2.6030     0.7150     1.5140 C.3   1 <1>  -0.2000 
 12 C       -2.9460     5.5810    -0.1200 C.ar  1 <1>   0.1600 
 13 C       -2.1170     4.1110    -1.8020 C.ar  1 <1>  -0.1500 
 14 C        0.2450     6.0980     0.7920 C.2   1 <1>   0.5690 
 15 N       -3.8150     6.1710    -0.9250 N.ar  1 <1>  -0.6200 
 16 C       -3.0210     4.7130    -2.6510 C.ar  1 <1>  -0.1500 
 17 O       -0.3540     6.3470     1.8170 O.2   1 <1>  -0.5700 
 18 N        0.8420     7.1060     0.0680 N.am  1 <1>  -0.6600 
 19 C       -3.8350     5.7220    -2.1690 C.ar  1 <1>   0.1600 
 20 C        0.7620     8.5190     0.5500 C.3   1 <1>   0.2840 
 21 C        1.5950     6.9220    -1.2040 C.3   1 <1>   0.1400 
 22 C        2.1060     8.9630     1.1010 C.ar  1 <1>  -0.1430 
 23 C        2.9960     6.3810    -0.9230 C.3   1 <1>  -0.2400 
 24 C        2.8520     9.9370     0.4540 C.ar  1 <1>   0.1600 
 25 C        2.6090     8.3980     2.2550 C.ar  1 <1>  -0.1500 
 26 N        4.0330    10.3790     0.8550 N.ar  1 <1>  -0.6200 
 27 C        3.8370     8.8480     2.6900 C.ar  1 <1>  -0.1500 
 28 C        4.4970     9.8240     1.9630 C.ar  1 <1>   0.1600 
 29 H        1.9250     2.6320    -0.4430 H     1 <1>   0.0800 
 30 H        2.0830     2.0630     1.2000 H     1 <1>   0.0800 
 31 H       -1.4620     4.2260     1.5230 H     1 <1>   0.0800 
 32 H       -2.8140     1.6530    -0.4810 H     1 <1>   0.1000 
 33 H        0.5030     4.5960    -0.7180 H     1 <1>   0.0800 
 34 H       -2.9770     2.6710     2.4680 H     1 <1>   0.1000 
 35 H       -4.3500     2.0770     1.4840 H     1 <1>   0.1000 
 36 H       -3.1870    -0.1430     1.2330 H     1 <1>   0.1000 
 37 H       -1.7950     0.4630     2.1790 H     1 <1>   0.1000 
 38 H       -2.9200     5.9400     0.8970 H     1 <1>   0.1500 
 39 H       -1.4760     3.3190    -2.1510 H     1 <1>   0.1500 
 40 H       -3.0990     4.4020    -3.6770 H     1 <1>   0.1500 
 41 H       -4.5390     6.1840    -2.8400 H     1 <1>   0.1500 
 42 H        0.4590     9.1550    -0.2630 H     1 <1>   0.0800 
 43 H        0.0190     8.6190     1.3230 H     1 <1>   0.0800 
 44 H        1.0600     6.2550    -1.8570 H     1 <1>   0.0800 
 45 H        1.6790     7.8650    -1.7160 H     1 <1>   0.0800 
 46 H        2.9540     5.4370    -0.4140 H     1 <1>   0.0800 
 47 H        3.5550     7.0760    -0.3230 H     1 <1>   0.0800 
 48 H        3.5220     6.2430    -1.8500 H     1 <1>   0.0800 
 49 H        2.4610    10.3790    -0.4460 H     1 <1>   0.1500 
 50 H        2.0650     7.6350     2.7890 H     1 <1>   0.1500 
 51 H        4.2810     8.4450     3.5820 H     1 <1>   0.1500 
 52 H        5.4560    10.1670     2.3130 H     1 <1>   0.1500 
@<TRIPOS>BOND
  1   1   2  2   
  2   2   3  am  
  3   2   4  1   
  4   3   5  1   
  5   3   6  1   
  6   4   7  1   
  7   4  29  1   
  8   4  30  1   
  9   5   8  1   
 10   5   9  1   
 11   5  31  1   
 12   6  10  1   
 13   6  11  1   
 14   6  32  1   
 15   7   9  1   
 16   8  12  ar  
 17   8  13  ar  
 18   9  14  1   
 19   9  33  1   
 20  10  11  1   
 21  10  34  1   
 22  10  35  1   
 23  11  36  1   
 24  11  37  1   
 25  12  15  ar  
 26  12  38  1   
 27  13  16  ar  
 28  13  39  1   
 29  14  17  2   
 30  14  18  am  
 31  15  19  ar  
 32  16  19  ar  
 33  16  40  1   
 34  18  20  1   
 35  18  21  1   
 36  19  41  1   
 37  20  22  1   
 38  20  42  1   
 39  20  43  1   
 40  21  23  1   
 41  21  44  1   
 42  21  45  1   
 43  22  24  ar  
 44  22  25  ar  
 45  23  46  1   
 46  23  47  1   
 47  23  48  1   
 48  24  26  ar  
 49  24  49  1   
 50  25  27  ar  
 51  25  50  1   
 52  26  28  ar  
 53  27  28  ar  
 54  27  51  1   
 55  28  52  1   
@<TRIPOS>SUBSTRUCTURE
  1 ****  14 GROUP 4 **** **** 0

# MOE 2024.06 (io_trps.svl 2023.06)
