@<TRIPOS>MOLECULE
NONAME
44 46 1 0 0 
SMALL
USER_CHARGES


@<TRIPOS>ATOM
  1 O       -0.2830    -0.4940    -0.0970 O.3   1 <1>  -0.5600 
  2 C       -1.5590    -0.9370    -0.3990 C.3   1 <1>   0.2000 
  3 C       -0.2900     0.8690     0.1890 C.3   1 <1>   0.1200 
  4 C       -2.4670    -0.0960     0.4870 C.3   1 <1>  -0.1600 
  5 C       -1.6230    -2.4460    -0.1460 C.3   1 <1>  -0.1600 
  6 C       -1.7260     1.2270     0.5650 C.3   1 <1>  -0.1600 
  7 C       -2.9970    -3.0420    -0.4890 C.3   1 <1>  -0.1600 
  8 C       -3.0070    -4.5600    -0.2620 C.3   1 <1>  -0.1600 
  9 C       -4.3700    -5.1610    -0.5990 C.3   1 <1>   0.2090 
 10 N       -4.3280    -6.6130    -0.3380 N.pl3 1 <1>  -0.8690 
 11 C       -5.4430    -7.4130    -0.1820 C.ar  1 <1>   0.4100 
 12 N       -6.6250    -6.8350    -0.2580 N.ar  1 <1>  -0.3100 
 13 C       -5.2830    -8.8050     0.0380 C.ar  1 <1>   0.0000 
 14 N       -7.7340    -7.5550    -0.1460 N.ar  1 <1>  -0.3100 
 15 C       -6.4600    -9.5620     0.1450 C.ar  1 <1>   0.0000 
 16 C       -4.0410    -9.4680     0.1580 C.ar  1 <1>  -0.1500 
 17 C       -7.6670    -8.8430     0.0410 C.ar  1 <1>   0.1670 
 18 C       -6.3530   -10.9580     0.3480 C.ar  1 <1>  -0.1500 
 19 C       -3.9650   -10.8190     0.3580 C.ar  1 <1>  -0.1500 
 20 C       -8.9960    -9.5710     0.1510 C.3   1 <1>  -0.0970 
 21 C       -5.1370   -11.5740     0.4510 C.ar  1 <1>  -0.1500 
 22 H       -1.7390    -0.7150    -1.4380 H     1 <1>   0.0800 
 23 H        0.0320     1.4010    -0.6890 H     1 <1>   0.0800 
 24 H        0.3950     1.0450     1.0000 H     1 <1>   0.0800 
 25 H       -2.5340    -0.5400     1.4650 H     1 <1>   0.0800 
 26 H       -3.4540     0.0050     0.0720 H     1 <1>   0.0800 
 27 H       -1.3930    -2.6380     0.8880 H     1 <1>   0.0800 
 28 H       -0.8710    -2.9190    -0.7520 H     1 <1>   0.0800 
 29 H       -2.1190     1.9300    -0.1490 H     1 <1>   0.0800 
 30 H       -1.7790     1.6590     1.5490 H     1 <1>   0.0800 
 31 H       -3.2300    -2.8310    -1.5190 H     1 <1>   0.0800 
 32 H       -3.7540    -2.5880     0.1280 H     1 <1>   0.0800 
 33 H       -2.7810    -4.7660     0.7700 H     1 <1>   0.0800 
 34 H       -2.2550    -5.0170    -0.8810 H     1 <1>   0.0800 
 35 H       -4.6100    -4.9920    -1.6360 H     1 <1>   0.0800 
 36 H       -5.1340    -4.7050     0.0100 H     1 <1>   0.0800 
 37 H       -3.4260    -7.0620    -0.4950 H     1 <1>   0.4000 
 38 H       -3.1340    -8.8960     0.0950 H     1 <1>   0.1500 
 39 H       -7.2460   -11.5500     0.4240 H     1 <1>   0.1500 
 40 H       -3.0140   -11.3150     0.4460 H     1 <1>   0.1500 
 41 H       -9.8140    -8.8780     0.0560 H     1 <1>   0.0800 
 42 H       -9.0720   -10.0550     1.1070 H     1 <1>   0.0800 
 43 H       -9.0800   -10.3030    -0.6310 H     1 <1>   0.0800 
 44 H       -5.0640   -12.6370     0.6060 H     1 <1>   0.1500 
@<TRIPOS>BOND
  1   1   2  1   
  2   1   3  1   
  3   2   4  1   
  4   2   5  1   
  5   2  22  1   
  6   3   6  1   
  7   3  23  1   
  8   3  24  1   
  9   4   6  1   
 10   4  25  1   
 11   4  26  1   
 12   5   7  1   
 13   5  27  1   
 14   5  28  1   
 15   6  29  1   
 16   6  30  1   
 17   7   8  1   
 18   7  31  1   
 19   7  32  1   
 20   8   9  1   
 21   8  33  1   
 22   8  34  1   
 23   9  10  1   
 24   9  35  1   
 25   9  36  1   
 26  10  11  1   
 27  10  37  1   
 28  11  12  ar  
 29  11  13  ar  
 30  12  14  ar  
 31  13  15  ar  
 32  13  16  ar  
 33  14  17  ar  
 34  15  17  ar  
 35  15  18  ar  
 36  16  19  ar  
 37  16  38  1   
 38  17  20  1   
 39  18  21  ar  
 40  18  39  1   
 41  19  21  ar  
 42  19  40  1   
 43  20  41  1   
 44  20  42  1   
 45  20  43  1   
 46  21  44  1   
@<TRIPOS>SUBSTRUCTURE
  1 ****  10 GROUP 4 **** **** 0

# MOE 2024.06 (io_trps.svl 2023.06)
