@<TRIPOS>MOLECULE
NONAME
41 42 1 0 0 
SMALL
USER_CHARGES


@<TRIPOS>ATOM
  1 O       -1.7570    -0.2310     2.6860 O.2   1 <1>  -0.5700 
  2 C       -1.9820     0.4020     1.6800 C.2   1 <1>   0.5690 
  3 N       -2.2450    -0.2220     0.4860 N.am  1 <1>  -0.6600 
  4 C       -2.0050     1.9290     1.8180 C.3   1 <1>   0.1810 
  5 C       -2.2200    -1.7200     0.3770 C.3   1 <1>   0.3640 
  6 C       -2.5880     0.5210    -0.7690 C.3   1 <1>   0.1400 
  7 O       -1.2350     2.5880     0.8420 O.3   1 <1>  -0.5600 
  8 C       -0.8850    -2.2420    -0.1880 C.ar  1 <1>  -0.1440 
  9 C       -3.4360    -2.2450    -0.4550 C.3   1 <1>   0.2000 
 10 C       -3.0170    -0.4160    -1.9070 C.3   1 <1>   0.1200 
 11 C       -1.1490     3.9600     1.0230 C.3   1 <1>   0.1200 
 12 C       -0.6750    -3.6160    -0.2100 C.ar  1 <1>  -0.1500 
 13 C        0.1310    -1.4160    -0.6590 C.ar  1 <1>  -0.1500 
 14 O       -3.9360    -1.3430    -1.4200 O.3   1 <1>  -0.5600 
 15 C       -4.6150    -2.6040     0.4570 C.3   1 <1>   0.1200 
 16 C       -0.3320     4.5230    -0.1330 C.3   1 <1>  -0.2400 
 17 C        0.4970    -4.1530    -0.7130 C.ar  1 <1>  -0.1500 
 18 C        1.3040    -1.9490    -1.1640 C.ar  1 <1>  -0.1500 
 19 O       -4.3400    -3.7750     1.1590 O.3   1 <1>  -0.6800 
 20 C        1.4880    -3.3190    -1.1960 C.ar  1 <1>  -0.1500 
 21 H       -1.6160     2.1890     2.7870 H     1 <1>   0.0800 
 22 H       -3.0200     2.2720     1.7420 H     1 <1>   0.0800 
 23 H       -2.3000    -2.1420     1.3650 H     1 <1>   0.0800 
 24 H       -3.3910     1.2070    -0.5660 H     1 <1>   0.0800 
 25 H       -1.7370     1.0940    -1.0940 H     1 <1>   0.0800 
 26 H       -3.1500    -3.1280    -0.9950 H     1 <1>   0.0800 
 27 H       -2.1740    -0.9430    -2.3210 H     1 <1>   0.0800 
 28 H       -3.4920     0.1440    -2.6920 H     1 <1>   0.0800 
 29 H       -2.1430     4.3770     1.0240 H     1 <1>   0.0800 
 30 H       -0.6630     4.1580     1.9630 H     1 <1>   0.0800 
 31 H       -1.4270    -4.2840     0.1750 H     1 <1>   0.1500 
 32 H        0.0330    -0.3460    -0.6310 H     1 <1>   0.1500 
 33 H       -5.5080    -2.7630    -0.1210 H     1 <1>   0.0800 
 34 H       -4.7830    -1.8180     1.1730 H     1 <1>   0.0800 
 35 H       -0.8180     4.3100    -1.0680 H     1 <1>   0.0800 
 36 H        0.6520     4.0890    -0.1330 H     1 <1>   0.0800 
 37 H       -0.2380     5.5880    -0.0290 H     1 <1>   0.0800 
 38 H        0.6390    -5.2190    -0.7260 H     1 <1>   0.1500 
 39 H        2.0770    -1.2940    -1.5260 H     1 <1>   0.1500 
 40 H       -4.4890    -4.5590     0.5940 H     1 <1>   0.4000 
 41 H        2.4000    -3.7320    -1.5880 H     1 <1>   0.1500 
@<TRIPOS>BOND
  1   1   2  2   
  2   2   3  am  
  3   2   4  1   
  4   3   5  1   
  5   3   6  1   
  6   4   7  1   
  7   4  21  1   
  8   4  22  1   
  9   5   8  1   
 10   5   9  1   
 11   5  23  1   
 12   6  10  1   
 13   6  24  1   
 14   6  25  1   
 15   7  11  1   
 16   8  12  ar  
 17   8  13  ar  
 18   9  14  1   
 19   9  15  1   
 20   9  26  1   
 21  10  14  1   
 22  10  27  1   
 23  10  28  1   
 24  11  16  1   
 25  11  29  1   
 26  11  30  1   
 27  12  17  ar  
 28  12  31  1   
 29  13  18  ar  
 30  13  32  1   
 31  15  19  1   
 32  15  33  1   
 33  15  34  1   
 34  16  35  1   
 35  16  36  1   
 36  16  37  1   
 37  17  20  ar  
 38  17  38  1   
 39  18  20  ar  
 40  18  39  1   
 41  19  40  1   
 42  20  41  1   
@<TRIPOS>SUBSTRUCTURE
  1 ****   3 GROUP 4 **** **** 0

# MOE 2024.06 (io_trps.svl 2023.06)
