@<TRIPOS>MOLECULE
NONAME
41 42 1 0 0 
SMALL
USER_CHARGES


@<TRIPOS>ATOM
  1 S        0.5920     0.3420    -1.3670 S.o2  1 <1>   1.3330 
  2 O        0.9000    -0.9000    -2.0400 O.2   1 <1>  -0.6500 
  3 O       -0.2710     1.3070    -2.0110 O.2   1 <1>  -0.6500 
  4 N       -0.1180    -0.0420     0.1280 N.am  1 <1>  -0.8490 
  5 C        2.1400     1.1350    -0.9230 C.3   1 <1>  -0.0550 
  6 C       -0.7600     1.1060     0.7790 C.3   1 <1>   0.1160 
  7 C       -1.0770    -1.1440     0.0130 C.3   1 <1>   0.1160 
  8 C        3.1800     0.1870    -0.2870 C.3   1 <1>  -0.0800 
  9 C        4.5440     0.8110    -0.0400 C.3   1 <1>   0.2200 
 10 C        2.8060    -0.3560     1.0970 C.3   1 <1>   0.1200 
 11 N        4.4050     2.1740     0.5170 N.am  1 <1>  -0.7300 
 12 C        5.0910    -0.1170     1.0370 C.3   1 <1>   0.1200 
 13 O        3.9940    -0.4590     1.8280 O.3   1 <1>  -0.5600 
 14 C        4.5920     3.3540    -0.1400 C.2   1 <1>   0.7160 
 15 O        4.8840     3.3050    -1.3230 O.2   1 <1>  -0.5700 
 16 C        4.4100     4.6060     0.5870 C.2   1 <1>   0.1410 
 17 N        3.9320     4.6160     1.8710 N.2   1 <1>  -0.5650 
 18 C        4.6430     5.9020     0.2030 C.2   1 <1>  -0.3320 
 19 C        3.8940     5.8600     2.2070 C.2   1 <1>   0.0360 
 20 N        4.3130     6.6910     1.2350 N.pl3 1 <1>   0.0330 
 21 C        5.1720     6.4740    -1.1040 C.3   1 <1>  -0.0600 
 22 H        2.5720     1.5490    -1.8130 H     1 <1>   0.0800 
 23 H        1.9390     1.9530    -0.2600 H     1 <1>   0.0800 
 24 H       -1.1190     0.8250     1.7540 H     1 <1>   0.0800 
 25 H       -1.5890     1.4600     0.1880 H     1 <1>   0.0800 
 26 H       -0.0540     1.9100     0.8990 H     1 <1>   0.0800 
 27 H       -1.4990    -1.3760     0.9760 H     1 <1>   0.0800 
 28 H       -0.5820    -2.0270    -0.3580 H     1 <1>   0.0800 
 29 H       -1.8690    -0.8810    -0.6690 H     1 <1>   0.0800 
 30 H        3.3170    -0.6580    -0.9400 H     1 <1>   0.0800 
 31 H        5.1640     0.8220    -0.9210 H     1 <1>   0.0800 
 32 H        2.3430    -1.3270     1.0370 H     1 <1>   0.0800 
 33 H        2.1610     0.3210     1.6280 H     1 <1>   0.0800 
 34 H        4.1470     2.2400     1.5070 H     1 <1>   0.3700 
 35 H        5.8470     0.3480     1.6440 H     1 <1>   0.0800 
 36 H        5.4750    -1.0220     0.6000 H     1 <1>   0.0800 
 37 H        3.5640     6.2230     3.1650 H     1 <1>   0.1500 
 38 H        4.3690     7.7130     1.2850 H     1 <1>   0.2700 
 39 H        5.4400     5.6930    -1.7920 H     1 <1>   0.0800 
 40 H        6.0480     7.0710    -0.9210 H     1 <1>   0.0800 
 41 H        4.4220     7.0880    -1.5690 H     1 <1>   0.0800 
@<TRIPOS>BOND
  1   1   2  2   
  2   1   3  2   
  3   1   4  am  
  4   1   5  1   
  5   4   6  1   
  6   4   7  1   
  7   5   8  1   
  8   5  22  1   
  9   5  23  1   
 10   6  24  1   
 11   6  25  1   
 12   6  26  1   
 13   7  27  1   
 14   7  28  1   
 15   7  29  1   
 16   8   9  1   
 17   8  10  1   
 18   8  30  1   
 19   9  11  1   
 20   9  12  1   
 21   9  31  1   
 22  10  13  1   
 23  10  32  1   
 24  10  33  1   
 25  11  14  am  
 26  11  34  1   
 27  12  13  1   
 28  12  35  1   
 29  12  36  1   
 30  14  15  2   
 31  14  16  1   
 32  16  17  1   
 33  16  18  2   
 34  17  19  2   
 35  18  20  1   
 36  18  21  1   
 37  19  20  1   
 38  19  37  1   
 39  20  38  1   
 40  21  39  1   
 41  21  40  1   
 42  21  41  1   
@<TRIPOS>SUBSTRUCTURE
  1 ****  11 GROUP 4 **** **** 0

# MOE 2024.06 (io_trps.svl 2023.06)
