@<TRIPOS>MOLECULE
NONAME
53 57 1 0 0 
SMALL
USER_CHARGES


@<TRIPOS>ATOM
  1 N        0.0440    -0.0160     0.3420 N.ar  1 <1>  -0.6200 
  2 C       -0.8000     0.9340     0.7660 C.ar  1 <1>   0.6200 
  3 C        1.1920     0.4060    -0.1320 C.ar  1 <1>   0.1660 
  4 N       -0.5510     2.2520     0.7450 N.ar  1 <1>  -0.6200 
  5 C       -2.0870     0.5000     1.2940 C.ar  1 <1>   0.0000 
  6 C        1.5290     1.7240    -0.1850 C.ar  1 <1>  -0.1430 
  7 C        2.3070    -0.4740    -0.6650 C.3   1 <1>   0.1440 
  8 C        0.6140     2.6360     0.2720 C.ar  1 <1>   0.1600 
  9 C       -2.2520    -0.7540     1.8890 C.ar  1 <1>  -0.1500 
 10 C       -3.2200     1.3180     1.2290 C.ar  1 <1>  -0.1500 
 11 C        2.9100     1.9290    -0.7550 C.3   1 <1>  -0.0160 
 12 C        3.0120    -1.1430     0.5290 C.3   1 <1>   0.2090 
 13 C        1.7950    -1.5580    -1.6410 C.3   1 <1>  -0.1600 
 14 C        3.2300     0.5560    -1.3700 C.3   1 <1>  -0.1600 
 15 C       -3.4720    -1.1700     2.3890 C.ar  1 <1>  -0.1500 
 16 C       -4.4440     0.9100     1.7280 C.ar  1 <1>  -0.1500 
 17 N        4.1050    -2.0550     0.0610 N.pl3 1 <1>  -0.8380 
 18 C        2.9270    -2.5140    -2.0630 C.3   1 <1>  -0.1600 
 19 C       -4.5730    -0.3370     2.3100 C.ar  1 <1>  -0.1500 
 20 C        5.4270    -1.8860     0.4180 C.ar  1 <1>   0.7200 
 21 C        3.6430    -3.1350    -0.8560 C.3   1 <1>   0.2090 
 22 N        6.2440    -2.9210     0.2320 N.ar  1 <1>  -0.6200 
 23 N        5.7750    -0.6990     0.9130 N.ar  1 <1>  -0.6200 
 24 C        7.4960    -2.7450     0.5770 C.ar  1 <1>   0.1600 
 25 C        7.0340    -0.5540     1.2480 C.ar  1 <1>   0.1600 
 26 C        7.9590    -1.5610     1.1020 C.ar  1 <1>  -0.1430 
 27 C        9.4150    -1.3760     1.4970 C.3   1 <1>  -0.0170 
 28 C       10.2280    -0.8340     0.3190 C.3   1 <1>  -0.2400 
 29 H        0.8370     3.6880     0.2510 H     1 <1>   0.1500 
 30 H       -1.4070    -1.4170     1.9610 H     1 <1>   0.1500 
 31 H       -3.1390     2.2920     0.7790 H     1 <1>   0.1500 
 32 H        3.6010     2.1550     0.0380 H     1 <1>   0.0800 
 33 H        2.9300     2.7090    -1.4960 H     1 <1>   0.0800 
 34 H        2.2930    -1.7260     1.0790 H     1 <1>   0.0800 
 35 H        3.3860    -0.3890     1.1980 H     1 <1>   0.0800 
 36 H        1.3530    -1.0980    -2.5070 H     1 <1>   0.0800 
 37 H        1.0260    -2.1290    -1.1510 H     1 <1>   0.0800 
 38 H        2.9910     0.5940    -2.4170 H     1 <1>   0.0800 
 39 H        4.2730     0.3110    -1.2720 H     1 <1>   0.0800 
 40 H       -3.5660    -2.1420     2.8410 H     1 <1>   0.1500 
 41 H       -5.2960     1.5640     1.6630 H     1 <1>   0.1500 
 42 H        3.6530    -1.9860    -2.6550 H     1 <1>   0.0800 
 43 H        2.5220    -3.3020    -2.6730 H     1 <1>   0.0800 
 44 H       -5.5240    -0.6570     2.6990 H     1 <1>   0.1500 
 45 H        2.9680    -3.7800    -0.3200 H     1 <1>   0.0800 
 46 H        4.4660    -3.7330    -1.2060 H     1 <1>   0.0800 
 47 H        8.1720    -3.5700     0.4350 H     1 <1>   0.1500 
 48 H        7.3370     0.3970     1.6510 H     1 <1>   0.1500 
 49 H        9.8270    -2.3170     1.8170 H     1 <1>   0.0800 
 50 H        9.4820    -0.6920     2.3260 H     1 <1>   0.0800 
 51 H       10.1840    -1.5180    -0.5110 H     1 <1>   0.0800 
 52 H       11.2570    -0.7070     0.6070 H     1 <1>   0.0800 
 53 H        9.8380     0.1170     0.0020 H     1 <1>   0.0800 
@<TRIPOS>BOND
  1   1   2  ar  
  2   1   3  ar  
  3   2   4  ar  
  4   2   5  1   
  5   3   6  ar  
  6   3   7  1   
  7   4   8  ar  
  8   5   9  ar  
  9   5  10  ar  
 10   6   8  ar  
 11   6  11  1   
 12   7  12  1   
 13   7  13  1   
 14   7  14  1   
 15   8  29  1   
 16   9  15  ar  
 17   9  30  1   
 18  10  16  ar  
 19  10  31  1   
 20  11  14  1   
 21  11  32  1   
 22  11  33  1   
 23  12  17  1   
 24  12  34  1   
 25  12  35  1   
 26  13  18  1   
 27  13  36  1   
 28  13  37  1   
 29  14  38  1   
 30  14  39  1   
 31  15  19  ar  
 32  15  40  1   
 33  16  19  ar  
 34  16  41  1   
 35  17  20  1   
 36  17  21  1   
 37  18  21  1   
 38  18  42  1   
 39  18  43  1   
 40  19  44  1   
 41  20  22  ar  
 42  20  23  ar  
 43  21  45  1   
 44  21  46  1   
 45  22  24  ar  
 46  23  25  ar  
 47  24  26  ar  
 48  24  47  1   
 49  25  26  ar  
 50  25  48  1   
 51  26  27  1   
 52  27  28  1   
 53  27  49  1   
 54  27  50  1   
 55  28  51  1   
 56  28  52  1   
 57  28  53  1   
@<TRIPOS>SUBSTRUCTURE
  1 ****  12 GROUP 4 **** **** 0

# MOE 2024.06 (io_trps.svl 2023.06)
