@<TRIPOS>MOLECULE
NONAME
54 57 1 0 0 
SMALL
USER_CHARGES


@<TRIPOS>ATOM
  1 F       -6.4930    -0.5610    -3.3660 F     1 <1>  -0.1900 
  2 C       -6.5150    -0.2760    -2.0920 C.ar  1 <1>   0.1900 
  3 C       -5.6940    -0.9870    -1.2380 C.ar  1 <1>  -0.1500 
  4 C       -7.3600     0.7200    -1.6450 C.ar  1 <1>  -0.1500 
  5 C       -5.7100    -0.6870     0.1160 C.ar  1 <1>  -0.1440 
  6 C       -7.3790     1.0130    -0.2920 C.ar  1 <1>  -0.1500 
  7 C       -6.5580     0.3130     0.5810 C.ar  1 <1>  -0.1500 
  8 C       -4.7950    -1.4500     1.0640 C.3   1 <1>   0.2640 
  9 O       -5.2630    -2.7750     1.2090 O.3   1 <1>  -0.3630 
 10 C       -6.3650    -3.0800     1.9360 C.ar  1 <1>   0.0830 
 11 C       -7.0210    -4.2520     1.6060 C.ar  1 <1>  -0.1500 
 12 C       -6.8470    -2.2960     2.9810 C.ar  1 <1>  -0.1500 
 13 C       -8.1620    -4.6660     2.2880 C.ar  1 <1>   0.0860 
 14 C       -7.9720    -2.6970     3.6790 C.ar  1 <1>  -0.1500 
 15 C       -8.8630    -5.8750     1.9040 C.2   1 <1>   0.5440 
 16 C       -8.6180    -3.8720     3.3370 C.ar  1 <1>  -0.1500 
 17 O       -8.8830    -6.8190     2.6720 O.2   1 <1>  -0.5700 
 18 N       -9.5180    -5.9740     0.6930 N.am  1 <1>  -0.6600 
 19 C       -9.8660    -4.7600    -0.1060 C.3   1 <1>   0.2200 
 20 C      -10.0180    -7.3020     0.2250 C.3   1 <1>   0.0600 
 21 C      -11.3370    -4.6730    -0.5050 C.3   1 <1>  -0.1600 
 22 C       -9.1070    -4.6690    -1.4250 C.3   1 <1>  -0.1600 
 23 C      -11.3500    -3.6770    -1.6700 C.3   1 <1>  -0.0800 
 24 C       -9.9370    -3.7000    -2.2800 C.3   1 <1>  -0.0800 
 25 C      -11.6070    -2.2300    -1.2280 C.3   1 <1>  -0.1600 
 26 C       -9.4230    -2.2520    -2.2360 C.3   1 <1>  -0.1600 
 27 C      -10.6740    -1.3990    -2.0910 C.3   1 <1>   0.2000 
 28 O      -10.3730    -0.2140    -1.4590 O.3   1 <1>  -0.6800 
 29 H       -5.0570    -1.7590    -1.6300 H     1 <1>   0.1500 
 30 H       -7.9910     1.2470    -2.3390 H     1 <1>   0.1500 
 31 H       -8.0320     1.7850     0.0790 H     1 <1>   0.1500 
 32 H       -6.5830     0.5560     1.6290 H     1 <1>   0.1500 
 33 H       -4.7150    -0.9830     2.0270 H     1 <1>   0.0800 
 34 H       -3.8080    -1.5090     0.6400 H     1 <1>   0.0800 
 35 H       -6.6410    -4.8560     0.8030 H     1 <1>   0.1500 
 36 H       -6.3600    -1.3860     3.2720 H     1 <1>   0.1500 
 37 H       -8.3430    -2.0990     4.4930 H     1 <1>   0.1500 
 38 H       -9.4890    -4.1890     3.8850 H     1 <1>   0.1500 
 39 H       -9.6440    -3.8710     0.4600 H     1 <1>   0.0800 
 40 H       -9.9870    -7.3660    -0.8470 H     1 <1>   0.0800 
 41 H      -11.0290    -7.4450     0.5630 H     1 <1>   0.0800 
 42 H       -9.4080    -8.0920     0.6280 H     1 <1>   0.0800 
 43 H      -11.6910    -5.6180    -0.8730 H     1 <1>   0.0800 
 44 H      -11.9550    -4.3570     0.3160 H     1 <1>   0.0800 
 45 H       -8.0970    -4.3290    -1.2820 H     1 <1>   0.0800 
 46 H       -9.0890    -5.6280    -1.9090 H     1 <1>   0.0800 
 47 H      -12.0800    -3.9640    -2.4100 H     1 <1>   0.0800 
 48 H       -9.9780    -4.0390    -3.3020 H     1 <1>   0.0800 
 49 H      -11.3470    -2.1040    -0.1910 H     1 <1>   0.0800 
 50 H      -12.6340    -1.9480    -1.3790 H     1 <1>   0.0800 
 51 H       -8.8840    -2.0030    -3.1320 H     1 <1>   0.0800 
 52 H       -8.7850    -2.1110    -1.3810 H     1 <1>   0.0800 
 53 H      -11.1190    -1.1870    -3.0500 H     1 <1>   0.0800 
 54 H       -9.7880    -0.3910    -0.6980 H     1 <1>   0.4000 
@<TRIPOS>BOND
  1   1   2  1   
  2   2   3  ar  
  3   2   4  ar  
  4   3   5  ar  
  5   3  29  1   
  6   4   6  ar  
  7   4  30  1   
  8   5   7  ar  
  9   5   8  1   
 10   6   7  ar  
 11   6  31  1   
 12   7  32  1   
 13   8   9  1   
 14   8  33  1   
 15   8  34  1   
 16   9  10  1   
 17  10  11  ar  
 18  10  12  ar  
 19  11  13  ar  
 20  11  35  1   
 21  12  14  ar  
 22  12  36  1   
 23  13  15  1   
 24  13  16  ar  
 25  14  16  ar  
 26  14  37  1   
 27  15  17  2   
 28  15  18  am  
 29  16  38  1   
 30  18  19  1   
 31  18  20  1   
 32  19  21  1   
 33  19  22  1   
 34  19  39  1   
 35  20  40  1   
 36  20  41  1   
 37  20  42  1   
 38  21  23  1   
 39  21  43  1   
 40  21  44  1   
 41  22  24  1   
 42  22  45  1   
 43  22  46  1   
 44  23  24  1   
 45  23  25  1   
 46  23  47  1   
 47  24  26  1   
 48  24  48  1   
 49  25  27  1   
 50  25  49  1   
 51  25  50  1   
 52  26  27  1   
 53  26  51  1   
 54  26  52  1   
 55  27  28  1   
 56  27  53  1   
 57  28  54  1   
@<TRIPOS>SUBSTRUCTURE
  1 ****  11 GROUP 4 **** **** 0

# MOE 2024.06 (io_trps.svl 2023.06)
