@<TRIPOS>MOLECULE
NONAME
42 44 1 0 0 
SMALL
USER_CHARGES


@<TRIPOS>ATOM
  1 S        0.0990    -0.8670     0.7520 S.o2  1 <1>   1.3330 
  2 O        0.4620    -2.2620     0.7030 O.2   1 <1>  -0.6500 
  3 O       -0.6670    -0.3570     1.8620 O.2   1 <1>  -0.6500 
  4 N       -0.8470    -0.4830    -0.5820 N.am  1 <1>  -0.9140 
  5 C        1.5810     0.1270     0.5180 C.3   1 <1>  -0.0550 
  6 C       -1.6780    -1.5240    -1.2040 C.3   1 <1>   0.2760 
  7 C        1.3410     1.6460     0.4140 C.3   1 <1>  -0.2400 
  8 C       -2.5490    -2.3450    -0.2410 C.3   1 <1>  -0.0800 
  9 C       -0.9010    -2.5700    -2.0080 C.3   1 <1>   0.1200 
 10 C       -2.1070    -3.7830    -0.5390 C.3   1 <1>   0.1200 
 11 C       -4.0500    -2.1460    -0.5330 C.3   1 <1>  -0.0160 
 12 O       -1.6100    -3.7540    -1.8360 O.3   1 <1>  -0.5600 
 13 C       -5.0290    -2.8970     0.3810 C.ar  1 <1>  -0.1440 
 14 C       -6.4020    -2.9760     0.0350 C.ar  1 <1>   0.0000 
 15 C       -4.6510    -3.5030     1.5470 C.ar  1 <1>  -0.1500 
 16 C       -7.2660    -3.6930     0.8980 C.ar  1 <1>   0.3100 
 17 C       -6.9710    -2.3800    -1.1160 C.ar  1 <1>  -0.1500 
 18 C       -5.5900    -4.1810     2.3340 C.ar  1 <1>   0.1600 
 19 N       -6.8460    -4.2890     2.0410 N.ar  1 <1>  -0.6200 
 20 C       -8.6280    -3.7980     0.5700 C.ar  1 <1>  -0.1500 
 21 C       -8.3030    -2.4970    -1.4060 C.ar  1 <1>  -0.1500 
 22 C       -9.1450    -3.2170    -0.5550 C.ar  1 <1>  -0.1500 
 23 H       -1.4850     0.2150    -0.2010 H     1 <1>   0.4200 
 24 H        2.2450    -0.0550     1.3400 H     1 <1>   0.0800 
 25 H        2.0790    -0.2030    -0.3730 H     1 <1>   0.0800 
 26 H       -2.3190    -1.0260    -1.9120 H     1 <1>   0.0800 
 27 H        0.8510     2.0060     1.3020 H     1 <1>   0.0800 
 28 H        0.7260     1.8720    -0.4390 H     1 <1>   0.0800 
 29 H        2.2800     2.1600     0.3060 H     1 <1>   0.0800 
 30 H       -2.3550    -2.1050     0.7860 H     1 <1>   0.0800 
 31 H        0.0960    -2.7230    -1.6380 H     1 <1>   0.0800 
 32 H       -0.8750    -2.3350    -3.0570 H     1 <1>   0.0800 
 33 H       -2.9100    -4.4980    -0.4870 H     1 <1>   0.0800 
 34 H       -1.3060    -4.0850     0.1150 H     1 <1>   0.0800 
 35 H       -4.2250    -2.4590    -1.5480 H     1 <1>   0.0800 
 36 H       -4.2800    -1.0970    -0.4660 H     1 <1>   0.0800 
 37 H       -3.6420    -3.4920     1.9110 H     1 <1>   0.1500 
 38 H       -6.3490    -1.8160    -1.7850 H     1 <1>   0.1500 
 39 H       -5.2420    -4.6440     3.2410 H     1 <1>   0.1500 
 40 H       -9.2550    -4.3540     1.2410 H     1 <1>   0.1500 
 41 H       -8.7190    -2.0400    -2.2870 H     1 <1>   0.1500 
 42 H      -10.1900    -3.3050    -0.7940 H     1 <1>   0.1500 
@<TRIPOS>BOND
  1   1   2  2   
  2   1   3  2   
  3   1   4  am  
  4   1   5  1   
  5   4   6  1   
  6   4  23  1   
  7   5   7  1   
  8   5  24  1   
  9   5  25  1   
 10   6   8  1   
 11   6   9  1   
 12   6  26  1   
 13   7  27  1   
 14   7  28  1   
 15   7  29  1   
 16   8  10  1   
 17   8  11  1   
 18   8  30  1   
 19   9  12  1   
 20   9  31  1   
 21   9  32  1   
 22  10  12  1   
 23  10  33  1   
 24  10  34  1   
 25  11  13  1   
 26  11  35  1   
 27  11  36  1   
 28  13  14  ar  
 29  13  15  ar  
 30  14  16  ar  
 31  14  17  ar  
 32  15  18  ar  
 33  15  37  1   
 34  16  19  ar  
 35  16  20  ar  
 36  17  21  ar  
 37  17  38  1   
 38  18  19  ar  
 39  18  39  1   
 40  20  22  ar  
 41  20  40  1   
 42  21  22  ar  
 43  21  41  1   
 44  22  42  1   
@<TRIPOS>SUBSTRUCTURE
  1 ****  11 GROUP 4 **** **** 0

# MOE 2024.06 (io_trps.svl 2023.06)
