@<TRIPOS>MOLECULE
NONAME
44 46 1 0 0 
SMALL
USER_CHARGES


@<TRIPOS>ATOM
  1 S        0.2620    -0.4570     0.3140 S.3   1 <1>   0.1810 
  2 N       -0.8040    -1.2010     1.3930 N.2   1 <1>  -0.2210 
  3 C       -0.8730     0.7720    -0.1180 C.2   1 <1>  -0.0450 
  4 N       -1.9130    -0.6050     1.4020 N.2   1 <1>  -0.2270 
  5 C       -1.9930     0.4850     0.5690 C.2   1 <1>   0.0460 
  6 C       -0.4510     1.7860    -1.0340 C.2   1 <1>   0.7150 
  7 C       -3.3230     1.2340     0.5190 C.3   1 <1>   0.1010 
  8 O       -0.7210     1.6830    -2.2120 O.2   1 <1>  -0.5700 
  9 N        0.2890     2.8790    -0.6180 N.am  1 <1>  -0.6600 
 10 C       -4.0100     1.0200    -0.8340 C.3   1 <1>  -0.2400 
 11 C       -3.1510     2.7310     0.8040 C.3   1 <1>  -0.2400 
 12 C        0.6580     3.0980     0.8340 C.3   1 <1>   0.2200 
 13 C        0.6500     3.9280    -1.6310 C.3   1 <1>   0.1400 
 14 C        0.2210     4.4760     1.3590 C.3   1 <1>   0.1200 
 15 C        2.1720     2.8690     1.0700 C.3   1 <1>   0.3430 
 16 C        1.7280     4.9390    -1.1950 C.3   1 <1>  -0.0800 
 17 O        1.1980     5.4360     1.0990 O.3   1 <1>  -0.5600 
 18 N        2.9800     2.9430    -0.1990 N.4   1 <1>  -0.9590 
 19 C        1.1950     5.9630    -0.1840 C.3   1 <1>   0.1200 
 20 C        3.0760     4.3340    -0.7510 C.3   1 <1>   0.3430 
 21 C        4.3360     2.3460    -0.0130 C.3   1 <1>   0.2630 
 22 H       -3.9650     0.8270     1.2840 H     1 <1>   0.0800 
 23 H       -3.4210     1.4300    -1.6350 H     1 <1>   0.0800 
 24 H       -4.9770     1.4910    -0.8420 H     1 <1>   0.0800 
 25 H       -4.1430    -0.0320    -1.0140 H     1 <1>   0.0800 
 26 H       -2.5980     3.2150     0.0200 H     1 <1>   0.0800 
 27 H       -2.6410     2.8720     1.7410 H     1 <1>   0.0800 
 28 H       -4.1160     3.2010     0.8730 H     1 <1>   0.0800 
 29 H        0.1310     2.3880     1.4470 H     1 <1>   0.0800 
 30 H        0.9930     3.4360    -2.5280 H     1 <1>   0.0800 
 31 H       -0.2470     4.4620    -1.8990 H     1 <1>   0.0800 
 32 H        0.1210     4.4300     2.4300 H     1 <1>   0.0800 
 33 H       -0.7250     4.7840     0.9470 H     1 <1>   0.0800 
 34 H        2.2920     1.8920     1.5060 H     1 <1>   0.0800 
 35 H        2.5370     3.5870     1.7870 H     1 <1>   0.0800 
 36 H        1.9440     5.5220    -2.0730 H     1 <1>   0.0800 
 37 H        2.4470     2.3940    -0.8930 H     1 <1>   0.4500 
 38 H        0.2000     6.2970    -0.4320 H     1 <1>   0.0800 
 39 H        1.8380     6.8270    -0.1650 H     1 <1>   0.0800 
 40 H        3.5280     4.9840    -0.0190 H     1 <1>   0.0800 
 41 H        3.7260     4.3130    -1.6100 H     1 <1>   0.0800 
 42 H        4.8970     2.9100     0.7140 H     1 <1>   0.0800 
 43 H        4.8780     2.3500    -0.9460 H     1 <1>   0.0800 
 44 H        4.2530     1.3270     0.3290 H     1 <1>   0.0800 
@<TRIPOS>BOND
  1   1   2  1   
  2   1   3  1   
  3   2   4  2   
  4   3   5  2   
  5   3   6  1   
  6   4   5  1   
  7   5   7  1   
  8   6   8  2   
  9   6   9  am  
 10   7  10  1   
 11   7  11  1   
 12   7  22  1   
 13   9  12  1   
 14   9  13  1   
 15  10  23  1   
 16  10  24  1   
 17  10  25  1   
 18  11  26  1   
 19  11  27  1   
 20  11  28  1   
 21  12  14  1   
 22  12  15  1   
 23  12  29  1   
 24  13  16  1   
 25  13  30  1   
 26  13  31  1   
 27  14  17  1   
 28  14  32  1   
 29  14  33  1   
 30  15  18  1   
 31  15  34  1   
 32  15  35  1   
 33  16  19  1   
 34  16  20  1   
 35  16  36  1   
 36  17  19  1   
 37  18  20  1   
 38  18  21  1   
 39  18  37  1   
 40  19  38  1   
 41  19  39  1   
 42  20  40  1   
 43  20  41  1   
 44  21  42  1   
 45  21  43  1   
 46  21  44  1   
@<TRIPOS>SUBSTRUCTURE
  1 ****   9 GROUP 4 **** **** 0

# MOE 2024.06 (io_trps.svl 2023.06)
