@<TRIPOS>MOLECULE
NONAME
48 50 1 0 0 
SMALL
USER_CHARGES


@<TRIPOS>ATOM
  1 CL       1.8260     3.6390     2.7920 Cl    1 <1>  -0.1770 
  2 C        0.8110     3.1310     1.4610 C.ar  1 <1>   0.1770 
  3 C        1.3180     2.3360     0.4390 C.ar  1 <1>  -0.1440 
  4 C       -0.5070     3.5470     1.4680 C.ar  1 <1>  -0.1500 
  5 C        0.4580     1.9650    -0.5890 C.ar  1 <1>  -0.1500 
  6 C        2.7790     1.8930     0.4320 C.3   1 <1>   0.3640 
  7 C       -1.3500     3.1680     0.4380 C.ar  1 <1>  -0.1500 
  8 C       -0.8640     2.3770    -0.5880 C.ar  1 <1>  -0.1500 
  9 N        2.8350     0.4400     0.1330 N.am  1 <1>  -0.7300 
 10 C        3.6250     2.7070    -0.5780 C.3   1 <1>   0.2610 
 11 C        3.7460    -0.1170    -0.6960 C.2   1 <1>   0.5690 
 12 O        4.8710     2.0620    -0.8180 O.3   1 <1>  -0.5600 
 13 C        3.8410     4.1240    -0.0490 C.2   1 <1>   0.5690 
 14 O        3.7550    -1.3050    -0.8880 O.2   1 <1>  -0.5700 
 15 C        4.7540     0.7870    -1.4150 C.3   1 <1>   0.1810 
 16 O        2.9950     4.9630    -0.2480 O.2   1 <1>  -0.5700 
 17 N        4.9860     4.4060     0.6300 N.am  1 <1>  -0.7300 
 18 C        5.3360     5.7180     1.2350 C.3   1 <1>   0.1400 
 19 C        6.5000     6.4150     0.4950 C.3   1 <1>   0.0000 
 20 C        6.7640     7.7930     1.1520 C.3   1 <1>  -0.1600 
 21 C        6.1020     6.7360    -0.9660 C.3   1 <1>  -0.1600 
 22 C        7.7550     5.5090     0.5580 C.3   1 <1>   0.1200 
 23 C        6.2850     8.8480     0.1560 C.3   1 <1>  -0.1600 
 24 C        6.4750     8.1970    -1.2060 C.3   1 <1>  -0.1600 
 25 O        8.8360     6.1000    -0.0800 O.3   1 <1>  -0.6800 
 26 H       -0.8660     4.1640     2.2720 H     1 <1>   0.1500 
 27 H        0.8100     1.3500    -1.4010 H     1 <1>   0.1500 
 28 H        3.2090     2.0300     1.4080 H     1 <1>   0.0800 
 29 H       -2.3770     3.4890     0.4350 H     1 <1>   0.1500 
 30 H       -1.5190     2.0820    -1.3910 H     1 <1>   0.1500 
 31 H        2.1690    -0.1670     0.6130 H     1 <1>   0.3700 
 32 H        3.1040     2.7800    -1.5150 H     1 <1>   0.0800 
 33 H        4.4530     0.9170    -2.4380 H     1 <1>   0.0800 
 34 H        5.7240     0.3240    -1.3950 H     1 <1>   0.0800 
 35 H        5.7010     3.6740     0.6610 H     1 <1>   0.3700 
 36 H        4.4690     6.3590     1.2190 H     1 <1>   0.0800 
 37 H        5.6020     5.5610     2.2660 H     1 <1>   0.0800 
 38 H        6.2620     7.9080     2.0970 H     1 <1>   0.0800 
 39 H        7.8160     7.9410     1.3240 H     1 <1>   0.0800 
 40 H        6.5660     6.0810    -1.6820 H     1 <1>   0.0800 
 41 H        5.0350     6.6480    -1.0850 H     1 <1>   0.0800 
 42 H        7.5690     4.5700     0.0650 H     1 <1>   0.0800 
 43 H        8.0410     5.3170     1.5770 H     1 <1>   0.0800 
 44 H        5.2380     9.0440     0.3150 H     1 <1>   0.0800 
 45 H        6.8350     9.7700     0.2450 H     1 <1>   0.0800 
 46 H        7.5070     8.2730    -1.5000 H     1 <1>   0.0800 
 47 H        5.8560     8.6530    -1.9600 H     1 <1>   0.0800 
 48 H        8.5310     6.5320    -0.9010 H     1 <1>   0.4000 
@<TRIPOS>BOND
  1   1   2  1   
  2   2   3  ar  
  3   2   4  ar  
  4   3   5  ar  
  5   3   6  1   
  6   4   7  ar  
  7   4  26  1   
  8   5   8  ar  
  9   5  27  1   
 10   6   9  1   
 11   6  10  1   
 12   6  28  1   
 13   7   8  ar  
 14   7  29  1   
 15   8  30  1   
 16   9  11  am  
 17   9  31  1   
 18  10  12  1   
 19  10  13  1   
 20  10  32  1   
 21  11  14  2   
 22  11  15  1   
 23  12  15  1   
 24  13  16  2   
 25  13  17  am  
 26  15  33  1   
 27  15  34  1   
 28  17  18  1   
 29  17  35  1   
 30  18  19  1   
 31  18  36  1   
 32  18  37  1   
 33  19  20  1   
 34  19  21  1   
 35  19  22  1   
 36  20  23  1   
 37  20  38  1   
 38  20  39  1   
 39  21  24  1   
 40  21  40  1   
 41  21  41  1   
 42  22  25  1   
 43  22  42  1   
 44  22  43  1   
 45  23  24  1   
 46  23  44  1   
 47  23  45  1   
 48  24  46  1   
 49  24  47  1   
 50  25  48  1   
@<TRIPOS>SUBSTRUCTURE
  1 ****  13 GROUP 4 **** **** 0

# MOE 2024.06 (io_trps.svl 2023.06)
