@<TRIPOS>MOLECULE
NONAME
45 47 1 0 0 
SMALL
USER_CHARGES


@<TRIPOS>ATOM
  1 O       -1.4660     0.6370    -2.2780 O.3   1 <1>  -0.0190 
  2 N       -1.2310     1.8350    -2.6650 N.2   1 <1>  -0.4100 
  3 C       -1.8370     0.6260    -1.0270 C.2   1 <1>   0.4250 
  4 C       -1.4590     2.5370    -1.6200 C.2   1 <1>   0.3350 
  5 N       -1.8590     1.8250    -0.5560 N.2   1 <1>  -0.5650 
  6 C       -2.1600    -0.6120    -0.3490 C.ar  1 <1>   0.0530 
  7 C       -1.3320     4.0630    -1.5600 C.3   1 <1>   0.2910 
  8 C       -2.5510    -0.6160     0.9900 C.ar  1 <1>  -0.1500 
  9 C       -2.0970    -1.8470    -0.9980 C.ar  1 <1>  -0.1500 
 10 N       -0.0030     4.5650    -1.1160 N.3   1 <1>  -0.8100 
 11 C       -2.8630    -1.7900     1.6500 C.ar  1 <1>  -0.1500 
 12 C       -2.4090    -3.0240    -0.3420 C.ar  1 <1>  -0.1500 
 13 C        0.0620     6.0430    -1.2340 C.3   1 <1>   0.2900 
 14 C        0.3250     4.1170     0.2500 C.3   1 <1>   0.0300 
 15 C       -2.7930    -3.0040     0.9880 C.ar  1 <1>  -0.1430 
 16 C        1.4340     6.6330    -0.9210 C.2   1 <1>   0.2980 
 17 C       -3.1360    -4.2950     1.7090 C.3   1 <1>  -0.0970 
 18 O        2.4470     6.3220    -1.6900 O.3   1 <1>  -0.0190 
 19 N        1.6990     7.4300     0.0390 N.2   1 <1>  -0.5650 
 20 N        3.4430     6.9770    -1.1760 N.2   1 <1>  -0.4100 
 21 C        2.9950     7.6150    -0.1680 C.2   1 <1>   0.3350 
 22 C        3.7940     8.5210     0.7570 C.3   1 <1>   0.0210 
 23 C        5.2870     8.6190     0.3960 C.3   1 <1>  -0.1600 
 24 C        6.0440     9.5400     1.3600 C.3   1 <1>  -0.2400 
 25 H       -2.0970     4.4400    -0.9050 H     1 <1>   0.0800 
 26 H       -1.5290     4.4370    -2.5490 H     1 <1>   0.0800 
 27 H       -2.6110     0.3180     1.5220 H     1 <1>   0.1500 
 28 H       -1.8010    -1.8920    -2.0310 H     1 <1>   0.1500 
 29 H       -3.1620    -1.7560     2.6830 H     1 <1>   0.1500 
 30 H       -2.3510    -3.9580    -0.8720 H     1 <1>   0.1500 
 31 H       -0.6590     6.4880    -0.5710 H     1 <1>   0.0800 
 32 H       -0.1890     6.3270    -2.2410 H     1 <1>   0.0800 
 33 H        0.3610     3.0420     0.2890 H     1 <1>   0.0800 
 34 H       -0.4090     4.4700     0.9540 H     1 <1>   0.0800 
 35 H        1.2960     4.4810     0.5430 H     1 <1>   0.0800 
 36 H       -2.9030    -4.2140     2.7550 H     1 <1>   0.0800 
 37 H       -2.5760    -5.1160     1.2990 H     1 <1>   0.0800 
 38 H       -4.1860    -4.5020     1.6020 H     1 <1>   0.0800 
 39 H        3.6940     8.1440     1.7590 H     1 <1>   0.0800 
 40 H        3.3540     9.5010     0.7270 H     1 <1>   0.0800 
 41 H        5.3850     8.9950    -0.6090 H     1 <1>   0.0800 
 42 H        5.7250     7.6360     0.4240 H     1 <1>   0.0800 
 43 H        5.6360    10.5350     1.3290 H     1 <1>   0.0800 
 44 H        7.0820     9.5880     1.0810 H     1 <1>   0.0800 
 45 H        5.9780     9.1670     2.3670 H     1 <1>   0.0800 
@<TRIPOS>BOND
  1   1   2  1   
  2   1   3  1   
  3   2   4  2   
  4   3   5  2   
  5   3   6  1   
  6   4   5  1   
  7   4   7  1   
  8   6   8  ar  
  9   6   9  ar  
 10   7  10  1   
 11   7  25  1   
 12   7  26  1   
 13   8  11  ar  
 14   8  27  1   
 15   9  12  ar  
 16   9  28  1   
 17  10  13  1   
 18  10  14  1   
 19  11  15  ar  
 20  11  29  1   
 21  12  15  ar  
 22  12  30  1   
 23  13  16  1   
 24  13  31  1   
 25  13  32  1   
 26  14  33  1   
 27  14  34  1   
 28  14  35  1   
 29  15  17  1   
 30  16  18  1   
 31  16  19  2   
 32  17  36  1   
 33  17  37  1   
 34  17  38  1   
 35  18  20  1   
 36  19  21  1   
 37  20  21  2   
 38  21  22  1   
 39  22  23  1   
 40  22  39  1   
 41  22  40  1   
 42  23  24  1   
 43  23  41  1   
 44  23  42  1   
 45  24  43  1   
 46  24  44  1   
 47  24  45  1   
@<TRIPOS>SUBSTRUCTURE
  1 ****  14 GROUP 4 **** **** 0

# MOE 2024.06 (io_trps.svl 2023.06)
