@<TRIPOS>MOLECULE
NONAME
49 52 1 0 0 
SMALL
USER_CHARGES


@<TRIPOS>ATOM
  1 O        0.0780     1.7000    -1.0700 O.2   1 <1>  -0.5700 
  2 C       -0.3510     2.8260    -0.9710 C.2   1 <1>   0.5690 
  3 N       -0.9250     3.3250     0.1650 N.am  1 <1>  -0.5090 
  4 C       -0.2520     3.7620    -2.1700 C.3   1 <1>   0.1810 
  5 C       -1.4460     4.7280     0.1780 C.3   1 <1>   0.3640 
  6 C       -0.9180     2.5970     1.4550 C.3   1 <1>   0.0490 
  7 O        0.1450     5.0440    -1.7590 O.3   1 <1>  -0.5600 
  8 C       -2.9520     4.7670    -0.1120 C.ar  1 <1>  -0.1440 
  9 C       -0.7050     5.6830    -0.8060 C.3   1 <1>   0.2610 
 10 C       -1.6050     1.2710     1.5280 C.3   1 <1>  -0.2000 
 11 C       -2.1840     2.4490     2.2430 C.3   1 <1>  -0.2000 
 12 C       -3.6760     5.8630     0.3400 C.ar  1 <1>  -0.1500 
 13 C       -3.6260     3.7660    -0.8070 C.ar  1 <1>  -0.1500 
 14 C        0.0860     6.7090     0.0090 C.2   1 <1>   0.5690 
 15 C       -5.0350     5.9590     0.1020 C.ar  1 <1>  -0.1500 
 16 C       -4.9860     3.8600    -1.0460 C.ar  1 <1>  -0.1500 
 17 O       -0.5150     7.4530     0.7500 O.2   1 <1>  -0.5700 
 18 N        1.4380     6.7550    -0.1040 N.am  1 <1>  -0.7300 
 19 C       -5.7000     4.9630    -0.5910 C.ar  1 <1>   0.0830 
 20 C        2.3450     7.6370     0.6440 C.3   1 <1>   0.2350 
 21 O       -7.0330     5.1330    -0.7810 O.3   1 <1>  -0.3620 
 22 C        3.5530     6.8100     1.0790 C.3   1 <1>  -0.1950 
 23 C       -7.8100     4.1600    -1.4410 C.3   1 <1>   0.0400 
 24 C        4.9000     7.4410     1.2370 C.3   1 <1>  -0.2000 
 25 C        4.6490     6.4700     0.1180 C.3   1 <1>  -0.2000 
 26 H       -1.2000     3.8330    -2.6710 H     1 <1>   0.0800 
 27 H        0.4860     3.3910    -2.8580 H     1 <1>   0.0800 
 28 H       -1.3160     5.1050     1.1780 H     1 <1>   0.0800 
 29 H        0.0130     2.7120     1.9870 H     1 <1>   0.1000 
 30 H       -1.4350     6.2350    -1.3700 H     1 <1>   0.0800 
 31 H       -2.0910     0.8990     0.6430 H     1 <1>   0.1000 
 32 H       -1.1470     0.4890     2.1070 H     1 <1>   0.1000 
 33 H       -2.1310     2.4620     3.3170 H     1 <1>   0.1000 
 34 H       -3.1090     2.8530     1.8730 H     1 <1>   0.1000 
 35 H       -3.1860     6.6550     0.8840 H     1 <1>   0.1500 
 36 H       -3.1070     2.8950    -1.1650 H     1 <1>   0.1500 
 37 H       -5.5900     6.8100     0.4540 H     1 <1>   0.1500 
 38 H       -5.4700     3.0670    -1.5830 H     1 <1>   0.1500 
 39 H        1.8840     6.1140    -0.7680 H     1 <1>   0.3700 
 40 H        2.6550     8.4460     0.0050 H     1 <1>   0.0800 
 41 H        1.8450     8.0490     1.5050 H     1 <1>   0.0800 
 42 H        3.2850     6.0670     1.8110 H     1 <1>   0.1000 
 43 H       -8.8290     4.5030    -1.4600 H     1 <1>   0.0800 
 44 H       -7.7460     3.2340    -0.8970 H     1 <1>   0.0800 
 45 H       -7.4450     4.0440    -2.4460 H     1 <1>   0.0800 
 46 H        5.0310     8.4810     0.9930 H     1 <1>   0.1000 
 47 H        5.5240     7.1310     2.0590 H     1 <1>   0.1000 
 48 H        5.0970     5.4920     0.1710 H     1 <1>   0.1000 
 49 H        4.6040     6.8480    -0.8890 H     1 <1>   0.1000 
@<TRIPOS>BOND
  1   1   2  2   
  2   2   3  am  
  3   2   4  1   
  4   3   5  1   
  5   3   6  1   
  6   4   7  1   
  7   4  26  1   
  8   4  27  1   
  9   5   8  1   
 10   5   9  1   
 11   5  28  1   
 12   6  10  1   
 13   6  11  1   
 14   6  29  1   
 15   7   9  1   
 16   8  12  ar  
 17   8  13  ar  
 18   9  14  1   
 19   9  30  1   
 20  10  11  1   
 21  10  31  1   
 22  10  32  1   
 23  11  33  1   
 24  11  34  1   
 25  12  15  ar  
 26  12  35  1   
 27  13  16  ar  
 28  13  36  1   
 29  14  17  2   
 30  14  18  am  
 31  15  19  ar  
 32  15  37  1   
 33  16  19  ar  
 34  16  38  1   
 35  18  20  1   
 36  18  39  1   
 37  19  21  1   
 38  20  22  1   
 39  20  40  1   
 40  20  41  1   
 41  21  23  1   
 42  22  24  1   
 43  22  25  1   
 44  22  42  1   
 45  23  43  1   
 46  23  44  1   
 47  23  45  1   
 48  24  25  1   
 49  24  46  1   
 50  24  47  1   
 51  25  48  1   
 52  25  49  1   
@<TRIPOS>SUBSTRUCTURE
  1 ****   5 GROUP 4 **** **** 0

# MOE 2024.06 (io_trps.svl 2023.06)
