@<TRIPOS>MOLECULE
NONAME
49 52 1 0 0 
SMALL
USER_CHARGES


@<TRIPOS>ATOM
  1 O        0.6790    -0.3890     1.6200 O.2   1 <1>  -0.5700 
  2 C        1.5530    -0.8700     0.9380 C.2   1 <1>   0.9370 
  3 N        2.5850    -0.0740     0.3770 N.pl3 1 <1>  -0.5760 
  4 C        1.5300    -2.2650     0.7070 C.2   1 <1>  -0.1360 
  5 C        3.5350    -0.7220    -0.3610 C.cat 1 <1>   0.7390 
  6 C        2.6990     1.3070     0.5270 C.2   1 <1>   0.2030 
  7 C        2.4770    -2.8640    -0.0350 C.2   1 <1>   0.2030 
  8 N        3.4690    -2.0620    -0.5490 N.pl3 1 <1>  -0.6450 
  9 C        4.5970    -0.0170    -0.9430 C.2   1 <1>  -0.1800 
 10 C        3.7390     1.9900    -0.0460 C.2   1 <1>  -0.1500 
 11 C        1.6950     2.1420     1.3210 C.3   1 <1>  -0.1020 
 12 C        2.5230    -4.3700    -0.3280 C.3   1 <1>   0.2480 
 13 C        4.7130     1.3330    -0.7950 C.2   1 <1>  -0.1500 
 14 N        1.2260    -5.0190    -0.0770 N.3   1 <1>  -0.8100 
 15 C        0.2210    -4.7950    -1.1320 C.3   1 <1>   0.1100 
 16 C        1.3180    -6.4830     0.0780 C.3   1 <1>   0.1100 
 17 C       -0.8360    -5.8550    -0.8560 C.3   1 <1>   0.2000 
 18 C        0.0140    -7.0750    -0.4890 C.3   1 <1>  -0.0800 
 19 O       -1.5570    -5.4350     0.2470 O.3   1 <1>  -0.6800 
 20 C       -0.6660    -8.0880     0.4530 C.3   1 <1>   0.0200 
 21 C        0.1630    -9.3420     0.6740 C.2   1 <1>  -0.0400 
 22 O       -0.1710   -10.1520     1.6430 O.3   1 <1>  -0.0190 
 23 C        1.2410    -9.8620     0.0630 C.2   1 <1>  -0.1500 
 24 N        0.6250   -11.1790     1.7170 N.2   1 <1>  -0.4100 
 25 C        1.4850   -11.0330     0.7750 C.2   1 <1>   0.1080 
 26 C        2.6050   -12.0080     0.4900 C.3   1 <1>  -0.0590 
 27 H        0.7190    -2.8030     1.1610 H     1 <1>   0.1500 
 28 H        4.2130    -2.4850    -1.1100 H     1 <1>   0.4500 
 29 H        5.3310    -0.5520    -1.5160 H     1 <1>   0.1500 
 30 H        3.8330     3.0580     0.0680 H     1 <1>   0.1500 
 31 H        1.6740     1.8270     2.3490 H     1 <1>   0.0800 
 32 H        0.7110     2.0480     0.9000 H     1 <1>   0.0800 
 33 H        1.9540     3.1850     1.3080 H     1 <1>   0.0800 
 34 H        3.2670    -4.8130     0.3140 H     1 <1>   0.0800 
 35 H        2.8160    -4.5430    -1.3490 H     1 <1>   0.0800 
 36 H        5.5240     1.8930    -1.2360 H     1 <1>   0.1500 
 37 H       -0.1970    -3.8030    -1.0950 H     1 <1>   0.0800 
 38 H        0.6520    -4.9690    -2.1040 H     1 <1>   0.0800 
 39 H        2.1590    -6.8790    -0.4680 H     1 <1>   0.0800 
 40 H        1.4370    -6.7260     1.1220 H     1 <1>   0.0800 
 41 H       -1.5140    -6.0230    -1.6760 H     1 <1>   0.0800 
 42 H        0.2560    -7.5820    -1.4060 H     1 <1>   0.0800 
 43 H       -0.9100    -5.1830     0.9370 H     1 <1>   0.4000 
 44 H       -1.6200    -8.3760     0.0480 H     1 <1>   0.0800 
 45 H       -0.8460    -7.6320     1.4110 H     1 <1>   0.0800 
 46 H        1.8080    -9.5070    -0.7760 H     1 <1>   0.1500 
 47 H        2.5700   -12.3150    -0.5390 H     1 <1>   0.0800 
 48 H        2.5010   -12.8770     1.1150 H     1 <1>   0.0800 
 49 H        3.5520   -11.5450     0.6930 H     1 <1>   0.0800 
@<TRIPOS>BOND
  1   1   2  2   
  2   2   3  1   
  3   2   4  1   
  4   3   5  ar  
  5   3   6  1   
  6   4   7  2   
  7   4  27  1   
  8   5   8  ar  
  9   5   9  1   
 10   6  10  2   
 11   6  11  1   
 12   7   8  1   
 13   7  12  1   
 14   8  28  1   
 15   9  13  2   
 16   9  29  1   
 17  10  13  1   
 18  10  30  1   
 19  11  31  1   
 20  11  32  1   
 21  11  33  1   
 22  12  14  1   
 23  12  34  1   
 24  12  35  1   
 25  13  36  1   
 26  14  15  1   
 27  14  16  1   
 28  15  17  1   
 29  15  37  1   
 30  15  38  1   
 31  16  18  1   
 32  16  39  1   
 33  16  40  1   
 34  17  18  1   
 35  17  19  1   
 36  17  41  1   
 37  18  20  1   
 38  18  42  1   
 39  19  43  1   
 40  20  21  1   
 41  20  44  1   
 42  20  45  1   
 43  21  22  1   
 44  21  23  2   
 45  22  24  1   
 46  23  25  1   
 47  23  46  1   
 48  24  25  2   
 49  25  26  1   
 50  26  47  1   
 51  26  48  1   
 52  26  49  1   
@<TRIPOS>SUBSTRUCTURE
  1 ****  14 GROUP 4 **** **** 0

# MOE 2024.06 (io_trps.svl 2023.06)
