@<TRIPOS>MOLECULE
NONAME
52 55 1 0 0 
SMALL
USER_CHARGES


@<TRIPOS>ATOM
  1 O       -0.6330     0.3870    -0.2590 O.2   1 <1>  -0.5700 
  2 C       -1.3010     1.3730    -0.4460 C.2   1 <1>   0.5690 
  3 N       -2.5400     1.4050    -0.9730 N.am  1 <1>  -0.6600 
  4 C       -0.8440     2.7560    -0.0790 C.3   1 <1>  -0.0990 
  5 C       -3.1110     2.7640    -0.9990 C.3   1 <1>   0.1400 
  6 C       -3.3270     0.2210    -1.3780 C.3   1 <1>   0.2840 
  7 C       -2.1530     3.5710    -0.1030 C.3   1 <1>  -0.0190 
  8 C       -4.4430    -0.0030    -0.3720 C.ar  1 <1>  -0.1440 
  9 C       -1.9700     5.0220    -0.5250 C.2   1 <1>   0.5690 
 10 C       -5.7680     0.2590    -0.6610 C.ar  1 <1>  -0.1500 
 11 C       -4.1760    -0.4780     0.8960 C.ar  1 <1>  -0.1500 
 12 O       -2.5940     5.4450    -1.4670 O.2   1 <1>  -0.5700 
 13 N       -1.0970     5.7880     0.2000 N.am  1 <1>  -0.4940 
 14 C       -6.7330     0.0400     0.3080 C.ar  1 <1>   0.1600 
 15 C       -5.2160    -0.6630     1.7910 C.ar  1 <1>   0.1600 
 16 C       -0.8010     7.1660     0.0590 C.2   1 <1>  -0.0880 
 17 N       -6.4890    -0.4130     1.5270 N.ar  1 <1>  -0.6200 
 18 N        0.4540     7.7000     0.0560 N.pl3 1 <1>   0.3140 
 19 C       -1.6570     8.2080    -0.0820 C.2   1 <1>  -0.1810 
 20 N        0.4130     9.0510    -0.0640 N.2   1 <1>  -0.7070 
 21 C        1.7370     6.9420     0.1300 C.3   1 <1>   0.1760 
 22 C       -0.8480     9.3360    -0.1540 C.2   1 <1>   0.1390 
 23 C       -3.1730     8.2120    -0.1490 C.3   1 <1>  -0.0590 
 24 C        2.5480     7.2590     1.3880 C.3   1 <1>  -0.1600 
 25 C        2.7000     7.2560    -1.0150 C.3   1 <1>  -0.1600 
 26 C        3.9950     6.8940     1.0370 C.3   1 <1>  -0.1600 
 27 C        4.0730     6.8260    -0.4940 C.3   1 <1>  -0.1600 
 28 H       -0.1540     3.0950    -0.8310 H     1 <1>   0.0800 
 29 H       -0.3770     2.7590     0.8880 H     1 <1>   0.0800 
 30 H       -4.1140     2.7770    -0.6070 H     1 <1>   0.0800 
 31 H       -3.1100     3.1230    -2.0150 H     1 <1>   0.0800 
 32 H       -2.6880    -0.6460    -1.4080 H     1 <1>   0.0800 
 33 H       -3.7290     0.3770    -2.3640 H     1 <1>   0.0800 
 34 H       -2.5750     3.5680     0.8860 H     1 <1>   0.0800 
 35 H       -6.0590     0.6320    -1.6250 H     1 <1>   0.1500 
 36 H       -3.1650    -0.7030     1.1900 H     1 <1>   0.1500 
 37 H       -0.6090     5.3120     0.9580 H     1 <1>   0.3700 
 38 H       -7.7620     0.2490     0.0680 H     1 <1>   0.1500 
 39 H       -4.9880    -1.0350     2.7750 H     1 <1>   0.1500 
 40 H        1.5250     5.8900     0.1100 H     1 <1>   0.0800 
 41 H       -1.2160    10.3410    -0.2700 H     1 <1>   0.1500 
 42 H       -3.5710     7.3410     0.3360 H     1 <1>   0.0800 
 43 H       -3.4880     8.2080    -1.1780 H     1 <1>   0.0800 
 44 H       -3.5660     9.0870     0.3360 H     1 <1>   0.0800 
 45 H        2.1930     6.7120     2.2420 H     1 <1>   0.0800 
 46 H        2.4960     8.3160     1.5910 H     1 <1>   0.0800 
 47 H        2.7150     8.3180    -1.2000 H     1 <1>   0.0800 
 48 H        2.4310     6.7390    -1.9190 H     1 <1>   0.0800 
 49 H        4.2530     5.9370     1.4580 H     1 <1>   0.0800 
 50 H        4.6730     7.6360     1.4250 H     1 <1>   0.0800 
 51 H        4.8490     7.4660    -0.8790 H     1 <1>   0.0800 
 52 H        4.2770     5.8140    -0.7990 H     1 <1>   0.0800 
@<TRIPOS>BOND
  1   1   2  2   
  2   2   3  am  
  3   2   4  1   
  4   3   5  1   
  5   3   6  1   
  6   4   7  1   
  7   4  28  1   
  8   4  29  1   
  9   5   7  1   
 10   5  30  1   
 11   5  31  1   
 12   6   8  1   
 13   6  32  1   
 14   6  33  1   
 15   7   9  1   
 16   7  34  1   
 17   8  10  ar  
 18   8  11  ar  
 19   9  12  2   
 20   9  13  am  
 21  10  14  ar  
 22  10  35  1   
 23  11  15  ar  
 24  11  36  1   
 25  13  16  1   
 26  13  37  1   
 27  14  17  ar  
 28  14  38  1   
 29  15  17  ar  
 30  15  39  1   
 31  16  18  1   
 32  16  19  2   
 33  18  20  1   
 34  18  21  1   
 35  19  22  1   
 36  19  23  1   
 37  20  22  2   
 38  21  24  1   
 39  21  25  1   
 40  21  40  1   
 41  22  41  1   
 42  23  42  1   
 43  23  43  1   
 44  23  44  1   
 45  24  26  1   
 46  24  45  1   
 47  24  46  1   
 48  25  27  1   
 49  25  47  1   
 50  25  48  1   
 51  26  27  1   
 52  26  49  1   
 53  26  50  1   
 54  27  51  1   
 55  27  52  1   
@<TRIPOS>SUBSTRUCTURE
  1 ****   7 GROUP 4 **** **** 0

# MOE 2024.06 (io_trps.svl 2023.06)
