@<TRIPOS>MOLECULE
NONAME
51 54 1 0 0 
SMALL
USER_CHARGES


@<TRIPOS>ATOM
  1 O       -0.4010     0.5440     1.1680 O.3   1 <1>  -0.0190 
  2 N       -0.0300     1.7720     1.1560 N.2   1 <1>  -0.4100 
  3 C       -1.5370     0.4020     0.5370 C.2   1 <1>   0.4250 
  4 C       -0.9650     2.3570     0.5090 C.2   1 <1>   0.3350 
  5 N       -1.9390     1.5450     0.0900 N.2   1 <1>  -0.5650 
  6 C       -2.1710    -0.8930     0.4100 C.ar  1 <1>   0.0530 
  7 C       -0.9980     3.8580     0.2090 C.3   1 <1>   0.5240 
  8 C       -3.3840    -1.0350    -0.2680 C.ar  1 <1>  -0.1500 
  9 C       -1.6030    -2.0480     0.9530 C.ar  1 <1>  -0.1500 
 10 N        0.3780     4.4630     0.1730 N.4   1 <1>  -0.9590 
 11 C       -3.9990    -2.2670    -0.3990 C.ar  1 <1>  -0.1500 
 12 C       -2.2140    -3.2820     0.8250 C.ar  1 <1>  -0.1500 
 13 C        0.3840     5.9540     0.0790 C.3   1 <1>   0.3430 
 14 C        1.2250     3.9440    -0.9300 C.3   1 <1>   0.3430 
 15 C       -3.4140    -3.3940     0.1480 C.ar  1 <1>  -0.1500 
 16 C        1.4590     6.3330    -0.9460 C.3   1 <1>   0.0630 
 17 C        2.2570     5.0390    -1.1320 C.3   1 <1>  -0.1600 
 18 C        2.2310     7.5860    -0.5130 C.ar  1 <1>  -0.1430 
 19 C        1.5200     8.7520    -0.2230 C.ar  1 <1>   0.0830 
 20 C        3.6170     7.6010    -0.4120 C.ar  1 <1>  -0.1500 
 21 O        0.1670     8.7170    -0.4090 O.3   1 <1>  -0.3620 
 22 C        2.1890     9.8970     0.2400 C.ar  1 <1>   0.0830 
 23 C        4.2820     8.7370     0.0090 C.ar  1 <1>  -0.1500 
 24 C       -0.4650     9.7790    -1.0980 C.3   1 <1>   0.0400 
 25 O        1.4620    10.9940     0.6010 O.3   1 <1>  -0.3630 
 26 C        3.5760     9.8770     0.3400 C.ar  1 <1>  -0.1500 
 27 C        2.0620    12.1370     1.1710 C.3   1 <1>   0.0400 
 28 H       -1.5880     4.3380     0.9710 H     1 <1>   0.0800 
 29 H       -1.4880     4.0080    -0.7370 H     1 <1>   0.0800 
 30 H       -3.8540    -0.1690    -0.6990 H     1 <1>   0.1500 
 31 H       -0.6690    -1.9880     1.4850 H     1 <1>   0.1500 
 32 H        0.8420     4.1900     1.0530 H     1 <1>   0.4500 
 33 H       -4.9340    -2.3500    -0.9260 H     1 <1>   0.1500 
 34 H       -1.7570    -4.1590     1.2520 H     1 <1>   0.1500 
 35 H        0.6270     6.3870     1.0370 H     1 <1>   0.0800 
 36 H       -0.5700     6.3380    -0.2410 H     1 <1>   0.0800 
 37 H        0.6380     3.8300    -1.8280 H     1 <1>   0.0800 
 38 H        1.6810     3.0000    -0.6740 H     1 <1>   0.0800 
 39 H       -3.8910    -4.3540     0.0470 H     1 <1>   0.1500 
 40 H        0.9600     6.5610    -1.8720 H     1 <1>   0.0800 
 41 H        2.7200     4.9810    -2.1020 H     1 <1>   0.0800 
 42 H        3.0090     4.9270    -0.3710 H     1 <1>   0.0800 
 43 H        4.2150     6.7430    -0.6590 H     1 <1>   0.1500 
 44 H        5.3560     8.7350     0.0810 H     1 <1>   0.1500 
 45 H       -1.3530     9.3990    -1.5680 H     1 <1>   0.0800 
 46 H        0.2070    10.1710    -1.8410 H     1 <1>   0.0800 
 47 H       -0.7310    10.5440    -0.3910 H     1 <1>   0.0800 
 48 H        4.1290    10.7340     0.6730 H     1 <1>   0.1500 
 49 H        1.2830    12.8410     1.4050 H     1 <1>   0.0800 
 50 H        2.7400    12.5700     0.4560 H     1 <1>   0.0800 
 51 H        2.5780    11.8510     2.0700 H     1 <1>   0.0800 
@<TRIPOS>BOND
  1   1   2  1   
  2   1   3  1   
  3   2   4  2   
  4   3   5  2   
  5   3   6  1   
  6   4   5  1   
  7   4   7  1   
  8   6   8  ar  
  9   6   9  ar  
 10   7  10  1   
 11   7  28  1   
 12   7  29  1   
 13   8  11  ar  
 14   8  30  1   
 15   9  12  ar  
 16   9  31  1   
 17  10  13  1   
 18  10  14  1   
 19  10  32  1   
 20  11  15  ar  
 21  11  33  1   
 22  12  15  ar  
 23  12  34  1   
 24  13  16  1   
 25  13  35  1   
 26  13  36  1   
 27  14  17  1   
 28  14  37  1   
 29  14  38  1   
 30  15  39  1   
 31  16  17  1   
 32  16  18  1   
 33  16  40  1   
 34  17  41  1   
 35  17  42  1   
 36  18  19  ar  
 37  18  20  ar  
 38  19  21  1   
 39  19  22  ar  
 40  20  23  ar  
 41  20  43  1   
 42  21  24  1   
 43  22  25  1   
 44  22  26  ar  
 45  23  26  ar  
 46  23  44  1   
 47  24  45  1   
 48  24  46  1   
 49  24  47  1   
 50  25  27  1   
 51  26  48  1   
 52  27  49  1   
 53  27  50  1   
 54  27  51  1   
@<TRIPOS>SUBSTRUCTURE
  1 ****  10 GROUP 4 **** **** 0

# MOE 2024.06 (io_trps.svl 2023.06)
