@<TRIPOS>MOLECULE
NONAME
41 42 1 0 0 
SMALL
USER_CHARGES


@<TRIPOS>ATOM
  1 O       -1.0320     0.2150    -1.7110 O.3   1 <1>  -0.0190 
  2 N       -0.3090     1.1850    -2.1850 N.2   1 <1>  -0.4100 
  3 C       -1.6390     0.7440    -0.6780 C.2   1 <1>   0.2980 
  4 C       -0.5190     2.1980    -1.4490 C.2   1 <1>   0.3350 
  5 N       -1.3640     1.9680    -0.4490 N.2   1 <1>  -0.5650 
  6 C       -2.5830    -0.1190     0.1290 C.3   1 <1>  -0.0600 
  7 C        0.1340     3.5670    -1.6200 C.3   1 <1>   0.5240 
  8 N        0.3770     4.2020    -0.2760 N.4   1 <1>  -0.9590 
  9 C        1.7560     3.9350     0.2510 C.3   1 <1>   0.5610 
 10 C        0.0560     5.6690    -0.3270 C.3   1 <1>   0.4230 
 11 C        2.7390     4.7490    -0.5780 C.2   1 <1>  -0.2880 
 12 C        2.1190     2.4370     0.2910 C.3   1 <1>  -0.0220 
 13 C        1.0060     6.4160    -1.2960 C.3   1 <1>  -0.0220 
 14 C        0.0750     6.2780     1.0880 C.3   1 <1>  -0.0220 
 15 C        2.4170     5.8470    -1.2710 C.2   1 <1>  -0.2880 
 16 C        3.3360     2.1170     1.1520 C.2   1 <1>  -0.2880 
 17 C       -0.6110     7.6340     1.1120 C.2   1 <1>  -0.2880 
 18 C        4.0470     2.9510     1.9200 C.2   1 <1>  -0.3000 
 19 C        0.0010     8.7890     1.3870 C.2   1 <1>  -0.3000 
 20 H       -3.0070     0.4490     0.9370 H     1 <1>   0.0800 
 21 H       -2.0520    -0.9610     0.5330 H     1 <1>   0.0800 
 22 H       -3.3770    -0.4740    -0.5010 H     1 <1>   0.0800 
 23 H       -0.5390     4.1770    -2.1970 H     1 <1>   0.0800 
 24 H        1.0560     3.4700    -2.1690 H     1 <1>   0.0800 
 25 H       -0.2970     3.7320     0.3480 H     1 <1>   0.4500 
 26 H        1.8090     4.2890     1.2680 H     1 <1>   0.0800 
 27 H       -0.9500     5.7870    -0.6970 H     1 <1>   0.0800 
 28 H        3.7460     4.3630    -0.5420 H     1 <1>   0.1500 
 29 H        1.2930     1.8820     0.6960 H     1 <1>   0.0800 
 30 H        2.3150     2.0830    -0.7060 H     1 <1>   0.0800 
 31 H        0.6190     6.3490    -2.2970 H     1 <1>   0.0800 
 32 H        1.0360     7.4630    -1.0490 H     1 <1>   0.0800 
 33 H       -0.4460     5.6340     1.7740 H     1 <1>   0.0800 
 34 H        1.0890     6.3920     1.4300 H     1 <1>   0.0800 
 35 H        3.1280     6.4130    -1.8550 H     1 <1>   0.1500 
 36 H        3.5980     1.0710     1.0900 H     1 <1>   0.1500 
 37 H       -1.6670     7.5890     0.8890 H     1 <1>   0.1500 
 38 H        4.8970     2.6290     2.5000 H     1 <1>   0.1500 
 39 H        3.8730     4.0040     2.0560 H     1 <1>   0.1500 
 40 H       -0.5010     9.7430     1.4050 H     1 <1>   0.1500 
 41 H        1.0470     8.8920     1.6210 H     1 <1>   0.1500 
@<TRIPOS>BOND
  1   1   2  1   
  2   1   3  1   
  3   2   4  2   
  4   3   5  2   
  5   3   6  1   
  6   4   5  1   
  7   4   7  1   
  8   6  20  1   
  9   6  21  1   
 10   6  22  1   
 11   7   8  1   
 12   7  23  1   
 13   7  24  1   
 14   8   9  1   
 15   8  10  1   
 16   8  25  1   
 17   9  11  1   
 18   9  12  1   
 19   9  26  1   
 20  10  13  1   
 21  10  14  1   
 22  10  27  1   
 23  11  15  2   
 24  11  28  1   
 25  12  16  1   
 26  12  29  1   
 27  12  30  1   
 28  13  15  1   
 29  13  31  1   
 30  13  32  1   
 31  14  17  1   
 32  14  33  1   
 33  14  34  1   
 34  15  35  1   
 35  16  18  2   
 36  16  36  1   
 37  17  19  2   
 38  17  37  1   
 39  18  38  1   
 40  18  39  1   
 41  19  40  1   
 42  19  41  1   
@<TRIPOS>SUBSTRUCTURE
  1 ****   8 GROUP 4 **** **** 0

# MOE 2024.06 (io_trps.svl 2023.06)
