@<TRIPOS>MOLECULE
NONAME
47 50 1 0 0 
SMALL
USER_CHARGES


@<TRIPOS>ATOM
  1 O       -0.6040    -0.1590     1.3890 O.3   1 <1>  -0.0190 
  2 N       -1.5710    -1.0390     1.3880 N.2   1 <1>  -0.4100 
  3 C       -1.1610     0.9190     0.8940 C.2   1 <1>   0.2980 
  4 C       -2.6020    -0.4540     0.9120 C.2   1 <1>   0.5990 
  5 N       -2.3850     0.8100     0.5760 N.2   1 <1>  -0.5650 
  6 C       -0.3200     2.1730     0.7490 C.3   1 <1>   0.0200 
  7 N       -3.8610    -1.0320     0.7490 N.pl3 1 <1>  -0.8210 
  8 C        0.7730     2.0040    -0.3160 C.3   1 <1>  -0.1600 
  9 C       -4.7670    -0.4180    -0.2610 C.3   1 <1>   0.2090 
 10 C       -3.9300    -2.5150     0.6120 C.3   1 <1>   0.2090 
 11 C        1.6120     3.2770    -0.4720 C.3   1 <1>  -0.2400 
 12 C       -5.7670    -1.5200    -0.5970 C.3   1 <1>   0.2000 
 13 C       -4.9150    -2.7900    -0.5330 C.3   1 <1>  -0.0800 
 14 O       -6.7230    -1.5510     0.4090 O.3   1 <1>  -0.6800 
 15 C       -5.7200    -4.0970    -0.3700 C.3   1 <1>  -0.0170 
 16 C       -4.9250    -5.4080    -0.4310 C.ar  1 <1>  -0.1440 
 17 C       -5.5510    -6.6250    -0.0620 C.ar  1 <1>   0.0000 
 18 C       -3.6220    -5.4830    -0.8400 C.ar  1 <1>  -0.1500 
 19 C       -4.7810    -7.8130    -0.1140 C.ar  1 <1>   0.3100 
 20 C       -6.9010    -6.7360     0.3500 C.ar  1 <1>  -0.1500 
 21 C       -2.9530    -6.7130    -0.8600 C.ar  1 <1>   0.1600 
 22 N       -3.4860    -7.8400    -0.5140 N.ar  1 <1>  -0.6200 
 23 C       -5.3750    -9.0300     0.2580 C.ar  1 <1>  -0.1500 
 24 C       -7.4510    -7.9380     0.7040 C.ar  1 <1>  -0.1500 
 25 C       -6.6800    -9.1020     0.6600 C.ar  1 <1>  -0.1500 
 26 H       -0.9650     2.9900     0.4770 H     1 <1>   0.0800 
 27 H        0.1250     2.4020     1.7010 H     1 <1>   0.0800 
 28 H        1.4180     1.1860    -0.0430 H     1 <1>   0.0800 
 29 H        0.3140     1.7620    -1.2600 H     1 <1>   0.0800 
 30 H       -5.2520     0.4600     0.1290 H     1 <1>   0.0800 
 31 H       -4.2030    -0.1540    -1.1400 H     1 <1>   0.0800 
 32 H       -2.9640    -2.9420     0.4020 H     1 <1>   0.0800 
 33 H       -4.2970    -2.9290     1.5370 H     1 <1>   0.0800 
 34 H        2.0990     3.5250     0.4550 H     1 <1>   0.0800 
 35 H        0.9920     4.1040    -0.7710 H     1 <1>   0.0800 
 36 H        2.3670     3.1290    -1.2240 H     1 <1>   0.0800 
 37 H       -6.2620    -1.3760    -1.5420 H     1 <1>   0.0800 
 38 H       -4.3580    -2.8350    -1.4510 H     1 <1>   0.0800 
 39 H       -6.2590    -1.4150     1.2630 H     1 <1>   0.4000 
 40 H       -6.4770    -4.1290    -1.1350 H     1 <1>   0.0800 
 41 H       -6.2240    -4.0560     0.5790 H     1 <1>   0.0800 
 42 H       -3.0600    -4.6290    -1.1600 H     1 <1>   0.1500 
 43 H       -7.5200    -5.8590     0.3870 H     1 <1>   0.1500 
 44 H       -1.9260    -6.7200    -1.1850 H     1 <1>   0.1500 
 45 H       -4.7630    -9.9110     0.2130 H     1 <1>   0.1500 
 46 H       -8.4790    -8.0040     1.0170 H     1 <1>   0.1500 
 47 H       -7.1230   -10.0420     0.9420 H     1 <1>   0.1500 
@<TRIPOS>BOND
  1   1   2  1   
  2   1   3  1   
  3   2   4  2   
  4   3   5  2   
  5   3   6  1   
  6   4   5  1   
  7   4   7  1   
  8   6   8  1   
  9   6  26  1   
 10   6  27  1   
 11   7   9  1   
 12   7  10  1   
 13   8  11  1   
 14   8  28  1   
 15   8  29  1   
 16   9  12  1   
 17   9  30  1   
 18   9  31  1   
 19  10  13  1   
 20  10  32  1   
 21  10  33  1   
 22  11  34  1   
 23  11  35  1   
 24  11  36  1   
 25  12  13  1   
 26  12  14  1   
 27  12  37  1   
 28  13  15  1   
 29  13  38  1   
 30  14  39  1   
 31  15  16  1   
 32  15  40  1   
 33  15  41  1   
 34  16  17  ar  
 35  16  18  ar  
 36  17  19  ar  
 37  17  20  ar  
 38  18  21  ar  
 39  18  42  1   
 40  19  22  ar  
 41  19  23  ar  
 42  20  24  ar  
 43  20  43  1   
 44  21  22  ar  
 45  21  44  1   
 46  23  25  ar  
 47  23  45  1   
 48  24  25  ar  
 49  24  46  1   
 50  25  47  1   
@<TRIPOS>SUBSTRUCTURE
  1 ****  10 GROUP 4 **** **** 0

# MOE 2024.06 (io_trps.svl 2023.06)
