@<TRIPOS>MOLECULE
NONAME
58 61 1 0 0 
SMALL
USER_CHARGES


@<TRIPOS>ATOM
  1 O       -1.2540     4.9230    -2.5010 O.2   1 <1>  -0.5700 
  2 C       -0.7830     4.3640    -1.5290 C.2   1 <1>   0.5440 
  3 N       -1.6400     3.8510    -0.5760 N.am  1 <1>  -0.6600 
  4 C        0.6470     4.2530    -1.4230 C.ar  1 <1>   0.0860 
  5 C       -3.1180     4.1250    -0.6760 C.3   1 <1>   0.1400 
  6 C       -1.2130     2.8470     0.4490 C.3   1 <1>   0.1400 
  7 C        1.4260     3.8260    -2.4820 C.ar  1 <1>   0.1600 
  8 C        1.3480     4.5710    -0.2740 C.ar  1 <1>   0.1600 
  9 C       -3.8360     3.9670     0.6790 C.3   1 <1>   0.1440 
 10 C       -2.3400     1.8520     0.7420 C.3   1 <1>  -0.1600 
 11 N        2.7280     3.6890    -2.4100 N.ar  1 <1>  -0.6200 
 12 N        2.6480     4.4460    -0.1630 N.ar  1 <1>  -0.6200 
 13 C       -5.3050     4.3130     0.4870 C.ar  1 <1>   0.1670 
 14 C       -3.6360     2.5290     1.2310 C.3   1 <1>  -0.1600 
 15 C       -3.3710     5.0620     1.6840 C.3   1 <1>  -0.1600 
 16 C        3.2810     4.0040    -1.2470 C.ar  1 <1>   0.7200 
 17 N       -6.1900     3.5630    -0.1220 N.ar  1 <1>  -0.6200 
 18 C       -5.6090     5.5310     1.0150 C.ar  1 <1>  -0.1430 
 19 C       -4.4080     6.1970     1.6320 C.3   1 <1>  -0.0170 
 20 N        4.6160     3.8480    -1.2030 N.pl3 1 <1>  -0.8690 
 21 C       -7.4260     4.0660    -0.1810 C.ar  1 <1>   0.7200 
 22 C       -6.9050     5.9690     0.9080 C.ar  1 <1>   0.1600 
 23 C        5.5290     4.1960    -0.1150 C.3   1 <1>   0.2890 
 24 N       -7.8220     5.2430     0.3140 N.ar  1 <1>  -0.6200 
 25 N       -8.3840     3.2970    -0.8140 N.pl3 1 <1>  -0.8380 
 26 C        6.4160     5.3390    -0.5950 C.3   1 <1>  -0.2400 
 27 C        6.3510     2.9580     0.2200 C.3   1 <1>  -0.2400 
 28 C       -8.1490     1.8680    -1.1580 C.3   1 <1>   0.1290 
 29 C       -9.6980     3.8580    -1.2290 C.3   1 <1>   0.1290 
 30 H       -3.5500     3.4410    -1.3860 H     1 <1>   0.0800 
 31 H       -3.2770     5.1220    -1.0500 H     1 <1>   0.0800 
 32 H       -0.9450     3.3590     1.3570 H     1 <1>   0.0800 
 33 H       -0.3520     2.3040     0.0970 H     1 <1>   0.0800 
 34 H        0.9420     3.5900    -3.4150 H     1 <1>   0.1500 
 35 H        0.8070     4.9420     0.5790 H     1 <1>   0.1500 
 36 H       -2.0100     1.1370     1.4750 H     1 <1>   0.0800 
 37 H       -2.5450     1.3070    -0.1640 H     1 <1>   0.0800 
 38 H       -4.4560     1.9070     0.9180 H     1 <1>   0.0800 
 39 H       -3.6590     2.5370     2.3060 H     1 <1>   0.0800 
 40 H       -2.3850     5.4320     1.4670 H     1 <1>   0.0800 
 41 H       -3.3670     4.6690     2.6840 H     1 <1>   0.0800 
 42 H       -4.0690     6.9940     0.9920 H     1 <1>   0.0800 
 43 H       -4.6250     6.5820     2.6140 H     1 <1>   0.0800 
 44 H        5.0380     3.5470    -2.0770 H     1 <1>   0.4000 
 45 H       -7.1930     6.9240     1.3110 H     1 <1>   0.1500 
 46 H        4.9770     4.5080     0.7560 H     1 <1>   0.0800 
 47 H        6.9790     5.0460    -1.4620 H     1 <1>   0.0800 
 48 H        7.1010     5.6210     0.1830 H     1 <1>   0.0800 
 49 H        5.8070     6.1920    -0.8360 H     1 <1>   0.0800 
 50 H        6.9140     2.6310    -0.6350 H     1 <1>   0.0800 
 51 H        5.6990     2.1670     0.5410 H     1 <1>   0.0800 
 52 H        7.0350     3.1790     1.0190 H     1 <1>   0.0800 
 53 H       -7.4780     1.4150    -0.4490 H     1 <1>   0.0800 
 54 H       -7.7170     1.8020    -2.1410 H     1 <1>   0.0800 
 55 H       -9.0780     1.3250    -1.1390 H     1 <1>   0.0800 
 56 H       -9.6140     4.9130    -1.4280 H     1 <1>   0.0800 
 57 H      -10.4170     3.7080    -0.4420 H     1 <1>   0.0800 
 58 H      -10.0420     3.3730    -2.1250 H     1 <1>   0.0800 
@<TRIPOS>BOND
  1   1   2  2   
  2   2   3  am  
  3   2   4  1   
  4   3   5  1   
  5   3   6  1   
  6   4   7  ar  
  7   4   8  ar  
  8   5   9  1   
  9   5  30  1   
 10   5  31  1   
 11   6  10  1   
 12   6  32  1   
 13   6  33  1   
 14   7  11  ar  
 15   7  34  1   
 16   8  12  ar  
 17   8  35  1   
 18   9  13  1   
 19   9  14  1   
 20   9  15  1   
 21  10  14  1   
 22  10  36  1   
 23  10  37  1   
 24  11  16  ar  
 25  12  16  ar  
 26  13  17  ar  
 27  13  18  ar  
 28  14  38  1   
 29  14  39  1   
 30  15  19  1   
 31  15  40  1   
 32  15  41  1   
 33  16  20  1   
 34  17  21  ar  
 35  18  19  1   
 36  18  22  ar  
 37  19  42  1   
 38  19  43  1   
 39  20  23  1   
 40  20  44  1   
 41  21  24  ar  
 42  21  25  1   
 43  22  24  ar  
 44  22  45  1   
 45  23  26  1   
 46  23  27  1   
 47  23  46  1   
 48  25  28  1   
 49  25  29  1   
 50  26  47  1   
 51  26  48  1   
 52  26  49  1   
 53  27  50  1   
 54  27  51  1   
 55  27  52  1   
 56  28  53  1   
 57  28  54  1   
 58  28  55  1   
 59  29  56  1   
 60  29  57  1   
 61  29  58  1   
@<TRIPOS>SUBSTRUCTURE
  1 ****   3 GROUP 4 **** **** 0

# MOE 2024.06 (io_trps.svl 2023.06)
