@<TRIPOS>MOLECULE
NONAME
56 59 1 0 0 
SMALL
USER_CHARGES


@<TRIPOS>ATOM
  1 O       -0.4780    -3.4070    -1.1200 O.2   1 <1>  -0.5700 
  2 C        0.7090    -3.5440    -0.9430 C.2   1 <1>   0.5690 
  3 N        1.4420    -4.5520    -1.5080 N.am  1 <1>  -0.6600 
  4 C        1.4380    -2.5640    -0.0460 C.3   1 <1>  -0.0990 
  5 C        2.8930    -4.6760    -1.2210 C.3   1 <1>   0.1400 
  6 C        0.8370    -5.5940    -2.3790 C.3   1 <1>   0.0600 
  7 C        2.7650    -2.1260    -0.6900 C.3   1 <1>  -0.0800 
  8 C        3.5740    -3.2960    -1.2990 C.3   1 <1>  -0.0800 
  9 C        3.7030    -1.4030     0.2870 C.3   1 <1>  -0.1600 
 10 C        4.9400    -3.2730    -0.6030 C.3   1 <1>  -0.1600 
 11 C        5.1020    -1.8260    -0.1440 C.3   1 <1>   0.2200 
 12 N        6.1290    -1.6420     0.9240 N.am  1 <1>  -0.6600 
 13 C        7.1520    -0.7330     0.7380 C.2   1 <1>   0.5440 
 14 C        6.0980    -2.5450     2.1130 C.3   1 <1>   0.0600 
 15 O        7.0010     0.1810    -0.0520 O.2   1 <1>  -0.5700 
 16 C        8.4030    -0.8350     1.4620 C.ar  1 <1>   0.0860 
 17 C        9.2880    -1.9110     1.2680 C.ar  1 <1>   0.0000 
 18 C        8.7450     0.1590     2.3770 C.ar  1 <1>  -0.1500 
 19 C        9.0170    -2.9690     0.3170 C.ar  1 <1>   0.0000 
 20 C       10.4640    -1.9530     2.0120 C.ar  1 <1>  -0.1500 
 21 C        9.9160     0.0990     3.1060 C.ar  1 <1>  -0.1500 
 22 C        8.7970    -2.6920    -1.0300 C.ar  1 <1>  -0.1500 
 23 C        8.9670    -4.3000     0.7220 C.ar  1 <1>  -0.1500 
 24 C       10.7790    -0.9650     2.9240 C.ar  1 <1>  -0.1500 
 25 C        8.5250    -3.6960    -1.9420 C.ar  1 <1>  -0.1440 
 26 C        8.7020    -5.3130    -0.1810 C.ar  1 <1>  -0.1500 
 27 C        8.4800    -5.0120    -1.5130 C.ar  1 <1>  -0.1500 
 28 C        8.2800    -3.3560    -3.4010 C.3   1 <1>  -0.0970 
 29 H        0.8140    -1.7060     0.1320 H     1 <1>   0.0800 
 30 H        1.6160    -3.0530     0.8930 H     1 <1>   0.0800 
 31 H        3.0040    -5.0910    -0.2340 H     1 <1>   0.0800 
 32 H        3.3570    -5.3480    -1.9240 H     1 <1>   0.0800 
 33 H        0.9820    -6.5650    -1.9400 H     1 <1>   0.0800 
 34 H        1.2990    -5.5670    -3.3500 H     1 <1>   0.0800 
 35 H       -0.2190    -5.4220    -2.4950 H     1 <1>   0.0800 
 36 H        2.5300    -1.4500    -1.4960 H     1 <1>   0.0800 
 37 H        3.7320    -3.0710    -2.3410 H     1 <1>   0.0800 
 38 H        3.5100    -1.7230     1.2930 H     1 <1>   0.0800 
 39 H        3.5910    -0.3350     0.2260 H     1 <1>   0.0800 
 40 H        5.7320    -3.5610    -1.2690 H     1 <1>   0.0800 
 41 H        4.9210    -3.9370     0.2400 H     1 <1>   0.0800 
 42 H        5.3700    -1.2450    -1.0120 H     1 <1>   0.0800 
 43 H        5.0870    -2.7010     2.4430 H     1 <1>   0.0800 
 44 H        6.6530    -2.1140     2.9270 H     1 <1>   0.0800 
 45 H        6.5350    -3.4940     1.8590 H     1 <1>   0.0800 
 46 H        8.0740     0.9910     2.5100 H     1 <1>   0.1500 
 47 H       11.1470    -2.7720     1.8650 H     1 <1>   0.1500 
 48 H       10.1580     0.8780     3.8090 H     1 <1>   0.1500 
 49 H        8.8390    -1.6680    -1.3620 H     1 <1>   0.1500 
 50 H        9.1370    -4.5420     1.7560 H     1 <1>   0.1500 
 51 H       11.6960    -1.0180     3.4860 H     1 <1>   0.1500 
 52 H        8.6710    -6.3360     0.1500 H     1 <1>   0.1500 
 53 H        8.2770    -5.8040    -2.2120 H     1 <1>   0.1500 
 54 H        7.5670    -4.0370    -3.8310 H     1 <1>   0.0800 
 55 H        9.2020    -3.4240    -3.9490 H     1 <1>   0.0800 
 56 H        7.8930    -2.3570    -3.4940 H     1 <1>   0.0800 
@<TRIPOS>BOND
  1   1   2  2   
  2   2   3  am  
  3   2   4  1   
  4   3   5  1   
  5   3   6  1   
  6   4   7  1   
  7   4  29  1   
  8   4  30  1   
  9   5   8  1   
 10   5  31  1   
 11   5  32  1   
 12   6  33  1   
 13   6  34  1   
 14   6  35  1   
 15   7   8  1   
 16   7   9  1   
 17   7  36  1   
 18   8  10  1   
 19   8  37  1   
 20   9  11  1   
 21   9  38  1   
 22   9  39  1   
 23  10  11  1   
 24  10  40  1   
 25  10  41  1   
 26  11  12  1   
 27  11  42  1   
 28  12  13  am  
 29  12  14  1   
 30  13  15  2   
 31  13  16  1   
 32  14  43  1   
 33  14  44  1   
 34  14  45  1   
 35  16  17  ar  
 36  16  18  ar  
 37  17  19  1   
 38  17  20  ar  
 39  18  21  ar  
 40  18  46  1   
 41  19  22  ar  
 42  19  23  ar  
 43  20  24  ar  
 44  20  47  1   
 45  21  24  ar  
 46  21  48  1   
 47  22  25  ar  
 48  22  49  1   
 49  23  26  ar  
 50  23  50  1   
 51  24  51  1   
 52  25  27  ar  
 53  25  28  1   
 54  26  27  ar  
 55  26  52  1   
 56  27  53  1   
 57  28  54  1   
 58  28  55  1   
 59  28  56  1   
@<TRIPOS>SUBSTRUCTURE
  1 ****  11 GROUP 4 **** **** 0

# MOE 2024.06 (io_trps.svl 2023.06)
