@<TRIPOS>MOLECULE
NONAME
51 53 1 0 0 
SMALL
USER_CHARGES


@<TRIPOS>ATOM
  1 O       -0.8980    -0.0070    -2.6460 O.2   1 <1>  -0.5700 
  2 C       -1.3730     0.5960    -1.7110 C.2   1 <1>   0.5690 
  3 N       -2.0560    -0.0630    -0.7130 N.am  1 <1>  -0.6600 
  4 C       -1.1920     2.1080    -1.7300 C.3   1 <1>   0.1570 
  5 C       -2.1000    -1.5540    -0.7070 C.3   1 <1>   0.3200 
  6 C       -2.7030     0.6150     0.4550 C.3   1 <1>   0.1400 
  7 N       -0.3240     2.5870    -0.6280 N.pl3 1 <1>   0.0480 
  8 C       -3.5250    -2.0310    -0.5160 C.2   1 <1>  -0.3320 
  9 C       -4.1050     1.1220     0.0870 C.3   1 <1>   0.1200 
 10 C        0.9010     2.0860    -0.3000 C.ar  1 <1>  -0.1520 
 11 C       -0.5790     3.5640     0.2970 C.2   1 <1>   0.0060 
 12 N       -3.9940    -2.6180     0.6020 N.pl3 1 <1>   0.0330 
 13 C       -4.5650    -1.9710    -1.3760 C.2   1 <1>   0.0770 
 14 O       -4.4920     2.0970     0.9950 O.3   1 <1>  -0.6800 
 15 C        1.2960     2.7800     0.8270 C.ar  1 <1>   0.2270 
 16 C        1.7280     1.1020    -0.8560 C.ar  1 <1>  -0.1500 
 17 N        0.3560     3.6950     1.1760 N.2   1 <1>  -0.5650 
 18 C       -1.8460     4.4270     0.2810 C.3   1 <1>   0.1000 
 19 C       -5.2980    -2.8650     0.3520 C.2   1 <1>   0.0060 
 20 N       -5.6780    -2.4850    -0.8220 N.2   1 <1>  -0.5650 
 21 C        2.5160     2.4980     1.4370 C.ar  1 <1>  -0.1500 
 22 C        2.9330     0.8290    -0.2480 C.ar  1 <1>  -0.1500 
 23 C       -1.7050     5.5450    -0.7580 C.3   1 <1>  -0.2400 
 24 C       -2.1540     5.0340     1.6570 C.3   1 <1>  -0.2400 
 25 C       -6.2170    -3.5270     1.3560 C.3   1 <1>  -0.0600 
 26 C        3.3290     1.5240     0.9000 C.ar  1 <1>  -0.1500 
 27 H       -2.1530     2.5760    -1.6800 H     1 <1>   0.0800 
 28 H       -0.7330     2.3890    -2.6580 H     1 <1>   0.0800 
 29 H       -1.4690    -1.9230     0.0830 H     1 <1>   0.0800 
 30 H       -1.7280    -1.9540    -1.6350 H     1 <1>   0.0800 
 31 H       -2.0960     1.4360     0.7830 H     1 <1>   0.0800 
 32 H       -2.7770    -0.0730     1.2780 H     1 <1>   0.0800 
 33 H       -4.8320     0.3290     0.1060 H     1 <1>   0.0800 
 34 H       -4.1000     1.5780    -0.8870 H     1 <1>   0.0800 
 35 H       -3.4840    -2.8470     1.4590 H     1 <1>   0.2700 
 36 H       -4.5710    -1.5720    -2.3780 H     1 <1>   0.1500 
 37 H       -4.7690     1.6950     1.8430 H     1 <1>   0.4000 
 38 H        1.4310     0.5700    -1.7420 H     1 <1>   0.1500 
 39 H       -2.6890     3.8160     0.0180 H     1 <1>   0.0800 
 40 H        2.7910     3.0530     2.3140 H     1 <1>   0.1500 
 41 H        3.5860     0.0760    -0.6560 H     1 <1>   0.1500 
 42 H       -0.8690     6.1740    -0.5060 H     1 <1>   0.0800 
 43 H       -2.5960     6.1470    -0.7860 H     1 <1>   0.0800 
 44 H       -1.5380     5.1330    -1.7360 H     1 <1>   0.0800 
 45 H       -1.3600     5.6930     1.9630 H     1 <1>   0.0800 
 46 H       -2.2450     4.2490     2.3870 H     1 <1>   0.0800 
 47 H       -3.0750     5.5860     1.6290 H     1 <1>   0.0800 
 48 H       -6.2750    -2.9380     2.2520 H     1 <1>   0.0800 
 49 H       -5.8550    -4.5100     1.5950 H     1 <1>   0.0800 
 50 H       -7.2040    -3.6170     0.9380 H     1 <1>   0.0800 
 51 H        4.2740     1.2930     1.3580 H     1 <1>   0.1500 
@<TRIPOS>BOND
  1   1   2  2   
  2   2   3  am  
  3   2   4  1   
  4   3   5  1   
  5   3   6  1   
  6   4   7  1   
  7   4  27  1   
  8   4  28  1   
  9   5   8  1   
 10   5  29  1   
 11   5  30  1   
 12   6   9  1   
 13   6  31  1   
 14   6  32  1   
 15   7  10  1   
 16   7  11  1   
 17   8  12  1   
 18   8  13  2   
 19   9  14  1   
 20   9  33  1   
 21   9  34  1   
 22  10  15  ar  
 23  10  16  ar  
 24  11  17  2   
 25  11  18  1   
 26  12  19  1   
 27  12  35  1   
 28  13  20  1   
 29  13  36  1   
 30  14  37  1   
 31  15  17  1   
 32  15  21  ar  
 33  16  22  ar  
 34  16  38  1   
 35  18  23  1   
 36  18  24  1   
 37  18  39  1   
 38  19  20  2   
 39  19  25  1   
 40  21  26  ar  
 41  21  40  1   
 42  22  26  ar  
 43  22  41  1   
 44  23  42  1   
 45  23  43  1   
 46  23  44  1   
 47  24  45  1   
 48  24  46  1   
 49  24  47  1   
 50  25  48  1   
 51  25  49  1   
 52  25  50  1   
 53  26  51  1   
@<TRIPOS>SUBSTRUCTURE
  1 ****   6 GROUP 4 **** **** 0

# MOE 2024.06 (io_trps.svl 2023.06)
