@<TRIPOS>MOLECULE
NONAME
46 48 1 0 0 
SMALL
USER_CHARGES


@<TRIPOS>ATOM
  1 F       -2.0710     1.6940    -1.9830 F     1 <1>  -0.1900 
  2 C       -1.2510     2.2460    -1.1310 C.ar  1 <1>   0.1900 
  3 C       -1.5520     2.2000     0.2300 C.ar  1 <1>   0.0860 
  4 C       -0.1240     2.8610    -1.6390 C.ar  1 <1>  -0.1500 
  5 C       -2.7360     1.5490     0.7360 C.2   1 <1>   0.5440 
  6 C       -0.6410     2.8130     1.0930 C.ar  1 <1>  -0.1500 
  7 C        0.7530     3.4620    -0.7530 C.ar  1 <1>   0.0830 
  8 O       -2.6260     0.4480     1.2420 O.2   1 <1>  -0.5700 
  9 N       -3.9770     2.1540     0.6950 N.am  1 <1>  -0.6600 
 10 C        0.4950     3.4380     0.6100 C.ar  1 <1>  -0.1500 
 11 O        1.8580     4.0700    -1.1970 O.3   1 <1>  -0.5330 
 12 C       -4.1980     3.5120     0.1140 C.3   1 <1>   0.1400 
 13 C       -5.1780     1.4620     1.2570 C.3   1 <1>   0.1400 
 14 C       -5.6140     3.6030    -0.4540 C.3   1 <1>  -0.1600 
 15 C       -6.2010     2.4820     1.7630 C.3   1 <1>  -0.1600 
 16 C       -6.6780     3.4580     0.6590 C.3   1 <1>   0.2800 
 17 O       -6.7270     4.7260     1.2780 O.3   1 <1>  -0.5600 
 18 C       -8.0760     3.0250     0.1060 C.3   1 <1>   0.2000 
 19 C       -7.9120     5.4680     1.2520 C.3   1 <1>   0.1200 
 20 O       -7.9990     1.8140    -0.6010 O.3   1 <1>  -0.6800 
 21 C       -8.8030     4.1480    -0.7030 C.3   1 <1>   0.2800 
 22 C       -8.4220     5.5450    -0.1870 C.3   1 <1>  -0.1600 
 23 O      -10.1600     4.0050    -0.4830 O.3   1 <1>  -0.6800 
 24 C       -8.6290     4.0710    -2.2270 C.3   1 <1>  -0.2400 
 25 H        0.0560     2.8640    -2.6980 H     1 <1>   0.1500 
 26 H       -0.8340     2.7890     2.1520 H     1 <1>   0.1500 
 27 H        1.1910     3.9080     1.2830 H     1 <1>   0.1500 
 28 H        1.9830     4.0230    -2.1620 H     1 <1>   0.4500 
 29 H       -4.0660     4.2530     0.8850 H     1 <1>   0.0800 
 30 H       -3.4910     3.7060    -0.6710 H     1 <1>   0.0800 
 31 H       -5.6190     0.8460     0.4920 H     1 <1>   0.0800 
 32 H       -4.8840     0.8210     2.0710 H     1 <1>   0.0800 
 33 H       -5.7140     2.8250    -1.1880 H     1 <1>   0.0800 
 34 H       -5.7340     4.5420    -0.9590 H     1 <1>   0.0800 
 35 H       -5.7410     3.0300     2.5660 H     1 <1>   0.0800 
 36 H       -7.0360     1.9490     2.1780 H     1 <1>   0.0800 
 37 H       -8.6880     2.8140     0.9650 H     1 <1>   0.0800 
 38 H       -8.6320     4.9980     1.9030 H     1 <1>   0.0800 
 39 H       -7.6890     6.4500     1.6310 H     1 <1>   0.0800 
 40 H       -7.6780     1.9730    -1.5070 H     1 <1>   0.4000 
 41 H       -7.6360     5.9680    -0.7850 H     1 <1>   0.0800 
 42 H       -9.2600     6.2170    -0.2420 H     1 <1>   0.0800 
 43 H      -10.6590     4.5650    -1.1040 H     1 <1>   0.4000 
 44 H       -7.5880     4.1150    -2.4900 H     1 <1>   0.0800 
 45 H       -9.1240     4.8980    -2.7050 H     1 <1>   0.0800 
 46 H       -9.0390     3.1540    -2.6120 H     1 <1>   0.0800 
@<TRIPOS>BOND
  1   1   2  1   
  2   2   3  ar  
  3   2   4  ar  
  4   3   5  1   
  5   3   6  ar  
  6   4   7  ar  
  7   4  25  1   
  8   5   8  2   
  9   5   9  am  
 10   6  10  ar  
 11   6  26  1   
 12   7  10  ar  
 13   7  11  1   
 14   9  12  1   
 15   9  13  1   
 16  10  27  1   
 17  11  28  1   
 18  12  14  1   
 19  12  29  1   
 20  12  30  1   
 21  13  15  1   
 22  13  31  1   
 23  13  32  1   
 24  14  16  1   
 25  14  33  1   
 26  14  34  1   
 27  15  16  1   
 28  15  35  1   
 29  15  36  1   
 30  16  17  1   
 31  16  18  1   
 32  17  19  1   
 33  18  20  1   
 34  18  21  1   
 35  18  37  1   
 36  19  22  1   
 37  19  38  1   
 38  19  39  1   
 39  20  40  1   
 40  21  22  1   
 41  21  23  1   
 42  21  24  1   
 43  22  41  1   
 44  22  42  1   
 45  23  43  1   
 46  24  44  1   
 47  24  45  1   
 48  24  46  1   
@<TRIPOS>SUBSTRUCTURE
  1 ****  12 GROUP 4 **** **** 0

# MOE 2024.06 (io_trps.svl 2023.06)
