@<TRIPOS>MOLECULE
NONAME
43 44 1 0 0 
SMALL
USER_CHARGES


@<TRIPOS>ATOM
  1 O       -0.5130     0.3660     0.3280 O.2   1 <1>  -0.5700 
  2 C       -1.5360     0.9140    -0.0070 C.2   1 <1>   0.5690 
  3 N       -2.6570     0.1960    -0.3120 N.am  1 <1>  -0.6600 
  4 C       -1.5800     2.4290    -0.0790 C.3   1 <1>  -0.0990 
  5 C       -4.0130     0.7300    -0.6000 C.3   1 <1>   0.1400 
  6 C       -2.6880    -1.2890    -0.2890 C.3   1 <1>   0.1400 
  7 C       -0.1900     3.0550    -0.0050 C.3   1 <1>   0.1200 
  8 C       -4.9500    -0.4150    -0.2190 C.3   1 <1>   0.2000 
  9 C       -4.1450    -1.6650    -0.5830 C.3   1 <1>  -0.0800 
 10 O       -0.3390     4.4320    -0.1160 O.3   1 <1>  -0.5600 
 11 O       -5.1410    -0.3680     1.1540 O.3   1 <1>  -0.6800 
 12 C       -4.5960    -2.9730     0.0930 C.3   1 <1>   0.0210 
 13 C        0.8570     5.1310    -0.0470 C.3   1 <1>   0.1200 
 14 C       -3.7050    -4.1280    -0.3210 C.2   1 <1>   0.1080 
 15 C        0.5320     6.6130    -0.1840 C.3   1 <1>  -0.2400 
 16 N       -3.5270    -4.4740    -1.5590 N.2   1 <1>  -0.7070 
 17 C       -2.9800    -4.9270     0.5560 C.2   1 <1>  -0.1500 
 18 N       -2.6760    -5.5150    -1.5030 N.pl3 1 <1>   0.3000 
 19 C       -2.3280    -5.8070    -0.2320 C.2   1 <1>  -0.3320 
 20 C       -1.3790    -6.9260     0.1570 C.3   1 <1>  -0.0600 
 21 H       -2.0370     2.7190    -1.0060 H     1 <1>   0.0800 
 22 H       -2.1710     2.7930     0.7400 H     1 <1>   0.0800 
 23 H       -4.2310     1.6230    -0.0400 H     1 <1>   0.0800 
 24 H       -4.0920     0.9320    -1.6540 H     1 <1>   0.0800 
 25 H       -2.0220    -1.6970    -1.0300 H     1 <1>   0.0800 
 26 H       -2.3860    -1.6340     0.6850 H     1 <1>   0.0800 
 27 H        0.4270     2.7020    -0.8150 H     1 <1>   0.0800 
 28 H        0.2780     2.8260     0.9380 H     1 <1>   0.0800 
 29 H       -5.9090    -0.3630    -0.7050 H     1 <1>   0.0800 
 30 H       -4.2240    -1.8020    -1.6480 H     1 <1>   0.0800 
 31 H       -4.2650    -0.2860     1.5840 H     1 <1>   0.4000 
 32 H       -5.6070    -3.1960    -0.1950 H     1 <1>   0.0800 
 33 H       -4.5670    -2.8760     1.1620 H     1 <1>   0.0800 
 34 H        1.3230     4.9300     0.9030 H     1 <1>   0.0800 
 35 H        1.4980     4.8060    -0.8500 H     1 <1>   0.0800 
 36 H       -0.1210     6.9210     0.6130 H     1 <1>   0.0800 
 37 H        0.0550     6.7990    -1.1300 H     1 <1>   0.0800 
 38 H        1.4360     7.1910    -0.1330 H     1 <1>   0.0800 
 39 H       -2.9610    -4.8390     1.6280 H     1 <1>   0.1500 
 40 H       -2.3510    -6.0010    -2.3470 H     1 <1>   0.2700 
 41 H       -1.2630    -6.9570     1.2260 H     1 <1>   0.0800 
 42 H       -0.4130    -6.7660    -0.2880 H     1 <1>   0.0800 
 43 H       -1.7670    -7.8740    -0.1730 H     1 <1>   0.0800 
@<TRIPOS>BOND
  1   1   2  2   
  2   2   3  am  
  3   2   4  1   
  4   3   5  1   
  5   3   6  1   
  6   4   7  1   
  7   4  21  1   
  8   4  22  1   
  9   5   8  1   
 10   5  23  1   
 11   5  24  1   
 12   6   9  1   
 13   6  25  1   
 14   6  26  1   
 15   7  10  1   
 16   7  27  1   
 17   7  28  1   
 18   8   9  1   
 19   8  11  1   
 20   8  29  1   
 21   9  12  1   
 22   9  30  1   
 23  10  13  1   
 24  11  31  1   
 25  12  14  1   
 26  12  32  1   
 27  12  33  1   
 28  13  15  1   
 29  13  34  1   
 30  13  35  1   
 31  14  16  2   
 32  14  17  1   
 33  15  36  1   
 34  15  37  1   
 35  15  38  1   
 36  16  18  1   
 37  17  19  2   
 38  17  39  1   
 39  18  19  1   
 40  18  40  1   
 41  19  20  1   
 42  20  41  1   
 43  20  42  1   
 44  20  43  1   
@<TRIPOS>SUBSTRUCTURE
  1 ****   6 GROUP 4 **** **** 0

# MOE 2024.06 (io_trps.svl 2023.06)
