@<TRIPOS>MOLECULE
NONAME
50 51 1 0 0 
SMALL
USER_CHARGES


@<TRIPOS>ATOM
  1 S       -0.0400     0.6270    -0.8420 S.o2  1 <1>   1.3330 
  2 O        0.1890     1.7330    -1.7450 O.2   1 <1>  -0.6500 
  3 O       -0.7370    -0.5530    -1.2870 O.2   1 <1>  -0.6500 
  4 N        1.4690     0.1480    -0.2280 N.am  1 <1>  -0.8490 
  5 C       -0.8760     1.2950     0.6050 C.3   1 <1>  -0.0550 
  6 C        1.4230    -1.1570     0.4520 C.3   1 <1>   0.1160 
  7 C        2.4840     0.0780    -1.2900 C.3   1 <1>   0.1160 
  8 C       -0.4810     2.7290     1.0390 C.3   1 <1>  -0.0800 
  9 C       -0.9270     3.8150     0.0410 C.3   1 <1>   0.2000 
 10 C        1.0310     2.9470     1.2420 C.3   1 <1>   0.3430 
 11 O       -1.6340     4.7840     0.7470 O.3   1 <1>  -0.6800 
 12 C        0.3740     4.4370    -0.4790 C.3   1 <1>   0.3430 
 13 N        1.3610     4.2510     0.6210 N.4   1 <1>  -0.9590 
 14 C        1.3060     5.3810     1.5850 C.3   1 <1>   0.4860 
 15 C        1.8130     6.6240     0.8840 C.ar  1 <1>  -0.1440 
 16 C        3.1310     6.6900     0.4460 C.ar  1 <1>   0.0820 
 17 C        0.9590     7.6950     0.6750 C.ar  1 <1>  -0.1500 
 18 O        3.9210     5.6040     0.6670 O.3   1 <1>  -0.3630 
 19 C        3.5810     7.8400    -0.1990 C.ar  1 <1>  -0.1500 
 20 C        1.4150     8.8310     0.0330 C.ar  1 <1>  -0.1500 
 21 C        5.3150     5.6610     0.4420 C.3   1 <1>   0.0400 
 22 C        2.7250     8.9080    -0.4070 C.ar  1 <1>  -0.1440 
 23 C        3.2170    10.1630    -1.1090 C.3   1 <1>  -0.0970 
 24 H       -1.9320     1.2940     0.4070 H     1 <1>   0.0800 
 25 H       -0.7230     0.6270     1.4300 H     1 <1>   0.0800 
 26 H        2.3850    -1.3880     0.8790 H     1 <1>   0.0800 
 27 H        1.1570    -1.9380    -0.2430 H     1 <1>   0.0800 
 28 H        0.6970    -1.1460     1.2460 H     1 <1>   0.0800 
 29 H        3.4340    -0.2250    -0.8820 H     1 <1>   0.0800 
 30 H        2.6100     1.0430    -1.7520 H     1 <1>   0.0800 
 31 H        2.1870    -0.6290    -2.0480 H     1 <1>   0.0800 
 32 H       -0.9600     2.9040     1.9880 H     1 <1>   0.0800 
 33 H       -1.5450     3.4590    -0.7670 H     1 <1>   0.0800 
 34 H        1.5930     2.1790     0.7430 H     1 <1>   0.0800 
 35 H        1.2930     2.9340     2.2880 H     1 <1>   0.0800 
 36 H       -2.5810     4.5400     0.8320 H     1 <1>   0.4000 
 37 H        0.2390     5.4730    -0.7420 H     1 <1>   0.0800 
 38 H        0.7060     3.8970    -1.3500 H     1 <1>   0.0800 
 39 H        2.3230     4.2780     0.2440 H     1 <1>   0.4500 
 40 H        0.2980     5.5330     1.9330 H     1 <1>   0.0800 
 41 H        1.9400     5.1750     2.4310 H     1 <1>   0.0800 
 42 H       -0.0660     7.6570     1.0080 H     1 <1>   0.1500 
 43 H        4.5930     7.9200    -0.5470 H     1 <1>   0.1500 
 44 H        0.7450     9.6600    -0.1230 H     1 <1>   0.1500 
 45 H        5.7490     4.7310     0.7630 H     1 <1>   0.0800 
 46 H        5.7310     6.4730     1.0140 H     1 <1>   0.0800 
 47 H        5.4970     5.8030    -0.6090 H     1 <1>   0.0800 
 48 H        2.4300    10.5940    -1.7010 H     1 <1>   0.0800 
 49 H        4.0420     9.9370    -1.7600 H     1 <1>   0.0800 
 50 H        3.5380    10.8850    -0.3800 H     1 <1>   0.0800 
@<TRIPOS>BOND
  1   1   2  2   
  2   1   3  2   
  3   1   4  am  
  4   1   5  1   
  5   4   6  1   
  6   4   7  1   
  7   5   8  1   
  8   5  24  1   
  9   5  25  1   
 10   6  26  1   
 11   6  27  1   
 12   6  28  1   
 13   7  29  1   
 14   7  30  1   
 15   7  31  1   
 16   8   9  1   
 17   8  10  1   
 18   8  32  1   
 19   9  11  1   
 20   9  12  1   
 21   9  33  1   
 22  10  13  1   
 23  10  34  1   
 24  10  35  1   
 25  11  36  1   
 26  12  13  1   
 27  12  37  1   
 28  12  38  1   
 29  13  14  1   
 30  13  39  1   
 31  14  15  1   
 32  14  40  1   
 33  14  41  1   
 34  15  16  ar  
 35  15  17  ar  
 36  16  18  1   
 37  16  19  ar  
 38  17  20  ar  
 39  17  42  1   
 40  18  21  1   
 41  19  22  ar  
 42  19  43  1   
 43  20  22  ar  
 44  20  44  1   
 45  21  45  1   
 46  21  46  1   
 47  21  47  1   
 48  22  23  1   
 49  23  48  1   
 50  23  49  1   
 51  23  50  1   
@<TRIPOS>SUBSTRUCTURE
  1 ****  13 GROUP 4 **** **** 0

# MOE 2024.06 (io_trps.svl 2023.06)
