@<TRIPOS>MOLECULE
NONAME
47 49 1 0 0 
SMALL
USER_CHARGES


@<TRIPOS>ATOM
  1 S       -0.1600     0.2100     0.6450 S.o2  1 <1>   1.3330 
  2 O       -1.1850    -0.7800     0.4260 O.2   1 <1>  -0.6500 
  3 O        0.2610     0.5580     1.9850 O.2   1 <1>  -0.6500 
  4 N        1.2300    -0.2500    -0.2130 N.am  1 <1>  -0.8490 
  5 C       -0.6260     1.7540    -0.1420 C.3   1 <1>  -0.0550 
  6 C        2.0460    -1.2000     0.5560 C.3   1 <1>   0.1160 
  7 C        0.9190    -0.8530    -1.5180 C.3   1 <1>   0.1160 
  8 C        0.5220     2.7930    -0.1800 C.3   1 <1>  -0.0800 
  9 C        0.1610     4.1450    -0.7870 C.3   1 <1>   0.2000 
 10 C        1.1230     3.1320     1.1920 C.3   1 <1>   0.3430 
 11 O       -1.0820     4.5630    -0.3220 O.3   1 <1>  -0.6800 
 12 C        1.2550     5.0660    -0.2490 C.3   1 <1>   0.3430 
 13 N        1.5530     4.5670     1.1420 N.4   1 <1>  -0.9590 
 14 C        2.9680     4.7840     1.6220 C.3   1 <1>   0.4230 
 15 C        3.3070     6.2890     1.6150 C.3   1 <1>  -0.0170 
 16 C        4.0170     4.1390     0.6860 C.3   1 <1>  -0.0170 
 17 C        3.9970     6.4790     0.2860 C.ar  1 <1>  -0.1440 
 18 C        4.4000     5.2730    -0.2330 C.ar  1 <1>  -0.1440 
 19 C        4.2290     7.6570    -0.3990 C.ar  1 <1>  -0.1500 
 20 C        5.0490     5.2060    -1.4510 C.ar  1 <1>  -0.1500 
 21 C        4.8760     7.6010    -1.6230 C.ar  1 <1>  -0.1500 
 22 C        5.2840     6.3810    -2.1460 C.ar  1 <1>  -0.1500 
 23 H       -0.9480     1.5550    -1.1460 H     1 <1>   0.0800 
 24 H       -1.4700     2.1570     0.3850 H     1 <1>   0.0800 
 25 H        2.9260    -1.4750     0.0000 H     1 <1>   0.0800 
 26 H        1.4780    -2.0900     0.7780 H     1 <1>   0.0800 
 27 H        2.3610    -0.7550     1.4850 H     1 <1>   0.0800 
 28 H        1.8290    -1.0790    -2.0490 H     1 <1>   0.0800 
 29 H        0.3380    -0.1750    -2.1180 H     1 <1>   0.0800 
 30 H        0.3580    -1.7650    -1.3900 H     1 <1>   0.0800 
 31 H        1.3190     2.3800    -0.7740 H     1 <1>   0.0800 
 32 H        0.1300     4.1350    -1.8640 H     1 <1>   0.0800 
 33 H        1.9510     2.4740     1.4070 H     1 <1>   0.0800 
 34 H        0.3810     3.0010     1.9640 H     1 <1>   0.0800 
 35 H       -1.1710     4.5200     0.6490 H     1 <1>   0.4000 
 36 H        0.9460     6.0980    -0.2600 H     1 <1>   0.0800 
 37 H        2.1240     4.9580    -0.8760 H     1 <1>   0.0800 
 38 H        0.9410     5.0920     1.7800 H     1 <1>   0.4500 
 39 H        3.0700     4.3880     2.6200 H     1 <1>   0.0800 
 40 H        2.4430     6.9190     1.7250 H     1 <1>   0.0800 
 41 H        4.0110     6.5090     2.3980 H     1 <1>   0.0800 
 42 H        4.8850     3.8560     1.2540 H     1 <1>   0.0800 
 43 H        3.6520     3.2850     0.1480 H     1 <1>   0.0800 
 44 H        3.9190     8.6060     0.0060 H     1 <1>   0.1500 
 45 H        5.3720     4.2630    -1.8580 H     1 <1>   0.1500 
 46 H        5.0680     8.5080    -2.1710 H     1 <1>   0.1500 
 47 H        5.7900     6.3500    -3.0960 H     1 <1>   0.1500 
@<TRIPOS>BOND
  1   1   2  2   
  2   1   3  2   
  3   1   4  am  
  4   1   5  1   
  5   4   6  1   
  6   4   7  1   
  7   5   8  1   
  8   5  23  1   
  9   5  24  1   
 10   6  25  1   
 11   6  26  1   
 12   6  27  1   
 13   7  28  1   
 14   7  29  1   
 15   7  30  1   
 16   8   9  1   
 17   8  10  1   
 18   8  31  1   
 19   9  11  1   
 20   9  12  1   
 21   9  32  1   
 22  10  13  1   
 23  10  33  1   
 24  10  34  1   
 25  11  35  1   
 26  12  13  1   
 27  12  36  1   
 28  12  37  1   
 29  13  14  1   
 30  13  38  1   
 31  14  15  1   
 32  14  16  1   
 33  14  39  1   
 34  15  17  1   
 35  15  40  1   
 36  15  41  1   
 37  16  18  1   
 38  16  42  1   
 39  16  43  1   
 40  17  18  ar  
 41  17  19  ar  
 42  18  20  ar  
 43  19  21  ar  
 44  19  44  1   
 45  20  22  ar  
 46  20  45  1   
 47  21  22  ar  
 48  21  46  1   
 49  22  47  1   
@<TRIPOS>SUBSTRUCTURE
  1 ****  10 GROUP 4 **** **** 0

# MOE 2024.06 (io_trps.svl 2023.06)
