@<TRIPOS>MOLECULE
NONAME
41 43 1 0 0 
SMALL
USER_CHARGES


@<TRIPOS>ATOM
  1 CL      -1.9370     0.2390    -0.1310 Cl    1 <1>  -0.1770 
  2 C       -2.5530    -1.3860    -0.2820 C.ar  1 <1>   0.1770 
  3 C       -3.0320    -2.0350     0.8410 C.ar  1 <1>  -0.1500 
  4 C       -2.5500    -1.9980    -1.5320 C.ar  1 <1>  -0.1500 
  5 C       -3.5070    -3.3200     0.6590 C.ar  1 <1>   0.0400 
  6 C       -3.0350    -3.2900    -1.6750 C.ar  1 <1>  -0.1500 
  7 S       -4.1770    -4.4110     1.8510 S.3   1 <1>  -0.0800 
  8 C       -3.5230    -3.9690    -0.5640 C.ar  1 <1>   0.2270 
  9 C       -4.4020    -5.6230     0.5910 C.2   1 <1>   0.4620 
 10 N       -4.0300    -5.2590    -0.5780 N.2   1 <1>  -0.5650 
 11 N       -4.9480    -6.8150     0.9540 N.pl3 1 <1>  -0.8530 
 12 C       -5.0690    -7.9870     0.0570 C.3   1 <1>   0.2890 
 13 C       -6.5100    -8.1770    -0.3880 C.3   1 <1>  -0.0800 
 14 C       -4.8550    -9.2600     0.8640 C.3   1 <1>   0.1200 
 15 C       -7.1270    -8.9450     0.7870 C.3   1 <1>   0.1200 
 16 C       -7.2410    -6.8740    -0.7780 C.3   1 <1>  -0.0550 
 17 O       -6.0670    -9.4960     1.5150 O.3   1 <1>  -0.5600 
 18 S       -8.8660    -7.1260    -1.4940 S.o2  1 <1>   1.3330 
 19 O       -9.4220    -5.8470    -1.8730 O.2   1 <1>  -0.6500 
 20 O       -8.7620    -8.1810    -2.4770 O.2   1 <1>  -0.6500 
 21 N       -9.7980    -7.7140    -0.2000 N.am  1 <1>  -0.8490 
 22 C      -10.2710    -6.6570     0.7010 C.3   1 <1>   0.1160 
 23 C      -10.9350    -8.5160    -0.6600 C.3   1 <1>   0.1160 
 24 H       -3.0340    -1.5610     1.8050 H     1 <1>   0.1500 
 25 H       -2.1680    -1.4580    -2.3810 H     1 <1>   0.1500 
 26 H       -3.0420    -3.7810    -2.6310 H     1 <1>   0.1500 
 27 H       -5.1930    -6.9960     1.9320 H     1 <1>   0.4000 
 28 H       -4.3830    -7.9070    -0.7710 H     1 <1>   0.0800 
 29 H       -6.5070    -8.8340    -1.2410 H     1 <1>   0.0800 
 30 H       -4.0640    -9.1670     1.5870 H     1 <1>   0.0800 
 31 H       -4.6630   -10.0950     0.2130 H     1 <1>   0.0800 
 32 H       -7.7750    -9.7360     0.4530 H     1 <1>   0.0800 
 33 H       -7.6660    -8.2900     1.4490 H     1 <1>   0.0800 
 34 H       -6.6340    -6.3580    -1.4980 H     1 <1>   0.0800 
 35 H       -7.3250    -6.2340     0.0780 H     1 <1>   0.0800 
 36 H      -10.7800    -7.0910     1.5450 H     1 <1>   0.0800 
 37 H      -10.9480    -5.9960     0.1850 H     1 <1>   0.0800 
 38 H       -9.4390    -6.0800     1.0680 H     1 <1>   0.0800 
 39 H      -11.4980    -8.8840     0.1800 H     1 <1>   0.0800 
 40 H      -10.5850    -9.3630    -1.2270 H     1 <1>   0.0800 
 41 H      -11.5800    -7.9240    -1.2890 H     1 <1>   0.0800 
@<TRIPOS>BOND
  1   1   2  1   
  2   2   3  ar  
  3   2   4  ar  
  4   3   5  ar  
  5   3  24  1   
  6   4   6  ar  
  7   4  25  1   
  8   5   7  1   
  9   5   8  ar  
 10   6   8  ar  
 11   6  26  1   
 12   7   9  1   
 13   8  10  1   
 14   9  10  2   
 15   9  11  1   
 16  11  12  1   
 17  11  27  1   
 18  12  13  1   
 19  12  14  1   
 20  12  28  1   
 21  13  15  1   
 22  13  16  1   
 23  13  29  1   
 24  14  17  1   
 25  14  30  1   
 26  14  31  1   
 27  15  17  1   
 28  15  32  1   
 29  15  33  1   
 30  16  18  1   
 31  16  34  1   
 32  16  35  1   
 33  18  19  2   
 34  18  20  2   
 35  18  21  am  
 36  21  22  1   
 37  21  23  1   
 38  22  36  1   
 39  22  37  1   
 40  22  38  1   
 41  23  39  1   
 42  23  40  1   
 43  23  41  1   
@<TRIPOS>SUBSTRUCTURE
  1 ****   9 GROUP 4 **** **** 0

# MOE 2024.06 (io_trps.svl 2023.06)
