@<TRIPOS>MOLECULE
NONAME
55 58 1 0 0 
SMALL
USER_CHARGES


@<TRIPOS>ATOM
  1 F       -0.9140     0.0520    -0.0950 F     1 <1>  -0.1900 
  2 C       -2.0040    -0.6700    -0.1340 C.ar  1 <1>   0.1900 
  3 C       -3.0110    -0.4080     0.7740 C.ar  1 <1>  -0.1500 
  4 C       -2.1070    -1.6680    -1.0830 C.ar  1 <1>  -0.1500 
  5 C       -4.1680    -1.1700     0.7360 C.ar  1 <1>  -0.1440 
  6 C       -3.2630    -2.4250    -1.1170 C.ar  1 <1>  -0.1500 
  7 C       -4.2990    -2.1880    -0.2150 C.ar  1 <1>   0.1000 
  8 C       -5.2850    -0.8920     1.7320 C.3   1 <1>  -0.0960 
  9 N       -5.4550    -2.9640    -0.2680 N.pl3 1 <1>  -0.8380 
 10 C       -5.3270    -4.3650     0.1720 C.3   1 <1>   0.2090 
 11 C       -6.3420    -2.7470    -1.4250 C.3   1 <1>   0.2090 
 12 C       -6.7090    -4.8390     0.6100 C.3   1 <1>  -0.1600 
 13 C       -7.7450    -3.1880    -1.0220 C.3   1 <1>  -0.1600 
 14 C       -7.7390    -4.6370    -0.5110 C.3   1 <1>   0.4230 
 15 N       -9.0960    -4.9980    -0.0130 N.4   1 <1>  -0.9590 
 16 C      -10.2150    -4.8480    -0.9830 C.3   1 <1>   0.3430 
 17 C       -9.2300    -6.3860     0.5220 C.3   1 <1>   0.3430 
 18 C      -11.3660    -5.6080    -0.3260 C.3   1 <1>   0.2000 
 19 C      -10.6810    -6.8390     0.2710 C.3   1 <1>  -0.0800 
 20 O      -11.8390    -4.8300     0.7240 O.3   1 <1>  -0.6800 
 21 C      -10.7510    -8.0460    -0.6890 C.3   1 <1>  -0.0170 
 22 C      -10.0970    -9.2900    -0.1020 C.ar  1 <1>   0.1670 
 23 N       -8.7730    -9.2970    -0.0670 N.ar  1 <1>  -0.6200 
 24 C      -10.8850   -10.3450     0.3590 C.ar  1 <1>   0.1600 
 25 C       -8.2960   -10.4240     0.4420 C.ar  1 <1>   0.1600 
 26 N      -10.4090   -11.4610     0.8790 N.ar  1 <1>  -0.6200 
 27 C       -9.0880   -11.4700     0.9010 C.ar  1 <1>   0.1600 
 28 H       -2.8820     0.3800     1.4930 H     1 <1>   0.1500 
 29 H       -1.3010    -1.8420    -1.7730 H     1 <1>   0.1500 
 30 H       -3.3670    -3.2070    -1.8450 H     1 <1>   0.1500 
 31 H       -5.0250    -0.0860     2.3930 H     1 <1>   0.0800 
 32 H       -5.4750    -1.7720     2.3180 H     1 <1>   0.0800 
 33 H       -6.1830    -0.6270     1.2030 H     1 <1>   0.0800 
 34 H       -4.9500    -4.9690    -0.6370 H     1 <1>   0.0800 
 35 H       -4.6340    -4.4230     0.9950 H     1 <1>   0.0800 
 36 H       -6.3410    -1.7010    -1.6890 H     1 <1>   0.0800 
 37 H       -5.9850    -3.3140    -2.2690 H     1 <1>   0.0800 
 38 H       -6.9910    -4.2780     1.4830 H     1 <1>   0.0800 
 39 H       -6.6290    -5.8770     0.8750 H     1 <1>   0.0800 
 40 H       -8.3800    -3.0870    -1.8820 H     1 <1>   0.0800 
 41 H       -8.0940    -2.5230    -0.2520 H     1 <1>   0.0800 
 42 H       -7.4760    -5.2850    -1.3320 H     1 <1>   0.0800 
 43 H       -9.3370    -4.3650     0.7660 H     1 <1>   0.4500 
 44 H      -10.4760    -3.8150    -1.1450 H     1 <1>   0.0800 
 45 H       -9.9570    -5.3120    -1.9190 H     1 <1>   0.0800 
 46 H       -8.5440    -7.0350     0.0060 H     1 <1>   0.0800 
 47 H       -9.0010    -6.4100     1.5750 H     1 <1>   0.0800 
 48 H      -12.1770    -5.8200    -1.0030 H     1 <1>   0.0800 
 49 H      -11.1420    -7.1240     1.2010 H     1 <1>   0.0800 
 50 H      -12.6740    -5.1900     1.0930 H     1 <1>   0.4000 
 51 H      -10.2650    -7.8160    -1.6220 H     1 <1>   0.0800 
 52 H      -11.7810    -8.2650    -0.9110 H     1 <1>   0.0800 
 53 H      -11.9570   -10.2680     0.2970 H     1 <1>   0.1500 
 54 H       -7.2270   -10.5300     0.5010 H     1 <1>   0.1500 
 55 H       -8.6090   -12.3470     1.3010 H     1 <1>   0.1500 
@<TRIPOS>BOND
  1   1   2  1   
  2   2   3  ar  
  3   2   4  ar  
  4   3   5  ar  
  5   3  28  1   
  6   4   6  ar  
  7   4  29  1   
  8   5   7  ar  
  9   5   8  1   
 10   6   7  ar  
 11   6  30  1   
 12   7   9  1   
 13   8  31  1   
 14   8  32  1   
 15   8  33  1   
 16   9  10  1   
 17   9  11  1   
 18  10  12  1   
 19  10  34  1   
 20  10  35  1   
 21  11  13  1   
 22  11  36  1   
 23  11  37  1   
 24  12  14  1   
 25  12  38  1   
 26  12  39  1   
 27  13  14  1   
 28  13  40  1   
 29  13  41  1   
 30  14  15  1   
 31  14  42  1   
 32  15  16  1   
 33  15  17  1   
 34  15  43  1   
 35  16  18  1   
 36  16  44  1   
 37  16  45  1   
 38  17  19  1   
 39  17  46  1   
 40  17  47  1   
 41  18  19  1   
 42  18  20  1   
 43  18  48  1   
 44  19  21  1   
 45  19  49  1   
 46  20  50  1   
 47  21  22  1   
 48  21  51  1   
 49  21  52  1   
 50  22  23  ar  
 51  22  24  ar  
 52  23  25  ar  
 53  24  26  ar  
 54  24  53  1   
 55  25  27  ar  
 56  25  54  1   
 57  26  27  ar  
 58  27  55  1   
@<TRIPOS>SUBSTRUCTURE
  1 ****  12 GROUP 4 **** **** 0

# MOE 2024.06 (io_trps.svl 2023.06)
