@<TRIPOS>MOLECULE
NONAME
37 39 1 0 0 
SMALL
USER_CHARGES


@<TRIPOS>ATOM
  1 O       -0.3240     0.1070     0.8630 O.3   1 <1>  -0.5600 
  2 C        0.2140     0.8170    -0.2170 C.3   1 <1>   0.1200 
  3 C       -1.5500     0.6480     1.2600 C.3   1 <1>   0.1200 
  4 C       -0.6130     2.0930    -0.3630 C.3   1 <1>   0.2890 
  5 C       -1.9590     1.6590     0.1860 C.3   1 <1>  -0.0800 
  6 N       -0.0570     3.1530     0.5170 N.pl3 1 <1>  -0.8690 
  7 C       -2.8410     1.0260    -0.9070 C.3   1 <1>  -0.0170 
  8 C        0.5220     4.3120     0.0630 C.ar  1 <1>   0.4100 
  9 C       -4.1950     0.6060    -0.3570 C.ar  1 <1>  -0.1430 
 10 N        0.3760     4.6300    -1.2090 N.ar  1 <1>  -0.6200 
 11 C        1.2340     5.1160     0.9190 C.ar  1 <1>  -0.1500 
 12 C       -5.1760     1.5300    -0.0610 C.ar  1 <1>  -0.1500 
 13 C       -4.5150    -0.7170    -0.1270 C.ar  1 <1>  -0.1500 
 14 C        0.9580     5.7550    -1.5820 C.ar  1 <1>   0.4700 
 15 C        1.7910     6.2610     0.4080 C.ar  1 <1>   0.4100 
 16 C       -6.3930     1.1000     0.4420 C.ar  1 <1>   0.1600 
 17 C       -5.7630    -1.0410     0.3790 C.ar  1 <1>   0.1600 
 18 N        1.6610     6.5990    -0.8520 N.ar  1 <1>  -0.6200 
 19 N        2.5060     7.1300     1.1630 N.pl3 1 <1>  -0.9000 
 20 N       -6.7100    -0.1640     0.6700 N.ar  1 <1>  -0.6200 
 21 H        1.2540     1.0210    -0.0360 H     1 <1>   0.0800 
 22 H        0.1120     0.2000    -1.0920 H     1 <1>   0.0800 
 23 H       -2.2610    -0.1480     1.3900 H     1 <1>   0.0800 
 24 H       -1.3940     1.1430     2.2030 H     1 <1>   0.0800 
 25 H       -0.6670     2.4190    -1.3870 H     1 <1>   0.0800 
 26 H       -2.4850     2.4920     0.6190 H     1 <1>   0.0800 
 27 H        0.2660     2.7880     1.4150 H     1 <1>   0.4000 
 28 H       -2.3460     0.1730    -1.3370 H     1 <1>   0.0800 
 29 H       -2.9980     1.7410    -1.6960 H     1 <1>   0.0800 
 30 H        1.3540     4.8600     1.9500 H     1 <1>   0.1500 
 31 H       -5.0060     2.5800    -0.2150 H     1 <1>   0.1500 
 32 H       -3.8070    -1.4990    -0.3330 H     1 <1>   0.1500 
 33 H        0.8430     6.0190    -2.6200 H     1 <1>   0.1500 
 34 H       -7.1460     1.8360     0.6680 H     1 <1>   0.1500 
 35 H       -5.9950    -2.0780     0.5530 H     1 <1>   0.1500 
 36 H        2.7440     7.9940     0.6720 H     1 <1>   0.4000 
 37 H        2.2350     7.2710     2.1350 H     1 <1>   0.4000 
@<TRIPOS>BOND
  1   1   2  1   
  2   1   3  1   
  3   2   4  1   
  4   2  21  1   
  5   2  22  1   
  6   3   5  1   
  7   3  23  1   
  8   3  24  1   
  9   4   5  1   
 10   4   6  1   
 11   4  25  1   
 12   5   7  1   
 13   5  26  1   
 14   6   8  1   
 15   6  27  1   
 16   7   9  1   
 17   7  28  1   
 18   7  29  1   
 19   8  10  ar  
 20   8  11  ar  
 21   9  12  ar  
 22   9  13  ar  
 23  10  14  ar  
 24  11  15  ar  
 25  11  30  1   
 26  12  16  ar  
 27  12  31  1   
 28  13  17  ar  
 29  13  32  1   
 30  14  18  ar  
 31  14  33  1   
 32  15  18  ar  
 33  15  19  1   
 34  16  20  ar  
 35  16  34  1   
 36  17  20  ar  
 37  17  35  1   
 38  19  36  1   
 39  19  37  1   
@<TRIPOS>SUBSTRUCTURE
  1 ****   5 GROUP 4 **** **** 0

# MOE 2024.06 (io_trps.svl 2023.06)
