@<TRIPOS>MOLECULE
NONAME
49 51 1 0 0 
SMALL
USER_CHARGES


@<TRIPOS>ATOM
  1 O        2.8600    -0.2600    -0.4210 O.2   1 <1>  -0.5700 
  2 C        2.1600    -0.5660     0.5160 C.2   1 <1>   0.5690 
  3 N        1.7630     0.3560     1.4310 N.am  1 <1>  -0.7300 
  4 C        1.7210    -2.0080     0.6830 C.3   1 <1>  -0.0190 
  5 C        2.0870     1.8000     1.3400 C.3   1 <1>   0.1400 
  6 C        2.9280    -2.9490     0.6410 C.3   1 <1>   0.1200 
  7 C        0.7310    -2.4190    -0.4130 C.3   1 <1>  -0.0160 
  8 C        3.4830     2.0680     1.9030 C.3   1 <1>   0.0200 
  9 O        2.5120    -4.2770     0.8980 O.3   1 <1>  -0.3630 
 10 C        0.4970    -3.9210    -0.3710 C.ar  1 <1>  -0.1430 
 11 C        3.9700     3.4250     1.4340 C.2   1 <1>   0.0070 
 12 C        1.4020    -4.7580     0.2800 C.ar  1 <1>   0.0820 
 13 C       -0.6200    -4.4680    -0.9820 C.ar  1 <1>  -0.1500 
 14 N        3.9120     4.4890     2.1580 N.2   1 <1>  -0.3380 
 15 N        4.4960     3.6740     0.2270 N.pl3 1 <1>   0.0480 
 16 C        1.1810    -6.1240     0.3230 C.ar  1 <1>  -0.1500 
 17 C       -0.8410    -5.8440    -0.9430 C.ar  1 <1>   0.0820 
 18 N        4.4110     5.4860     1.4280 N.2   1 <1>  -0.3380 
 19 C        4.7490     4.9830     0.2930 C.2   1 <1>   0.0360 
 20 C        4.7370     2.7530    -0.9160 C.3   1 <1>   0.1760 
 21 C        0.0630    -6.6630    -0.2870 C.ar  1 <1>  -0.1500 
 22 O       -1.9110    -6.4550    -1.5170 O.3   1 <1>  -0.3620 
 23 C        6.2280     2.7210    -1.2700 C.3   1 <1>  -0.2400 
 24 C        3.8940     3.1720    -2.1250 C.3   1 <1>  -0.2400 
 25 C       -2.8780    -5.7160    -2.2290 C.3   1 <1>   0.0400 
 26 H        1.1930     0.0760     2.2330 H     1 <1>   0.3700 
 27 H        1.2500    -2.1180     1.6430 H     1 <1>   0.0800 
 28 H        1.3550     2.3810     1.8750 H     1 <1>   0.0800 
 29 H        2.0520     2.0950     0.3050 H     1 <1>   0.0800 
 30 H        3.6520    -2.6820     1.3900 H     1 <1>   0.0800 
 31 H        3.3970    -2.9290    -0.3280 H     1 <1>   0.0800 
 32 H        1.1310    -2.1640    -1.3800 H     1 <1>   0.0800 
 33 H       -0.1970    -1.8930    -0.2810 H     1 <1>   0.0800 
 34 H        4.1750     1.3120     1.5800 H     1 <1>   0.0800 
 35 H        3.4450     2.0550     2.9770 H     1 <1>   0.0800 
 36 H       -1.3070    -3.8160    -1.4840 H     1 <1>   0.1500 
 37 H        1.8850    -6.7560     0.8320 H     1 <1>   0.1500 
 38 H        5.1840     5.5390    -0.5170 H     1 <1>   0.1500 
 39 H        4.4390     1.7610    -0.6260 H     1 <1>   0.0800 
 40 H       -0.1140    -7.7230    -0.2590 H     1 <1>   0.1500 
 41 H        6.5660     3.6850    -1.6060 H     1 <1>   0.0800 
 42 H        6.4020     2.0080    -2.0560 H     1 <1>   0.0800 
 43 H        6.8060     2.4230    -0.4130 H     1 <1>   0.0800 
 44 H        4.1800     4.1480    -2.4760 H     1 <1>   0.0800 
 45 H        2.8510     3.1810    -1.8640 H     1 <1>   0.0800 
 46 H        4.0310     2.4680    -2.9260 H     1 <1>   0.0800 
 47 H       -3.6160    -6.4030    -2.5990 H     1 <1>   0.0800 
 48 H       -2.3980    -5.2150    -3.0510 H     1 <1>   0.0800 
 49 H       -3.3380    -5.0100    -1.5610 H     1 <1>   0.0800 
@<TRIPOS>BOND
  1   1   2  2   
  2   2   3  am  
  3   2   4  1   
  4   3   5  1   
  5   3  26  1   
  6   4   6  1   
  7   4   7  1   
  8   4  27  1   
  9   5   8  1   
 10   5  28  1   
 11   5  29  1   
 12   6   9  1   
 13   6  30  1   
 14   6  31  1   
 15   7  10  1   
 16   7  32  1   
 17   7  33  1   
 18   8  11  1   
 19   8  34  1   
 20   8  35  1   
 21   9  12  1   
 22  10  12  ar  
 23  10  13  ar  
 24  11  14  2   
 25  11  15  1   
 26  12  16  ar  
 27  13  17  ar  
 28  13  36  1   
 29  14  18  1   
 30  15  19  1   
 31  15  20  1   
 32  16  21  ar  
 33  16  37  1   
 34  17  21  ar  
 35  17  22  1   
 36  18  19  2   
 37  19  38  1   
 38  20  23  1   
 39  20  24  1   
 40  20  39  1   
 41  21  40  1   
 42  22  25  1   
 43  23  41  1   
 44  23  42  1   
 45  23  43  1   
 46  24  44  1   
 47  24  45  1   
 48  24  46  1   
 49  25  47  1   
 50  25  48  1   
 51  25  49  1   
@<TRIPOS>SUBSTRUCTURE
  1 ****   2 GROUP 4 **** **** 0

# MOE 2024.06 (io_trps.svl 2023.06)
