@<TRIPOS>MOLECULE
NONAME
47 51 1 0 0 
SMALL
USER_CHARGES


@<TRIPOS>ATOM
  1 O        0.2700     1.6180    -2.0840 O.2   1 <1>  -0.5700 
  2 C       -0.1860     2.1990    -1.1160 C.2   1 <1>   0.5440 
  3 N       -1.5150     2.0090    -0.7980 N.am  1 <1>  -0.6600 
  4 C        0.6700     3.0850    -0.3510 C.ar  1 <1>   0.0860 
  5 C       -2.2880     2.9730     0.0580 C.3   1 <1>   0.1400 
  6 C       -2.3000     0.9420    -1.4890 C.3   1 <1>   0.1400 
  7 C        0.7070     3.0340     1.0480 C.ar  1 <1>  -0.1500 
  8 C        1.4880     4.0220    -1.0010 C.ar  1 <1>  -0.1500 
  9 C       -3.7130     3.2050    -0.4780 C.3   1 <1>   0.1440 
 10 C       -3.5940     0.6290    -0.7300 C.3   1 <1>  -0.1600 
 11 C        1.5170     3.9160     1.7300 C.ar  1 <1>   0.0830 
 12 C        2.3020     4.9010    -0.3020 C.ar  1 <1>  -0.1500 
 13 C       -4.3820     4.2470     0.4040 C.ar  1 <1>   0.1660 
 14 C       -4.4950     1.8640    -0.5160 C.3   1 <1>  -0.1600 
 15 C       -3.6820     3.9170    -1.8630 C.3   1 <1>  -0.1600 
 16 O        1.6820     4.0370     3.0510 O.3   1 <1>  -0.3630 
 17 C        2.2930     4.8280     1.0760 C.ar  1 <1>   0.0830 
 18 N       -4.8000     4.0510     1.6350 N.ar  1 <1>  -0.6200 
 19 C       -4.4810     5.4530    -0.2230 C.ar  1 <1>  -0.1430 
 20 C       -3.8960     5.4190    -1.6110 C.3   1 <1>  -0.0170 
 21 C        2.6210     5.0920     3.2520 C.3   1 <1>   0.4000 
 22 O        2.9780     5.5620     1.9540 O.3   1 <1>  -0.3630 
 23 C       -5.3430     5.1150     2.2090 C.ar  1 <1>   0.4760 
 24 C       -5.0590     6.4900     0.4650 C.ar  1 <1>   0.1600 
 25 N       -5.5000     6.3290     1.6960 N.ar  1 <1>  -0.6200 
 26 C       -5.8370     4.9170     3.6210 C.3   1 <1>  -0.0970 
 27 H       -1.7760     3.9180     0.1070 H     1 <1>   0.0800 
 28 H       -2.3520     2.5770     1.0570 H     1 <1>   0.0800 
 29 H       -1.6990     0.0510    -1.5610 H     1 <1>   0.0800 
 30 H       -2.5290     1.2680    -2.4890 H     1 <1>   0.0800 
 31 H        0.1160     2.3190     1.5890 H     1 <1>   0.1500 
 32 H        1.4770     4.0500    -2.0780 H     1 <1>   0.1500 
 33 H       -3.3220     0.2200     0.2280 H     1 <1>   0.0800 
 34 H       -4.1440    -0.1310    -1.2550 H     1 <1>   0.0800 
 35 H        2.9260     5.6190    -0.8040 H     1 <1>   0.1500 
 36 H       -5.2530     1.8980    -1.2780 H     1 <1>   0.0800 
 37 H       -5.0110     1.7240     0.4170 H     1 <1>   0.0800 
 38 H       -4.4930     3.5680    -2.4760 H     1 <1>   0.0800 
 39 H       -2.7650     3.7430    -2.3990 H     1 <1>   0.0800 
 40 H       -4.5650     5.8500    -2.3360 H     1 <1>   0.0800 
 41 H       -2.9570     5.9440    -1.6220 H     1 <1>   0.0800 
 42 H        3.4940     4.7080     3.7500 H     1 <1>   0.0800 
 43 H        2.1590     5.8860     3.8100 H     1 <1>   0.0800 
 44 H       -5.1600     7.4600     0.0100 H     1 <1>   0.1500 
 45 H       -6.4700     4.0500     3.6610 H     1 <1>   0.0800 
 46 H       -6.3960     5.7740     3.9490 H     1 <1>   0.0800 
 47 H       -4.9980     4.7720     4.2730 H     1 <1>   0.0800 
@<TRIPOS>BOND
  1   1   2  2   
  2   2   3  am  
  3   2   4  1   
  4   3   5  1   
  5   3   6  1   
  6   4   7  ar  
  7   4   8  ar  
  8   5   9  1   
  9   5  27  1   
 10   5  28  1   
 11   6  10  1   
 12   6  29  1   
 13   6  30  1   
 14   7  11  ar  
 15   7  31  1   
 16   8  12  ar  
 17   8  32  1   
 18   9  13  1   
 19   9  14  1   
 20   9  15  1   
 21  10  14  1   
 22  10  33  1   
 23  10  34  1   
 24  11  16  1   
 25  11  17  ar  
 26  12  17  ar  
 27  12  35  1   
 28  13  18  ar  
 29  13  19  ar  
 30  14  36  1   
 31  14  37  1   
 32  15  20  1   
 33  15  38  1   
 34  15  39  1   
 35  16  21  1   
 36  17  22  1   
 37  18  23  ar  
 38  19  20  1   
 39  19  24  ar  
 40  20  40  1   
 41  20  41  1   
 42  21  22  1   
 43  21  42  1   
 44  21  43  1   
 45  23  25  ar  
 46  23  26  1   
 47  24  25  ar  
 48  24  44  1   
 49  26  45  1   
 50  26  46  1   
 51  26  47  1   
@<TRIPOS>SUBSTRUCTURE
  1 ****   5 GROUP 4 **** **** 0

# MOE 2024.06 (io_trps.svl 2023.06)
