@<TRIPOS>MOLECULE
NONAME
58 60 1 0 0 
SMALL
USER_CHARGES


@<TRIPOS>ATOM
  1 O       -1.9090     0.4040     2.2160 O.2   1 <1>  -0.5700 
  2 C       -1.9240     0.8110     1.0720 C.2   1 <1>   0.5440 
  3 N       -2.0730    -0.0850     0.0360 N.am  1 <1>  -0.6600 
  4 C       -1.8090     2.2350     0.8210 C.ar  1 <1>   0.0860 
  5 C       -2.0840    -1.5700     0.2840 C.3   1 <1>   0.3640 
  6 C       -2.5590     0.3580    -1.3110 C.3   1 <1>   0.1400 
  7 C       -2.7070     3.1350     1.3890 C.ar  1 <1>  -0.1500 
  8 C       -0.8050     2.7550     0.0050 C.ar  1 <1>  -0.1500 
  9 C       -0.8360    -2.2630    -0.2940 C.ar  1 <1>  -0.1430 
 10 C       -3.3990    -2.2210    -0.2550 C.3   1 <1>   0.2000 
 11 C       -3.1290    -0.8030    -2.1400 C.3   1 <1>   0.1200 
 12 C       -2.6230     4.4920     1.1360 C.ar  1 <1>  -0.1500 
 13 C       -0.7160     4.1110    -0.2500 C.ar  1 <1>  -0.1500 
 14 C       -0.6530    -3.6130    -0.0160 C.ar  1 <1>  -0.1500 
 15 C        0.1260    -1.6160    -1.0650 C.ar  1 <1>  -0.1500 
 16 O       -3.9940    -1.5540    -1.3490 O.3   1 <1>  -0.5600 
 17 C       -4.4640    -2.2990     0.8460 C.3   1 <1>   0.1200 
 18 C       -1.6280     4.9900     0.3100 C.ar  1 <1>  -0.1430 
 19 C        0.4340    -4.3130    -0.5130 C.ar  1 <1>   0.0830 
 20 C        1.2270    -2.3000    -1.5520 C.ar  1 <1>  -0.1500 
 21 O       -4.1510    -3.3200     1.7400 O.3   1 <1>  -0.6800 
 22 C       -1.5340     6.4820     0.0310 C.3   1 <1>  -0.0170 
 23 O        0.5010    -5.6380    -0.2320 O.3   1 <1>  -0.3620 
 24 C        1.3970    -3.6430    -1.2720 C.ar  1 <1>   0.0830 
 25 C       -0.6380     7.1700     1.0670 C.3   1 <1>  -0.1600 
 26 C        0.4360    -6.5220    -1.3300 C.3   1 <1>   0.0400 
 27 O        2.5150    -4.2450    -1.7470 O.3   1 <1>  -0.3630 
 28 C       -0.5270     8.6760     0.8060 C.3   1 <1>  -0.2400 
 29 C        3.4530    -4.6640    -0.7800 C.3   1 <1>   0.0400 
 30 H       -2.0460    -1.7570     1.3440 H     1 <1>   0.0800 
 31 H       -3.3340     1.0940    -1.1810 H     1 <1>   0.0800 
 32 H       -1.7540     0.8180    -1.8540 H     1 <1>   0.0800 
 33 H       -3.4780     2.7570     2.0380 H     1 <1>   0.1500 
 34 H       -0.0850     2.0830    -0.4260 H     1 <1>   0.1500 
 35 H       -3.1970    -3.2200    -0.5930 H     1 <1>   0.0800 
 36 H       -2.3480    -1.4440    -2.5110 H     1 <1>   0.0800 
 37 H       -3.6880    -0.4230    -2.9770 H     1 <1>   0.0800 
 38 H       -3.3330     5.1620     1.5900 H     1 <1>   0.1500 
 39 H        0.0700     4.4850    -0.8840 H     1 <1>   0.1500 
 40 H       -1.3590    -4.1450     0.5970 H     1 <1>   0.1500 
 41 H        0.0420    -0.5700    -1.2900 H     1 <1>   0.1500 
 42 H       -5.4320    -2.5100     0.4260 H     1 <1>   0.0800 
 43 H       -4.5010    -1.3740     1.3950 H     1 <1>   0.0800 
 44 H        1.9650    -1.7910    -2.1440 H     1 <1>   0.1500 
 45 H       -4.3910    -4.1920     1.3690 H     1 <1>   0.4000 
 46 H       -1.1350     6.6390    -0.9560 H     1 <1>   0.0800 
 47 H       -2.5190     6.9160     0.0570 H     1 <1>   0.0800 
 48 H       -1.0430     7.0070     2.0510 H     1 <1>   0.0800 
 49 H        0.3430     6.7290     1.0380 H     1 <1>   0.0800 
 50 H        0.3530    -7.5240    -0.9510 H     1 <1>   0.0800 
 51 H        1.3300    -6.4270    -1.9190 H     1 <1>   0.0800 
 52 H       -0.4290    -6.2780    -1.9220 H     1 <1>   0.0800 
 53 H       -1.4970     9.1400     0.8540 H     1 <1>   0.0800 
 54 H       -0.1020     8.8600    -0.1650 H     1 <1>   0.0800 
 55 H        0.1060     9.1310     1.5470 H     1 <1>   0.0800 
 56 H        4.3180    -5.0420    -1.2920 H     1 <1>   0.0800 
 57 H        3.0180    -5.4380    -0.1740 H     1 <1>   0.0800 
 58 H        3.7230    -3.8200    -0.1700 H     1 <1>   0.0800 
@<TRIPOS>BOND
  1   1   2  2   
  2   2   3  am  
  3   2   4  1   
  4   3   5  1   
  5   3   6  1   
  6   4   7  ar  
  7   4   8  ar  
  8   5   9  1   
  9   5  10  1   
 10   5  30  1   
 11   6  11  1   
 12   6  31  1   
 13   6  32  1   
 14   7  12  ar  
 15   7  33  1   
 16   8  13  ar  
 17   8  34  1   
 18   9  14  ar  
 19   9  15  ar  
 20  10  16  1   
 21  10  17  1   
 22  10  35  1   
 23  11  16  1   
 24  11  36  1   
 25  11  37  1   
 26  12  18  ar  
 27  12  38  1   
 28  13  18  ar  
 29  13  39  1   
 30  14  19  ar  
 31  14  40  1   
 32  15  20  ar  
 33  15  41  1   
 34  17  21  1   
 35  17  42  1   
 36  17  43  1   
 37  18  22  1   
 38  19  23  1   
 39  19  24  ar  
 40  20  24  ar  
 41  20  44  1   
 42  21  45  1   
 43  22  25  1   
 44  22  46  1   
 45  22  47  1   
 46  23  26  1   
 47  24  27  1   
 48  25  28  1   
 49  25  48  1   
 50  25  49  1   
 51  26  50  1   
 52  26  51  1   
 53  26  52  1   
 54  27  29  1   
 55  28  53  1   
 56  28  54  1   
 57  28  55  1   
 58  29  56  1   
 59  29  57  1   
 60  29  58  1   
@<TRIPOS>SUBSTRUCTURE
  1 ****   3 GROUP 4 **** **** 0

# MOE 2024.06 (io_trps.svl 2023.06)
