@<TRIPOS>MOLECULE
NONAME
47 49 1 0 0 
SMALL
USER_CHARGES


@<TRIPOS>ATOM
  1 S        0.8090     0.7720    -1.8510 S.o2  1 <1>   1.3330 
  2 O        0.9400    -0.6040    -2.2760 O.2   1 <1>  -0.6500 
  3 O        0.1800     1.7370    -2.7240 O.2   1 <1>  -0.6500 
  4 N       -0.0570     0.7830    -0.3880 N.am  1 <1>  -0.8490 
  5 C        2.4360     1.3680    -1.3830 C.3   1 <1>  -0.0550 
  6 C       -0.5840     2.1070    -0.0360 C.3   1 <1>   0.1160 
  7 C       -1.1450    -0.1990    -0.3840 C.3   1 <1>   0.1160 
  8 C        3.2540     0.3760    -0.5280 C.3   1 <1>  -0.0800 
  9 C        4.6860     0.8050    -0.2420 C.3   1 <1>   0.2200 
 10 C        2.6990     0.1000     0.8750 C.3   1 <1>   0.1200 
 11 N        4.7410     2.2360     0.1420 N.am  1 <1>  -0.7300 
 12 C        4.9830    -0.0380     0.9880 C.3   1 <1>   0.1200 
 13 O        3.8020    -0.0150     1.7300 O.3   1 <1>  -0.5600 
 14 C        5.0970     3.2670    -0.6790 C.2   1 <1>   0.5440 
 15 O        5.3120     3.0110    -1.8470 O.2   1 <1>  -0.5700 
 16 C        5.1760     4.6300    -0.1830 C.ar  1 <1>   0.0860 
 17 C        5.0390     5.7100    -1.0510 C.ar  1 <1>  -0.1500 
 18 C        5.3900     4.9050     1.1860 C.ar  1 <1>  -0.1500 
 19 C        5.0960     7.0170    -0.5750 C.ar  1 <1>   0.0000 
 20 C        5.4470     6.1960     1.6700 C.ar  1 <1>  -0.1500 
 21 C        5.2940     7.2430     0.7740 C.ar  1 <1>   0.1400 
 22 C        4.9960     8.3050    -1.1410 C.2   1 <1>  -0.1500 
 23 O        5.3140     8.5490     1.0300 O.3   1 <1>  -0.2800 
 24 C        5.1340     9.1780    -0.1260 C.2   1 <1>  -0.0400 
 25 C        5.1170    10.6910    -0.1130 C.3   1 <1>  -0.0600 
 26 H        2.9910     1.5640    -2.2810 H     1 <1>   0.0800 
 27 H        2.3340     2.3000    -0.8650 H     1 <1>   0.0800 
 28 H       -1.0430     2.0750     0.9380 H     1 <1>   0.0800 
 29 H       -1.3190     2.4250    -0.7580 H     1 <1>   0.0800 
 30 H        0.2110     2.8310    -0.0130 H     1 <1>   0.0800 
 31 H       -1.6670    -0.1750     0.5570 H     1 <1>   0.0800 
 32 H       -0.7490    -1.1910    -0.5230 H     1 <1>   0.0800 
 33 H       -1.8400     0.0100    -1.1810 H     1 <1>   0.0800 
 34 H        3.2930    -0.5650    -1.0500 H     1 <1>   0.0800 
 35 H        5.3590     0.6000    -1.0580 H     1 <1>   0.0800 
 36 H        2.1300    -0.8140     0.9080 H     1 <1>   0.0800 
 37 H        2.0960     0.9160     1.2350 H     1 <1>   0.0800 
 38 H        4.4350     2.4130     1.1010 H     1 <1>   0.3700 
 39 H        5.7940     0.3520     1.5780 H     1 <1>   0.0800 
 40 H        5.1840    -1.0600     0.7150 H     1 <1>   0.0800 
 41 H        4.8870     5.5410    -2.1030 H     1 <1>   0.1500 
 42 H        5.5200     4.0880     1.8730 H     1 <1>   0.1500 
 43 H        5.6090     6.4120     2.7100 H     1 <1>   0.1500 
 44 H        4.8400     8.4990    -2.1860 H     1 <1>   0.1500 
 45 H        4.9650    11.0700    -1.1070 H     1 <1>   0.0800 
 46 H        6.0530    11.0600     0.2650 H     1 <1>   0.0800 
 47 H        4.3220    11.0390     0.5210 H     1 <1>   0.0800 
@<TRIPOS>BOND
  1   1   2  2   
  2   1   3  2   
  3   1   4  am  
  4   1   5  1   
  5   4   6  1   
  6   4   7  1   
  7   5   8  1   
  8   5  26  1   
  9   5  27  1   
 10   6  28  1   
 11   6  29  1   
 12   6  30  1   
 13   7  31  1   
 14   7  32  1   
 15   7  33  1   
 16   8   9  1   
 17   8  10  1   
 18   8  34  1   
 19   9  11  1   
 20   9  12  1   
 21   9  35  1   
 22  10  13  1   
 23  10  36  1   
 24  10  37  1   
 25  11  14  am  
 26  11  38  1   
 27  12  13  1   
 28  12  39  1   
 29  12  40  1   
 30  14  15  2   
 31  14  16  1   
 32  16  17  ar  
 33  16  18  ar  
 34  17  19  ar  
 35  17  41  1   
 36  18  20  ar  
 37  18  42  1   
 38  19  21  ar  
 39  19  22  1   
 40  20  21  ar  
 41  20  43  1   
 42  21  23  1   
 43  22  24  2   
 44  22  44  1   
 45  23  24  1   
 46  24  25  1   
 47  25  45  1   
 48  25  46  1   
 49  25  47  1   
@<TRIPOS>SUBSTRUCTURE
  1 ****  14 GROUP 4 **** **** 0

# MOE 2024.06 (io_trps.svl 2023.06)
