@<TRIPOS>MOLECULE
NONAME
36 39 1 0 0 
SMALL
USER_CHARGES


@<TRIPOS>ATOM
  1 S        0.0070    -0.2990    -0.1230 S.3   1 <1>  -0.4600 
  2 C       -1.4620     0.6970     0.2870 C.3   1 <1>   0.2510 
  3 C       -0.8110    -1.8910    -0.4400 C.3   1 <1>   0.2510 
  4 C       -2.5970    -0.2880     0.1330 C.2   1 <1>   0.1080 
  5 C       -2.2730    -1.5780    -0.2320 C.2   1 <1>  -0.1810 
  6 N       -3.8690    -0.1100     0.2930 N.2   1 <1>  -0.7070 
  7 C       -3.4500    -2.2440    -0.2950 C.2   1 <1>  -0.0880 
  8 N       -4.4110    -1.3260     0.0330 N.pl3 1 <1>   0.3140 
  9 N       -3.6180    -3.6050    -0.6520 N.am  1 <1>  -0.4940 
 10 C       -5.8720    -1.4840     0.0460 C.3   1 <1>   0.0160 
 11 C       -4.5160    -4.5430    -0.2220 C.2   1 <1>   0.5690 
 12 O       -5.3920    -4.3000     0.5740 O.2   1 <1>  -0.5700 
 13 C       -4.3670    -5.9520    -0.7910 C.3   1 <1>  -0.0190 
 14 C       -5.4650    -6.9430    -0.3410 C.3   1 <1>   0.0580 
 15 C       -3.0580    -6.6560    -0.3140 C.3   1 <1>  -0.1600 
 16 C       -5.2890    -8.1730    -1.2140 C.2   1 <1>  -0.2880 
 17 C       -4.8580    -7.4940     0.9470 C.3   1 <1>  -0.1600 
 18 C       -3.5650    -7.9740     0.2990 C.3   1 <1>   0.0580 
 19 C       -4.1640    -8.7750    -0.8410 C.2   1 <1>  -0.2880 
 20 H       -1.3680     1.0480     1.2980 H     1 <1>   0.0800 
 21 H       -1.5340     1.5080    -0.4130 H     1 <1>   0.0800 
 22 H       -0.5910    -2.1830    -1.4510 H     1 <1>   0.0800 
 23 H       -0.4390    -2.6050     0.2730 H     1 <1>   0.0800 
 24 H       -2.8920    -3.9720    -1.2660 H     1 <1>   0.3700 
 25 H       -6.1680    -2.1500    -0.7420 H     1 <1>   0.0800 
 26 H       -6.3320    -0.5250    -0.0980 H     1 <1>   0.0800 
 27 H       -6.1700    -1.8860     0.9960 H     1 <1>   0.0800 
 28 H       -4.3840    -5.8810    -1.8640 H     1 <1>   0.0800 
 29 H       -6.4720    -6.5690    -0.2590 H     1 <1>   0.0800 
 30 H       -2.3840    -6.8460    -1.1310 H     1 <1>   0.0800 
 31 H       -2.5550    -6.0770     0.4420 H     1 <1>   0.0800 
 32 H       -6.0010    -8.4110    -1.9860 H     1 <1>   0.1500 
 33 H       -4.7050    -6.7400     1.7010 H     1 <1>   0.0800 
 34 H       -5.4380    -8.3070     1.3510 H     1 <1>   0.0800 
 35 H       -2.8930    -8.5080     0.9490 H     1 <1>   0.0800 
 36 H       -3.6720    -9.6580    -1.2150 H     1 <1>   0.1500 
@<TRIPOS>BOND
  1   1   2  1   
  2   1   3  1   
  3   2   4  1   
  4   2  20  1   
  5   2  21  1   
  6   3   5  1   
  7   3  22  1   
  8   3  23  1   
  9   4   5  1   
 10   4   6  2   
 11   5   7  2   
 12   6   8  1   
 13   7   8  1   
 14   7   9  1   
 15   8  10  1   
 16   9  11  am  
 17   9  24  1   
 18  10  25  1   
 19  10  26  1   
 20  10  27  1   
 21  11  12  2   
 22  11  13  1   
 23  13  14  1   
 24  13  15  1   
 25  13  28  1   
 26  14  16  1   
 27  14  17  1   
 28  14  29  1   
 29  15  18  1   
 30  15  30  1   
 31  15  31  1   
 32  16  19  2   
 33  16  32  1   
 34  17  18  1   
 35  17  33  1   
 36  17  34  1   
 37  18  19  1   
 38  18  35  1   
 39  19  36  1   
@<TRIPOS>SUBSTRUCTURE
  1 ****   9 GROUP 4 **** **** 0

# MOE 2024.06 (io_trps.svl 2023.06)
