@<TRIPOS>MOLECULE
NONAME
44 47 1 0 0 
SMALL
USER_CHARGES


@<TRIPOS>ATOM
  1 O       -2.2740    -0.1710    -2.8280 O.2   1 <1>  -0.5700 
  2 C       -2.2330    -0.6840    -1.7440 C.2   1 <1>   0.5690 
  3 N       -1.9700     0.0560    -0.6530 N.am  1 <1>  -0.7300 
  4 C       -2.5170    -2.1550    -1.6030 C.3   1 <1>  -0.0190 
  5 C       -1.9060    -0.4490     0.7380 C.3   1 <1>   0.2200 
  6 C       -1.3060    -2.9150    -1.0160 C.3   1 <1>   0.1200 
  7 C       -3.8580    -2.3290    -0.8750 C.3   1 <1>   0.3430 
  8 C       -0.7990    -1.5250     0.8710 C.3   1 <1>   0.1200 
  9 C       -3.3090    -0.9360     1.2040 C.3   1 <1>   0.3430 
 10 O       -1.1900    -2.7810     0.3760 O.3   1 <1>  -0.5600 
 11 N       -3.7600    -2.2530     0.6240 N.4   1 <1>  -0.9590 
 12 C       -4.9670    -2.7900     1.3030 C.3   1 <1>   0.4860 
 13 C       -5.1130    -4.2560     0.9430 C.ar  1 <1>  -0.1440 
 14 C       -6.1370    -4.6650     0.0910 C.ar  1 <1>  -0.1500 
 15 C       -4.2230    -5.1960     1.4530 C.ar  1 <1>  -0.1500 
 16 C       -6.2930    -5.9970    -0.2740 C.ar  1 <1>   0.0820 
 17 C       -4.3900    -6.5160     1.0850 C.ar  1 <1>   0.0820 
 18 O       -7.3240    -6.2710    -1.1160 O.3   1 <1>  -0.3630 
 19 C       -5.3890    -6.9230     0.2470 C.ar  1 <1>   0.0820 
 20 O       -3.6430    -7.5550     1.4680 O.3   1 <1>  -0.3620 
 21 C       -7.6350    -7.5990    -1.4780 C.3   1 <1>   0.0400 
 22 O       -5.3000    -8.2550     0.0700 O.3   1 <1>  -0.3620 
 23 C       -4.2030    -8.7130     0.8560 C.3   1 <1>   0.4000 
 24 H       -1.7270     1.0390    -0.8240 H     1 <1>   0.3700 
 25 H       -2.6570    -2.5220    -2.6040 H     1 <1>   0.0800 
 26 H       -1.6250     0.3840     1.3590 H     1 <1>   0.0800 
 27 H       -0.3870    -2.5870    -1.4750 H     1 <1>   0.0800 
 28 H       -1.4160    -3.9680    -1.2170 H     1 <1>   0.0800 
 29 H       -4.2430    -3.2990    -1.1470 H     1 <1>   0.0800 
 30 H       -4.5560    -1.5910    -1.2370 H     1 <1>   0.0800 
 31 H       -0.5680    -1.6660     1.9130 H     1 <1>   0.0800 
 32 H        0.1040    -1.2140     0.3730 H     1 <1>   0.0800 
 33 H       -4.0310    -0.1700     0.9740 H     1 <1>   0.0800 
 34 H       -3.2730    -1.0340     2.2760 H     1 <1>   0.0800 
 35 H       -2.9800    -2.9080     0.8360 H     1 <1>   0.4500 
 36 H       -4.8630    -2.7010     2.3720 H     1 <1>   0.0800 
 37 H       -5.8440    -2.2440     0.9960 H     1 <1>   0.0800 
 38 H       -6.8430    -3.9560    -0.3080 H     1 <1>   0.1500 
 39 H       -3.4180    -4.9390     2.1190 H     1 <1>   0.1500 
 40 H       -8.5060    -7.5820    -2.1070 H     1 <1>   0.0800 
 41 H       -7.8380    -8.1660    -0.5870 H     1 <1>   0.0800 
 42 H       -6.8030    -8.0190    -2.0160 H     1 <1>   0.0800 
 43 H       -4.5600    -9.3860     1.6160 H     1 <1>   0.0800 
 44 H       -3.4710    -9.1800     0.2220 H     1 <1>   0.0800 
@<TRIPOS>BOND
  1   1   2  2   
  2   2   3  am  
  3   2   4  1   
  4   3   5  1   
  5   3  24  1   
  6   4   6  1   
  7   4   7  1   
  8   4  25  1   
  9   5   8  1   
 10   5   9  1   
 11   5  26  1   
 12   6  10  1   
 13   6  27  1   
 14   6  28  1   
 15   7  11  1   
 16   7  29  1   
 17   7  30  1   
 18   8  10  1   
 19   8  31  1   
 20   8  32  1   
 21   9  11  1   
 22   9  33  1   
 23   9  34  1   
 24  11  12  1   
 25  11  35  1   
 26  12  13  1   
 27  12  36  1   
 28  12  37  1   
 29  13  14  ar  
 30  13  15  ar  
 31  14  16  ar  
 32  14  38  1   
 33  15  17  ar  
 34  15  39  1   
 35  16  18  1   
 36  16  19  ar  
 37  17  19  ar  
 38  17  20  1   
 39  18  21  1   
 40  19  22  1   
 41  20  23  1   
 42  21  40  1   
 43  21  41  1   
 44  21  42  1   
 45  22  23  1   
 46  23  43  1   
 47  23  44  1   
@<TRIPOS>SUBSTRUCTURE
  1 ****  13 GROUP 4 **** **** 0

# MOE 2024.06 (io_trps.svl 2023.06)
