@<TRIPOS>MOLECULE
NONAME
50 52 1 0 0 
SMALL
USER_CHARGES


@<TRIPOS>ATOM
  1 O       -0.8900     1.0880     0.2270 O.co2 1 <1>  -0.9000 
  2 C       -1.8270     1.4930     0.9300 C.2   1 <1>   0.9060 
  3 O       -2.2210     0.8620     1.9180 O.co2 1 <1>  -0.9000 
  4 C       -2.7120     2.6770     0.4540 C.3   1 <1>   0.4600 
  5 N       -3.6200     2.4590    -0.7560 N.4   1 <1>  -0.9590 
  6 C       -1.9860     3.9910     0.1660 C.ar  1 <1>  -0.1430 
  7 C       -5.0410     2.3390    -0.3420 C.3   1 <1>   0.3430 
  8 C       -3.1320     1.3770    -1.6820 C.3   1 <1>   0.3430 
  9 C       -2.3710     5.1770     0.7890 C.ar  1 <1>  -0.1440 
 10 C       -0.9470     4.0160    -0.7560 C.ar  1 <1>  -0.1500 
 11 C       -5.3310     0.9440     0.2130 C.3   1 <1>  -0.1600 
 12 C       -3.5380    -0.0400    -1.2450 C.3   1 <1>  -0.1600 
 13 C       -1.7250     6.3590     0.4610 C.ar  1 <1>  -0.1500 
 14 C       -3.4760     5.2230     1.8370 C.3   1 <1>  -0.0970 
 15 C       -0.3030     5.1960    -1.0780 C.ar  1 <1>  -0.1430 
 16 C       -5.0120    -0.1520    -0.8200 C.3   1 <1>   0.3430 
 17 C       -0.7020     6.3710    -0.4680 C.ar  1 <1>  -0.1500 
 18 C        0.8350     5.1970    -2.0830 C.3   1 <1>  -0.0970 
 19 C       -5.8500     0.1120    -2.0410 C.1   1 <1>   0.3570 
 20 C       -5.2840    -1.5390    -0.1980 C.ar  1 <1>  -0.1430 
 21 N       -6.4490     0.4170    -2.9600 N.1   1 <1>  -0.5570 
 22 C       -4.5690    -1.9330     0.9320 C.ar  1 <1>  -0.1500 
 23 C       -6.2270    -2.4280    -0.7130 C.ar  1 <1>  -0.1500 
 24 C       -4.7850    -3.1640     1.5230 C.ar  1 <1>  -0.1500 
 25 C       -6.4430    -3.6600    -0.1210 C.ar  1 <1>  -0.1500 
 26 C       -5.7230    -4.0310     0.9980 C.ar  1 <1>  -0.1500 
 27 H       -3.3450     2.8560     1.3010 H     1 <1>   0.0800 
 28 H       -3.4950     3.3500    -1.2560 H     1 <1>   0.4500 
 29 H       -5.6780     2.5250    -1.1920 H     1 <1>   0.0800 
 30 H       -5.2670     3.0800     0.4070 H     1 <1>   0.0800 
 31 H       -2.0570     1.4250    -1.7670 H     1 <1>   0.0800 
 32 H       -3.5420     1.5550    -2.6630 H     1 <1>   0.0800 
 33 H       -0.6200     3.1030    -1.2260 H     1 <1>   0.1500 
 34 H       -6.3710     0.8840     0.4820 H     1 <1>   0.0800 
 35 H       -4.7640     0.7950     1.1150 H     1 <1>   0.0800 
 36 H       -2.8960    -0.3660    -0.4510 H     1 <1>   0.0800 
 37 H       -3.3480    -0.7160    -2.0600 H     1 <1>   0.0800 
 38 H       -2.0090     7.2850     0.9300 H     1 <1>   0.1500 
 39 H       -3.2540     4.5420     2.6400 H     1 <1>   0.0800 
 40 H       -4.4220     4.9640     1.3980 H     1 <1>   0.0800 
 41 H       -3.5630     6.2090     2.2590 H     1 <1>   0.0800 
 42 H       -0.2120     7.2990    -0.7080 H     1 <1>   0.1500 
 43 H        1.3810     4.2710    -2.0280 H     1 <1>   0.0800 
 44 H        1.5170     6.0020    -1.8790 H     1 <1>   0.0800 
 45 H        0.4450     5.3140    -3.0770 H     1 <1>   0.0800 
 46 H       -3.8240    -1.2900     1.3770 H     1 <1>   0.1500 
 47 H       -6.8180    -2.1960    -1.5830 H     1 <1>   0.1500 
 48 H       -4.2170    -3.4440     2.3940 H     1 <1>   0.1500 
 49 H       -7.1740    -4.3340    -0.5330 H     1 <1>   0.1500 
 50 H       -5.8910    -4.9890     1.4590 H     1 <1>   0.1500 
@<TRIPOS>BOND
  1   1   2  ar  
  2   2   3  ar  
  3   2   4  1   
  4   4   5  1   
  5   4   6  1   
  6   4  27  1   
  7   5   7  1   
  8   5   8  1   
  9   5  28  1   
 10   6   9  ar  
 11   6  10  ar  
 12   7  11  1   
 13   7  29  1   
 14   7  30  1   
 15   8  12  1   
 16   8  31  1   
 17   8  32  1   
 18   9  13  ar  
 19   9  14  1   
 20  10  15  ar  
 21  10  33  1   
 22  11  16  1   
 23  11  34  1   
 24  11  35  1   
 25  12  16  1   
 26  12  36  1   
 27  12  37  1   
 28  13  17  ar  
 29  13  38  1   
 30  14  39  1   
 31  14  40  1   
 32  14  41  1   
 33  15  17  ar  
 34  15  18  1   
 35  16  19  1   
 36  16  20  1   
 37  17  42  1   
 38  18  43  1   
 39  18  44  1   
 40  18  45  1   
 41  19  21  3   
 42  20  22  ar  
 43  20  23  ar  
 44  22  24  ar  
 45  22  46  1   
 46  23  25  ar  
 47  23  47  1   
 48  24  26  ar  
 49  24  48  1   
 50  25  26  ar  
 51  25  49  1   
 52  26  50  1   
@<TRIPOS>SUBSTRUCTURE
  1 ****   5 GROUP 4 **** **** 0

# MOE 2024.06 (io_trps.svl 2023.06)
