@<TRIPOS>MOLECULE
NONAME
41 43 1 0 0 
SMALL
USER_CHARGES


@<TRIPOS>ATOM
  1 S       -0.2930    -0.2580     0.7650 S.3   1 <1>  -0.0800 
  2 C       -1.5250    -0.9700    -0.2260 C.2   1 <1>   0.4420 
  3 C       -0.6160     1.2420    -0.0370 C.2   1 <1>   0.1980 
  4 N       -2.0530    -0.1180    -1.0280 N.2   1 <1>  -0.3380 
  5 N       -1.7560    -2.3170    -0.0420 N.am  1 <1>  -0.4940 
  6 N       -1.5310     1.1420    -0.9130 N.2   1 <1>  -0.3380 
  7 C        0.1810     2.4670     0.3690 C.3   1 <1>   0.0200 
  8 C       -2.7340    -3.1210    -0.5730 C.2   1 <1>   0.5440 
  9 C        1.6330     2.3880    -0.1270 C.3   1 <1>  -0.1600 
 10 O       -3.6790    -2.6330    -1.1540 O.2   1 <1>  -0.5700 
 11 C       -2.6450    -4.5570    -0.3970 C.ar  1 <1>   0.0860 
 12 C        2.4270     3.6430     0.2580 C.3   1 <1>  -0.1600 
 13 C       -3.7950    -5.3130    -0.1630 C.ar  1 <1>  -0.1500 
 14 C       -1.4080    -5.2250    -0.4550 C.ar  1 <1>  -0.1500 
 15 C        3.8730     3.5550    -0.2430 C.3   1 <1>  -0.1600 
 16 C       -3.7210    -6.6820     0.0290 C.ar  1 <1>   0.2270 
 17 C       -1.3120    -6.5930    -0.2680 C.ar  1 <1>  -0.1500 
 18 C        4.6660     4.8070     0.1410 C.3   1 <1>  -0.2400 
 19 N       -4.7980    -7.5270     0.2810 N.2   1 <1>  -0.5650 
 20 C       -2.4810    -7.2880    -0.0270 C.ar  1 <1>   0.0400 
 21 C       -4.4300    -8.7350     0.4140 C.2   1 <1>   0.1980 
 22 S       -2.6970    -9.0010     0.2490 S.3   1 <1>  -0.0800 
 23 C       -5.2850    -9.9490     0.6920 C.3   1 <1>  -0.0600 
 24 H       -1.1290    -2.7700     0.6140 H     1 <1>   0.3700 
 25 H        0.1600     2.5600     1.4390 H     1 <1>   0.0800 
 26 H       -0.2940     3.3360    -0.0520 H     1 <1>   0.0800 
 27 H        1.6300     2.2790    -1.1990 H     1 <1>   0.0800 
 28 H        2.1100     1.5200     0.2940 H     1 <1>   0.0800 
 29 H        2.4280     3.7550     1.3290 H     1 <1>   0.0800 
 30 H        1.9560     4.5120    -0.1690 H     1 <1>   0.0800 
 31 H       -4.7590    -4.8370    -0.1280 H     1 <1>   0.1500 
 32 H       -0.5120    -4.6660    -0.6620 H     1 <1>   0.1500 
 33 H        3.8800     3.4470    -1.3150 H     1 <1>   0.0800 
 34 H        4.3540     2.6900     0.1820 H     1 <1>   0.0800 
 35 H       -0.3690    -7.1100    -0.3120 H     1 <1>   0.1500 
 36 H        4.2180     5.6840    -0.2930 H     1 <1>   0.0800 
 37 H        5.6760     4.7280    -0.2190 H     1 <1>   0.0800 
 38 H        4.6930     4.9240     1.2100 H     1 <1>   0.0800 
 39 H       -6.3160    -9.6550     0.7700 H     1 <1>   0.0800 
 40 H       -4.9800   -10.4060     1.6140 H     1 <1>   0.0800 
 41 H       -5.1820   -10.6580    -0.1090 H     1 <1>   0.0800 
@<TRIPOS>BOND
  1   1   2  1   
  2   1   3  1   
  3   2   4  2   
  4   2   5  1   
  5   3   6  2   
  6   3   7  1   
  7   4   6  1   
  8   5   8  am  
  9   5  24  1   
 10   7   9  1   
 11   7  25  1   
 12   7  26  1   
 13   8  10  2   
 14   8  11  1   
 15   9  12  1   
 16   9  27  1   
 17   9  28  1   
 18  11  13  ar  
 19  11  14  ar  
 20  12  15  1   
 21  12  29  1   
 22  12  30  1   
 23  13  16  ar  
 24  13  31  1   
 25  14  17  ar  
 26  14  32  1   
 27  15  18  1   
 28  15  33  1   
 29  15  34  1   
 30  16  19  1   
 31  16  20  ar  
 32  17  20  ar  
 33  17  35  1   
 34  18  36  1   
 35  18  37  1   
 36  18  38  1   
 37  19  21  2   
 38  20  22  1   
 39  21  22  1   
 40  21  23  1   
 41  23  39  1   
 42  23  40  1   
 43  23  41  1   
@<TRIPOS>SUBSTRUCTURE
  1 ****   5 GROUP 4 **** **** 0

# MOE 2024.06 (io_trps.svl 2023.06)
