@<TRIPOS>MOLECULE
NONAME
49 51 1 0 0 
SMALL
USER_CHARGES


@<TRIPOS>ATOM
  1 S       -0.7460     0.4980    -0.1610 S.o2  1 <1>   1.0900 
  2 O        0.3330     0.3330    -1.1070 O.2   1 <1>  -0.6500 
  3 O       -0.7260     1.5280     0.8490 O.2   1 <1>  -0.6500 
  4 C       -1.0630    -1.0850     0.5640 C.3   1 <1>  -0.0550 
  5 C       -2.2780     0.5440    -1.0790 C.3   1 <1>  -0.0550 
  6 C       -1.8260    -1.8430    -0.5200 C.3   1 <1>   0.1760 
  7 C       -2.8770    -0.8740    -1.1000 C.3   1 <1>  -0.1600 
  8 N       -2.4570    -3.0760     0.0130 N.pl3 1 <1>   0.3140 
  9 N       -3.1670    -3.0520     1.1560 N.2   1 <1>  -0.7070 
 10 C       -2.4650    -4.3120    -0.5500 C.2   1 <1>  -0.3320 
 11 C       -3.6200    -4.2580     1.2970 C.2   1 <1>   0.1080 
 12 C       -3.2130    -5.0980     0.2550 C.2   1 <1>   0.0630 
 13 C       -1.7620    -4.6690    -1.8530 C.3   1 <1>  -0.0600 
 14 C       -4.4760    -4.6470     2.4820 C.3   1 <1>  -0.0590 
 15 N       -3.4820    -6.4760     0.0600 N.am  1 <1>  -0.4930 
 16 C       -4.6740    -7.1460     0.1780 C.2   1 <1>   0.5440 
 17 O       -5.6940    -6.5220     0.4000 O.2   1 <1>  -0.5700 
 18 C       -4.7200    -8.5800     0.0160 C.ar  1 <1>   0.0860 
 19 C       -5.8920    -9.2080    -0.3990 C.ar  1 <1>   0.1600 
 20 C       -3.6240    -9.4060     0.2590 C.ar  1 <1>  -0.1500 
 21 N       -6.0530   -10.5040    -0.5990 N.ar  1 <1>  -0.6200 
 22 C       -3.7760   -10.7560     0.0580 C.ar  1 <1>  -0.1500 
 23 C       -4.9970   -11.2770    -0.3670 C.ar  1 <1>   0.4100 
 24 N       -5.1470   -12.6350    -0.5600 N.pl3 1 <1>  -0.8380 
 25 C       -4.7520   -13.5980     0.5010 C.3   1 <1>   0.1290 
 26 C       -6.1740   -13.1430    -1.5120 C.3   1 <1>   0.1290 
 27 H       -1.6810    -0.9630     1.4330 H     1 <1>   0.0800 
 28 H       -0.1530    -1.5860     0.8310 H     1 <1>   0.0800 
 29 H       -2.0940     0.8910    -2.0780 H     1 <1>   0.0800 
 30 H       -2.9700     1.2170    -0.6080 H     1 <1>   0.0800 
 31 H       -1.1310    -2.1130    -1.2950 H     1 <1>   0.0800 
 32 H       -3.1530    -1.1630    -2.0990 H     1 <1>   0.0800 
 33 H       -3.7580    -0.8850    -0.4790 H     1 <1>   0.0800 
 34 H       -2.1200    -4.0420    -2.6510 H     1 <1>   0.0800 
 35 H       -1.9550    -5.6910    -2.1220 H     1 <1>   0.0800 
 36 H       -0.6990    -4.5370    -1.7520 H     1 <1>   0.0800 
 37 H       -4.2490    -4.0150     3.3200 H     1 <1>   0.0800 
 38 H       -4.2940    -5.6690     2.7540 H     1 <1>   0.0800 
 39 H       -5.5130    -4.5290     2.2260 H     1 <1>   0.0800 
 40 H       -2.7120    -6.9960    -0.3520 H     1 <1>   0.3700 
 41 H       -6.7530    -8.5860    -0.5800 H     1 <1>   0.1500 
 42 H       -2.6860    -9.0080     0.6000 H     1 <1>   0.1500 
 43 H       -2.9590   -11.4320     0.2200 H     1 <1>   0.1500 
 44 H       -4.2990   -13.0850     1.3310 H     1 <1>   0.0800 
 45 H       -4.0510   -14.3100     0.1010 H     1 <1>   0.0800 
 46 H       -5.6210   -14.1220     0.8610 H     1 <1>   0.0800 
 47 H       -6.2770   -12.4630    -2.3400 H     1 <1>   0.0800 
 48 H       -7.1230   -13.2260    -1.0120 H     1 <1>   0.0800 
 49 H       -5.8810   -14.1060    -1.8920 H     1 <1>   0.0800 
@<TRIPOS>BOND
  1   1   2  2   
  2   1   3  2   
  3   1   4  1   
  4   1   5  1   
  5   4   6  1   
  6   4  27  1   
  7   4  28  1   
  8   5   7  1   
  9   5  29  1   
 10   5  30  1   
 11   6   7  1   
 12   6   8  1   
 13   6  31  1   
 14   7  32  1   
 15   7  33  1   
 16   8   9  1   
 17   8  10  1   
 18   9  11  2   
 19  10  12  2   
 20  10  13  1   
 21  11  12  1   
 22  11  14  1   
 23  12  15  1   
 24  13  34  1   
 25  13  35  1   
 26  13  36  1   
 27  14  37  1   
 28  14  38  1   
 29  14  39  1   
 30  15  16  am  
 31  15  40  1   
 32  16  17  2   
 33  16  18  1   
 34  18  19  ar  
 35  18  20  ar  
 36  19  21  ar  
 37  19  41  1   
 38  20  22  ar  
 39  20  42  1   
 40  21  23  ar  
 41  22  23  ar  
 42  22  43  1   
 43  23  24  1   
 44  24  25  1   
 45  24  26  1   
 46  25  44  1   
 47  25  45  1   
 48  25  46  1   
 49  26  47  1   
 50  26  48  1   
 51  26  49  1   
@<TRIPOS>SUBSTRUCTURE
  1 ****  15 GROUP 4 **** **** 0

# MOE 2024.06 (io_trps.svl 2023.06)
