@<TRIPOS>MOLECULE
NONAME
47 49 1 0 0 
SMALL
USER_CHARGES


@<TRIPOS>ATOM
  1 O        0.6100    -0.2290     0.5460 O.2   1 <1>  -0.5700 
  2 C        0.5620    -1.4300     0.7130 C.2   1 <1>   0.5440 
  3 N       -0.0210    -1.8390     1.8600 N.am  1 <1>  -0.8000 
  4 C        1.1160    -2.3510    -0.2570 C.ar  1 <1>   0.0860 
  5 C        0.6600    -3.6790    -0.4190 C.ar  1 <1>   0.4100 
  6 C        2.1560    -1.9300    -1.0780 C.ar  1 <1>  -0.1500 
  7 N        1.1910    -4.5420    -1.2880 N.ar  1 <1>  -0.6200 
  8 N       -0.4180    -4.1850     0.2910 N.pl3 1 <1>  -0.8380 
  9 C        2.6940    -2.8200    -1.9770 C.ar  1 <1>  -0.1500 
 10 C        2.1820    -4.1020    -2.0360 C.ar  1 <1>   0.1600 
 11 C       -0.3910    -5.6160     0.7560 C.3   1 <1>   0.2090 
 12 C       -1.7820    -3.7790    -0.1750 C.3   1 <1>   0.2090 
 13 C       -1.0960    -6.5700    -0.2320 C.3   1 <1>   0.3430 
 14 C       -2.3870    -4.8270    -1.1410 C.3   1 <1>   0.2000 
 15 O       -2.3820    -6.0930    -0.5390 O.3   1 <1>  -0.5600 
 16 C       -1.2020    -7.9720     0.3600 C.ar  1 <1>  -0.1430 
 17 C       -3.8340    -4.5180    -1.5920 C.3   1 <1>  -0.0800 
 18 C       -2.2550    -8.3280     1.1910 C.ar  1 <1>  -0.1500 
 19 C       -0.2190    -8.9110     0.0790 C.ar  1 <1>  -0.1500 
 20 C       -3.9180    -3.2100    -2.3960 C.3   1 <1>  -0.2400 
 21 C       -4.8470    -4.4790    -0.4350 C.3   1 <1>  -0.2400 
 22 C       -2.3250    -9.5990     1.7330 C.ar  1 <1>  -0.1500 
 23 C       -0.2880   -10.1840     0.6200 C.ar  1 <1>  -0.1500 
 24 C       -1.3410   -10.5280     1.4480 C.ar  1 <1>  -0.1500 
 25 H       -0.4470    -1.1600     2.4890 H     1 <1>   0.3700 
 26 H       -0.2810    -2.8270     1.9590 H     1 <1>   0.3700 
 27 H        2.5320    -0.9230    -1.0030 H     1 <1>   0.1500 
 28 H        3.5010    -2.5280    -2.6240 H     1 <1>   0.1500 
 29 H        2.6110    -4.7970    -2.7380 H     1 <1>   0.1500 
 30 H        0.6270    -5.9380     0.8870 H     1 <1>   0.0800 
 31 H       -0.8780    -5.6870     1.7120 H     1 <1>   0.0800 
 32 H       -2.4230    -3.6620     0.6800 H     1 <1>   0.0800 
 33 H       -1.7210    -2.8280    -0.6740 H     1 <1>   0.0800 
 34 H       -0.5350    -6.6150    -1.1490 H     1 <1>   0.0800 
 35 H       -1.7650    -4.8820    -2.0180 H     1 <1>   0.0800 
 36 H       -4.1230    -5.3160    -2.2550 H     1 <1>   0.0800 
 37 H       -3.0280    -7.6120     1.4130 H     1 <1>   0.1500 
 38 H        0.6050    -8.6560    -0.5640 H     1 <1>   0.1500 
 39 H       -3.7120    -2.3560    -1.7760 H     1 <1>   0.0800 
 40 H       -4.9050    -3.0960    -2.8080 H     1 <1>   0.0800 
 41 H       -3.2150    -3.2260    -3.2100 H     1 <1>   0.0800 
 42 H       -4.6550    -3.6550     0.2280 H     1 <1>   0.0800 
 43 H       -4.8040    -5.3950     0.1290 H     1 <1>   0.0800 
 44 H       -5.8450    -4.3750    -0.8230 H     1 <1>   0.0800 
 45 H       -3.1470    -9.8640     2.3750 H     1 <1>   0.1500 
 46 H        0.4780   -10.9060     0.3950 H     1 <1>   0.1500 
 47 H       -1.3950   -11.5170     1.8690 H     1 <1>   0.1500 
@<TRIPOS>BOND
  1   1   2  2   
  2   2   3  am  
  3   2   4  1   
  4   3  25  1   
  5   3  26  1   
  6   4   5  ar  
  7   4   6  ar  
  8   5   7  ar  
  9   5   8  1   
 10   6   9  ar  
 11   6  27  1   
 12   7  10  ar  
 13   8  11  1   
 14   8  12  1   
 15   9  10  ar  
 16   9  28  1   
 17  10  29  1   
 18  11  13  1   
 19  11  30  1   
 20  11  31  1   
 21  12  14  1   
 22  12  32  1   
 23  12  33  1   
 24  13  15  1   
 25  13  16  1   
 26  13  34  1   
 27  14  15  1   
 28  14  17  1   
 29  14  35  1   
 30  16  18  ar  
 31  16  19  ar  
 32  17  20  1   
 33  17  21  1   
 34  17  36  1   
 35  18  22  ar  
 36  18  37  1   
 37  19  23  ar  
 38  19  38  1   
 39  20  39  1   
 40  20  40  1   
 41  20  41  1   
 42  21  42  1   
 43  21  43  1   
 44  21  44  1   
 45  22  24  ar  
 46  22  45  1   
 47  23  24  ar  
 48  23  46  1   
 49  24  47  1   
@<TRIPOS>SUBSTRUCTURE
  1 ****   8 GROUP 4 **** **** 0

# MOE 2024.06 (io_trps.svl 2023.06)
