@<TRIPOS>MOLECULE
NONAME
46 49 1 0 0 
SMALL
USER_CHARGES


@<TRIPOS>ATOM
  1 S        2.3930     0.5080     1.5370 S.3   1 <1>  -0.0800 
  2 C        1.5770     1.5780     0.4030 C.2   1 <1>  -0.1400 
  3 C        1.6700    -0.9090     0.8000 C.2   1 <1>  -0.1100 
  4 C        0.8160     0.8570    -0.4460 C.2   1 <1>  -0.1500 
  5 C        1.8340     3.0720     0.5500 C.3   1 <1>   0.3800 
  6 C        0.8710    -0.5560    -0.2230 C.2   1 <1>  -0.1500 
  7 O        1.0470     3.7380    -0.3720 O.3   1 <1>  -0.6800 
  8 C        3.3180     3.4500     0.3260 C.3   1 <1>  -0.0800 
  9 C        3.5690     4.9620     0.4830 C.3   1 <1>  -0.1600 
 10 C        3.8760     2.9840    -1.0340 C.3   1 <1>  -0.1600 
 11 C        5.0420     5.3140     0.2600 C.3   1 <1>   0.1100 
 12 C        5.3430     3.3870    -1.1950 C.3   1 <1>   0.1100 
 13 N        5.4820     4.8440    -1.0640 N.3   1 <1>  -0.8100 
 14 C        6.8730     5.2600    -1.3830 C.3   1 <1>   0.2900 
 15 C        7.0670     6.7650    -1.5770 C.2   1 <1>   0.2980 
 16 O        7.1410     7.5430    -0.5350 O.3   1 <1>  -0.2800 
 17 N        7.2070     7.3560    -2.6980 N.2   1 <1>  -0.3380 
 18 C        7.3220     8.7050    -1.1190 C.2   1 <1>   0.4250 
 19 N        7.3710     8.6250    -2.4050 N.2   1 <1>  -0.3380 
 20 C        7.4480     9.9060    -0.3180 C.ar  1 <1>   0.0530 
 21 C        7.6400    11.1540    -0.9150 C.ar  1 <1>  -0.1500 
 22 C        7.3840     9.8710     1.0780 C.ar  1 <1>  -0.1500 
 23 C        7.7630    12.3070    -0.1610 C.ar  1 <1>  -0.1500 
 24 C        7.5070    11.0210     1.8370 C.ar  1 <1>  -0.1500 
 25 C        7.6970    12.2430     1.2180 C.ar  1 <1>  -0.1500 
 26 H        1.9210    -1.8680     1.2180 H     1 <1>   0.1500 
 27 H        0.2030     1.2630    -1.2320 H     1 <1>   0.1500 
 28 H        1.5170     3.3910     1.5280 H     1 <1>   0.0800 
 29 H        0.3080    -1.2340    -0.8400 H     1 <1>   0.1500 
 30 H        1.3720     3.5190    -1.2630 H     1 <1>   0.4000 
 31 H        3.8860     2.9550     1.0930 H     1 <1>   0.0800 
 32 H        3.2760     5.2810     1.4670 H     1 <1>   0.0800 
 33 H        2.9810     5.5150    -0.2290 H     1 <1>   0.0800 
 34 H        3.3160     3.4220    -1.8420 H     1 <1>   0.0800 
 35 H        3.8020     1.9150    -1.1190 H     1 <1>   0.0800 
 36 H        5.6500     4.8690     1.0300 H     1 <1>   0.0800 
 37 H        5.1400     6.3840     0.3220 H     1 <1>   0.0800 
 38 H        5.6800     3.0780    -2.1700 H     1 <1>   0.0800 
 39 H        5.9440     2.8910    -0.4510 H     1 <1>   0.0800 
 40 H        7.1690     4.7880    -2.3030 H     1 <1>   0.0800 
 41 H        7.5400     4.9190    -0.6110 H     1 <1>   0.0800 
 42 H        7.6940    11.2220    -1.9880 H     1 <1>   0.1500 
 43 H        7.2370     8.9320     1.5790 H     1 <1>   0.1500 
 44 H        7.9110    13.2560    -0.6480 H     1 <1>   0.1500 
 45 H        7.4540    10.9670     2.9110 H     1 <1>   0.1500 
 46 H        7.7920    13.1390     1.8070 H     1 <1>   0.1500 
@<TRIPOS>BOND
  1   1   2  1   
  2   1   3  1   
  3   2   4  2   
  4   2   5  1   
  5   3   6  2   
  6   3  26  1   
  7   4   6  1   
  8   4  27  1   
  9   5   7  1   
 10   5   8  1   
 11   5  28  1   
 12   6  29  1   
 13   7  30  1   
 14   8   9  1   
 15   8  10  1   
 16   8  31  1   
 17   9  11  1   
 18   9  32  1   
 19   9  33  1   
 20  10  12  1   
 21  10  34  1   
 22  10  35  1   
 23  11  13  1   
 24  11  36  1   
 25  11  37  1   
 26  12  13  1   
 27  12  38  1   
 28  12  39  1   
 29  13  14  1   
 30  14  15  1   
 31  14  40  1   
 32  14  41  1   
 33  15  16  1   
 34  15  17  2   
 35  16  18  1   
 36  17  19  1   
 37  18  19  2   
 38  18  20  1   
 39  20  21  ar  
 40  20  22  ar  
 41  21  23  ar  
 42  21  42  1   
 43  22  24  ar  
 44  22  43  1   
 45  23  25  ar  
 46  23  44  1   
 47  24  25  ar  
 48  24  45  1   
 49  25  46  1   
@<TRIPOS>SUBSTRUCTURE
  1 ****  11 GROUP 4 **** **** 0

# MOE 2024.06 (io_trps.svl 2023.06)
