@<TRIPOS>MOLECULE
NONAME
40 43 1 0 0 
SMALL
USER_CHARGES


@<TRIPOS>ATOM
  1 S        0.9080     0.2230    -1.1820 S.3   1 <1>  -0.0800 
  2 C        2.3950     1.1160    -0.9330 C.2   1 <1>  -0.1400 
  3 C        0.0400     1.3310    -0.1290 C.2   1 <1>  -0.1100 
  4 C        2.2130     2.1560    -0.1070 C.2   1 <1>  -0.1810 
  5 C        3.6900     0.7080    -1.5950 C.3   1 <1>   0.0200 
  6 C        0.8610     2.2840     0.3530 C.2   1 <1>  -0.1500 
  7 C        3.3510     3.0890     0.2880 C.3   1 <1>   0.3900 
  8 C        4.6630     1.8970    -1.5300 C.3   1 <1>   0.2090 
  9 N        4.6660     2.5250    -0.1690 N.pl3 1 <1>  -0.8380 
 10 C        5.8360     3.0580     0.3410 C.ar  1 <1>   0.4100 
 11 N        5.8010     4.3370     0.6760 N.ar  1 <1>  -0.6200 
 12 C        6.9900     2.2730     0.4860 C.ar  1 <1>   0.1600 
 13 C        6.9660     4.8120     1.1520 C.ar  1 <1>   0.3960 
 14 N        8.1480     2.7030     0.9430 N.ar  1 <1>  -0.6200 
 15 C        7.1020     6.2100     1.5680 C.2   1 <1>   0.5440 
 16 C        8.0890     3.9870     1.2720 C.ar  1 <1>   0.1600 
 17 O        7.9050     6.4900     2.4430 O.2   1 <1>  -0.5700 
 18 N        6.3920     7.2590     1.0110 N.am  1 <1>  -0.6600 
 19 C        5.4840     7.1800    -0.1560 C.3   1 <1>   0.1400 
 20 C        6.5370     8.6570     1.4720 C.3   1 <1>   0.1400 
 21 C        5.2810     8.6260    -0.5890 C.3   1 <1>  -0.1600 
 22 C        5.4960     9.4420     0.6820 C.3   1 <1>  -0.1600 
 23 H       -1.0090     1.1470     0.0200 H     1 <1>   0.1500 
 24 H        3.5160     0.4380    -2.6200 H     1 <1>   0.0800 
 25 H        4.1070    -0.1380    -1.0800 H     1 <1>   0.0800 
 26 H        0.5710     3.0780     1.0190 H     1 <1>   0.1500 
 27 H        3.3680     3.2030     1.3580 H     1 <1>   0.0800 
 28 H        3.1980     4.0560    -0.1590 H     1 <1>   0.0800 
 29 H        4.3510     2.6400    -2.2440 H     1 <1>   0.0800 
 30 H        5.6530     1.5720    -1.8010 H     1 <1>   0.0800 
 31 H        6.9210     1.2380     0.2070 H     1 <1>   0.1500 
 32 H        8.9920     4.4210     1.6650 H     1 <1>   0.1500 
 33 H        4.5490     6.7470     0.1580 H     1 <1>   0.0800 
 34 H        5.9140     6.5860    -0.9450 H     1 <1>   0.0800 
 35 H        7.5310     9.0010     1.2400 H     1 <1>   0.0800 
 36 H        6.3710     8.7280     2.5340 H     1 <1>   0.0800 
 37 H        4.3080     8.7830    -1.0190 H     1 <1>   0.0800 
 38 H        6.0310     8.8810    -1.3180 H     1 <1>   0.0800 
 39 H        5.8250    10.4460     0.4780 H     1 <1>   0.0800 
 40 H        4.5840     9.4810     1.2520 H     1 <1>   0.0800 
@<TRIPOS>BOND
  1   1   2  1   
  2   1   3  1   
  3   2   4  2   
  4   2   5  1   
  5   3   6  2   
  6   3  23  1   
  7   4   6  1   
  8   4   7  1   
  9   5   8  1   
 10   5  24  1   
 11   5  25  1   
 12   6  26  1   
 13   7   9  1   
 14   7  27  1   
 15   7  28  1   
 16   8   9  1   
 17   8  29  1   
 18   8  30  1   
 19   9  10  1   
 20  10  11  ar  
 21  10  12  ar  
 22  11  13  ar  
 23  12  14  ar  
 24  12  31  1   
 25  13  15  1   
 26  13  16  ar  
 27  14  16  ar  
 28  15  17  2   
 29  15  18  am  
 30  16  32  1   
 31  18  19  1   
 32  18  20  1   
 33  19  21  1   
 34  19  33  1   
 35  19  34  1   
 36  20  22  1   
 37  20  35  1   
 38  20  36  1   
 39  21  22  1   
 40  21  37  1   
 41  21  38  1   
 42  22  39  1   
 43  22  40  1   
@<TRIPOS>SUBSTRUCTURE
  1 ****  11 GROUP 4 **** **** 0

# MOE 2024.06 (io_trps.svl 2023.06)
