@<TRIPOS>MOLECULE
NONAME
49 51 1 0 0 
SMALL
USER_CHARGES


@<TRIPOS>ATOM
  1 O       -1.1210    -0.2950     0.0590 O.2   1 <1>  -0.5700 
  2 C       -1.7950     0.6640    -0.2860 C.2   1 <1>   0.7160 
  3 N       -3.1000     0.4100    -0.6480 N.am  1 <1>  -0.6600 
  4 C       -1.2670     2.0090    -0.2820 C.2   1 <1>  -0.0860 
  5 C       -3.5030    -0.9530    -1.0400 C.3   1 <1>   0.1400 
  6 C       -4.2220     1.1480    -0.0160 C.3   1 <1>   0.1400 
  7 C       -0.1390     2.4920     0.3950 C.2   1 <1>   0.1080 
  8 C       -1.7270     3.1180    -0.9280 C.2   1 <1>  -0.3020 
  9 C       -4.0080    -1.6030     0.2610 C.3   1 <1>   0.4230 
 10 C       -4.8870     0.2870     1.0920 C.3   1 <1>  -0.1600 
 11 N        0.0650     3.7540     0.1950 N.2   1 <1>  -0.7070 
 12 C        0.7850     1.6820     1.2800 C.3   1 <1>  -0.0590 
 13 N       -0.9160     4.1410    -0.6280 N.pl3 1 <1>   0.3140 
 14 N       -3.6310    -3.0570     0.4270 N.4   1 <1>  -0.9590 
 15 C       -5.5060    -1.1220     0.5700 C.3   1 <1>   0.0000 
 16 C       -1.0110     5.5270    -1.0980 C.3   1 <1>   0.0160 
 17 C       -4.1280    -3.8960    -0.6780 C.3   1 <1>   0.3430 
 18 C       -2.1500    -3.2050     0.6140 C.3   1 <1>   0.2630 
 19 C       -6.1700    -2.4810    -0.0100 C.3   1 <1>  -0.1600 
 20 C       -6.9750    -0.6170     0.9610 C.3   1 <1>   0.1200 
 21 C       -5.4950    -3.3750    -1.0810 C.3   1 <1>  -0.1600 
 22 O       -7.4450     0.2380    -0.0330 O.3   1 <1>  -0.6800 
 23 H       -4.2830    -0.8910    -1.7780 H     1 <1>   0.0800 
 24 H       -2.6620    -1.4780    -1.4560 H     1 <1>   0.0800 
 25 H       -3.8650     2.0700     0.4130 H     1 <1>   0.0800 
 26 H       -4.9520     1.3970    -0.7690 H     1 <1>   0.0800 
 27 H       -2.5750     3.2130    -1.5800 H     1 <1>   0.1500 
 28 H       -3.3680    -1.1620     1.0030 H     1 <1>   0.0800 
 29 H       -4.1970     0.1500     1.9100 H     1 <1>   0.0800 
 30 H       -5.5510     1.0190     1.5220 H     1 <1>   0.0800 
 31 H        0.2210     1.2000     2.0570 H     1 <1>   0.0800 
 32 H        1.5190     2.3250     1.7310 H     1 <1>   0.0800 
 33 H        1.2900     0.9390     0.6930 H     1 <1>   0.0800 
 34 H       -4.1000    -3.3700     1.2860 H     1 <1>   0.4500 
 35 H       -1.8010     5.6120    -1.8200 H     1 <1>   0.0800 
 36 H       -0.0760     5.8050    -1.5460 H     1 <1>   0.0800 
 37 H       -1.2110     6.1650    -0.2580 H     1 <1>   0.0800 
 38 H       -3.4590    -3.8500    -1.5230 H     1 <1>   0.0800 
 39 H       -4.2010    -4.9220    -0.3520 H     1 <1>   0.0800 
 40 H       -1.6220    -2.8810    -0.2680 H     1 <1>   0.0800 
 41 H       -1.8950    -4.2340     0.8130 H     1 <1>   0.0800 
 42 H       -1.8160    -2.6010     1.4420 H     1 <1>   0.0800 
 43 H       -6.4130    -3.1190     0.8250 H     1 <1>   0.0800 
 44 H       -7.0970    -2.2860    -0.5340 H     1 <1>   0.0800 
 45 H       -7.0360    -0.1120     1.9120 H     1 <1>   0.0800 
 46 H       -7.7320    -1.3750     1.1030 H     1 <1>   0.0800 
 47 H       -5.4060    -2.8300    -2.0050 H     1 <1>   0.0800 
 48 H       -6.1280    -4.2190    -1.2960 H     1 <1>   0.0800 
 49 H       -8.3550     0.5440     0.1640 H     1 <1>   0.4000 
@<TRIPOS>BOND
  1   1   2  2   
  2   2   3  am  
  3   2   4  1   
  4   3   5  1   
  5   3   6  1   
  6   4   7  1   
  7   4   8  2   
  8   5   9  1   
  9   5  23  1   
 10   5  24  1   
 11   6  10  1   
 12   6  25  1   
 13   6  26  1   
 14   7  11  2   
 15   7  12  1   
 16   8  13  1   
 17   8  27  1   
 18   9  14  1   
 19   9  15  1   
 20   9  28  1   
 21  10  15  1   
 22  10  29  1   
 23  10  30  1   
 24  11  13  1   
 25  12  31  1   
 26  12  32  1   
 27  12  33  1   
 28  13  16  1   
 29  14  17  1   
 30  14  18  1   
 31  14  34  1   
 32  15  19  1   
 33  15  20  1   
 34  16  35  1   
 35  16  36  1   
 36  16  37  1   
 37  17  21  1   
 38  17  38  1   
 39  17  39  1   
 40  18  40  1   
 41  18  41  1   
 42  18  42  1   
 43  19  21  1   
 44  19  43  1   
 45  19  44  1   
 46  20  22  1   
 47  20  45  1   
 48  20  46  1   
 49  21  47  1   
 50  21  48  1   
 51  22  49  1   
@<TRIPOS>SUBSTRUCTURE
  1 ****   3 GROUP 4 **** **** 0

# MOE 2024.06 (io_trps.svl 2023.06)
