@<TRIPOS>MOLECULE
NONAME
40 43 1 0 0 
SMALL
USER_CHARGES


@<TRIPOS>ATOM
  1 S       -0.7210    -1.7720     1.7680 S.3   1 <1>  -0.4600 
  2 C       -1.5670    -0.3400     1.0230 C.3   1 <1>   0.2510 
  3 C       -1.8060    -3.0930     1.1500 C.3   1 <1>   0.2510 
  4 C       -2.7370    -0.9690     0.3040 C.2   1 <1>   0.1080 
  5 C       -2.8560    -2.3410     0.3690 C.2   1 <1>  -0.1810 
  6 N       -3.6800    -0.4110    -0.3850 N.2   1 <1>  -0.7070 
  7 C       -3.9640    -2.6460    -0.3450 C.2   1 <1>  -0.0880 
  8 N       -4.4510    -1.4490    -0.7990 N.pl3 1 <1>   0.3140 
  9 N       -4.4840    -3.9500    -0.5370 N.am  1 <1>  -0.4940 
 10 C       -5.6730    -1.1750    -1.5650 C.3   1 <1>   0.0160 
 11 C       -5.2810    -4.5210    -1.4880 C.2   1 <1>   0.5690 
 12 O       -5.7510    -3.9300    -2.4310 O.2   1 <1>  -0.5700 
 13 C       -5.5660    -6.0160    -1.3270 C.3   1 <1>   0.1710 
 14 N       -5.3060    -6.5340     0.0550 N.3   1 <1>  -0.8100 
 15 C       -6.4070    -6.1110     0.9640 C.3   1 <1>   0.2530 
 16 C       -5.3530    -8.0190     0.0420 C.3   1 <1>   0.2530 
 17 C       -7.3930    -7.2490     0.9090 C.ar  1 <1>  -0.1430 
 18 C       -6.7840    -8.3510     0.3760 C.ar  1 <1>  -0.1430 
 19 C       -8.7180    -7.2880     1.3010 C.ar  1 <1>  -0.1500 
 20 C       -7.4770    -9.5370     0.2140 C.ar  1 <1>  -0.1500 
 21 C       -9.4250    -8.4700     1.1430 C.ar  1 <1>  -0.1500 
 22 C       -8.8070    -9.5900     0.6020 C.ar  1 <1>  -0.1500 
 23 H       -0.8900     0.1430     0.3430 H     1 <1>   0.0800 
 24 H       -1.8830     0.3200     1.8090 H     1 <1>   0.0800 
 25 H       -2.2150    -3.6150     1.9970 H     1 <1>   0.0800 
 26 H       -1.2190    -3.7440     0.5260 H     1 <1>   0.0800 
 27 H       -4.1870    -4.6530     0.1480 H     1 <1>   0.3700 
 28 H       -5.9290    -0.1370    -1.4640 H     1 <1>   0.0800 
 29 H       -6.4730    -1.7820    -1.1890 H     1 <1>   0.0800 
 30 H       -5.4950    -1.4010    -2.5990 H     1 <1>   0.0800 
 31 H       -4.9280    -6.5280    -2.0250 H     1 <1>   0.0800 
 32 H       -6.5860    -6.2100    -1.6120 H     1 <1>   0.0800 
 33 H       -6.8560    -5.1810     0.6590 H     1 <1>   0.0800 
 34 H       -6.0300    -6.0140     1.9680 H     1 <1>   0.0800 
 35 H       -4.7080    -8.4060     0.8130 H     1 <1>   0.0800 
 36 H       -5.0570    -8.4290    -0.9080 H     1 <1>   0.0800 
 37 H       -9.1950    -6.4190     1.7190 H     1 <1>   0.1500 
 38 H       -6.9960   -10.4020    -0.2050 H     1 <1>   0.1500 
 39 H      -10.4570    -8.5210     1.4420 H     1 <1>   0.1500 
 40 H       -9.3630   -10.5030     0.4840 H     1 <1>   0.1500 
@<TRIPOS>BOND
  1   1   2  1   
  2   1   3  1   
  3   2   4  1   
  4   2  23  1   
  5   2  24  1   
  6   3   5  1   
  7   3  25  1   
  8   3  26  1   
  9   4   5  1   
 10   4   6  2   
 11   5   7  2   
 12   6   8  1   
 13   7   8  1   
 14   7   9  1   
 15   8  10  1   
 16   9  11  am  
 17   9  27  1   
 18  10  28  1   
 19  10  29  1   
 20  10  30  1   
 21  11  12  2   
 22  11  13  1   
 23  13  14  1   
 24  13  31  1   
 25  13  32  1   
 26  14  15  1   
 27  14  16  1   
 28  15  17  1   
 29  15  33  1   
 30  15  34  1   
 31  16  18  1   
 32  16  35  1   
 33  16  36  1   
 34  17  18  ar  
 35  17  19  ar  
 36  18  20  ar  
 37  19  21  ar  
 38  19  37  1   
 39  20  22  ar  
 40  20  38  1   
 41  21  22  ar  
 42  21  39  1   
 43  22  40  1   
@<TRIPOS>SUBSTRUCTURE
  1 ****   9 GROUP 4 **** **** 0

# MOE 2024.06 (io_trps.svl 2023.06)
