@<TRIPOS>MOLECULE
NONAME
48 50 1 0 0 
SMALL
USER_CHARGES


@<TRIPOS>ATOM
  1 O        3.4400    -1.3330    -1.0560 O.2   1 <1>  -0.5700 
  2 C        3.0460    -1.5140     0.0820 C.2   1 <1>   0.7030 
  3 N        3.7490    -0.8820     1.0900 N.am  1 <1>  -0.6600 
  4 C        1.8810    -2.3590     0.3410 C.2   1 <1>   0.2770 
  5 C        5.2380    -0.7400     0.9720 C.3   1 <1>   0.1400 
  6 C        3.0810    -0.1090     2.1720 C.3   1 <1>   0.1400 
  7 N        0.8830    -2.7490    -0.5620 N.pl3 1 <1>  -0.7640 
  8 C        1.5480    -2.9520     1.5180 C.2   1 <1>   0.2000 
  9 C        5.6420     0.3940     0.0110 C.3   1 <1>   0.3430 
 10 C        3.5510     1.3520     2.2240 C.3   1 <1>  -0.1600 
 11 C        0.0210    -3.5260     0.0790 C.cat 1 <1>   0.6500 
 12 C        0.8430    -2.3850    -2.0100 C.3   1 <1>   0.2740 
 13 N        0.3940    -3.6610     1.3420 N.pl3 1 <1>  -0.7000 
 14 N        5.2730     1.7730     0.4900 N.4   1 <1>  -0.9590 
 15 C        3.8450     1.9810     0.8580 C.3   1 <1>   0.3430 
 16 C        5.7640     2.7940    -0.4810 C.3   1 <1>   0.5230 
 17 C        7.2690     2.9330    -0.3050 C.2   1 <1>   0.0060 
 18 N        7.9060     2.4840     0.7230 N.2   1 <1>  -0.3380 
 19 N        8.1010     3.5230    -1.1690 N.pl3 1 <1>   0.0330 
 20 N        9.1910     2.7700     0.5410 N.2   1 <1>  -0.3380 
 21 C        9.2900     3.3890    -0.5840 C.2   1 <1>   0.0060 
 22 C       10.5920     3.9000    -1.1770 C.3   1 <1>   0.0200 
 23 C       10.5930     5.4270    -1.3050 C.3   1 <1>  -0.2400 
 24 H        5.6400    -1.6620     0.5850 H     1 <1>   0.0800 
 25 H        5.6810    -0.5820     1.9410 H     1 <1>   0.0800 
 26 H        3.2720    -0.5810     3.1230 H     1 <1>   0.0800 
 27 H        2.0160    -0.1170     2.0090 H     1 <1>   0.0800 
 28 H        2.0760    -2.9120     2.4580 H     1 <1>   0.1500 
 29 H        5.1890     0.2070    -0.9490 H     1 <1>   0.0800 
 30 H        6.7110     0.3480    -0.1230 H     1 <1>   0.0800 
 31 H        4.4060     1.4430     2.8710 H     1 <1>   0.0800 
 32 H        2.7640     1.9190     2.6890 H     1 <1>   0.0800 
 33 H       -0.8540    -3.9870    -0.3620 H     1 <1>   0.1500 
 34 H        0.8390    -1.3130    -2.1210 H     1 <1>   0.0800 
 35 H       -0.0400    -2.7850    -2.4780 H     1 <1>   0.0800 
 36 H        1.7100    -2.7810    -2.5120 H     1 <1>   0.0800 
 37 H       -0.0940    -4.2180     2.0540 H     1 <1>   0.4500 
 38 H        5.8660     1.9520     1.3190 H     1 <1>   0.4500 
 39 H        3.6530     3.0400     0.9300 H     1 <1>   0.0800 
 40 H        3.1940     1.5700     0.1030 H     1 <1>   0.0800 
 41 H        5.3050     3.7480    -0.2780 H     1 <1>   0.0800 
 42 H        5.5250     2.4990    -1.4890 H     1 <1>   0.0800 
 43 H        7.9170     3.9810    -2.0660 H     1 <1>   0.2700 
 44 H       10.7520     3.4490    -2.1400 H     1 <1>   0.0800 
 45 H       11.4060     3.6010    -0.5370 H     1 <1>   0.0800 
 46 H        9.8250     5.7590    -1.9800 H     1 <1>   0.0800 
 47 H       11.5450     5.7620    -1.6790 H     1 <1>   0.0800 
 48 H       10.4300     5.8770    -0.3410 H     1 <1>   0.0800 
@<TRIPOS>BOND
  1   1   2  2   
  2   2   3  am  
  3   2   4  1   
  4   3   5  1   
  5   3   6  1   
  6   4   7  1   
  7   4   8  2   
  8   5   9  1   
  9   5  24  1   
 10   5  25  1   
 11   6  10  1   
 12   6  26  1   
 13   6  27  1   
 14   7  11  ar  
 15   7  12  1   
 16   8  13  1   
 17   8  28  1   
 18   9  14  1   
 19   9  29  1   
 20   9  30  1   
 21  10  15  1   
 22  10  31  1   
 23  10  32  1   
 24  11  13  ar  
 25  11  33  1   
 26  12  34  1   
 27  12  35  1   
 28  12  36  1   
 29  13  37  1   
 30  14  15  1   
 31  14  16  1   
 32  14  38  1   
 33  15  39  1   
 34  15  40  1   
 35  16  17  1   
 36  16  41  1   
 37  16  42  1   
 38  17  18  2   
 39  17  19  1   
 40  18  20  1   
 41  19  21  1   
 42  19  43  1   
 43  20  21  2   
 44  21  22  1   
 45  22  23  1   
 46  22  44  1   
 47  22  45  1   
 48  23  46  1   
 49  23  47  1   
 50  23  48  1   
@<TRIPOS>SUBSTRUCTURE
  1 ****   9 GROUP 4 **** **** 0

# MOE 2024.06 (io_trps.svl 2023.06)
