@<TRIPOS>MOLECULE
NONAME
49 51 1 0 0 
SMALL
USER_CHARGES


@<TRIPOS>ATOM
  1 F        0.0960    -1.4390     1.0360 F     1 <1>  -0.1900 
  2 C       -0.6600    -2.4360     0.6510 C.ar  1 <1>   0.1900 
  3 C       -0.1290    -3.6880     0.3240 C.ar  1 <1>   0.0830 
  4 C       -2.0170    -2.1860     0.5800 C.ar  1 <1>  -0.1500 
  5 O        1.1840    -4.0580     0.3550 O.3   1 <1>  -0.3630 
  6 C       -1.0140    -4.6770    -0.0750 C.ar  1 <1>  -0.1500 
  7 C       -2.8710    -3.1960     0.1770 C.ar  1 <1>  -0.1500 
  8 C        2.2140    -3.1970     0.7870 C.3   1 <1>   0.0400 
  9 C       -2.3920    -4.4650    -0.1560 C.ar  1 <1>   0.0530 
 10 C       -3.2770    -5.5270    -0.5720 C.2   1 <1>   0.0870 
 11 O       -2.8240    -6.5220    -1.3020 O.3   1 <1>  -0.0190 
 12 C       -4.5950    -5.7740    -0.3600 C.2   1 <1>  -0.2330 
 13 N       -3.7460    -7.4040    -1.5920 N.2   1 <1>  -0.4100 
 14 C       -4.8210    -6.9680    -1.0400 C.2   1 <1>   0.3720 
 15 C       -5.5870    -5.0650     0.3740 C.2   1 <1>   1.0330 
 16 N       -6.0360    -7.6580    -1.1380 N.pl3 1 <1>  -0.8210 
 17 O       -6.1410    -4.0680    -0.1140 O.co2 1 <1>  -0.9000 
 18 O       -5.9600    -5.4830     1.4850 O.co2 1 <1>  -0.9000 
 19 C       -6.6080    -8.0260     0.2010 C.3   1 <1>   0.2090 
 20 C       -7.0110    -6.8960    -1.9750 C.3   1 <1>   0.1290 
 21 C       -7.0070    -9.5120     0.2600 C.3   1 <1>   0.3430 
 22 N       -5.8550   -10.4820     0.3680 N.4   1 <1>  -0.9590 
 23 C       -4.7410   -10.2070    -0.6110 C.3   1 <1>   0.3430 
 24 C       -6.2980   -11.9090     0.2830 C.3   1 <1>   0.3430 
 25 C       -3.7110   -11.3530    -0.6770 C.3   1 <1>   0.1200 
 26 C       -5.1130   -12.8950     0.4180 C.3   1 <1>   0.1200 
 27 O       -3.8750   -12.2380     0.3990 O.3   1 <1>  -0.5600 
 28 H       -2.4030    -1.2160     0.8360 H     1 <1>   0.1500 
 29 H       -0.6150    -5.6420    -0.3270 H     1 <1>   0.1500 
 30 H       -3.9260    -2.9890     0.1180 H     1 <1>   0.1500 
 31 H        3.1430    -3.7370     0.7410 H     1 <1>   0.0800 
 32 H        2.0160    -2.8960     1.8010 H     1 <1>   0.0800 
 33 H        2.2560    -2.3450     0.1320 H     1 <1>   0.0800 
 34 H       -7.4720    -7.4150     0.4070 H     1 <1>   0.0800 
 35 H       -5.8950    -7.8380     0.9850 H     1 <1>   0.0800 
 36 H       -6.5260    -6.5430    -2.8700 H     1 <1>   0.0800 
 37 H       -7.3890    -6.0400    -1.4370 H     1 <1>   0.0800 
 38 H       -7.8340    -7.5270    -2.2560 H     1 <1>   0.0800 
 39 H       -7.5830    -9.7290    -0.6230 H     1 <1>   0.0800 
 40 H       -7.6500    -9.6460     1.1130 H     1 <1>   0.0800 
 41 H       -5.4040   -10.3660     1.2860 H     1 <1>   0.4500 
 42 H       -4.2250    -9.3130    -0.3060 H     1 <1>   0.0800 
 43 H       -5.1370   -10.0170    -1.5950 H     1 <1>   0.0800 
 44 H       -6.7780   -12.0780    -0.6670 H     1 <1>   0.0800 
 45 H       -7.0210   -12.1210     1.0530 H     1 <1>   0.0800 
 46 H       -2.7130   -10.9500    -0.6330 H     1 <1>   0.0800 
 47 H       -3.8130   -11.9020    -1.5970 H     1 <1>   0.0800 
 48 H       -5.1290   -13.6160    -0.3820 H     1 <1>   0.0800 
 49 H       -5.1800   -13.4280     1.3500 H     1 <1>   0.0800 
@<TRIPOS>BOND
  1   1   2  1   
  2   2   3  ar  
  3   2   4  ar  
  4   3   5  1   
  5   3   6  ar  
  6   4   7  ar  
  7   4  28  1   
  8   5   8  1   
  9   6   9  ar  
 10   6  29  1   
 11   7   9  ar  
 12   7  30  1   
 13   8  31  1   
 14   8  32  1   
 15   8  33  1   
 16   9  10  1   
 17  10  11  1   
 18  10  12  2   
 19  11  13  1   
 20  12  14  1   
 21  12  15  1   
 22  13  14  2   
 23  14  16  1   
 24  15  17  ar  
 25  15  18  ar  
 26  16  19  1   
 27  16  20  1   
 28  19  21  1   
 29  19  34  1   
 30  19  35  1   
 31  20  36  1   
 32  20  37  1   
 33  20  38  1   
 34  21  22  1   
 35  21  39  1   
 36  21  40  1   
 37  22  23  1   
 38  22  24  1   
 39  22  41  1   
 40  23  25  1   
 41  23  42  1   
 42  23  43  1   
 43  24  26  1   
 44  24  44  1   
 45  24  45  1   
 46  25  27  1   
 47  25  46  1   
 48  25  47  1   
 49  26  27  1   
 50  26  48  1   
 51  26  49  1   
@<TRIPOS>SUBSTRUCTURE
  1 ****  10 GROUP 4 **** **** 0

# MOE 2024.06 (io_trps.svl 2023.06)
