@<TRIPOS>MOLECULE
NONAME
48 50 1 0 0 
SMALL
USER_CHARGES


@<TRIPOS>ATOM
  1 S        0.8260    -1.5790     2.7470 S.3   1 <1>  -0.0800 
  2 C        1.1370    -1.7320     1.0290 C.2   1 <1>   0.1980 
  3 C        1.3500     0.0770     2.6650 C.2   1 <1>  -0.1100 
  4 N        1.5730    -0.6720     0.4770 N.2   1 <1>  -0.5650 
  5 C        0.8580    -3.0690     0.3810 C.3   1 <1>   0.0200 
  6 C        1.6980     0.3560     1.4000 C.2   1 <1>   0.0770 
  7 C       -0.6390    -3.2230     0.1190 C.3   1 <1>   0.1400 
  8 N       -0.9050    -4.4930    -0.5990 N.am  1 <1>  -0.7300 
  9 C       -1.0670    -5.6950     0.0130 C.2   1 <1>   0.5690 
 10 O       -0.9750    -5.8070     1.2110 O.2   1 <1>  -0.5700 
 11 C       -1.3470    -6.9250    -0.8490 C.3   1 <1>  -0.0190 
 12 C       -2.4890    -7.7850    -0.2740 C.3   1 <1>  -0.1600 
 13 C       -0.0760    -7.7770    -1.0170 C.3   1 <1>  -0.1600 
 14 C       -2.7330    -9.0430    -1.1110 C.3   1 <1>   0.1400 
 15 C       -0.3390    -9.0270    -1.8600 C.3   1 <1>   0.1400 
 16 N       -1.4610    -9.8020    -1.2640 N.am  1 <1>  -0.6600 
 17 C       -1.3100   -11.1210    -0.8820 C.2   1 <1>   0.5440 
 18 O       -0.2570   -11.6900    -1.1030 O.2   1 <1>  -0.5700 
 19 C       -2.3830   -11.8460    -0.2280 C.ar  1 <1>   0.0860 
 20 C       -2.5240   -11.8740     1.1640 C.ar  1 <1>  -0.1430 
 21 C       -3.3220   -12.5310    -0.9980 C.ar  1 <1>  -0.1500 
 22 C       -3.5820   -12.5530     1.7460 C.ar  1 <1>  -0.1500 
 23 C       -1.5100   -11.1630     2.0520 C.3   1 <1>  -0.0970 
 24 C       -4.3750   -13.2090    -0.4150 C.ar  1 <1>  -0.1500 
 25 C       -4.5080   -13.2180     0.9610 C.ar  1 <1>  -0.1500 
 26 H        1.3420     0.6590     3.5680 H     1 <1>   0.1500 
 27 H        1.2020    -3.8570     1.0260 H     1 <1>   0.0800 
 28 H        1.3950    -3.1170    -0.5490 H     1 <1>   0.0800 
 29 H        2.0630     1.3050     1.0440 H     1 <1>   0.1500 
 30 H       -0.9960    -2.3950    -0.4700 H     1 <1>   0.0800 
 31 H       -1.1700    -3.2240     1.0570 H     1 <1>   0.0800 
 32 H       -0.9510    -4.4280    -1.6170 H     1 <1>   0.3700 
 33 H       -1.6520    -6.5860    -1.8230 H     1 <1>   0.0800 
 34 H       -3.3930    -7.2030    -0.2320 H     1 <1>   0.0800 
 35 H       -2.2500    -8.0810     0.7330 H     1 <1>   0.0800 
 36 H        0.2860    -8.0830    -0.0490 H     1 <1>   0.0800 
 37 H        0.6970    -7.1920    -1.4820 H     1 <1>   0.0800 
 38 H       -3.0920    -8.7680    -2.0880 H     1 <1>   0.0800 
 39 H       -3.4910    -9.6420    -0.6370 H     1 <1>   0.0800 
 40 H        0.5580    -9.6220    -1.9050 H     1 <1>   0.0800 
 41 H       -0.6020    -8.7480    -2.8660 H     1 <1>   0.0800 
 42 H       -3.2140   -12.5270    -2.0680 H     1 <1>   0.1500 
 43 H       -3.6930   -12.5730     2.8160 H     1 <1>   0.1500 
 44 H       -0.5250   -11.5540     1.8660 H     1 <1>   0.0800 
 45 H       -1.7390   -11.3010     3.0930 H     1 <1>   0.0800 
 46 H       -1.5060   -10.1090     1.8410 H     1 <1>   0.0800 
 47 H       -5.0890   -13.7310    -1.0280 H     1 <1>   0.1500 
 48 H       -5.3260   -13.7440     1.4210 H     1 <1>   0.1500 
@<TRIPOS>BOND
  1   1   2  1   
  2   1   3  1   
  3   2   4  2   
  4   2   5  1   
  5   3   6  2   
  6   3  26  1   
  7   4   6  1   
  8   5   7  1   
  9   5  27  1   
 10   5  28  1   
 11   6  29  1   
 12   7   8  1   
 13   7  30  1   
 14   7  31  1   
 15   8   9  am  
 16   8  32  1   
 17   9  10  2   
 18   9  11  1   
 19  11  12  1   
 20  11  13  1   
 21  11  33  1   
 22  12  14  1   
 23  12  34  1   
 24  12  35  1   
 25  13  15  1   
 26  13  36  1   
 27  13  37  1   
 28  14  16  1   
 29  14  38  1   
 30  14  39  1   
 31  15  16  1   
 32  15  40  1   
 33  15  41  1   
 34  16  17  am  
 35  17  18  2   
 36  17  19  1   
 37  19  20  ar  
 38  19  21  ar  
 39  20  22  ar  
 40  20  23  1   
 41  21  24  ar  
 42  21  42  1   
 43  22  25  ar  
 44  22  43  1   
 45  23  44  1   
 46  23  45  1   
 47  23  46  1   
 48  24  25  ar  
 49  24  47  1   
 50  25  48  1   
@<TRIPOS>SUBSTRUCTURE
  1 ****  11 GROUP 4 **** **** 0

# MOE 2024.06 (io_trps.svl 2023.06)
