@<TRIPOS>MOLECULE
NONAME
49 52 1 0 0 
SMALL
USER_CHARGES


@<TRIPOS>ATOM
  1 O       -1.7200    -1.4560    -2.3430 O.2   1 <1>  -0.5700 
  2 C       -2.2290    -0.7010    -1.4830 C.2   1 <1>   0.5410 
  3 C       -3.0600    -1.1600    -0.4170 C.2   1 <1>   0.0140 
  4 C       -1.9440     0.6760    -1.6050 C.2   1 <1>  -0.1360 
  5 C       -3.4020    -2.5340    -0.2180 C.2   1 <1>   0.2710 
  6 C       -3.5470    -0.1670     0.4620 C.2   1 <1>  -0.1500 
  7 C       -2.4410     1.5970    -0.7270 C.2   1 <1>  -0.1500 
  8 N       -4.2070    -2.8890     0.7900 N.2   1 <1>  -0.6210 
  9 N       -2.9140    -3.4930    -1.0580 N.pl3 1 <1>  -0.6000 
 10 C       -3.2550     1.1670     0.3210 C.2   1 <1>  -0.1500 
 11 C       -4.4990    -4.1660     0.9420 C.2   1 <1>   0.4860 
 12 C       -3.1800    -4.8090    -0.9300 C.2   1 <1>  -0.0380 
 13 N       -5.3570    -4.4180     1.9490 N.pl3 1 <1>  -0.8190 
 14 C       -3.9830    -5.1670     0.0980 C.2   1 <1>  -0.1360 
 15 C       -2.5800    -5.7770    -1.9260 C.3   1 <1>  -0.1020 
 16 C       -6.1260    -5.6500     2.1970 C.3   1 <1>   0.3040 
 17 C       -7.4550    -5.6580     1.3970 C.3   1 <1>  -0.1900 
 18 C       -7.9090    -4.4950     0.5490 C.3   1 <1>  -0.2000 
 19 C       -8.5200    -4.7180     1.8940 C.3   1 <1>  -0.2000 
 20 C       -7.8920    -7.0700     0.9570 C.3   1 <1>   0.1910 
 21 N       -6.8220    -7.8050     0.2390 N.pl3 1 <1>   0.0480 
 22 C       -6.2630    -7.5810    -0.9790 C.2   1 <1>   0.0060 
 23 C       -6.1640    -8.8790     0.7190 C.2   1 <1>  -0.3020 
 24 N       -5.3220    -8.4160    -1.2800 N.2   1 <1>  -0.5650 
 25 C       -6.6730    -6.4620    -1.9160 C.3   1 <1>  -0.0600 
 26 C       -5.2590    -9.2340    -0.2160 C.2   1 <1>   0.0770 
 27 H       -1.3150     0.9700    -2.4230 H     1 <1>   0.1500 
 28 H       -4.1760    -0.4670     1.2820 H     1 <1>   0.1500 
 29 H       -2.2180     2.6460    -0.8290 H     1 <1>   0.1500 
 30 H       -2.3060    -3.1520    -1.8200 H     1 <1>   0.4000 
 31 H       -3.6480     1.8900     1.0160 H     1 <1>   0.1500 
 32 H       -5.6950    -3.5830     2.4260 H     1 <1>   0.4000 
 33 H       -4.2310    -6.1940     0.2650 H     1 <1>   0.1500 
 34 H       -2.8940    -5.5190    -2.9210 H     1 <1>   0.0800 
 35 H       -2.9020    -6.7820    -1.7150 H     1 <1>   0.0800 
 36 H       -1.5070    -5.7390    -1.8740 H     1 <1>   0.0800 
 37 H       -6.3400    -5.7230     3.2490 H     1 <1>   0.0800 
 38 H       -5.5110    -6.4940     1.9470 H     1 <1>   0.0800 
 39 H       -8.5280    -4.6670    -0.3140 H     1 <1>   0.1000 
 40 H       -7.2770    -3.6330     0.4110 H     1 <1>   0.1000 
 41 H       -8.2880    -4.0040     2.6660 H     1 <1>   0.1000 
 42 H       -9.5440    -5.0470     1.9400 H     1 <1>   0.1000 
 43 H       -8.7520    -7.0110     0.3150 H     1 <1>   0.0800 
 44 H       -8.1680    -7.6420     1.8240 H     1 <1>   0.0800 
 45 H       -6.3670    -9.3270     1.6740 H     1 <1>   0.1500 
 46 H       -7.7400    -6.4420    -2.0340 H     1 <1>   0.0800 
 47 H       -6.2240    -6.6150    -2.8800 H     1 <1>   0.0800 
 48 H       -6.3330    -5.5180    -1.5340 H     1 <1>   0.0800 
 49 H       -4.5560   -10.0500    -0.1820 H     1 <1>   0.1500 
@<TRIPOS>BOND
  1   1   2  2   
  2   2   3  1   
  3   2   4  1   
  4   3   5  2   
  5   3   6  1   
  6   4   7  2   
  7   4  27  1   
  8   5   8  1   
  9   5   9  1   
 10   6  10  2   
 11   6  28  1   
 12   7  10  1   
 13   7  29  1   
 14   8  11  2   
 15   9  12  1   
 16   9  30  1   
 17  10  31  1   
 18  11  13  1   
 19  11  14  1   
 20  12  14  2   
 21  12  15  1   
 22  13  16  1   
 23  13  32  1   
 24  14  33  1   
 25  15  34  1   
 26  15  35  1   
 27  15  36  1   
 28  16  17  1   
 29  16  37  1   
 30  16  38  1   
 31  17  18  1   
 32  17  19  1   
 33  17  20  1   
 34  18  19  1   
 35  18  39  1   
 36  18  40  1   
 37  19  41  1   
 38  19  42  1   
 39  20  21  1   
 40  20  43  1   
 41  20  44  1   
 42  21  22  1   
 43  21  23  1   
 44  22  24  2   
 45  22  25  1   
 46  23  26  2   
 47  23  45  1   
 48  24  26  1   
 49  25  46  1   
 50  25  47  1   
 51  25  48  1   
 52  26  49  1   
@<TRIPOS>SUBSTRUCTURE
  1 ****  11 GROUP 4 **** **** 0

# MOE 2024.06 (io_trps.svl 2023.06)
