@<TRIPOS>MOLECULE
NONAME
51 55 1 0 0 
SMALL
USER_CHARGES


@<TRIPOS>ATOM
  1 O        0.1320     0.7480     0.2010 O.2   1 <1>  -0.5700 
  2 C       -0.6710     1.5640    -0.1890 C.2   1 <1>   0.5690 
  3 N       -2.0030     1.4640     0.1410 N.am  1 <1>  -0.6600 
  4 C       -0.1780     2.7100    -1.0720 C.3   1 <1>  -0.0040 
  5 C       -3.0930     2.3750    -0.3350 C.3   1 <1>   0.1400 
  6 C       -2.4970     0.3760     1.0360 C.3   1 <1>   0.1400 
  7 C        1.3500     2.8850    -1.1170 C.3   1 <1>  -0.1950 
  8 C       -3.8150     3.0370     0.8540 C.3   1 <1>   0.1430 
  9 C       -3.2280     0.9810     2.2420 C.3   1 <1>  -0.1600 
 10 C        2.0580     3.7050    -0.0860 C.3   1 <1>  -0.2000 
 11 C        1.9670     4.1910    -1.5060 C.3   1 <1>  -0.2000 
 12 C       -4.9210     3.9210     0.3100 C.ar  1 <1>   0.1670 
 13 C       -4.3470     1.9460     1.8090 C.3   1 <1>  -0.1600 
 14 C       -2.9040     4.0580     1.5920 C.3   1 <1>  -0.1600 
 15 N       -6.0400     3.4950    -0.2240 N.ar  1 <1>  -0.6200 
 16 C       -4.6100     5.2410     0.4200 C.ar  1 <1>  -0.1440 
 17 C       -3.2550     5.4530     1.0470 C.3   1 <1>  -0.0170 
 18 C       -6.8870     4.4440    -0.6470 C.ar  1 <1>   0.6200 
 19 C       -5.5250     6.1520    -0.0390 C.ar  1 <1>   0.1600 
 20 N       -6.6620     5.7650    -0.5710 N.ar  1 <1>  -0.6200 
 21 C       -8.1460     4.0070    -1.2370 C.ar  1 <1>   0.0000 
 22 C       -8.2720     2.7610    -1.8610 C.ar  1 <1>  -0.1500 
 23 C       -9.2890     4.8120    -1.2080 C.ar  1 <1>  -0.1500 
 24 C       -9.4650     2.3430    -2.4210 C.ar  1 <1>  -0.1500 
 25 C      -10.4860     4.4010    -1.7660 C.ar  1 <1>  -0.1500 
 26 C      -10.5770     3.1640    -2.3750 C.ar  1 <1>  -0.1500 
 27 H       -0.6080     3.6280    -0.7210 H     1 <1>   0.0800 
 28 H       -0.5300     2.5320    -2.0710 H     1 <1>   0.0800 
 29 H       -3.8060     1.7910    -0.8920 H     1 <1>   0.0800 
 30 H       -2.7180     3.1330    -0.9970 H     1 <1>   0.0800 
 31 H       -1.6820    -0.2360     1.3830 H     1 <1>   0.0800 
 32 H       -3.1690    -0.2540     0.4790 H     1 <1>   0.0800 
 33 H        1.8510     1.9890    -1.4460 H     1 <1>   0.1000 
 34 H       -2.5110     1.4960     2.8570 H     1 <1>   0.0800 
 35 H       -3.6480     0.1860     2.8320 H     1 <1>   0.0800 
 36 H        3.0020     3.3450     0.2870 H     1 <1>   0.1000 
 37 H        1.4800     4.2010     0.6750 H     1 <1>   0.1000 
 38 H        1.3340     5.0350    -1.7190 H     1 <1>   0.1000 
 39 H        2.8570     4.1810    -2.1110 H     1 <1>   0.1000 
 40 H       -5.1100     1.3810     1.3000 H     1 <1>   0.0800 
 41 H       -4.8040     2.3960     2.6720 H     1 <1>   0.0800 
 42 H       -1.8570     3.8370     1.4820 H     1 <1>   0.0800 
 43 H       -3.1350     4.0470     2.6430 H     1 <1>   0.0800 
 44 H       -2.5490     5.7570     0.2930 H     1 <1>   0.0800 
 45 H       -3.2890     6.1870     1.8330 H     1 <1>   0.0800 
 46 H       -5.3250     7.2080     0.0270 H     1 <1>   0.1500 
 47 H       -7.4190     2.1070    -1.9080 H     1 <1>   0.1500 
 48 H       -9.2390     5.7790    -0.7370 H     1 <1>   0.1500 
 49 H       -9.5290     1.3780    -2.8930 H     1 <1>   0.1500 
 50 H      -11.3460     5.0460    -1.7270 H     1 <1>   0.1500 
 51 H      -11.5070     2.8410    -2.8110 H     1 <1>   0.1500 
@<TRIPOS>BOND
  1   1   2  2   
  2   2   3  am  
  3   2   4  1   
  4   3   5  1   
  5   3   6  1   
  6   4   7  1   
  7   4  27  1   
  8   4  28  1   
  9   5   8  1   
 10   5  29  1   
 11   5  30  1   
 12   6   9  1   
 13   6  31  1   
 14   6  32  1   
 15   7  10  1   
 16   7  11  1   
 17   7  33  1   
 18   8  12  1   
 19   8  13  1   
 20   8  14  1   
 21   9  13  1   
 22   9  34  1   
 23   9  35  1   
 24  10  11  1   
 25  10  36  1   
 26  10  37  1   
 27  11  38  1   
 28  11  39  1   
 29  12  15  ar  
 30  12  16  ar  
 31  13  40  1   
 32  13  41  1   
 33  14  17  1   
 34  14  42  1   
 35  14  43  1   
 36  15  18  ar  
 37  16  17  1   
 38  16  19  ar  
 39  17  44  1   
 40  17  45  1   
 41  18  20  ar  
 42  18  21  1   
 43  19  20  ar  
 44  19  46  1   
 45  21  22  ar  
 46  21  23  ar  
 47  22  24  ar  
 48  22  47  1   
 49  23  25  ar  
 50  23  48  1   
 51  24  26  ar  
 52  24  49  1   
 53  25  26  ar  
 54  25  50  1   
 55  26  51  1   
@<TRIPOS>SUBSTRUCTURE
  1 ****  12 GROUP 4 **** **** 0

# MOE 2024.06 (io_trps.svl 2023.06)
