@<TRIPOS>MOLECULE
NONAME
36 36 1 0 0 
SMALL
USER_CHARGES


@<TRIPOS>ATOM
  1 S        1.1070     0.6910    -1.5900 S.3   1 <1>  -0.4600 
  2 C        1.3280     1.4060     0.0660 C.3   1 <1>   0.4410 
  3 C        2.0640    -0.8450    -1.5230 C.3   1 <1>   0.0700 
  4 S        0.5880     0.1890     1.1960 S.3   1 <1>  -0.4600 
  5 C        0.6480     2.7680     0.1870 C.2   1 <1>   0.4480 
  6 C        1.4420    -1.7860    -0.4870 C.3   1 <1>  -0.1600 
  7 C        1.6040    -1.2910     0.9530 C.3   1 <1>   0.0700 
  8 O        1.2690     3.7560     0.4750 O.2   1 <1>  -0.5700 
  9 C       -0.8590     2.8140    -0.0670 C.3   1 <1>   0.2010 
 10 N       -1.3820     4.2030     0.0260 N.am  1 <1>  -0.7300 
 11 C       -2.5080     4.6550    -0.5700 C.2   1 <1>   0.7800 
 12 O       -3.2860     3.8950    -1.1000 O.2   1 <1>  -0.5700 
 13 O       -2.7870     5.9580    -0.5960 O.3   1 <1>  -0.4300 
 14 C       -2.0350     7.0580    -0.1320 C.3   1 <1>   0.2800 
 15 C       -2.8740     8.2860    -0.4870 C.3   1 <1>  -0.2400 
 16 C       -0.6920     7.1380    -0.8690 C.3   1 <1>  -0.2400 
 17 C       -1.8690     6.9880     1.3920 C.3   1 <1>  -0.2400 
 18 H        2.3800     1.4710     0.2730 H     1 <1>   0.0800 
 19 H        3.0820    -0.5910    -1.2820 H     1 <1>   0.0800 
 20 H        2.0220    -1.2750    -2.5090 H     1 <1>   0.0800 
 21 H        1.9280    -2.7410    -0.5690 H     1 <1>   0.0800 
 22 H        0.3990    -1.9340    -0.7080 H     1 <1>   0.0800 
 23 H        1.2480    -2.0250     1.6550 H     1 <1>   0.0800 
 24 H        2.6230    -1.0340     1.1820 H     1 <1>   0.0800 
 25 H       -1.3660     2.2050     0.6600 H     1 <1>   0.0800 
 26 H       -1.0760     2.4210    -1.0460 H     1 <1>   0.0800 
 27 H       -0.7030     4.8820     0.3710 H     1 <1>   0.3700 
 28 H       -3.0260     8.3380    -1.5500 H     1 <1>   0.0800 
 29 H       -2.3790     9.1860    -0.1700 H     1 <1>   0.0800 
 30 H       -3.8320     8.2360    -0.0010 H     1 <1>   0.0800 
 31 H       -0.8500     7.1000    -1.9320 H     1 <1>   0.0800 
 32 H       -0.0240     6.3480    -0.5850 H     1 <1>   0.0800 
 33 H       -0.2040     8.0670    -0.6350 H     1 <1>   0.0800 
 34 H       -2.8260     6.8480     1.8620 H     1 <1>   0.0800 
 35 H       -1.4470     7.9080     1.7540 H     1 <1>   0.0800 
 36 H       -1.2100     6.1960     1.6900 H     1 <1>   0.0800 
@<TRIPOS>BOND
  1   1   2  1   
  2   1   3  1   
  3   2   4  1   
  4   2   5  1   
  5   2  18  1   
  6   3   6  1   
  7   3  19  1   
  8   3  20  1   
  9   4   7  1   
 10   5   8  2   
 11   5   9  1   
 12   6   7  1   
 13   6  21  1   
 14   6  22  1   
 15   7  23  1   
 16   7  24  1   
 17   9  10  1   
 18   9  25  1   
 19   9  26  1   
 20  10  11  am  
 21  10  27  1   
 22  11  12  2   
 23  11  13  1   
 24  13  14  1   
 25  14  15  1   
 26  14  16  1   
 27  14  17  1   
 28  15  28  1   
 29  15  29  1   
 30  15  30  1   
 31  16  31  1   
 32  16  32  1   
 33  16  33  1   
 34  17  34  1   
 35  17  35  1   
 36  17  36  1   
@<TRIPOS>SUBSTRUCTURE
  1 ****   9 GROUP 4 **** **** 0

# MOE 2024.06 (io_trps.svl 2023.06)
