@<TRIPOS>MOLECULE
NONAME
40 42 1 0 0 
SMALL
USER_CHARGES


@<TRIPOS>ATOM
  1 O       -0.3080    -2.1740     2.9540 O.2   1 <1>  -0.5700 
  2 C       -1.1090    -2.9920     2.5250 C.2   1 <1>   0.6900 
  3 N       -1.1990    -4.2950     2.8410 N.am  1 <1>  -0.3680 
  4 N       -2.0750    -2.7500     1.6380 N.am  1 <1>  -0.4900 
  5 N       -2.2330    -4.8930     2.1510 N.2   1 <1>  -0.5120 
  6 C       -2.7330    -3.9440     1.4450 C.2   1 <1>   0.4490 
  7 C       -3.9160    -4.0610     0.4790 C.3   1 <1>   0.2700 
  8 N       -4.5850    -5.3940     0.5440 N.pl3 1 <1>  -0.8690 
  9 C       -5.2550    -5.9140    -0.5350 C.ar  1 <1>   0.4100 
 10 N       -5.6020    -5.0700    -1.4960 N.ar  1 <1>  -0.6200 
 11 C       -5.5410    -7.2710    -0.5680 C.ar  1 <1>  -0.1500 
 12 C       -6.2420    -5.6010    -2.5230 C.ar  1 <1>   0.1600 
 13 C       -6.2280    -7.8270    -1.6320 C.ar  1 <1>   0.0860 
 14 C       -6.5680    -6.9360    -2.6390 C.ar  1 <1>  -0.1500 
 15 C       -6.5650    -9.2350    -1.7090 C.2   1 <1>   0.5440 
 16 O       -6.3090    -9.8420    -2.7320 O.2   1 <1>  -0.5700 
 17 N       -7.1790    -9.9010    -0.6690 N.am  1 <1>  -0.6600 
 18 C       -7.2520   -11.3880    -0.6300 C.3   1 <1>   0.1400 
 19 C       -7.9520    -9.2270     0.4120 C.3   1 <1>   0.1400 
 20 C       -6.7530   -11.8910     0.7300 C.3   1 <1>  -0.1600 
 21 C       -7.4490    -9.7020     1.7790 C.3   1 <1>  -0.1600 
 22 C       -7.5060   -11.2320     1.8950 C.3   1 <1>  -0.1600 
 23 H       -0.5780    -4.7600     3.5080 H     1 <1>   0.3700 
 24 H       -2.2400    -1.8360     1.2290 H     1 <1>   0.3700 
 25 H       -3.5550    -3.8880    -0.5200 H     1 <1>   0.0800 
 26 H       -4.6420    -3.3040     0.7120 H     1 <1>   0.0800 
 27 H       -4.0420    -6.0560     1.1110 H     1 <1>   0.4000 
 28 H       -5.2250    -7.8950     0.2440 H     1 <1>   0.1500 
 29 H       -6.5220    -4.9310    -3.3180 H     1 <1>   0.1500 
 30 H       -7.0860    -7.2980    -3.5090 H     1 <1>   0.1500 
 31 H       -6.6490   -11.8180    -1.4120 H     1 <1>   0.0800 
 32 H       -8.2720   -11.6940    -0.7860 H     1 <1>   0.0800 
 33 H       -8.9920    -9.4850     0.3030 H     1 <1>   0.0800 
 34 H       -7.8720    -8.1570     0.3410 H     1 <1>   0.0800 
 35 H       -5.7010   -11.6770     0.8100 H     1 <1>   0.0800 
 36 H       -6.8730   -12.9580     0.7780 H     1 <1>   0.0800 
 37 H       -8.0500    -9.2580     2.5520 H     1 <1>   0.0800 
 38 H       -6.4370    -9.3650     1.9170 H     1 <1>   0.0800 
 39 H       -7.0730   -11.5430     2.8310 H     1 <1>   0.0800 
 40 H       -8.5340   -11.5530     1.8810 H     1 <1>   0.0800 
@<TRIPOS>BOND
  1   1   2  2   
  2   2   3  am  
  3   2   4  am  
  4   3   5  1   
  5   3  23  1   
  6   4   6  1   
  7   4  24  1   
  8   5   6  2   
  9   6   7  1   
 10   7   8  1   
 11   7  25  1   
 12   7  26  1   
 13   8   9  1   
 14   8  27  1   
 15   9  10  ar  
 16   9  11  ar  
 17  10  12  ar  
 18  11  13  ar  
 19  11  28  1   
 20  12  14  ar  
 21  12  29  1   
 22  13  14  ar  
 23  13  15  1   
 24  14  30  1   
 25  15  16  2   
 26  15  17  am  
 27  17  18  1   
 28  17  19  1   
 29  18  20  1   
 30  18  31  1   
 31  18  32  1   
 32  19  21  1   
 33  19  33  1   
 34  19  34  1   
 35  20  22  1   
 36  20  35  1   
 37  20  36  1   
 38  21  22  1   
 39  21  37  1   
 40  21  38  1   
 41  22  39  1   
 42  22  40  1   
@<TRIPOS>SUBSTRUCTURE
  1 ****  11 GROUP 4 **** **** 0

# MOE 2024.06 (io_trps.svl 2023.06)
