@<TRIPOS>MOLECULE
NONAME
53 55 1 0 0 
SMALL
USER_CHARGES


@<TRIPOS>ATOM
  1 O        0.5950     0.4880     1.5890 O.2   1 <1>  -0.5700 
  2 C        1.2880     0.6140     0.6000 C.2   1 <1>   0.7800 
  3 O        1.0240     1.5560    -0.3080 O.3   1 <1>  -0.4300 
  4 N        2.3640    -0.2130     0.3590 N.am  1 <1>  -0.6600 
  5 C       -0.0150     2.5120    -0.2760 C.3   1 <1>   0.2800 
  6 C        3.1620    -0.1030    -0.8960 C.3   1 <1>   0.1400 
  7 C        2.6730    -1.3110     1.3190 C.3   1 <1>   0.1400 
  8 C        0.1460     3.4300     0.9420 C.3   1 <1>  -0.2400 
  9 C        0.1620     3.3350    -1.5530 C.3   1 <1>  -0.2400 
 10 C       -1.3800     1.8150    -0.3100 C.3   1 <1>  -0.2400 
 11 C        4.6560    -0.2260    -0.5890 C.3   1 <1>  -0.1600 
 12 C        4.1800    -1.4040     1.5640 C.3   1 <1>  -0.1600 
 13 C        4.9930    -1.4560     0.2660 C.3   1 <1>   0.6460 
 14 N        4.5900    -2.6370    -0.5270 N.4   1 <1>  -0.9060 
 15 C        6.4970    -1.5350     0.5900 C.ar  1 <1>  -0.1430 
 16 C        5.0720    -3.9330     0.0180 C.3   1 <1>   0.3430 
 17 C        7.2330    -2.7080     0.4130 C.ar  1 <1>  -0.1430 
 18 C        7.1560    -0.4190     1.0970 C.ar  1 <1>  -0.1500 
 19 C        6.5910    -3.9860    -0.1010 C.3   1 <1>  -0.0170 
 20 C        8.5870    -2.7380     0.7110 C.ar  1 <1>  -0.1500 
 21 C        8.5060    -0.4460     1.3960 C.ar  1 <1>   0.0820 
 22 C        9.2270    -1.6150     1.1980 C.ar  1 <1>  -0.1500 
 23 O        9.0430     0.7020     1.8760 O.3   1 <1>  -0.3620 
 24 C       10.4080     0.7880     2.2230 C.3   1 <1>   0.0400 
 25 H        2.9920     0.8480    -1.3730 H     1 <1>   0.0800 
 26 H        2.8410    -0.8650    -1.5840 H     1 <1>   0.0800 
 27 H        2.2850    -2.2370     0.9310 H     1 <1>   0.0800 
 28 H        2.1850    -1.1330     2.2640 H     1 <1>   0.0800 
 29 H        1.1370     3.8450     0.9720 H     1 <1>   0.0800 
 30 H       -0.0450     2.8990     1.8560 H     1 <1>   0.0800 
 31 H       -0.5600     4.2380     0.8860 H     1 <1>   0.0800 
 32 H        1.1240     3.8150    -1.5590 H     1 <1>   0.0800 
 33 H       -0.5950     4.0970    -1.6130 H     1 <1>   0.0800 
 34 H        0.0750     2.7050    -2.4200 H     1 <1>   0.0800 
 35 H       -1.5690     1.2840     0.6050 H     1 <1>   0.0800 
 36 H       -1.4320     1.1290    -1.1360 H     1 <1>   0.0800 
 37 H       -2.1600     2.5450    -0.4250 H     1 <1>   0.0800 
 38 H        4.9380     0.6700    -0.0680 H     1 <1>   0.0800 
 39 H        5.2220    -0.2410    -1.5030 H     1 <1>   0.0800 
 40 H        4.4000    -2.2510     2.1870 H     1 <1>   0.0800 
 41 H        4.4740    -0.5340     2.1250 H     1 <1>   0.0800 
 42 H        4.9980    -2.5050    -1.4570 H     1 <1>   0.4500 
 43 H        3.5710    -2.6200    -0.6150 H     1 <1>   0.4500 
 44 H        4.6390    -4.7560    -0.5290 H     1 <1>   0.0800 
 45 H        4.7890    -4.0260     1.0540 H     1 <1>   0.0800 
 46 H        6.6460     0.5090     1.2830 H     1 <1>   0.1500 
 47 H        6.8710    -4.1390    -1.1290 H     1 <1>   0.0800 
 48 H        6.9530    -4.8290     0.4630 H     1 <1>   0.0800 
 49 H        9.1590    -3.6390     0.5690 H     1 <1>   0.1500 
 50 H       10.2770    -1.6690     1.4190 H     1 <1>   0.1500 
 51 H       10.6000     1.7850     2.5790 H     1 <1>   0.0800 
 52 H       11.0040     0.5910     1.3500 H     1 <1>   0.0800 
 53 H       10.6160     0.0770     3.0020 H     1 <1>   0.0800 
@<TRIPOS>BOND
  1   1   2  2   
  2   2   3  1   
  3   2   4  am  
  4   3   5  1   
  5   4   6  1   
  6   4   7  1   
  7   5   8  1   
  8   5   9  1   
  9   5  10  1   
 10   6  11  1   
 11   6  25  1   
 12   6  26  1   
 13   7  12  1   
 14   7  27  1   
 15   7  28  1   
 16   8  29  1   
 17   8  30  1   
 18   8  31  1   
 19   9  32  1   
 20   9  33  1   
 21   9  34  1   
 22  10  35  1   
 23  10  36  1   
 24  10  37  1   
 25  11  13  1   
 26  11  38  1   
 27  11  39  1   
 28  12  13  1   
 29  12  40  1   
 30  12  41  1   
 31  13  14  1   
 32  13  15  1   
 33  14  16  1   
 34  14  42  1   
 35  14  43  1   
 36  15  17  ar  
 37  15  18  ar  
 38  16  19  1   
 39  16  44  1   
 40  16  45  1   
 41  17  19  1   
 42  17  20  ar  
 43  18  21  ar  
 44  18  46  1   
 45  19  47  1   
 46  19  48  1   
 47  20  22  ar  
 48  20  49  1   
 49  21  22  ar  
 50  21  23  1   
 51  22  50  1   
 52  23  24  1   
 53  24  51  1   
 54  24  52  1   
 55  24  53  1   
@<TRIPOS>SUBSTRUCTURE
  1 ****  11 GROUP 4 **** **** 0

# MOE 2024.06 (io_trps.svl 2023.06)
