@<TRIPOS>MOLECULE
NONAME
49 50 1 0 0 
SMALL
USER_CHARGES


@<TRIPOS>ATOM
  1 S       -0.8550     1.1160    -0.7550 S.o2  1 <1>   1.4470 
  2 O       -0.8540     0.2300    -1.9010 O.2   1 <1>  -0.6500 
  3 O       -1.4670     2.4140    -0.9550 O.2   1 <1>  -0.6500 
  4 N       -1.7370     0.3390     0.4740 N.am  1 <1>  -0.8490 
  5 C        0.8370     1.2540    -0.1110 C.ar  1 <1>  -0.0090 
  6 C       -1.1260    -0.8780     1.0430 C.3   1 <1>   0.1960 
  7 C       -3.1680     0.1980     0.1560 C.3   1 <1>   0.1960 
  8 C        1.2550     2.3100     0.6920 C.ar  1 <1>   0.0820 
  9 C        1.7580     0.2460    -0.3790 C.ar  1 <1>  -0.1500 
 10 C       -1.2570    -2.0930     0.1220 C.3   1 <1>  -0.1860 
 11 C       -3.6640    -1.2560     0.1620 C.3   1 <1>  -0.1600 
 12 O        0.4100     3.3000     1.0360 O.3   1 <1>  -0.3620 
 13 C        2.5460     2.3530     1.1900 C.ar  1 <1>  -0.1500 
 14 C        3.0570     0.2540     0.1210 C.ar  1 <1>  -0.1440 
 15 C       -0.8150    -3.2770     0.9480 C.2   1 <1>   0.9060 
 16 C       -2.6560    -2.1710    -0.5290 C.3   1 <1>   0.2000 
 17 C        0.5280     4.5100     0.3220 C.3   1 <1>   0.0400 
 18 C        3.4360     1.3370     0.9050 C.ar  1 <1>  -0.1500 
 19 C        4.0590    -0.8920    -0.1420 C.3   1 <1>   0.1440 
 20 O        0.3960    -3.4860     1.0490 O.co2 1 <1>  -0.9000 
 21 O       -1.6600    -3.9620     1.5400 O.co2 1 <1>  -0.9000 
 22 O       -3.1640    -3.4510    -0.4910 O.3   1 <1>  -0.6800 
 23 C        5.2930    -0.3390    -0.8690 C.3   1 <1>  -0.2400 
 24 C        3.4770    -2.0270    -1.0020 C.3   1 <1>  -0.2400 
 25 C        4.4850    -1.5100     1.1980 C.3   1 <1>  -0.2400 
 26 H       -0.0910    -0.7160     1.2920 H     1 <1>   0.0800 
 27 H       -1.6250    -1.0990     1.9730 H     1 <1>   0.0800 
 28 H       -3.7360     0.7680     0.8710 H     1 <1>   0.0800 
 29 H       -3.3670     0.6190    -0.8160 H     1 <1>   0.0800 
 30 H        1.4170    -0.5710    -0.9880 H     1 <1>   0.1500 
 31 H       -0.5380    -2.0040    -0.6660 H     1 <1>   0.0800 
 32 H       -4.6090    -1.3080    -0.3470 H     1 <1>   0.0800 
 33 H       -3.8110    -1.5800     1.1770 H     1 <1>   0.0800 
 34 H        2.8450     3.1770     1.8120 H     1 <1>   0.1500 
 35 H       -2.5810    -1.8900    -1.5670 H     1 <1>   0.0800 
 36 H       -0.2390     5.1780     0.6680 H     1 <1>   0.0800 
 37 H        0.3910     4.3100    -0.7260 H     1 <1>   0.0800 
 38 H        1.5000     4.9320     0.5030 H     1 <1>   0.0800 
 39 H        4.4290     1.3920     1.3130 H     1 <1>   0.1500 
 40 H       -2.7780    -3.8810     0.3330 H     1 <1>   0.4000 
 41 H        5.9890    -1.1290    -1.0870 H     1 <1>   0.0800 
 42 H        5.7980     0.3970    -0.2720 H     1 <1>   0.0800 
 43 H        4.9960     0.1210    -1.7950 H     1 <1>   0.0800 
 44 H        4.2060    -2.8030    -1.1510 H     1 <1>   0.0800 
 45 H        3.1750    -1.6620    -1.9660 H     1 <1>   0.0800 
 46 H        2.6240    -2.4710    -0.5130 H     1 <1>   0.0800 
 47 H        5.1570    -2.3340     1.0390 H     1 <1>   0.0800 
 48 H        3.6170    -1.8790     1.7180 H     1 <1>   0.0800 
 49 H        4.9760    -0.7910     1.8250 H     1 <1>   0.0800 
@<TRIPOS>BOND
  1   1   2  2   
  2   1   3  2   
  3   1   4  am  
  4   1   5  1   
  5   4   6  1   
  6   4   7  1   
  7   5   8  ar  
  8   5   9  ar  
  9   6  10  1   
 10   6  26  1   
 11   6  27  1   
 12   7  11  1   
 13   7  28  1   
 14   7  29  1   
 15   8  12  1   
 16   8  13  ar  
 17   9  14  ar  
 18   9  30  1   
 19  10  15  1   
 20  10  16  1   
 21  10  31  1   
 22  11  16  1   
 23  11  32  1   
 24  11  33  1   
 25  12  17  1   
 26  13  18  ar  
 27  13  34  1   
 28  14  18  ar  
 29  14  19  1   
 30  15  20  ar  
 31  15  21  ar  
 32  16  22  1   
 33  16  35  1   
 34  17  36  1   
 35  17  37  1   
 36  17  38  1   
 37  18  39  1   
 38  19  23  1   
 39  19  24  1   
 40  19  25  1   
 41  22  40  1   
 42  23  41  1   
 43  23  42  1   
 44  23  43  1   
 45  24  44  1   
 46  24  45  1   
 47  24  46  1   
 48  25  47  1   
 49  25  48  1   
 50  25  49  1   
@<TRIPOS>SUBSTRUCTURE
  1 ****   9 GROUP 4 **** **** 0

# MOE 2024.06 (io_trps.svl 2023.06)
