@<TRIPOS>MOLECULE
NONAME
41 43 1 0 0 
SMALL
USER_CHARGES


@<TRIPOS>ATOM
  1 S       -0.2460     1.0370     0.7130 S.3   1 <1>  -0.0800 
  2 C        1.2070     1.1900    -0.2590 C.2   1 <1>  -0.1100 
  3 C        0.4020     2.1250     1.9250 C.2   1 <1>  -0.1100 
  4 C        2.0990     2.0160     0.3260 C.2   1 <1>  -0.1810 
  5 C        1.6310     2.5470     1.5750 C.2   1 <1>  -0.1500 
  6 C        3.4760     2.4140    -0.1900 C.3   1 <1>   0.4700 
  7 N        3.4130     3.8430    -0.5150 N.pl3 1 <1>  -0.8690 
  8 C        3.8810     1.6690    -1.4570 C.3   1 <1>  -0.2400 
  9 C        4.3510     4.7600    -0.1300 C.ar  1 <1>   0.4100 
 10 N        5.5250     4.3060     0.2890 N.ar  1 <1>  -0.6200 
 11 C        4.0470     6.1170    -0.1910 C.ar  1 <1>  -0.1500 
 12 C        6.4090     5.2190     0.6520 C.ar  1 <1>   0.1600 
 13 C        4.9810     7.0520     0.1850 C.ar  1 <1>  -0.1500 
 14 C        6.2240     6.5980     0.6170 C.ar  1 <1>   0.0860 
 15 C        7.2830     7.4860     1.0290 C.2   1 <1>   0.5440 
 16 O        7.8310     7.2900     2.0980 O.2   1 <1>  -0.5700 
 17 N        7.7080     8.5440     0.2530 N.am  1 <1>  -0.6600 
 18 C        7.4860     8.6660    -1.2190 C.3   1 <1>   0.1400 
 19 C        8.6450     9.5790     0.7850 C.3   1 <1>   0.1400 
 20 C        7.1390    10.1170    -1.5940 C.3   1 <1>   0.1200 
 21 C        8.2420    10.9790     0.2920 C.3   1 <1>   0.1200 
 22 O        8.1070    10.9990    -1.1020 O.3   1 <1>  -0.5600 
 23 H        1.2360     0.6340    -1.1790 H     1 <1>   0.1500 
 24 H       -0.2140     2.3360     2.7810 H     1 <1>   0.1500 
 25 H        2.2440     3.2210     2.1490 H     1 <1>   0.1500 
 26 H        4.2040     2.2280     0.5820 H     1 <1>   0.0800 
 27 H        2.4480     4.1550    -0.6110 H     1 <1>   0.4000 
 28 H        3.1830     1.8640    -2.2490 H     1 <1>   0.0800 
 29 H        3.9120     0.6130    -1.2640 H     1 <1>   0.0800 
 30 H        4.8610     1.9890    -1.7600 H     1 <1>   0.0800 
 31 H        3.0770     6.4190    -0.5350 H     1 <1>   0.1500 
 32 H        7.3600     4.8580     1.0070 H     1 <1>   0.1500 
 33 H        4.7680     8.1060     0.1550 H     1 <1>   0.1500 
 34 H        6.7030     8.0100    -1.5520 H     1 <1>   0.0800 
 35 H        8.3890     8.3830    -1.7320 H     1 <1>   0.0800 
 36 H        9.6440     9.3560     0.4540 H     1 <1>   0.0800 
 37 H        8.6410     9.5700     1.8620 H     1 <1>   0.0800 
 38 H        6.1810    10.3960    -1.1900 H     1 <1>   0.0800 
 39 H        7.1090    10.2270    -2.6630 H     1 <1>   0.0800 
 40 H        8.9970    11.6970     0.5600 H     1 <1>   0.0800 
 41 H        7.3080    11.2790     0.7340 H     1 <1>   0.0800 
@<TRIPOS>BOND
  1   1   2  1   
  2   1   3  1   
  3   2   4  2   
  4   2  23  1   
  5   3   5  2   
  6   3  24  1   
  7   4   5  1   
  8   4   6  1   
  9   5  25  1   
 10   6   7  1   
 11   6   8  1   
 12   6  26  1   
 13   7   9  1   
 14   7  27  1   
 15   8  28  1   
 16   8  29  1   
 17   8  30  1   
 18   9  10  ar  
 19   9  11  ar  
 20  10  12  ar  
 21  11  13  ar  
 22  11  31  1   
 23  12  14  ar  
 24  12  32  1   
 25  13  14  ar  
 26  13  33  1   
 27  14  15  1   
 28  15  16  2   
 29  15  17  am  
 30  17  18  1   
 31  17  19  1   
 32  18  20  1   
 33  18  34  1   
 34  18  35  1   
 35  19  21  1   
 36  19  36  1   
 37  19  37  1   
 38  20  22  1   
 39  20  38  1   
 40  20  39  1   
 41  21  22  1   
 42  21  40  1   
 43  21  41  1   
@<TRIPOS>SUBSTRUCTURE
  1 ****  11 GROUP 4 **** **** 0

# MOE 2024.06 (io_trps.svl 2023.06)
