@<TRIPOS>MOLECULE
NONAME
40 42 1 0 0 
SMALL
USER_CHARGES


@<TRIPOS>ATOM
  1 S        1.4820     0.4900    -1.9860 S.3   1 <1>  -0.0800 
  2 C        1.2360    -0.9590    -1.0710 C.2   1 <1>   0.4620 
  3 C        1.5800     1.3290    -0.4730 C.2   1 <1>   0.1980 
  4 N        1.2350    -0.7550     0.1960 N.2   1 <1>  -0.3380 
  5 N        1.0730    -2.1360    -1.7320 N.pl3 1 <1>  -0.8840 
  6 N        1.4330     0.5570     0.5280 N.2   1 <1>  -0.3380 
  7 C        1.8180     2.8240    -0.5210 C.3   1 <1>   0.0200 
  8 C        2.1600     3.3810     0.8610 C.3   1 <1>   0.2090 
  9 N        2.3650     4.8490     0.7730 N.pl3 1 <1>  -0.8690 
 10 C        3.5830     5.4390     0.5160 C.ar  1 <1>   0.4100 
 11 N        4.5050     4.6530    -0.0380 N.ar  1 <1>  -0.6200 
 12 C        3.7970     6.7950     0.8290 C.ar  1 <1>   0.0860 
 13 C        5.6840     5.1940    -0.2660 C.ar  1 <1>   0.1600 
 14 C        2.7400     7.6060     1.3850 C.2   1 <1>   0.5440 
 15 C        5.0570     7.3250     0.5810 C.ar  1 <1>  -0.1500 
 16 C        6.0120     6.5070     0.0240 C.ar  1 <1>  -0.1500 
 17 O        2.1140     7.2200     2.3580 O.2   1 <1>  -0.5700 
 18 N        2.4080     8.8270     0.8390 N.am  1 <1>  -0.6600 
 19 C        1.3440     9.6820     1.4110 C.3   1 <1>   0.1400 
 20 C        2.7300     9.2420    -0.5450 C.3   1 <1>   0.1400 
 21 C        1.1510    10.8030     0.3960 C.3   1 <1>  -0.1600 
 22 C        1.6160    10.2070    -0.9300 C.3   1 <1>  -0.1600 
 23 H        0.9510    -3.0030    -1.2060 H     1 <1>   0.4000 
 24 H        1.1130    -2.2080    -2.7490 H     1 <1>   0.4000 
 25 H        0.9350     3.3080    -0.8930 H     1 <1>   0.0800 
 26 H        2.6330     3.0230    -1.1920 H     1 <1>   0.0800 
 27 H        3.0510     2.9060     1.2370 H     1 <1>   0.0800 
 28 H        1.3560     3.1750     1.5460 H     1 <1>   0.0800 
 29 H        1.7900     5.3870     1.4420 H     1 <1>   0.4000 
 30 H        6.4340     4.5590    -0.7070 H     1 <1>   0.1500 
 31 H        5.2730     8.3500     0.8260 H     1 <1>   0.1500 
 32 H        7.0000     6.8750    -0.1860 H     1 <1>   0.1500 
 33 H        1.6370    10.0600     2.3750 H     1 <1>   0.0800 
 34 H        0.4410     9.1020     1.5100 H     1 <1>   0.0800 
 35 H        2.7650     8.3960    -1.2110 H     1 <1>   0.0800 
 36 H        3.6790     9.7510    -0.5490 H     1 <1>   0.0800 
 37 H        1.7830    11.6310     0.6670 H     1 <1>   0.0800 
 38 H        0.1300    11.1380     0.3610 H     1 <1>   0.0800 
 39 H        0.8120     9.6500    -1.3800 H     1 <1>   0.0800 
 40 H        1.9550    10.9570    -1.6220 H     1 <1>   0.0800 
@<TRIPOS>BOND
  1   1   2  1   
  2   1   3  1   
  3   2   4  2   
  4   2   5  1   
  5   3   6  2   
  6   3   7  1   
  7   4   6  1   
  8   5  23  1   
  9   5  24  1   
 10   7   8  1   
 11   7  25  1   
 12   7  26  1   
 13   8   9  1   
 14   8  27  1   
 15   8  28  1   
 16   9  10  1   
 17   9  29  1   
 18  10  11  ar  
 19  10  12  ar  
 20  11  13  ar  
 21  12  14  1   
 22  12  15  ar  
 23  13  16  ar  
 24  13  30  1   
 25  14  17  2   
 26  14  18  am  
 27  15  16  ar  
 28  15  31  1   
 29  16  32  1   
 30  18  19  1   
 31  18  20  1   
 32  19  21  1   
 33  19  33  1   
 34  19  34  1   
 35  20  22  1   
 36  20  35  1   
 37  20  36  1   
 38  21  22  1   
 39  21  37  1   
 40  21  38  1   
 41  22  39  1   
 42  22  40  1   
@<TRIPOS>SUBSTRUCTURE
  1 ****   9 GROUP 4 **** **** 0

# MOE 2024.06 (io_trps.svl 2023.06)
