@<TRIPOS>MOLECULE
NONAME
39 40 1 0 0 
SMALL
USER_CHARGES


@<TRIPOS>ATOM
  1 F       -1.9340    -0.0580    -1.5950 F     1 <1>  -0.1900 
  2 C       -2.2620     0.6240    -0.5290 C.ar  1 <1>   0.1900 
  3 C       -2.6700    -0.0790     0.5900 C.ar  1 <1>  -0.1440 
  4 C       -2.1970     2.0120    -0.5670 C.ar  1 <1>  -0.1440 
  5 C       -3.0270     0.6680     1.6970 C.ar  1 <1>   0.1900 
  6 C       -2.7190    -1.5900     0.6040 C.3   1 <1>   0.4860 
  7 C       -2.5620     2.7220     0.5700 C.ar  1 <1>  -0.1500 
  8 C       -1.7390     2.7470    -1.8190 C.3   1 <1>  -0.0970 
  9 F       -3.4350     0.0450     2.7700 F     1 <1>  -0.1900 
 10 C       -2.9810     2.0510     1.7100 C.ar  1 <1>  -0.1500 
 11 N       -4.1350    -2.0380     0.6650 N.4   1 <1>  -0.9590 
 12 C       -4.2260    -3.5110     0.9920 C.3   1 <1>   0.3430 
 13 C       -4.8750    -1.6890    -0.5830 C.3   1 <1>   0.3430 
 14 C       -5.5010    -4.2040     0.4520 C.3   1 <1>   0.2000 
 15 C       -6.3730    -1.9630    -0.3920 C.3   1 <1>  -0.1600 
 16 O       -5.2510    -4.6150    -0.8530 O.3   1 <1>  -0.6800 
 17 C       -6.6850    -3.2210     0.4610 C.3   1 <1>  -0.0800 
 18 C       -8.0100    -3.8840     0.0540 C.3   1 <1>   0.1200 
 19 O       -9.0220    -2.9560     0.2140 O.3   1 <1>  -0.6800 
 20 H       -2.1840    -1.9470     1.4700 H     1 <1>   0.0800 
 21 H       -2.2420    -1.9890    -0.2770 H     1 <1>   0.0800 
 22 H       -2.5230     3.7990     0.5750 H     1 <1>   0.1500 
 23 H       -1.7060     3.8100    -1.6540 H     1 <1>   0.0800 
 24 H       -2.4140     2.5490    -2.6320 H     1 <1>   0.0800 
 25 H       -0.7540     2.4170    -2.1010 H     1 <1>   0.0800 
 26 H       -3.2670     2.5940     2.5940 H     1 <1>   0.1500 
 27 H       -4.5790    -1.5080     1.4270 H     1 <1>   0.4500 
 28 H       -3.3750    -4.0350     0.5890 H     1 <1>   0.0800 
 29 H       -4.2020    -3.6250     2.0630 H     1 <1>   0.0800 
 30 H       -4.7290    -0.6520    -0.8420 H     1 <1>   0.0800 
 31 H       -4.5060    -2.2950    -1.3950 H     1 <1>   0.0800 
 32 H       -5.7130    -5.0840     1.0380 H     1 <1>   0.0800 
 33 H       -6.8440    -1.1050     0.0550 H     1 <1>   0.0800 
 34 H       -6.8030    -2.0730    -1.3720 H     1 <1>   0.0800 
 35 H       -5.9720    -5.1830    -1.1950 H     1 <1>   0.4000 
 36 H       -6.8070    -2.9040     1.4840 H     1 <1>   0.0800 
 37 H       -8.2300    -4.7310     0.6840 H     1 <1>   0.0800 
 38 H       -7.9950    -4.1930    -0.9780 H     1 <1>   0.0800 
 39 H       -9.8940    -3.3350    -0.0230 H     1 <1>   0.4000 
@<TRIPOS>BOND
  1   1   2  1   
  2   2   3  ar  
  3   2   4  ar  
  4   3   5  ar  
  5   3   6  1   
  6   4   7  ar  
  7   4   8  1   
  8   5   9  1   
  9   5  10  ar  
 10   6  11  1   
 11   6  20  1   
 12   6  21  1   
 13   7  10  ar  
 14   7  22  1   
 15   8  23  1   
 16   8  24  1   
 17   8  25  1   
 18  10  26  1   
 19  11  12  1   
 20  11  13  1   
 21  11  27  1   
 22  12  14  1   
 23  12  28  1   
 24  12  29  1   
 25  13  15  1   
 26  13  30  1   
 27  13  31  1   
 28  14  16  1   
 29  14  17  1   
 30  14  32  1   
 31  15  17  1   
 32  15  33  1   
 33  15  34  1   
 34  16  35  1   
 35  17  18  1   
 36  17  36  1   
 37  18  19  1   
 38  18  37  1   
 39  18  38  1   
 40  19  39  1   
@<TRIPOS>SUBSTRUCTURE
  1 ****  11 GROUP 4 **** **** 0

# MOE 2024.06 (io_trps.svl 2023.06)
