@<TRIPOS>MOLECULE
NONAME
40 41 1 0 0 
SMALL
USER_CHARGES


@<TRIPOS>ATOM
  1 O        0.3120     0.7410    -1.1990 O.3   1 <1>  -0.6800 
  2 C        0.2060     1.7660    -0.2650 C.3   1 <1>   0.2000 
  3 C       -1.1720     2.4490    -0.3970 C.3   1 <1>  -0.0800 
  4 C        1.3610     2.7550    -0.4870 C.3   1 <1>   0.2090 
  5 C       -1.2250     3.7030     0.5070 C.3   1 <1>  -0.1600 
  6 C       -2.3050     1.4610    -0.0690 C.3   1 <1>   0.1200 
  7 N        1.2260     3.9140     0.4400 N.pl3 1 <1>  -0.8380 
  8 C       -0.0490     4.6510     0.2570 C.3   1 <1>   0.2090 
  9 O       -3.5340     2.0820    -0.2070 O.3   1 <1>  -0.6800 
 10 C        2.3730     4.6490     0.6770 C.ar  1 <1>   0.4100 
 11 N        2.4480     5.8580     0.1340 N.ar  1 <1>  -0.6200 
 12 C        3.3890     4.0990     1.4520 C.ar  1 <1>  -0.1500 
 13 C        3.5580     6.5440     0.3610 C.ar  1 <1>   0.1670 
 14 C        4.5410     4.8100     1.6860 C.ar  1 <1>  -0.1500 
 15 C        4.6160     6.0660     1.1200 C.ar  1 <1>  -0.1500 
 16 C        3.6300     7.9380    -0.2690 C.3   1 <1>   0.0630 
 17 C        4.7960     8.0530    -1.2600 C.3   1 <1>  -0.2400 
 18 C        3.7190     9.0340     0.8020 C.3   1 <1>  -0.2400 
 19 H       -0.3720     0.0620    -1.0490 H     1 <1>   0.4000 
 20 H        0.3150     1.3300     0.7130 H     1 <1>   0.0800 
 21 H       -1.2800     2.7680    -1.4210 H     1 <1>   0.0800 
 22 H        1.3410     3.1150    -1.5010 H     1 <1>   0.0800 
 23 H        2.2980     2.2560    -0.3150 H     1 <1>   0.0800 
 24 H       -1.2100     3.4130     1.5430 H     1 <1>   0.0800 
 25 H       -2.1330     4.2500     0.3280 H     1 <1>   0.0800 
 26 H       -2.2230     1.1000     0.9420 H     1 <1>   0.0800 
 27 H       -2.2940     0.6240    -0.7460 H     1 <1>   0.0800 
 28 H       -0.0890     5.4770     0.9480 H     1 <1>   0.0800 
 29 H       -0.0900     5.0470    -0.7450 H     1 <1>   0.0800 
 30 H       -3.6050     2.8400     0.4030 H     1 <1>   0.4000 
 31 H        3.2510     3.1180     1.8630 H     1 <1>   0.1500 
 32 H        5.3430     4.4110     2.2820 H     1 <1>   0.1500 
 33 H        5.4930     6.6660     1.2720 H     1 <1>   0.1500 
 34 H        2.7190     8.0960    -0.8210 H     1 <1>   0.0800 
 35 H        5.7410     7.9520    -0.7580 H     1 <1>   0.0800 
 36 H        4.7690     9.0060    -1.7570 H     1 <1>   0.0800 
 37 H        4.7160     7.2790    -2.0030 H     1 <1>   0.0800 
 38 H        4.6350     8.9550     1.3590 H     1 <1>   0.0800 
 39 H        2.8920     8.9410     1.4840 H     1 <1>   0.0800 
 40 H        3.6770    10.0060     0.3430 H     1 <1>   0.0800 
@<TRIPOS>BOND
  1   1   2  1   
  2   1  19  1   
  3   2   3  1   
  4   2   4  1   
  5   2  20  1   
  6   3   5  1   
  7   3   6  1   
  8   3  21  1   
  9   4   7  1   
 10   4  22  1   
 11   4  23  1   
 12   5   8  1   
 13   5  24  1   
 14   5  25  1   
 15   6   9  1   
 16   6  26  1   
 17   6  27  1   
 18   7   8  1   
 19   7  10  1   
 20   8  28  1   
 21   8  29  1   
 22   9  30  1   
 23  10  11  ar  
 24  10  12  ar  
 25  11  13  ar  
 26  12  14  ar  
 27  12  31  1   
 28  13  15  ar  
 29  13  16  1   
 30  14  15  ar  
 31  14  32  1   
 32  15  33  1   
 33  16  17  1   
 34  16  18  1   
 35  16  34  1   
 36  17  35  1   
 37  17  36  1   
 38  17  37  1   
 39  18  38  1   
 40  18  39  1   
 41  18  40  1   
@<TRIPOS>SUBSTRUCTURE
  1 ****   7 GROUP 4 **** **** 0

# MOE 2024.06 (io_trps.svl 2023.06)
