@<TRIPOS>MOLECULE
NONAME
52 55 1 0 0 
SMALL
USER_CHARGES


@<TRIPOS>ATOM
  1 O       -0.5060     0.0500     0.7960 O.2   1 <1>  -0.5700 
  2 C       -1.5250     0.6550     0.5590 C.2   1 <1>   0.5690 
  3 N       -2.6560    -0.0260     0.1770 N.am  1 <1>  -0.6600 
  4 C       -1.4500     2.1850     0.6990 C.3   1 <1>  -0.0190 
  5 C       -4.0110     0.5010    -0.1270 C.3   1 <1>   0.1400 
  6 C       -2.6300    -1.5000    -0.0130 C.3   1 <1>   0.1400 
  7 C       -2.4460     2.7940     1.7080 C.3   1 <1>  -0.1600 
  8 C       -1.4950     2.9210    -0.6560 C.3   1 <1>  -0.1600 
  9 C       -4.7820    -0.6880    -0.7000 C.3   1 <1>   0.2000 
 10 C       -4.0940    -1.9250    -0.1350 C.3   1 <1>  -0.0800 
 11 C       -2.2060     4.3020     1.8810 C.3   1 <1>  -0.1600 
 12 C       -1.2740     4.4320    -0.4790 C.3   1 <1>  -0.1600 
 13 O       -6.1140    -0.6640    -0.3150 O.3   1 <1>  -0.6800 
 14 C       -4.3110    -3.1760    -1.0040 C.3   1 <1>  -0.0170 
 15 C       -2.2660     5.0200     0.5290 C.3   1 <1>   0.2000 
 16 C       -3.6070    -4.3860    -0.4150 C.ar  1 <1>   0.1670 
 17 O       -1.9480     6.3440     0.7280 O.3   1 <1>  -0.6800 
 18 N       -2.3740    -4.5890    -0.7660 N.ar  1 <1>  -0.6200 
 19 C       -4.3080    -5.2140     0.4760 C.ar  1 <1>  -0.1500 
 20 C       -1.7310    -5.6580    -0.2310 C.ar  1 <1>   0.3100 
 21 C       -3.6900    -6.2960     1.0250 C.ar  1 <1>  -0.1500 
 22 C       -2.3530    -6.5460     0.6740 C.ar  1 <1>   0.0000 
 23 C       -0.3930    -5.8930    -0.5850 C.ar  1 <1>  -0.1500 
 24 C       -1.6140    -7.6320     1.1850 C.ar  1 <1>  -0.1500 
 25 C        0.3080    -6.9550    -0.0780 C.ar  1 <1>  -0.1500 
 26 C       -0.3100    -7.8340     0.8170 C.ar  1 <1>  -0.1500 
 27 H       -0.4710     2.3770     1.1050 H     1 <1>   0.0800 
 28 H       -4.4750     0.8310     0.7840 H     1 <1>   0.0800 
 29 H       -3.9710     1.2980    -0.8450 H     1 <1>   0.0800 
 30 H       -2.0870    -1.7260    -0.9160 H     1 <1>   0.0800 
 31 H       -2.1450    -1.9900     0.8160 H     1 <1>   0.0800 
 32 H       -3.4550     2.6550     1.3720 H     1 <1>   0.0800 
 33 H       -2.3400     2.3010     2.6600 H     1 <1>   0.0800 
 34 H       -0.7300     2.5220    -1.3020 H     1 <1>   0.0800 
 35 H       -2.4410     2.7630    -1.1360 H     1 <1>   0.0800 
 36 H       -4.7360    -0.6690    -1.7750 H     1 <1>   0.0800 
 37 H       -4.4520    -2.1150     0.8610 H     1 <1>   0.0800 
 38 H       -1.2410     4.4530     2.3320 H     1 <1>   0.0800 
 39 H       -2.9570     4.7110     2.5350 H     1 <1>   0.0800 
 40 H       -1.3970     4.9240    -1.4290 H     1 <1>   0.0800 
 41 H       -0.2680     4.5980    -0.1360 H     1 <1>   0.0800 
 42 H       -6.1900    -0.7280     0.6560 H     1 <1>   0.4000 
 43 H       -3.9350    -3.0020    -1.9970 H     1 <1>   0.0800 
 44 H       -5.3640    -3.3780    -1.0880 H     1 <1>   0.0800 
 45 H       -3.2660     4.9810     0.1320 H     1 <1>   0.0800 
 46 H       -1.0430     6.4180     1.0850 H     1 <1>   0.4000 
 47 H       -5.3290    -4.9820     0.7170 H     1 <1>   0.1500 
 48 H       -4.1930    -6.9530     1.7100 H     1 <1>   0.1500 
 49 H        0.0630    -5.2050    -1.2730 H     1 <1>   0.1500 
 50 H       -2.0940    -8.3040     1.8730 H     1 <1>   0.1500 
 51 H        1.3340    -7.1230    -0.3580 H     1 <1>   0.1500 
 52 H        0.2520    -8.6640     1.2090 H     1 <1>   0.1500 
@<TRIPOS>BOND
  1   1   2  2   
  2   2   3  am  
  3   2   4  1   
  4   3   5  1   
  5   3   6  1   
  6   4   7  1   
  7   4   8  1   
  8   4  27  1   
  9   5   9  1   
 10   5  28  1   
 11   5  29  1   
 12   6  10  1   
 13   6  30  1   
 14   6  31  1   
 15   7  11  1   
 16   7  32  1   
 17   7  33  1   
 18   8  12  1   
 19   8  34  1   
 20   8  35  1   
 21   9  10  1   
 22   9  13  1   
 23   9  36  1   
 24  10  14  1   
 25  10  37  1   
 26  11  15  1   
 27  11  38  1   
 28  11  39  1   
 29  12  15  1   
 30  12  40  1   
 31  12  41  1   
 32  13  42  1   
 33  14  16  1   
 34  14  43  1   
 35  14  44  1   
 36  15  17  1   
 37  15  45  1   
 38  16  18  ar  
 39  16  19  ar  
 40  17  46  1   
 41  18  20  ar  
 42  19  21  ar  
 43  19  47  1   
 44  20  22  ar  
 45  20  23  ar  
 46  21  22  ar  
 47  21  48  1   
 48  22  24  ar  
 49  23  25  ar  
 50  23  49  1   
 51  24  26  ar  
 52  24  50  1   
 53  25  26  ar  
 54  25  51  1   
 55  26  52  1   
@<TRIPOS>SUBSTRUCTURE
  1 ****   6 GROUP 4 **** **** 0

# MOE 2024.06 (io_trps.svl 2023.06)
