@<TRIPOS>MOLECULE
NONAME
37 39 1 0 0 
SMALL
USER_CHARGES


@<TRIPOS>ATOM
  1 S        0.0040    -0.2600    -0.7670 S.3   1 <1>  -0.0800 
  2 C       -0.6390     1.3520    -0.5590 C.2   1 <1>   0.4620 
  3 C       -1.3900    -0.9240     0.0640 C.2   1 <1>  -0.0450 
  4 N       -1.7590     1.3950     0.0600 N.2   1 <1>  -0.5650 
  5 N        0.0540     2.4040    -1.0420 N.pl3 1 <1>  -0.8840 
  6 C       -1.4880    -2.3460     0.2390 C.2   1 <1>   0.7150 
  7 C       -2.1620     0.1330     0.4100 C.2   1 <1>   0.0770 
  8 O       -0.4780    -3.0120     0.3800 O.2   1 <1>  -0.5700 
  9 N       -2.7020    -3.0030     0.2560 N.am  1 <1>  -0.6600 
 10 C       -3.9730    -2.4660    -0.3010 C.3   1 <1>   0.1400 
 11 C       -2.7850    -4.4870     0.3530 C.3   1 <1>   0.1400 
 12 C       -4.9780    -3.6080    -0.1570 C.3   1 <1>   0.2000 
 13 C       -4.1190    -4.8670    -0.2980 C.3   1 <1>  -0.0800 
 14 O       -5.5150    -3.5520     1.1210 O.3   1 <1>  -0.6800 
 15 C       -4.7430    -6.1600     0.2610 C.3   1 <1>  -0.0170 
 16 C       -3.8410    -7.3550    -0.0010 C.ar  1 <1>  -0.1430 
 17 C       -2.9750    -7.8450     0.9550 C.ar  1 <1>  -0.1500 
 18 C       -3.8430    -8.0130    -1.2150 C.ar  1 <1>  -0.1500 
 19 C       -2.1710    -8.9330     0.6590 C.ar  1 <1>   0.1600 
 20 C       -2.9990    -9.0940    -1.4090 C.ar  1 <1>   0.1600 
 21 N       -2.1620    -9.5700    -0.5010 N.ar  1 <1>  -0.6200 
 22 H        0.9590     2.3080    -1.5020 H     1 <1>   0.4000 
 23 H       -0.2980     3.3530    -0.9100 H     1 <1>   0.4000 
 24 H       -3.0830     0.0520     0.9600 H     1 <1>   0.1500 
 25 H       -4.3130    -1.5900     0.2220 H     1 <1>   0.0800 
 26 H       -3.8290    -2.2320    -1.3430 H     1 <1>   0.0800 
 27 H       -1.9600    -4.9620    -0.1540 H     1 <1>   0.0800 
 28 H       -2.7690    -4.7700     1.3920 H     1 <1>   0.0800 
 29 H       -5.7840    -3.5560    -0.8690 H     1 <1>   0.0800 
 30 H       -3.9290    -5.0130    -1.3470 H     1 <1>   0.0800 
 31 H       -4.7880    -3.4740     1.7700 H     1 <1>   0.4000 
 32 H       -5.6990    -6.3260    -0.2050 H     1 <1>   0.0800 
 33 H       -4.9160    -6.0680     1.3190 H     1 <1>   0.0800 
 34 H       -2.9140    -7.3930     1.9280 H     1 <1>   0.1500 
 35 H       -4.4910    -7.6970    -2.0110 H     1 <1>   0.1500 
 36 H       -1.5000    -9.3000     1.4160 H     1 <1>   0.1500 
 37 H       -3.0140    -9.5950    -2.3620 H     1 <1>   0.1500 
@<TRIPOS>BOND
  1   1   2  1   
  2   1   3  1   
  3   2   4  2   
  4   2   5  1   
  5   3   6  1   
  6   3   7  2   
  7   4   7  1   
  8   5  22  1   
  9   5  23  1   
 10   6   8  2   
 11   6   9  am  
 12   7  24  1   
 13   9  10  1   
 14   9  11  1   
 15  10  12  1   
 16  10  25  1   
 17  10  26  1   
 18  11  13  1   
 19  11  27  1   
 20  11  28  1   
 21  12  13  1   
 22  12  14  1   
 23  12  29  1   
 24  13  15  1   
 25  13  30  1   
 26  14  31  1   
 27  15  16  1   
 28  15  32  1   
 29  15  33  1   
 30  16  17  ar  
 31  16  18  ar  
 32  17  19  ar  
 33  17  34  1   
 34  18  20  ar  
 35  18  35  1   
 36  19  21  ar  
 37  19  36  1   
 38  20  21  ar  
 39  20  37  1   
@<TRIPOS>SUBSTRUCTURE
  1 ****  11 GROUP 4 **** **** 0

# MOE 2024.06 (io_trps.svl 2023.06)
