@<TRIPOS>MOLECULE
NONAME
48 50 1 0 0 
SMALL
USER_CHARGES


@<TRIPOS>ATOM
  1 S        1.1150     0.1090    -0.4600 S.o2  1 <1>   1.3330 
  2 O        2.3900     0.1470     0.2220 O.2   1 <1>  -0.6500 
  3 O        1.0860    -0.0530    -1.8960 O.2   1 <1>  -0.6500 
  4 N        0.1890    -1.1390     0.2230 N.am  1 <1>  -0.8490 
  5 C        0.2010     1.5840    -0.0210 C.3   1 <1>  -0.0550 
  6 C        0.9960    -2.3250     0.5270 C.3   1 <1>   0.1160 
  7 C       -0.9680    -1.5210    -0.5940 C.3   1 <1>   0.1160 
  8 C        0.8770     2.8810    -0.5080 C.3   1 <1>  -0.0800 
  9 C        0.0110     4.1350    -0.3810 C.3   1 <1>   0.2000 
 10 C        2.1720     3.2250     0.2500 C.3   1 <1>   0.1100 
 11 O       -0.6840     4.0870     0.8130 O.3   1 <1>  -0.6800 
 12 C        1.0550     5.2340    -0.2500 C.3   1 <1>   0.1100 
 13 N        2.0710     4.6410     0.6320 N.3   1 <1>  -0.8100 
 14 C        3.3670     5.3500     0.5730 C.3   1 <1>   0.2900 
 15 C        3.2430     6.8200     0.9540 C.2   1 <1>   0.1980 
 16 S        2.8650     7.1900     2.6190 S.3   1 <1>  -0.0800 
 17 N        3.3770     7.8450     0.2100 N.2   1 <1>  -0.5650 
 18 C        2.8980     8.8780     2.2170 C.2   1 <1>  -0.1100 
 19 C        3.1800     9.0410     0.9070 C.2   1 <1>   0.1730 
 20 C        3.2880    10.3060     0.1990 C.ar  1 <1>   0.0540 
 21 C        4.0010    10.4170    -0.9950 C.ar  1 <1>  -0.1500 
 22 C        2.6830    11.4630     0.6900 C.ar  1 <1>  -0.1500 
 23 C        4.1110    11.6220    -1.6650 C.ar  1 <1>  -0.1500 
 24 C        2.7880    12.6730     0.0260 C.ar  1 <1>  -0.1500 
 25 C        3.5040    12.7550    -1.1540 C.ar  1 <1>  -0.1500 
 26 H       -0.7790     1.5290    -0.4530 H     1 <1>   0.0800 
 27 H        0.0820     1.6220     1.0450 H     1 <1>   0.0800 
 28 H        0.3830    -3.0890     0.9730 H     1 <1>   0.0800 
 29 H        1.7760    -2.0710     1.2240 H     1 <1>   0.0800 
 30 H        1.4470    -2.7110    -0.3720 H     1 <1>   0.0800 
 31 H       -1.5620    -2.2530    -0.0740 H     1 <1>   0.0800 
 32 H       -0.6450    -1.9350    -1.5350 H     1 <1>   0.0800 
 33 H       -1.5860    -0.6610    -0.7880 H     1 <1>   0.0800 
 34 H        1.1290     2.7640    -1.5490 H     1 <1>   0.0800 
 35 H       -0.6820     4.2790    -1.1920 H     1 <1>   0.0800 
 36 H        3.0240     3.0490    -0.3880 H     1 <1>   0.0800 
 37 H        2.2810     2.6290     1.1410 H     1 <1>   0.0800 
 38 H       -0.0190     4.2410     1.5200 H     1 <1>   0.4000 
 39 H        0.6390     6.1370     0.1680 H     1 <1>   0.0800 
 40 H        1.4800     5.4510    -1.2160 H     1 <1>   0.0800 
 41 H        4.0610     4.8770     1.2450 H     1 <1>   0.0800 
 42 H        3.7690     5.2890    -0.4240 H     1 <1>   0.0800 
 43 H        2.7040     9.5820     3.0040 H     1 <1>   0.1500 
 44 H        4.4790     9.5440    -1.4030 H     1 <1>   0.1500 
 45 H        2.1150    11.4210     1.6010 H     1 <1>   0.1500 
 46 H        4.6680    11.6780    -2.5830 H     1 <1>   0.1500 
 47 H        2.3110    13.5510     0.4260 H     1 <1>   0.1500 
 48 H        3.5880    13.6950    -1.6730 H     1 <1>   0.1500 
@<TRIPOS>BOND
  1   1   2  2   
  2   1   3  2   
  3   1   4  am  
  4   1   5  1   
  5   4   6  1   
  6   4   7  1   
  7   5   8  1   
  8   5  26  1   
  9   5  27  1   
 10   6  28  1   
 11   6  29  1   
 12   6  30  1   
 13   7  31  1   
 14   7  32  1   
 15   7  33  1   
 16   8   9  1   
 17   8  10  1   
 18   8  34  1   
 19   9  11  1   
 20   9  12  1   
 21   9  35  1   
 22  10  13  1   
 23  10  36  1   
 24  10  37  1   
 25  11  38  1   
 26  12  13  1   
 27  12  39  1   
 28  12  40  1   
 29  13  14  1   
 30  14  15  1   
 31  14  41  1   
 32  14  42  1   
 33  15  16  1   
 34  15  17  2   
 35  16  18  1   
 36  17  19  1   
 37  18  19  2   
 38  18  43  1   
 39  19  20  1   
 40  20  21  ar  
 41  20  22  ar  
 42  21  23  ar  
 43  21  44  1   
 44  22  24  ar  
 45  22  45  1   
 46  23  25  ar  
 47  23  46  1   
 48  24  25  ar  
 49  24  47  1   
 50  25  48  1   
@<TRIPOS>SUBSTRUCTURE
  1 ****  13 GROUP 4 **** **** 0

# MOE 2024.06 (io_trps.svl 2023.06)
