@<TRIPOS>MOLECULE
NONAME
37 39 1 0 0 
SMALL
USER_CHARGES


@<TRIPOS>ATOM
  1 O       -0.7550     0.5800     1.3410 O.2   1 <1>  -0.5700 
  2 C       -1.6290     1.0930     0.6630 C.2   1 <1>   0.5440 
  3 N       -2.6780     0.2710     0.2890 N.am  1 <1>  -0.6600 
  4 C       -1.5210     2.5130     0.3130 C.ar  1 <1>   0.3960 
  5 C       -3.9160     0.6690    -0.4320 C.3   1 <1>   0.1400 
  6 C       -2.6910    -1.1900     0.5580 C.3   1 <1>   0.1400 
  7 N       -2.1460     3.0220    -0.7660 N.ar  1 <1>  -0.6200 
  8 C       -0.7350     3.3340     1.1340 C.ar  1 <1>   0.1600 
  9 C       -4.8710    -0.5060    -0.2310 C.3   1 <1>   0.2000 
 10 C       -3.9380    -1.7200    -0.1600 C.3   1 <1>  -0.0800 
 11 C       -1.9360     4.3140    -0.9380 C.ar  1 <1>   0.1600 
 12 N       -0.5290     4.6320     0.9670 N.ar  1 <1>  -0.6200 
 13 O       -5.5090    -0.3390     0.9890 O.3   1 <1>  -0.6800 
 14 C       -4.5510    -2.9720     0.4950 C.3   1 <1>   0.0200 
 15 C       -1.1540     5.0960    -0.0990 C.ar  1 <1>   0.1600 
 16 C       -3.6460    -4.1900     0.4150 C.2   1 <1>  -0.0400 
 17 O       -3.9990    -5.2750     1.0520 O.3   1 <1>  -0.0190 
 18 C       -2.4800    -4.4430    -0.2030 C.2   1 <1>  -0.1500 
 19 N       -3.1340    -6.2350     0.8970 N.2   1 <1>  -0.4100 
 20 C       -2.2070    -5.7620     0.1450 C.2   1 <1>   0.1080 
 21 C       -0.9890    -6.5420    -0.2950 C.3   1 <1>  -0.0590 
 22 H       -4.3280     1.5870    -0.0510 H     1 <1>   0.0800 
 23 H       -3.6870     0.7840    -1.4780 H     1 <1>   0.0800 
 24 H       -1.7900    -1.6480     0.1890 H     1 <1>   0.0800 
 25 H       -2.7590    -1.3500     1.6210 H     1 <1>   0.0800 
 26 H       -0.2510     2.8800     1.9810 H     1 <1>   0.1500 
 27 H       -5.6180    -0.5810    -1.0030 H     1 <1>   0.0800 
 28 H       -3.6560    -1.9670    -1.1680 H     1 <1>   0.0800 
 29 H       -2.4050     4.7830    -1.7850 H     1 <1>   0.1500 
 30 H       -4.8400    -0.1040     1.6640 H     1 <1>   0.4000 
 31 H       -5.4820    -3.2090     0.0110 H     1 <1>   0.0800 
 32 H       -4.7660    -2.7770     1.5310 H     1 <1>   0.0800 
 33 H       -1.0420     6.1430    -0.3190 H     1 <1>   0.1500 
 34 H       -1.8690    -3.8170    -0.8260 H     1 <1>   0.1500 
 35 H       -0.9420    -6.5740    -1.3670 H     1 <1>   0.0800 
 36 H       -1.0420    -7.5480     0.0820 H     1 <1>   0.0800 
 37 H       -0.1000    -6.0740     0.0870 H     1 <1>   0.0800 
@<TRIPOS>BOND
  1   1   2  2   
  2   2   3  am  
  3   2   4  1   
  4   3   5  1   
  5   3   6  1   
  6   4   7  ar  
  7   4   8  ar  
  8   5   9  1   
  9   5  22  1   
 10   5  23  1   
 11   6  10  1   
 12   6  24  1   
 13   6  25  1   
 14   7  11  ar  
 15   8  12  ar  
 16   8  26  1   
 17   9  10  1   
 18   9  13  1   
 19   9  27  1   
 20  10  14  1   
 21  10  28  1   
 22  11  15  ar  
 23  11  29  1   
 24  12  15  ar  
 25  13  30  1   
 26  14  16  1   
 27  14  31  1   
 28  14  32  1   
 29  15  33  1   
 30  16  17  1   
 31  16  18  2   
 32  17  19  1   
 33  18  20  1   
 34  18  34  1   
 35  19  20  2   
 36  20  21  1   
 37  21  35  1   
 38  21  36  1   
 39  21  37  1   
@<TRIPOS>SUBSTRUCTURE
  1 ****   6 GROUP 4 **** **** 0

# MOE 2024.06 (io_trps.svl 2023.06)
