@<TRIPOS>MOLECULE
NONAME
40 42 1 0 0 
SMALL
USER_CHARGES


@<TRIPOS>ATOM
  1 F       -0.0920    -0.3290     0.9060 F     1 <1>  -0.1900 
  2 C       -0.1690    -1.6110     0.6890 C.ar  1 <1>   0.1900 
  3 C        0.0510    -2.4830     1.7380 C.ar  1 <1>  -0.1500 
  4 C       -0.4670    -2.0570    -0.5850 C.ar  1 <1>  -0.1500 
  5 C       -0.0390    -3.8430     1.4980 C.ar  1 <1>  -0.1500 
  6 C       -0.5520    -3.4200    -0.8060 C.ar  1 <1>  -0.1500 
  7 C       -0.3520    -4.3390     0.2300 C.ar  1 <1>   0.0860 
  8 C       -0.4660    -5.7660     0.0020 C.2   1 <1>   0.5440 
  9 O        0.4900    -6.4780     0.2480 O.2   1 <1>  -0.5700 
 10 N       -1.6290    -6.3440    -0.4730 N.am  1 <1>  -0.6600 
 11 C       -2.9430    -5.6360    -0.4070 C.3   1 <1>   0.2200 
 12 C       -1.6170    -7.7780    -0.8980 C.3   1 <1>   0.0600 
 13 C       -4.0390    -6.4110     0.3210 C.3   1 <1>  -0.1600 
 14 C       -3.5360    -5.3430    -1.7820 C.3   1 <1>  -0.1600 
 15 C       -5.3450    -5.7680    -0.1640 C.3   1 <1>  -0.0800 
 16 C       -5.0250    -5.0950    -1.5120 C.3   1 <1>  -0.0800 
 17 C       -5.8620    -4.6590     0.7630 C.3   1 <1>  -0.1600 
 18 C       -5.3740    -3.6080    -1.3460 C.3   1 <1>  -0.1600 
 19 C       -6.3470    -3.5690    -0.1790 C.3   1 <1>   0.2000 
 20 O       -6.2960    -2.3430     0.4440 O.3   1 <1>  -0.6800 
 21 H        0.2900    -2.1020     2.7150 H     1 <1>   0.1500 
 22 H       -0.6230    -1.3490    -1.3790 H     1 <1>   0.1500 
 23 H        0.1360    -4.5440     2.2970 H     1 <1>   0.1500 
 24 H       -0.7710    -3.7910    -1.7920 H     1 <1>   0.1500 
 25 H       -2.8300    -4.6990     0.1090 H     1 <1>   0.0800 
 26 H       -2.3520    -7.9600    -1.6610 H     1 <1>   0.0800 
 27 H       -1.8210    -8.4060    -0.0490 H     1 <1>   0.0800 
 28 H       -0.6490    -8.0390    -1.2920 H     1 <1>   0.0800 
 29 H       -4.0450    -7.4420     0.0180 H     1 <1>   0.0800 
 30 H       -3.9230    -6.3580     1.3890 H     1 <1>   0.0800 
 31 H       -3.0600    -4.5040    -2.2560 H     1 <1>   0.0800 
 32 H       -3.4420    -6.2040    -2.4190 H     1 <1>   0.0800 
 33 H       -6.1100    -6.5150    -0.2960 H     1 <1>   0.0800 
 34 H       -5.6300    -5.5240    -2.2940 H     1 <1>   0.0800 
 35 H       -5.0620    -4.2810     1.3740 H     1 <1>   0.0800 
 36 H       -6.6600    -5.0130     1.3920 H     1 <1>   0.0800 
 37 H       -5.8220    -3.2080    -2.2390 H     1 <1>   0.0800 
 38 H       -4.4920    -3.0420    -1.1010 H     1 <1>   0.0800 
 39 H       -7.3570    -3.7580    -0.5060 H     1 <1>   0.0800 
 40 H       -5.3890    -2.1620     0.7520 H     1 <1>   0.4000 
@<TRIPOS>BOND
  1   1   2  1   
  2   2   3  ar  
  3   2   4  ar  
  4   3   5  ar  
  5   3  21  1   
  6   4   6  ar  
  7   4  22  1   
  8   5   7  ar  
  9   5  23  1   
 10   6   7  ar  
 11   6  24  1   
 12   7   8  1   
 13   8   9  2   
 14   8  10  am  
 15  10  11  1   
 16  10  12  1   
 17  11  13  1   
 18  11  14  1   
 19  11  25  1   
 20  12  26  1   
 21  12  27  1   
 22  12  28  1   
 23  13  15  1   
 24  13  29  1   
 25  13  30  1   
 26  14  16  1   
 27  14  31  1   
 28  14  32  1   
 29  15  16  1   
 30  15  17  1   
 31  15  33  1   
 32  16  18  1   
 33  16  34  1   
 34  17  19  1   
 35  17  35  1   
 36  17  36  1   
 37  18  19  1   
 38  18  37  1   
 39  18  38  1   
 40  19  20  1   
 41  19  39  1   
 42  20  40  1   
@<TRIPOS>SUBSTRUCTURE
  1 ****  11 GROUP 4 **** **** 0

# MOE 2024.06 (io_trps.svl 2023.06)
