@<TRIPOS>MOLECULE
NONAME
45 47 1 0 0 
SMALL
USER_CHARGES


@<TRIPOS>ATOM
  1 O        2.4430     2.7800     0.7200 O.2   1 <1>  -0.5700 
  2 C        1.3300     2.8780     1.1840 C.2   1 <1>   0.7800 
  3 O        1.1010     2.8370     2.4880 O.3   1 <1>  -0.4300 
  4 N        0.2000     3.1010     0.4830 N.am  1 <1>  -0.6600 
  5 C       -0.2660     3.0790     2.7660 C.3   1 <1>   0.1200 
  6 C       -0.9230     3.3110     1.3990 C.3   1 <1>   0.1400 
  7 C        0.1430     3.4660    -0.9640 C.3   1 <1>   0.2010 
  8 C       -0.0120     4.9680    -1.1880 C.2   1 <1>   0.5690 
  9 O       -0.9510     5.3550    -1.8420 O.2   1 <1>  -0.5700 
 10 N        0.9150     5.8010    -0.6220 N.am  1 <1>  -0.4940 
 11 C        1.0920     7.2020    -0.6440 C.2   1 <1>  -0.0880 
 12 N        0.1580     8.1830    -0.7680 N.pl3 1 <1>   0.3140 
 13 C        2.2970     7.8220    -0.4990 C.2   1 <1>  -0.0540 
 14 N        0.7190     9.4090    -0.6940 N.2   1 <1>  -0.7070 
 15 C       -1.3010     8.0680    -0.8890 C.3   1 <1>   0.0160 
 16 C        3.6030     7.2150    -0.3740 C.ar  1 <1>   0.0540 
 17 C        1.9810     9.1850    -0.5300 C.2   1 <1>   0.1080 
 18 C        3.9190     6.2960     0.6360 C.ar  1 <1>   0.0820 
 19 C        4.5910     7.5380    -1.3010 C.ar  1 <1>  -0.1500 
 20 C        2.9740    10.3160    -0.3820 C.3   1 <1>  -0.0590 
 21 O        2.9510     5.9880     1.5430 O.3   1 <1>  -0.3630 
 22 C        5.1890     5.7270     0.6910 C.ar  1 <1>  -0.1500 
 23 C        5.8530     6.9790    -1.2380 C.ar  1 <1>  -0.1500 
 24 C        3.2560     5.3080     2.7420 C.3   1 <1>   0.0400 
 25 C        6.1520     6.0700    -0.2400 C.ar  1 <1>  -0.1500 
 26 H       -0.3440     3.9460     3.3990 H     1 <1>   0.0800 
 27 H       -0.6750     2.2160     3.2620 H     1 <1>   0.0800 
 28 H       -1.7090     2.6000     1.2150 H     1 <1>   0.0800 
 29 H       -1.3040     4.3150     1.3190 H     1 <1>   0.0800 
 30 H       -0.6830     2.9560    -1.4240 H     1 <1>   0.0800 
 31 H        1.0460     3.1410    -1.4500 H     1 <1>   0.0800 
 32 H        1.6730     5.3220    -0.1160 H     1 <1>   0.3700 
 33 H       -1.6500     7.2830    -0.2460 H     1 <1>   0.0800 
 34 H       -1.5490     7.8470    -1.9090 H     1 <1>   0.0800 
 35 H       -1.7530     8.9980    -0.6010 H     1 <1>   0.0800 
 36 H        4.3580     8.2340    -2.0870 H     1 <1>   0.1500 
 37 H        3.7940    10.0140     0.2430 H     1 <1>   0.0800 
 38 H        2.4900    11.1640     0.0670 H     1 <1>   0.0800 
 39 H        3.3450    10.5990    -1.3490 H     1 <1>   0.0800 
 40 H        5.4460     5.0090     1.4460 H     1 <1>   0.1500 
 41 H        6.5990     7.2450    -1.9660 H     1 <1>   0.1500 
 42 H        2.3620     5.2590     3.3360 H     1 <1>   0.0800 
 43 H        4.0170     5.8540     3.2700 H     1 <1>   0.0800 
 44 H        3.5900     4.3120     2.5090 H     1 <1>   0.0800 
 45 H        7.1320     5.6260    -0.1910 H     1 <1>   0.1500 
@<TRIPOS>BOND
  1   1   2  2   
  2   2   3  1   
  3   2   4  am  
  4   3   5  1   
  5   4   6  1   
  6   4   7  1   
  7   5   6  1   
  8   5  26  1   
  9   5  27  1   
 10   6  28  1   
 11   6  29  1   
 12   7   8  1   
 13   7  30  1   
 14   7  31  1   
 15   8   9  2   
 16   8  10  am  
 17  10  11  1   
 18  10  32  1   
 19  11  12  1   
 20  11  13  2   
 21  12  14  1   
 22  12  15  1   
 23  13  16  1   
 24  13  17  1   
 25  14  17  2   
 26  15  33  1   
 27  15  34  1   
 28  15  35  1   
 29  16  18  ar  
 30  16  19  ar  
 31  17  20  1   
 32  18  21  1   
 33  18  22  ar  
 34  19  23  ar  
 35  19  36  1   
 36  20  37  1   
 37  20  38  1   
 38  20  39  1   
 39  21  24  1   
 40  22  25  ar  
 41  22  40  1   
 42  23  25  ar  
 43  23  41  1   
 44  24  42  1   
 45  24  43  1   
 46  24  44  1   
 47  25  45  1   
@<TRIPOS>SUBSTRUCTURE
  1 ****  10 GROUP 4 **** **** 0

# MOE 2024.06 (io_trps.svl 2023.06)
