@<TRIPOS>MOLECULE
NONAME
57 59 1 0 0 
SMALL
USER_CHARGES


@<TRIPOS>ATOM
  1 O       -0.6720    -0.0540    -0.5070 O.2   1 <1>  -0.5700 
  2 C       -1.6260     0.7000    -0.4390 C.2   1 <1>   0.5440 
  3 N       -2.8850     0.1590    -0.3210 N.am  1 <1>  -0.6600 
  4 C       -1.4150     2.1340    -0.4620 C.ar  1 <1>   0.0860 
  5 C       -4.0770     0.8920     0.1770 C.3   1 <1>   0.1400 
  6 C       -3.1190    -1.3030    -0.2530 C.3   1 <1>   0.1400 
  7 C       -0.4500     2.7190     0.3570 C.ar  1 <1>  -0.1500 
  8 C       -2.1610     2.9730    -1.2900 C.ar  1 <1>  -0.1500 
  9 C       -4.9480    -0.1850     0.8260 C.3   1 <1>  -0.0800 
 10 C       -4.6180    -1.4500     0.0180 C.3   1 <1>  -0.0800 
 11 C       -0.2410     4.0930     0.3720 C.ar  1 <1>   0.0830 
 12 C       -1.9690     4.3420    -1.2870 C.ar  1 <1>  -0.1500 
 13 C       -6.4560     0.1510     0.9270 C.3   1 <1>   0.2800 
 14 C       -5.3920    -1.5240    -1.3160 C.3   1 <1>  -0.1600 
 15 O        0.6950     4.6890     1.1650 O.3   1 <1>  -0.3630 
 16 C       -1.0110     4.9060    -0.4610 C.ar  1 <1>   0.0830 
 17 O       -6.5730     1.4650     1.3290 O.3   1 <1>  -0.6800 
 18 C       -7.1520     0.0520    -0.4430 C.3   1 <1>  -0.1600 
 19 C       -7.1890    -0.7230     1.9750 C.3   1 <1>  -0.1600 
 20 C       -6.8950    -1.2950    -1.1340 C.3   1 <1>  -0.1600 
 21 C        1.5320     3.9350     2.0130 C.3   1 <1>   0.0400 
 22 O       -0.8440     6.2490    -0.4560 O.3   1 <1>  -0.3630 
 23 C       -6.7930    -0.5030     3.4480 C.3   1 <1>  -0.2400 
 24 C       -0.3030     6.8570    -1.6060 C.3   1 <1>   0.2000 
 25 C        1.2170     6.6890    -1.5800 C.3   1 <1>  -0.2400 
 26 C       -0.7040     8.3290    -1.5710 C.3   1 <1>  -0.2400 
 27 H       -3.8070     1.6510     0.8910 H     1 <1>   0.0800 
 28 H       -4.5880     1.3450    -0.6540 H     1 <1>   0.0800 
 29 H       -2.8170    -1.7800    -1.1700 H     1 <1>   0.0800 
 30 H       -2.5460    -1.7100     0.5640 H     1 <1>   0.0800 
 31 H        0.1270     2.0610     0.9790 H     1 <1>   0.1500 
 32 H       -2.9000     2.5400    -1.9420 H     1 <1>   0.1500 
 33 H       -4.5590    -0.3200     1.8170 H     1 <1>   0.0800 
 34 H       -4.8140    -2.3370     0.5950 H     1 <1>   0.0800 
 35 H       -2.5650     4.9750    -1.9190 H     1 <1>   0.1500 
 36 H       -5.0140    -0.7790    -1.9960 H     1 <1>   0.0800 
 37 H       -5.2270    -2.4850    -1.7720 H     1 <1>   0.0800 
 38 H       -7.5070     1.6580     1.5270 H     1 <1>   0.4000 
 39 H       -8.2130     0.1900    -0.3300 H     1 <1>   0.0800 
 40 H       -6.7880     0.8350    -1.0850 H     1 <1>   0.0800 
 41 H       -8.2480    -0.5560     1.8880 H     1 <1>   0.0800 
 42 H       -7.0240    -1.7590     1.7400 H     1 <1>   0.0800 
 43 H       -7.3190    -2.0990    -0.5580 H     1 <1>   0.0800 
 44 H       -7.3740    -1.2980    -2.0980 H     1 <1>   0.0800 
 45 H        2.1890     4.6160     2.5230 H     1 <1>   0.0800 
 46 H        2.1070     3.2490     1.4180 H     1 <1>   0.0800 
 47 H        0.9220     3.4110     2.7280 H     1 <1>   0.0800 
 48 H       -6.9380     0.5230     3.7380 H     1 <1>   0.0800 
 49 H       -5.7650    -0.7660     3.6200 H     1 <1>   0.0800 
 50 H       -7.4030    -1.1200     4.0840 H     1 <1>   0.0800 
 51 H       -0.7200     6.3850    -2.4790 H     1 <1>   0.0800 
 52 H        1.6210     7.1090    -0.6770 H     1 <1>   0.0800 
 53 H        1.6580     7.1870    -2.4230 H     1 <1>   0.0800 
 54 H        1.4740     5.6460    -1.6300 H     1 <1>   0.0800 
 55 H       -0.3110     8.8010    -0.6870 H     1 <1>   0.0800 
 56 H       -1.7750     8.4160    -1.5730 H     1 <1>   0.0800 
 57 H       -0.3170     8.8380    -2.4350 H     1 <1>   0.0800 
@<TRIPOS>BOND
  1   1   2  2   
  2   2   3  am  
  3   2   4  1   
  4   3   5  1   
  5   3   6  1   
  6   4   7  ar  
  7   4   8  ar  
  8   5   9  1   
  9   5  27  1   
 10   5  28  1   
 11   6  10  1   
 12   6  29  1   
 13   6  30  1   
 14   7  11  ar  
 15   7  31  1   
 16   8  12  ar  
 17   8  32  1   
 18   9  10  1   
 19   9  13  1   
 20   9  33  1   
 21  10  14  1   
 22  10  34  1   
 23  11  15  1   
 24  11  16  ar  
 25  12  16  ar  
 26  12  35  1   
 27  13  17  1   
 28  13  18  1   
 29  13  19  1   
 30  14  20  1   
 31  14  36  1   
 32  14  37  1   
 33  15  21  1   
 34  16  22  1   
 35  17  38  1   
 36  18  20  1   
 37  18  39  1   
 38  18  40  1   
 39  19  23  1   
 40  19  41  1   
 41  19  42  1   
 42  20  43  1   
 43  20  44  1   
 44  21  45  1   
 45  21  46  1   
 46  21  47  1   
 47  22  24  1   
 48  23  48  1   
 49  23  49  1   
 50  23  50  1   
 51  24  25  1   
 52  24  26  1   
 53  24  51  1   
 54  25  52  1   
 55  25  53  1   
 56  25  54  1   
 57  26  55  1   
 58  26  56  1   
 59  26  57  1   
@<TRIPOS>SUBSTRUCTURE
  1 ****   4 GROUP 4 **** **** 0

# MOE 2024.06 (io_trps.svl 2023.06)
