@<TRIPOS>MOLECULE
NONAME
43 43 1 0 0 
SMALL
USER_CHARGES


@<TRIPOS>ATOM
  1 S       -0.1450     0.1110    -1.2490 S.o2  1 <1>   1.5760 
  2 O       -0.9700     1.0950    -1.9170 O.2   1 <1>  -0.6500 
  3 O        0.1050    -1.1440    -1.9200 O.2   1 <1>  -0.6500 
  4 N        1.3180     0.8460    -0.8120 N.am  1 <1>  -0.8490 
  5 N       -0.8570    -0.2310     0.2590 N.am  1 <1>  -0.8490 
  6 C        2.1640     0.1410     0.1790 C.3   1 <1>   0.4140 
  7 C        1.2440     2.3190    -0.6730 C.3   1 <1>   0.2760 
  8 C       -0.7890    -1.6490     0.6360 C.3   1 <1>   0.1160 
  9 C       -2.2540     0.2170     0.3410 C.3   1 <1>   0.1160 
 10 C        3.3400     1.0190     0.6240 C.2   1 <1>  -0.2880 
 11 C        2.7720    -1.1620    -0.3880 C.3   1 <1>  -0.0220 
 12 C        2.6590     2.9150    -0.8020 C.3   1 <1>  -0.0220 
 13 C        0.5660     2.7770     0.6430 C.3   1 <1>  -0.0220 
 14 C        3.6010     2.2520     0.1830 C.2   1 <1>  -0.2760 
 15 C        3.5810    -1.9420     0.6450 C.2   1 <1>  -0.2880 
 16 C        0.2170     4.2630     0.7190 C.2   1 <1>  -0.2880 
 17 C        4.8050     3.0780     0.5970 C.3   1 <1>  -0.1020 
 18 C        4.8870    -2.2070     0.5460 C.2   1 <1>  -0.3000 
 19 C        0.1490     5.1450    -0.2850 C.2   1 <1>  -0.3000 
 20 H        1.5760    -0.0850     1.0520 H     1 <1>   0.0800 
 21 H        0.6750     2.7130    -1.4960 H     1 <1>   0.0800 
 22 H       -1.1980    -1.7910     1.6220 H     1 <1>   0.0800 
 23 H        0.2300    -1.9890     0.6440 H     1 <1>   0.0800 
 24 H       -1.3450    -2.2510    -0.0650 H     1 <1>   0.0800 
 25 H       -2.6540     0.0150     1.3200 H     1 <1>   0.0800 
 26 H       -2.8540    -0.2880    -0.3980 H     1 <1>   0.0800 
 27 H       -2.3190     1.2780     0.1670 H     1 <1>   0.0800 
 28 H        3.9710     0.5280     1.3420 H     1 <1>   0.1500 
 29 H        2.0170    -1.8310    -0.7390 H     1 <1>   0.0800 
 30 H        3.3990    -0.9070    -1.2240 H     1 <1>   0.0800 
 31 H        3.0220     2.7680    -1.8030 H     1 <1>   0.0800 
 32 H        2.6200     3.9720    -0.6180 H     1 <1>   0.0800 
 33 H       -0.3480     2.2420     0.7910 H     1 <1>   0.0800 
 34 H        1.2110     2.5450     1.4710 H     1 <1>   0.0800 
 35 H        2.9890    -2.2710     1.4830 H     1 <1>   0.1500 
 36 H        0.0020     4.5610     1.7320 H     1 <1>   0.1500 
 37 H        5.3940     3.3320    -0.2660 H     1 <1>   0.0800 
 38 H        5.4240     2.5260     1.2820 H     1 <1>   0.0800 
 39 H        4.4850     3.9840     1.0810 H     1 <1>   0.0800 
 40 H        5.4470    -2.7610     1.2810 H     1 <1>   0.1500 
 41 H        5.5070    -1.8930    -0.2760 H     1 <1>   0.1500 
 42 H       -0.1090     6.1810    -0.1460 H     1 <1>   0.1500 
 43 H        0.3340     4.9250    -1.3220 H     1 <1>   0.1500 
@<TRIPOS>BOND
  1   1   2  2   
  2   1   3  2   
  3   1   4  am  
  4   1   5  am  
  5   4   6  1   
  6   4   7  1   
  7   5   8  1   
  8   5   9  1   
  9   6  10  1   
 10   6  11  1   
 11   6  20  1   
 12   7  12  1   
 13   7  13  1   
 14   7  21  1   
 15   8  22  1   
 16   8  23  1   
 17   8  24  1   
 18   9  25  1   
 19   9  26  1   
 20   9  27  1   
 21  10  14  2   
 22  10  28  1   
 23  11  15  1   
 24  11  29  1   
 25  11  30  1   
 26  12  14  1   
 27  12  31  1   
 28  12  32  1   
 29  13  16  1   
 30  13  33  1   
 31  13  34  1   
 32  14  17  1   
 33  15  18  2   
 34  15  35  1   
 35  16  19  2   
 36  16  36  1   
 37  17  37  1   
 38  17  38  1   
 39  17  39  1   
 40  18  40  1   
 41  18  41  1   
 42  19  42  1   
 43  19  43  1   
@<TRIPOS>SUBSTRUCTURE
  1 ****   4 GROUP 4 **** **** 0

# MOE 2024.06 (io_trps.svl 2023.06)
