@<TRIPOS>MOLECULE
NONAME
41 42 1 0 0 
SMALL
USER_CHARGES


@<TRIPOS>ATOM
  1 O        1.4270    -1.1330     2.6800 O.2   1 <1>  -0.5700 
  2 C        1.9430    -1.3490     1.6100 C.2   1 <1>   0.5690 
  3 N        2.4380    -0.3670     0.7950 N.am  1 <1>  -0.4940 
  4 C        2.0450    -2.8020     1.1280 C.3   1 <1>   0.1710 
  5 C        2.4570     1.0200     0.9820 C.2   1 <1>   0.2040 
  6 N        0.9160    -3.2880     0.2860 N.3   1 <1>  -0.8100 
  7 O        2.0080     1.5880     2.0760 O.3   1 <1>  -0.0190 
  8 C        2.9000     1.9970     0.1670 C.2   1 <1>  -0.1810 
  9 C       -0.3530    -3.2510     1.0450 C.3   1 <1>   0.2530 
 10 C        0.8060    -2.5800    -0.9990 C.3   1 <1>   0.0300 
 11 N        2.1310     2.8910     2.0330 N.2   1 <1>  -0.4100 
 12 C        2.6650     3.1610     0.8970 C.2   1 <1>   0.1080 
 13 C        3.5130     1.8910    -1.2200 C.3   1 <1>   0.0210 
 14 C       -1.4650    -3.9710     0.2950 C.ar  1 <1>  -0.1430 
 15 C        2.9790     4.5720     0.4470 C.3   1 <1>  -0.0590 
 16 C        5.0400     1.8710    -1.1330 C.3   1 <1>  -0.2400 
 17 C       -2.6890    -3.3790     0.0550 C.ar  1 <1>  -0.1500 
 18 C       -1.3080    -5.2570    -0.1810 C.ar  1 <1>  -0.1500 
 19 C       -3.6660    -4.0810    -0.6310 C.ar  1 <1>   0.1600 
 20 C       -2.3490    -5.8710    -0.8560 C.ar  1 <1>   0.1600 
 21 N       -3.5260    -5.3130    -1.0930 N.ar  1 <1>  -0.6200 
 22 H        2.8320    -0.6850    -0.0850 H     1 <1>   0.3700 
 23 H        2.1150    -3.4300     1.9990 H     1 <1>   0.0800 
 24 H        2.9620    -2.9250     0.5830 H     1 <1>   0.0800 
 25 H       -0.6390    -2.2290     1.2350 H     1 <1>   0.0800 
 26 H       -0.2150    -3.7370     1.9960 H     1 <1>   0.0800 
 27 H        1.7500    -2.6030    -1.5150 H     1 <1>   0.0800 
 28 H        0.5010    -1.5590    -0.8490 H     1 <1>   0.0800 
 29 H        0.0760    -3.0670    -1.6240 H     1 <1>   0.0800 
 30 H        3.1910     2.7230    -1.8230 H     1 <1>   0.0800 
 31 H        3.1690     0.9920    -1.6990 H     1 <1>   0.0800 
 32 H        4.0330     4.6740     0.2690 H     1 <1>   0.0800 
 33 H        2.6880     5.2720     1.2090 H     1 <1>   0.0800 
 34 H        2.4400     4.7980    -0.4540 H     1 <1>   0.0800 
 35 H        5.4010     2.7760    -0.6780 H     1 <1>   0.0800 
 36 H        5.4660     1.7870    -2.1170 H     1 <1>   0.0800 
 37 H        5.3690     1.0360    -0.5400 H     1 <1>   0.0800 
 38 H       -2.8910    -2.3790     0.3940 H     1 <1>   0.1500 
 39 H       -0.3780    -5.7760    -0.0330 H     1 <1>   0.1500 
 40 H       -4.6140    -3.6040    -0.8090 H     1 <1>   0.1500 
 41 H       -2.2050    -6.8730    -1.2210 H     1 <1>   0.1500 
@<TRIPOS>BOND
  1   1   2  2   
  2   2   3  am  
  3   2   4  1   
  4   3   5  1   
  5   3  22  1   
  6   4   6  1   
  7   4  23  1   
  8   4  24  1   
  9   5   7  1   
 10   5   8  2   
 11   6   9  1   
 12   6  10  1   
 13   7  11  1   
 14   8  12  1   
 15   8  13  1   
 16   9  14  1   
 17   9  25  1   
 18   9  26  1   
 19  10  27  1   
 20  10  28  1   
 21  10  29  1   
 22  11  12  2   
 23  12  15  1   
 24  13  16  1   
 25  13  30  1   
 26  13  31  1   
 27  14  17  ar  
 28  14  18  ar  
 29  15  32  1   
 30  15  33  1   
 31  15  34  1   
 32  16  35  1   
 33  16  36  1   
 34  16  37  1   
 35  17  19  ar  
 36  17  38  1   
 37  18  20  ar  
 38  18  39  1   
 39  19  21  ar  
 40  19  40  1   
 41  20  21  ar  
 42  20  41  1   
@<TRIPOS>SUBSTRUCTURE
  1 ****   2 GROUP 4 **** **** 0

# MOE 2024.06 (io_trps.svl 2023.06)
