@<TRIPOS>MOLECULE
NONAME
50 52 1 0 0 
SMALL
USER_CHARGES


@<TRIPOS>ATOM
  1 O       -0.4870     0.8430     1.5360 O.2   1 <1>  -0.5700 
  2 C       -0.3400     1.8850     0.9520 C.2   1 <1>   0.5690 
  3 N       -1.1030     2.9600     1.2550 N.am  1 <1>  -0.7300 
  4 C        0.7050     1.9990    -0.1680 C.3   1 <1>   0.1810 
  5 C       -0.9220     4.2790     0.6120 C.3   1 <1>   0.3640 
  6 O        0.9930     3.3360    -0.5320 O.3   1 <1>  -0.5600 
  7 C       -2.2760     4.9540     0.4490 C.ar  1 <1>  -0.1440 
  8 C       -0.1630     4.1370    -0.7260 C.3   1 <1>   0.2610 
  9 C       -2.4660     6.2250     0.9670 C.ar  1 <1>  -0.1500 
 10 C       -3.3230     4.3380    -0.2200 C.ar  1 <1>  -0.1500 
 11 C        0.1990     5.5200    -1.2640 C.2   1 <1>   0.5690 
 12 C       -3.6680     6.8890     0.8040 C.ar  1 <1>   0.0830 
 13 C       -4.5380     4.9860    -0.3750 C.ar  1 <1>  -0.1500 
 14 O       -0.5060     6.0270    -2.1030 O.2   1 <1>  -0.5700 
 15 N        1.2930     6.1660    -0.7760 N.am  1 <1>  -0.7300 
 16 O       -3.7390     8.1390     1.3280 O.3   1 <1>  -0.3630 
 17 C       -4.7290     6.2680     0.1350 C.ar  1 <1>   0.0830 
 18 C        1.7160     7.5320    -1.1720 C.3   1 <1>   0.1400 
 19 C       -4.0460     9.2000     0.4500 C.3   1 <1>   0.0400 
 20 O       -5.9160     6.9300     0.0180 O.3   1 <1>  -0.3630 
 21 C        1.0790     8.5920    -0.2620 C.3   1 <1>   0.0000 
 22 C       -7.0400     6.3380    -0.5950 C.3   1 <1>   0.0400 
 23 C        1.2700    10.0230    -0.7930 C.3   1 <1>   0.2580 
 24 C       -0.3980     8.8880    -0.5830 C.3   1 <1>   0.2580 
 25 C        1.3890     8.4380     1.2440 C.3   1 <1>  -0.2400 
 26 O       -0.0890    10.2720    -0.4570 O.3   1 <1>  -0.5160 
 27 H       -1.8020     2.8860     1.9970 H     1 <1>   0.3700 
 28 H        0.3490     1.4810    -1.0400 H     1 <1>   0.0800 
 29 H        1.6230     1.5410     0.1540 H     1 <1>   0.0800 
 30 H       -0.3190     4.8820     1.2700 H     1 <1>   0.0800 
 31 H       -0.7880     3.6520    -1.4530 H     1 <1>   0.0800 
 32 H       -1.6800     6.7300     1.4990 H     1 <1>   0.1500 
 33 H       -3.2010     3.3480    -0.6260 H     1 <1>   0.1500 
 34 H       -5.3210     4.4720    -0.8980 H     1 <1>   0.1500 
 35 H        1.9370     5.6400    -0.1770 H     1 <1>   0.3700 
 36 H        2.7890     7.5990    -1.1140 H     1 <1>   0.0800 
 37 H        1.4280     7.7080    -2.1960 H     1 <1>   0.0800 
 38 H       -3.6990    10.1150     0.8950 H     1 <1>   0.0800 
 39 H       -5.1110     9.2430     0.3110 H     1 <1>   0.0800 
 40 H       -3.5490     9.0370    -0.4900 H     1 <1>   0.0800 
 41 H       -7.8530     7.0400    -0.5470 H     1 <1>   0.0800 
 42 H       -7.2970     5.4430    -0.0590 H     1 <1>   0.0800 
 43 H       -6.8040     6.1220    -1.6220 H     1 <1>   0.0800 
 44 H        1.4030    10.1040    -1.8590 H     1 <1>   0.0000 
 45 H        1.9220    10.6490    -0.2100 H     1 <1>   0.0000 
 46 H       -1.1010     8.5930     0.1730 H     1 <1>   0.0000 
 47 H       -0.7040     8.6750    -1.5930 H     1 <1>   0.0000 
 48 H        2.4510     8.4530     1.4090 H     1 <1>   0.0800 
 49 H        0.9910     7.5120     1.6160 H     1 <1>   0.0800 
 50 H        0.9450     9.2430     1.8050 H     1 <1>   0.0800 
@<TRIPOS>BOND
  1   1   2  2   
  2   2   3  am  
  3   2   4  1   
  4   3   5  1   
  5   3  27  1   
  6   4   6  1   
  7   4  28  1   
  8   4  29  1   
  9   5   7  1   
 10   5   8  1   
 11   5  30  1   
 12   6   8  1   
 13   7   9  ar  
 14   7  10  ar  
 15   8  11  1   
 16   8  31  1   
 17   9  12  ar  
 18   9  32  1   
 19  10  13  ar  
 20  10  33  1   
 21  11  14  2   
 22  11  15  am  
 23  12  16  1   
 24  12  17  ar  
 25  13  17  ar  
 26  13  34  1   
 27  15  18  1   
 28  15  35  1   
 29  16  19  1   
 30  17  20  1   
 31  18  21  1   
 32  18  36  1   
 33  18  37  1   
 34  19  38  1   
 35  19  39  1   
 36  19  40  1   
 37  20  22  1   
 38  21  23  1   
 39  21  24  1   
 40  21  25  1   
 41  22  41  1   
 42  22  42  1   
 43  22  43  1   
 44  23  26  1   
 45  23  44  1   
 46  23  45  1   
 47  24  26  1   
 48  24  46  1   
 49  24  47  1   
 50  25  48  1   
 51  25  49  1   
 52  25  50  1   
@<TRIPOS>SUBSTRUCTURE
  1 ****   7 GROUP 4 **** **** 0

# MOE 2024.06 (io_trps.svl 2023.06)
