@<TRIPOS>MOLECULE
NONAME
50 52 1 0 0 
SMALL
USER_CHARGES


@<TRIPOS>ATOM
  1 O        3.2920    -1.5050    -0.5150 O.co2 1 <1>  -0.9000 
  2 C        3.3090    -0.6580     0.3800 C.2   1 <1>   0.9060 
  3 O        4.0410    -0.7860     1.3720 O.co2 1 <1>  -0.9000 
  4 C        2.6050     0.6860     0.1290 C.3   1 <1>  -0.1060 
  5 C        3.3400     1.3420    -1.0650 C.3   1 <1>   0.2000 
  6 C        2.7590     1.6600     1.3450 C.3   1 <1>  -0.1600 
  7 C        1.1060     0.4000    -0.1580 C.3   1 <1>  -0.0170 
  8 O        3.2560     0.5250    -2.1820 O.3   1 <1>  -0.6800 
  9 C        4.8370     1.5950    -0.7600 C.3   1 <1>   0.3430 
 10 C        4.1500     2.3040     1.4980 C.3   1 <1>   0.3430 
 11 C        0.2640     1.6350    -0.4740 C.ar  1 <1>  -0.1440 
 12 N        5.1540     1.5530     0.7080 N.4   1 <1>  -0.9590 
 13 C        0.2290     2.1460    -1.7620 C.ar  1 <1>  -0.1500 
 14 C       -0.4880     2.2490     0.5170 C.ar  1 <1>  -0.1500 
 15 C        6.5540     1.9380     1.0270 C.3   1 <1>   0.5240 
 16 C       -0.5290     3.2670    -2.0530 C.ar  1 <1>  -0.1500 
 17 C       -1.2470     3.3700     0.2290 C.ar  1 <1>  -0.1500 
 18 C        6.8990     3.3340     0.5040 C.2   1 <1>   0.1080 
 19 C       -1.2650     3.8820    -1.0560 C.ar  1 <1>  -0.1500 
 20 N        6.2880     4.4240     0.8710 N.2   1 <1>  -0.7070 
 21 C        7.8960     3.5900    -0.4310 C.2   1 <1>  -0.1500 
 22 N        6.8850     5.4130     0.1780 N.pl3 1 <1>   0.3140 
 23 C        7.8590     4.9260    -0.6150 C.2   1 <1>  -0.3020 
 24 C        6.4820     6.8290     0.3110 C.3   1 <1>   0.0960 
 25 C        5.4360     7.2060    -0.7450 C.3   1 <1>  -0.2400 
 26 H        2.8790     2.2790    -1.3210 H     1 <1>   0.0800 
 27 H        2.5200     1.1320     2.2520 H     1 <1>   0.0800 
 28 H        2.0620     2.4720     1.2700 H     1 <1>   0.0800 
 29 H        1.0230    -0.2850    -0.9850 H     1 <1>   0.0800 
 30 H        0.6830    -0.1060     0.6920 H     1 <1>   0.0800 
 31 H        3.2690    -0.4260    -1.8550 H     1 <1>   0.4000 
 32 H        5.1060     2.5590    -1.1600 H     1 <1>   0.0800 
 33 H        5.4170     0.8400    -1.2650 H     1 <1>   0.0800 
 34 H        4.4280     2.3130     2.5390 H     1 <1>   0.0800 
 35 H        4.1170     3.3240     1.1500 H     1 <1>   0.0800 
 36 H        5.0140     0.5560     1.0180 H     1 <1>   0.4500 
 37 H        0.7930     1.6670    -2.5460 H     1 <1>   0.1500 
 38 H       -0.4850     1.8550     1.5180 H     1 <1>   0.1500 
 39 H        6.6970     1.9200     2.0940 H     1 <1>   0.0800 
 40 H        7.2280     1.2220     0.5880 H     1 <1>   0.0800 
 41 H       -0.5470     3.6560    -3.0560 H     1 <1>   0.1500 
 42 H       -1.8250     3.8420     1.0040 H     1 <1>   0.1500 
 43 H       -1.8550     4.7530    -1.2820 H     1 <1>   0.1500 
 44 H        8.5490     2.8720    -0.8970 H     1 <1>   0.1500 
 45 H        8.4600     5.5470    -1.2540 H     1 <1>   0.1500 
 46 H        6.0780     6.9720     1.2970 H     1 <1>   0.0800 
 47 H        7.3560     7.4450     0.2070 H     1 <1>   0.0800 
 48 H        4.5580     6.5940    -0.6320 H     1 <1>   0.0800 
 49 H        5.8370     7.0780    -1.7340 H     1 <1>   0.0800 
 50 H        5.1510     8.2360    -0.6230 H     1 <1>   0.0800 
@<TRIPOS>BOND
  1   1   2  ar  
  2   2   3  ar  
  3   2   4  1   
  4   4   5  1   
  5   4   6  1   
  6   4   7  1   
  7   5   8  1   
  8   5   9  1   
  9   5  26  1   
 10   6  10  1   
 11   6  27  1   
 12   6  28  1   
 13   7  11  1   
 14   7  29  1   
 15   7  30  1   
 16   8  31  1   
 17   9  12  1   
 18   9  32  1   
 19   9  33  1   
 20  10  12  1   
 21  10  34  1   
 22  10  35  1   
 23  11  13  ar  
 24  11  14  ar  
 25  12  15  1   
 26  12  36  1   
 27  13  16  ar  
 28  13  37  1   
 29  14  17  ar  
 30  14  38  1   
 31  15  18  1   
 32  15  39  1   
 33  15  40  1   
 34  16  19  ar  
 35  16  41  1   
 36  17  19  ar  
 37  17  42  1   
 38  18  20  2   
 39  18  21  1   
 40  19  43  1   
 41  20  22  1   
 42  21  23  2   
 43  21  44  1   
 44  22  23  1   
 45  22  24  1   
 46  23  45  1   
 47  24  25  1   
 48  24  46  1   
 49  24  47  1   
 50  25  48  1   
 51  25  49  1   
 52  25  50  1   
@<TRIPOS>SUBSTRUCTURE
  1 ****   5 GROUP 4 **** **** 0

# MOE 2024.06 (io_trps.svl 2023.06)
