@<TRIPOS>MOLECULE
NONAME
50 53 1 0 0 
SMALL
USER_CHARGES


@<TRIPOS>ATOM
  1 S        0.2370     0.2070    -1.6850 S.o2  1 <1>   1.5760 
  2 O        1.1390    -0.5270    -2.5450 O.2   1 <1>  -0.6500 
  3 O       -0.6950     1.1590    -2.2450 O.2   1 <1>  -0.6500 
  4 N       -0.6190    -0.8770    -0.7150 N.am  1 <1>  -0.8490 
  5 N        1.1720     0.9900    -0.5220 N.am  1 <1>  -0.8490 
  6 C       -1.5910    -0.1820     0.1320 C.3   1 <1>   0.1960 
  7 C       -1.2790    -1.8950    -1.5320 C.3   1 <1>   0.1960 
  8 C        1.8310     2.1380    -1.1430 C.3   1 <1>   0.3390 
  9 C        2.1520     0.0880     0.1010 C.3   1 <1>   0.1160 
 10 C       -2.2270    -1.1740     1.1050 C.3   1 <1>  -0.1600 
 11 C       -1.9090    -2.9540    -0.6270 C.3   1 <1>  -0.1600 
 12 C        2.6080     2.9560    -0.1180 C.ar  1 <1>  -0.1440 
 13 C       -2.9020    -2.3230     0.3490 C.3   1 <1>   0.4600 
 14 C        1.9490     3.5320     0.9570 C.ar  1 <1>  -0.1500 
 15 C        3.9780     3.1330    -0.2480 C.ar  1 <1>  -0.1500 
 16 O       -3.9530    -1.8010    -0.4410 O.3   1 <1>  -0.5600 
 17 C       -3.4790    -3.3660     1.3000 C.2   1 <1>  -0.1400 
 18 C        2.6480     4.2770     1.8910 C.ar  1 <1>  -0.1500 
 19 C        4.6790     3.8770     0.6850 C.ar  1 <1>  -0.1500 
 20 C       -5.1970    -1.5680     0.1790 C.3   1 <1>   0.1200 
 21 S       -2.4760    -4.3780     2.3280 S.3   1 <1>  -0.0800 
 22 C       -4.7770    -3.6460     1.4800 C.2   1 <1>  -0.1810 
 23 C        4.0140     4.4500     1.7550 C.ar  1 <1>  -0.1500 
 24 C       -5.8210    -2.8770     0.7020 C.3   1 <1>   0.0210 
 25 C       -3.8990    -5.1850     2.9750 C.2   1 <1>  -0.1100 
 26 C       -5.0260    -4.6870     2.4290 C.2   1 <1>  -0.1500 
 27 H       -2.3520     0.2810    -0.4770 H     1 <1>   0.0800 
 28 H       -1.0970     0.5920     0.6960 H     1 <1>   0.0800 
 29 H       -0.5560    -2.3730    -2.1720 H     1 <1>   0.0800 
 30 H       -2.0310    -1.4380    -2.1560 H     1 <1>   0.0800 
 31 H        1.0900     2.7820    -1.5870 H     1 <1>   0.0800 
 32 H        2.4890     1.8020    -1.9270 H     1 <1>   0.0800 
 33 H        1.6520    -0.7670     0.5230 H     1 <1>   0.0800 
 34 H        2.6730     0.5900     0.8980 H     1 <1>   0.0800 
 35 H        2.8690    -0.2570    -0.6260 H     1 <1>   0.0800 
 36 H       -2.9360    -0.6750     1.7370 H     1 <1>   0.0800 
 37 H       -1.4560    -1.5700     1.7390 H     1 <1>   0.0800 
 38 H       -1.1250    -3.4470    -0.0840 H     1 <1>   0.0800 
 39 H       -2.4140    -3.6940    -1.2200 H     1 <1>   0.0800 
 40 H        0.8870     3.3940     1.0680 H     1 <1>   0.1500 
 41 H        4.5080     2.6930    -1.0760 H     1 <1>   0.1500 
 42 H        2.1300     4.7200     2.7230 H     1 <1>   0.1500 
 43 H        5.7410     4.0110     0.5790 H     1 <1>   0.1500 
 44 H       -5.8450    -1.1130    -0.5490 H     1 <1>   0.0800 
 45 H       -5.0490    -0.8750     0.9880 H     1 <1>   0.0800 
 46 H        4.5590     5.0280     2.4810 H     1 <1>   0.1500 
 47 H       -6.1700    -3.4700    -0.1230 H     1 <1>   0.0800 
 48 H       -6.6580    -2.6440     1.3350 H     1 <1>   0.0800 
 49 H       -3.7390    -5.9580     3.7050 H     1 <1>   0.1500 
 50 H       -6.0270    -5.0100     2.6540 H     1 <1>   0.1500 
@<TRIPOS>BOND
  1   1   2  2   
  2   1   3  2   
  3   1   4  am  
  4   1   5  am  
  5   4   6  1   
  6   4   7  1   
  7   5   8  1   
  8   5   9  1   
  9   6  10  1   
 10   6  27  1   
 11   6  28  1   
 12   7  11  1   
 13   7  29  1   
 14   7  30  1   
 15   8  12  1   
 16   8  31  1   
 17   8  32  1   
 18   9  33  1   
 19   9  34  1   
 20   9  35  1   
 21  10  13  1   
 22  10  36  1   
 23  10  37  1   
 24  11  13  1   
 25  11  38  1   
 26  11  39  1   
 27  12  14  ar  
 28  12  15  ar  
 29  13  16  1   
 30  13  17  1   
 31  14  18  ar  
 32  14  40  1   
 33  15  19  ar  
 34  15  41  1   
 35  16  20  1   
 36  17  21  1   
 37  17  22  2   
 38  18  23  ar  
 39  18  42  1   
 40  19  23  ar  
 41  19  43  1   
 42  20  24  1   
 43  20  44  1   
 44  20  45  1   
 45  21  25  1   
 46  22  24  1   
 47  22  26  1   
 48  23  46  1   
 49  24  47  1   
 50  24  48  1   
 51  25  26  2   
 52  25  49  1   
 53  26  50  1   
@<TRIPOS>SUBSTRUCTURE
  1 ****   6 GROUP 4 **** **** 0

# MOE 2024.06 (io_trps.svl 2023.06)
