@<TRIPOS>MOLECULE
NONAME
49 51 1 0 0 
SMALL
USER_CHARGES


@<TRIPOS>ATOM
  1 O       -0.3430     0.1630     0.5370 O.2   1 <1>  -0.5700 
  2 C       -1.3810     0.7840     0.4110 C.2   1 <1>   0.5440 
  3 N       -2.5510     0.0840     0.2290 N.am  1 <1>  -0.6600 
  4 C       -1.3760     2.2220     0.4500 C.ar  1 <1>   0.0860 
  5 C       -3.8140     0.6530    -0.3100 C.3   1 <1>   0.1400 
  6 C       -2.5950    -1.4000     0.2060 C.3   1 <1>   0.1400 
  7 C       -0.6430     3.0230    -0.4130 C.ar  1 <1>   0.1660 
  8 C       -2.1380     2.9020     1.3800 C.ar  1 <1>   0.1600 
  9 C       -4.5540    -0.5440    -0.9070 C.3   1 <1>   0.2000 
 10 C       -4.0430    -1.7550    -0.1330 C.3   1 <1>  -0.0800 
 11 N       -0.6880     4.3310    -0.3620 N.ar  1 <1>  -0.6200 
 12 C        0.2570     2.4230    -1.4790 C.3   1 <1>  -0.0960 
 13 N       -2.2050     4.2060     1.4500 N.ar  1 <1>  -0.6200 
 14 O       -5.9260    -0.4220    -0.7600 O.3   1 <1>  -0.6800 
 15 C       -4.1880    -3.0770    -0.9030 C.3   1 <1>   0.0210 
 16 C       -1.4680     4.8830     0.5680 C.ar  1 <1>   0.7200 
 17 C       -3.5530    -4.2230    -0.1400 C.2   1 <1>   0.1080 
 18 N       -1.5190     6.2560     0.6200 N.pl3 1 <1>  -0.8380 
 19 N       -3.9130    -4.5530     1.0620 N.2   1 <1>  -0.7070 
 20 C       -2.5260    -5.0280    -0.6210 C.2   1 <1>  -0.1500 
 21 C       -2.5230     6.9890     1.4410 C.3   1 <1>   0.1290 
 22 C       -0.5500     7.1150    -0.1160 C.3   1 <1>   0.1290 
 23 N       -3.1180    -5.5910     1.3820 N.pl3 1 <1>   0.3000 
 24 C       -2.2670    -5.8950     0.3800 C.2   1 <1>  -0.3320 
 25 C       -1.2440    -7.0140     0.4400 C.3   1 <1>  -0.0600 
 26 H       -4.3800     1.0850     0.4960 H     1 <1>   0.0800 
 27 H       -3.6120     1.3930    -1.0650 H     1 <1>   0.0800 
 28 H       -1.9190    -1.7600    -0.5520 H     1 <1>   0.0800 
 29 H       -2.3040    -1.8070     1.1600 H     1 <1>   0.0800 
 30 H       -2.7130     2.3320     2.0900 H     1 <1>   0.1500 
 31 H       -4.3300    -0.6220    -1.9570 H     1 <1>   0.0800 
 32 H       -4.5710    -1.8360     0.8020 H     1 <1>   0.0800 
 33 H       -0.2410     1.6180    -1.9870 H     1 <1>   0.0800 
 34 H        1.1530     2.0450    -1.0210 H     1 <1>   0.0800 
 35 H        0.5290     3.1690    -2.2050 H     1 <1>   0.0800 
 36 H       -6.1770    -0.5170     0.1800 H     1 <1>   0.4000 
 37 H       -3.7260    -2.9950    -1.8700 H     1 <1>   0.0800 
 38 H       -5.2310    -3.2950    -1.0470 H     1 <1>   0.0800 
 39 H       -2.0570    -4.9530    -1.5850 H     1 <1>   0.1500 
 40 H       -2.7900     7.9130     0.9590 H     1 <1>   0.0800 
 41 H       -2.1080     7.2000     2.4110 H     1 <1>   0.0800 
 42 H       -3.4170     6.4030     1.5630 H     1 <1>   0.0800 
 43 H       -0.3540     8.0140     0.4410 H     1 <1>   0.0800 
 44 H       -0.9570     7.3740    -1.0780 H     1 <1>   0.0800 
 45 H        0.3840     6.5990    -0.2590 H     1 <1>   0.0800 
 46 H       -3.1800    -6.0680     2.2900 H     1 <1>   0.2700 
 47 H       -0.6880    -7.0560    -0.4790 H     1 <1>   0.0800 
 48 H       -1.7340    -7.9600     0.5880 H     1 <1>   0.0800 
 49 H       -0.5540    -6.8440     1.2490 H     1 <1>   0.0800 
@<TRIPOS>BOND
  1   1   2  2   
  2   2   3  am  
  3   2   4  1   
  4   3   5  1   
  5   3   6  1   
  6   4   7  ar  
  7   4   8  ar  
  8   5   9  1   
  9   5  26  1   
 10   5  27  1   
 11   6  10  1   
 12   6  28  1   
 13   6  29  1   
 14   7  11  ar  
 15   7  12  1   
 16   8  13  ar  
 17   8  30  1   
 18   9  10  1   
 19   9  14  1   
 20   9  31  1   
 21  10  15  1   
 22  10  32  1   
 23  11  16  ar  
 24  12  33  1   
 25  12  34  1   
 26  12  35  1   
 27  13  16  ar  
 28  14  36  1   
 29  15  17  1   
 30  15  37  1   
 31  15  38  1   
 32  16  18  1   
 33  17  19  2   
 34  17  20  1   
 35  18  21  1   
 36  18  22  1   
 37  19  23  1   
 38  20  24  2   
 39  20  39  1   
 40  21  40  1   
 41  21  41  1   
 42  21  42  1   
 43  22  43  1   
 44  22  44  1   
 45  22  45  1   
 46  23  24  1   
 47  23  46  1   
 48  24  25  1   
 49  25  47  1   
 50  25  48  1   
 51  25  49  1   
@<TRIPOS>SUBSTRUCTURE
  1 ****   3 GROUP 4 **** **** 0

# MOE 2024.06 (io_trps.svl 2023.06)
