@<TRIPOS>MOLECULE
NONAME
39 41 1 0 0 
SMALL
USER_CHARGES


@<TRIPOS>ATOM
  1 O        0.5700    -0.2030     1.3780 O.2   1 <1>  -0.5700 
  2 C        1.3520    -0.3130     0.4690 C.2   1 <1>   0.5690 
  3 N        2.2010     0.6820     0.0850 N.am  1 <1>  -0.4940 
  4 C        1.4250    -1.6210    -0.3080 C.3   1 <1>  -0.0190 
  5 C        2.3310     1.9650     0.5730 C.2   1 <1>   0.5420 
  6 C        0.3420    -2.6280     0.0500 C.3   1 <1>   0.1200 
  7 C        2.6980    -2.4270    -0.0610 C.3   1 <1>  -0.1600 
  8 O        3.2620     2.7070     0.0720 O.3   1 <1>  -0.2800 
  9 N        1.6580     2.5850     1.4750 N.2   1 <1>  -0.3380 
 10 O        0.8650    -3.8480    -0.3590 O.3   1 <1>  -0.5600 
 11 C        2.2360    -3.8820    -0.1300 C.3   1 <1>   0.1200 
 12 C        3.1430     3.8500     0.6900 C.2   1 <1>   0.4250 
 13 N        2.1830     3.8050     1.5520 N.2   1 <1>  -0.3380 
 14 C        4.0420     4.9310     0.3790 C.ar  1 <1>   0.0530 
 15 C        3.5790     6.1860    -0.0360 C.ar  1 <1>   0.0820 
 16 C        5.4210     4.7450     0.4870 C.ar  1 <1>  -0.1500 
 17 O        2.2380     6.3440    -0.1690 O.3   1 <1>  -0.3620 
 18 C        4.4780     7.2120    -0.3140 C.ar  1 <1>  -0.1500 
 19 C        6.3110     5.7640     0.2080 C.ar  1 <1>  -0.1500 
 20 C        1.6390     7.6030    -0.3620 C.3   1 <1>   0.1200 
 21 C        5.8390     7.0010    -0.1910 C.ar  1 <1>  -0.1500 
 22 C        0.1270     7.4100    -0.3200 C.3   1 <1>  -0.2400 
 23 H        2.8360     0.4710    -0.6770 H     1 <1>   0.3700 
 24 H        1.3290    -1.4080    -1.3570 H     1 <1>   0.0800 
 25 H       -0.5860    -2.4440    -0.4630 H     1 <1>   0.0800 
 26 H        0.1750    -2.6780     1.1130 H     1 <1>   0.0800 
 27 H        3.0940    -2.2330     0.9210 H     1 <1>   0.0800 
 28 H        3.4560    -2.2220    -0.7950 H     1 <1>   0.0800 
 29 H        2.4090    -4.3960     0.8010 H     1 <1>   0.0800 
 30 H        2.7000    -4.4200    -0.9390 H     1 <1>   0.0800 
 31 H        5.7970     3.7870     0.8010 H     1 <1>   0.1500 
 32 H        4.1400     8.1800    -0.6320 H     1 <1>   0.1500 
 33 H        7.3710     5.5990     0.3010 H     1 <1>   0.1500 
 34 H        1.9480     7.9870    -1.3190 H     1 <1>   0.0800 
 35 H        1.9610     8.2580     0.4290 H     1 <1>   0.0800 
 36 H        6.5320     7.7960    -0.4080 H     1 <1>   0.1500 
 37 H       -0.1820     6.7430    -1.1050 H     1 <1>   0.0800 
 38 H       -0.3670     8.3550    -0.4550 H     1 <1>   0.0800 
 39 H       -0.1650     7.0010     0.6310 H     1 <1>   0.0800 
@<TRIPOS>BOND
  1   1   2  2   
  2   2   3  am  
  3   2   4  1   
  4   3   5  1   
  5   3  23  1   
  6   4   6  1   
  7   4   7  1   
  8   4  24  1   
  9   5   8  1   
 10   5   9  2   
 11   6  10  1   
 12   6  25  1   
 13   6  26  1   
 14   7  11  1   
 15   7  27  1   
 16   7  28  1   
 17   8  12  1   
 18   9  13  1   
 19  10  11  1   
 20  11  29  1   
 21  11  30  1   
 22  12  13  2   
 23  12  14  1   
 24  14  15  ar  
 25  14  16  ar  
 26  15  17  1   
 27  15  18  ar  
 28  16  19  ar  
 29  16  31  1   
 30  17  20  1   
 31  18  21  ar  
 32  18  32  1   
 33  19  21  ar  
 34  19  33  1   
 35  20  22  1   
 36  20  34  1   
 37  20  35  1   
 38  21  36  1   
 39  22  37  1   
 40  22  38  1   
 41  22  39  1   
@<TRIPOS>SUBSTRUCTURE
  1 ****   8 GROUP 4 **** **** 0

# MOE 2024.06 (io_trps.svl 2023.06)
