@<TRIPOS>MOLECULE
NONAME
63 66 1 0 0 
SMALL
USER_CHARGES


@<TRIPOS>ATOM
  1 O        0.2040     0.4560     0.4340 O.2   1 <1>  -0.5700 
  2 C        0.1710     1.6610     0.2610 C.2   1 <1>   0.5440 
  3 N       -1.0470     2.3060     0.3480 N.am  1 <1>  -0.6600 
  4 C        1.3960     2.3720    -0.0410 C.ar  1 <1>   0.0860 
  5 C       -1.3020     3.6310    -0.2890 C.3   1 <1>   0.1400 
  6 C       -2.2280     1.5850     0.9060 C.3   1 <1>   0.1400 
  7 C        2.2760     1.9050    -1.0170 C.ar  1 <1>  -0.1500 
  8 C        1.7530     3.5440     0.6290 C.ar  1 <1>  -0.1500 
  9 C       -2.7080     3.6460    -0.8860 C.3   1 <1>  -0.1600 
 10 C       -3.3050     2.5780     1.3500 C.3   1 <1>  -0.1600 
 11 C        3.4410     2.5800    -1.3190 C.ar  1 <1>  -0.1500 
 12 C        2.9190     4.2200     0.3300 C.ar  1 <1>  -0.1500 
 13 C       -3.7890     3.5080     0.2090 C.3   1 <1>   0.2800 
 14 C        3.7860     3.7500    -0.6520 C.ar  1 <1>   0.1000 
 15 O       -3.9670     4.7630     0.8200 O.3   1 <1>  -0.5600 
 16 C       -5.1290     3.0110    -0.3910 C.3   1 <1>  -0.1600 
 17 N        4.9710     4.4050    -0.9610 N.pl3 1 <1>  -0.8380 
 18 C       -4.7840     5.7050     0.1820 C.3   1 <1>   0.1200 
 19 C       -6.3550     3.6790     0.2440 C.3   1 <1>   0.2800 
 20 C        5.0460     5.8930    -1.0740 C.3   1 <1>   0.2090 
 21 C        6.2700     3.6770    -0.8370 C.3   1 <1>   0.2090 
 22 C       -6.2320     5.2010     0.0870 C.3   1 <1>  -0.1600 
 23 O       -6.3270     3.4200     1.6020 O.3   1 <1>  -0.6800 
 24 C       -7.6810     3.1290    -0.3250 C.3   1 <1>   0.1200 
 25 C        5.9770     6.4900     0.0040 C.3   1 <1>   0.3430 
 26 C        7.1670     4.3240     0.2400 C.3   1 <1>   0.3430 
 27 O       -8.7580     3.6330     0.3920 O.3   1 <1>  -0.6800 
 28 N        7.3280     5.8150     0.0500 N.4   1 <1>  -0.9590 
 29 C        8.1920     6.4050     1.1160 C.3   1 <1>   0.2630 
 30 H       -0.5810     3.8100    -1.0690 H     1 <1>   0.0800 
 31 H       -1.2110     4.4080     0.4510 H     1 <1>   0.0800 
 32 H       -1.9160     0.9890     1.7470 H     1 <1>   0.0800 
 33 H       -2.6200     0.9220     0.1540 H     1 <1>   0.0800 
 34 H        2.0280     0.9960    -1.5390 H     1 <1>   0.1500 
 35 H        1.1000     3.9150     1.4000 H     1 <1>   0.1500 
 36 H       -2.7770     2.8230    -1.5740 H     1 <1>   0.0800 
 37 H       -2.8490     4.5440    -1.4560 H     1 <1>   0.0800 
 38 H       -2.8850     3.1660     2.1470 H     1 <1>   0.0800 
 39 H       -4.1250     2.0220     1.7650 H     1 <1>   0.0800 
 40 H        4.0920     2.2020    -2.0860 H     1 <1>   0.1500 
 41 H        3.1610     5.1130     0.8730 H     1 <1>   0.1500 
 42 H       -5.2030     1.9410    -0.3130 H     1 <1>   0.0800 
 43 H       -5.1460     3.2330    -1.4430 H     1 <1>   0.0800 
 44 H       -4.3850     5.9030    -0.7970 H     1 <1>   0.0800 
 45 H       -4.7430     6.6150     0.7550 H     1 <1>   0.0800 
 46 H        4.0610     6.3180    -0.9810 H     1 <1>   0.0800 
 47 H        5.4130     6.1500    -2.0530 H     1 <1>   0.0800 
 48 H        6.7730     3.6840    -1.7880 H     1 <1>   0.0800 
 49 H        6.0870     2.6500    -0.5700 H     1 <1>   0.0800 
 50 H       -6.6130     5.4910    -0.8760 H     1 <1>   0.0800 
 51 H       -6.8470     5.6970     0.8180 H     1 <1>   0.0800 
 52 H       -5.5110     3.8460     1.9480 H     1 <1>   0.4000 
 53 H       -7.7010     2.0570    -0.2430 H     1 <1>   0.0800 
 54 H       -7.8070     3.4030    -1.3570 H     1 <1>   0.0800 
 55 H        5.4900     6.3820     0.9590 H     1 <1>   0.0800 
 56 H        6.0990     7.5440    -0.1860 H     1 <1>   0.0800 
 57 H        8.1320     3.8450     0.2230 H     1 <1>   0.0800 
 58 H        6.7210     4.1310     1.2020 H     1 <1>   0.0800 
 59 H       -8.5150     3.5940     1.3430 H     1 <1>   0.4000 
 60 H        7.7760     5.9610    -0.8660 H     1 <1>   0.4500 
 61 H        7.7430     6.2630     2.0850 H     1 <1>   0.0800 
 62 H        8.3240     7.4630     0.9490 H     1 <1>   0.0800 
 63 H        9.1630     5.9360     1.1140 H     1 <1>   0.0800 
@<TRIPOS>BOND
  1   1   2  2   
  2   2   3  am  
  3   2   4  1   
  4   3   5  1   
  5   3   6  1   
  6   4   7  ar  
  7   4   8  ar  
  8   5   9  1   
  9   5  30  1   
 10   5  31  1   
 11   6  10  1   
 12   6  32  1   
 13   6  33  1   
 14   7  11  ar  
 15   7  34  1   
 16   8  12  ar  
 17   8  35  1   
 18   9  13  1   
 19   9  36  1   
 20   9  37  1   
 21  10  13  1   
 22  10  38  1   
 23  10  39  1   
 24  11  14  ar  
 25  11  40  1   
 26  12  14  ar  
 27  12  41  1   
 28  13  15  1   
 29  13  16  1   
 30  14  17  1   
 31  15  18  1   
 32  16  19  1   
 33  16  42  1   
 34  16  43  1   
 35  17  20  1   
 36  17  21  1   
 37  18  22  1   
 38  18  44  1   
 39  18  45  1   
 40  19  22  1   
 41  19  23  1   
 42  19  24  1   
 43  20  25  1   
 44  20  46  1   
 45  20  47  1   
 46  21  26  1   
 47  21  48  1   
 48  21  49  1   
 49  22  50  1   
 50  22  51  1   
 51  23  52  1   
 52  24  27  1   
 53  24  53  1   
 54  24  54  1   
 55  25  28  1   
 56  25  55  1   
 57  25  56  1   
 58  26  28  1   
 59  26  57  1   
 60  26  58  1   
 61  27  59  1   
 62  28  29  1   
 63  28  60  1   
 64  29  61  1   
 65  29  62  1   
 66  29  63  1   
@<TRIPOS>SUBSTRUCTURE
  1 ****   5 GROUP 4 **** **** 0

# MOE 2024.06 (io_trps.svl 2023.06)
