@<TRIPOS>MOLECULE
NONAME
51 53 1 0 0 
SMALL
USER_CHARGES


@<TRIPOS>ATOM
  1 O       -4.3090     2.9900    -0.3950 O.2   1 <1>  -0.5700 
  2 C       -3.2390     2.5030    -0.6700 C.2   1 <1>   0.5690 
  3 N       -3.1240     1.4600    -1.5260 N.am  1 <1>  -0.7300 
  4 C       -1.9740     3.0390    -0.0230 C.3   1 <1>   0.0440 
  5 C       -4.2230     0.6470    -2.0840 C.3   1 <1>   0.2200 
  6 C       -1.0300     1.8880     0.3590 C.ar  1 <1>  -0.1440 
  7 C       -4.1610    -0.7750    -1.5400 C.3   1 <1>  -0.0800 
  8 C       -3.9430     0.3930    -3.5590 C.3   1 <1>   0.1200 
  9 C       -1.2210     1.2040     1.5600 C.ar  1 <1>  -0.1440 
 10 C       -0.0040     1.4890    -0.4990 C.ar  1 <1>  -0.1440 
 11 C       -3.1060    -1.4310    -2.4370 C.3   1 <1>   0.1200 
 12 C       -3.8730    -0.9080    -0.0320 C.3   1 <1>  -0.0160 
 13 O       -3.0080    -0.6450    -3.5900 O.3   1 <1>  -0.5600 
 14 C       -0.4000     0.1370     1.8850 C.ar  1 <1>  -0.1500 
 15 C       -2.3240     1.5770     2.5460 C.3   1 <1>  -0.0970 
 16 C        0.8020     0.4160    -0.1520 C.ar  1 <1>  -0.1500 
 17 C        0.2820     2.1870    -1.8250 C.3   1 <1>  -0.0970 
 18 C       -3.7450    -2.3640     0.3840 C.ar  1 <1>  -0.1440 
 19 C        0.6100    -0.2660     1.0330 C.ar  1 <1>  -0.1440 
 20 C       -2.5140    -2.9340     0.6390 C.ar  1 <1>  -0.1500 
 21 C       -4.8420    -3.1880     0.5300 C.ar  1 <1>  -0.1500 
 22 C        1.5050    -1.4370     1.3960 C.3   1 <1>  -0.0970 
 23 C       -2.4410    -4.2650     1.0120 C.ar  1 <1>   0.1600 
 24 C       -4.6590    -4.5080     0.9090 C.ar  1 <1>   0.1600 
 25 N       -3.4840    -5.0670     1.1520 N.ar  1 <1>  -0.6200 
 26 H       -2.1960     1.0420    -1.6510 H     1 <1>   0.3700 
 27 H       -1.5090     3.7250    -0.7010 H     1 <1>   0.0800 
 28 H       -2.2410     3.6110     0.8450 H     1 <1>   0.0800 
 29 H       -5.1750     1.1250    -1.9190 H     1 <1>   0.0800 
 30 H       -5.1010    -1.2540    -1.7480 H     1 <1>   0.0800 
 31 H       -3.5450     1.2570    -4.0610 H     1 <1>   0.0800 
 32 H       -4.8310     0.0510    -4.0620 H     1 <1>   0.0800 
 33 H       -3.3820    -2.4340    -2.7150 H     1 <1>   0.0800 
 34 H       -2.1380    -1.4380    -1.9670 H     1 <1>   0.0800 
 35 H       -4.6620    -0.4390     0.5290 H     1 <1>   0.0800 
 36 H       -2.9580    -0.4070     0.2190 H     1 <1>   0.0800 
 37 H       -0.5450    -0.3880     2.8130 H     1 <1>   0.1500 
 38 H       -2.3960     0.8530     3.3380 H     1 <1>   0.0800 
 39 H       -3.2780     1.6170     2.0510 H     1 <1>   0.0800 
 40 H       -2.1150     2.5350     2.9860 H     1 <1>   0.0800 
 41 H        1.5950     0.1050    -0.8090 H     1 <1>   0.1500 
 42 H        1.0390     1.6640    -2.3820 H     1 <1>   0.0800 
 43 H        0.6350     3.1860    -1.6420 H     1 <1>   0.0800 
 44 H       -0.6010     2.2320    -2.4350 H     1 <1>   0.0800 
 45 H       -1.6120    -2.3540     0.5520 H     1 <1>   0.1500 
 46 H       -5.8340    -2.8160     0.3540 H     1 <1>   0.1500 
 47 H        1.0130    -2.0890     2.0960 H     1 <1>   0.0800 
 48 H        2.4130    -1.0730     1.8420 H     1 <1>   0.0800 
 49 H        1.7520    -2.0050     0.5180 H     1 <1>   0.0800 
 50 H       -1.4720    -4.6930     1.2060 H     1 <1>   0.1500 
 51 H       -5.5260    -5.1370     1.0180 H     1 <1>   0.1500 
@<TRIPOS>BOND
  1   1   2  2   
  2   2   3  am  
  3   2   4  1   
  4   3   5  1   
  5   3  26  1   
  6   4   6  1   
  7   4  27  1   
  8   4  28  1   
  9   5   7  1   
 10   5   8  1   
 11   5  29  1   
 12   6   9  ar  
 13   6  10  ar  
 14   7  11  1   
 15   7  12  1   
 16   7  30  1   
 17   8  13  1   
 18   8  31  1   
 19   8  32  1   
 20   9  14  ar  
 21   9  15  1   
 22  10  16  ar  
 23  10  17  1   
 24  11  13  1   
 25  11  33  1   
 26  11  34  1   
 27  12  18  1   
 28  12  35  1   
 29  12  36  1   
 30  14  19  ar  
 31  14  37  1   
 32  15  38  1   
 33  15  39  1   
 34  15  40  1   
 35  16  19  ar  
 36  16  41  1   
 37  17  42  1   
 38  17  43  1   
 39  17  44  1   
 40  18  20  ar  
 41  18  21  ar  
 42  19  22  1   
 43  20  23  ar  
 44  20  45  1   
 45  21  24  ar  
 46  21  46  1   
 47  22  47  1   
 48  22  48  1   
 49  22  49  1   
 50  23  25  ar  
 51  23  50  1   
 52  24  25  ar  
 53  24  51  1   
@<TRIPOS>SUBSTRUCTURE
  1 ****  12 GROUP 4 **** **** 0

# MOE 2024.06 (io_trps.svl 2023.06)
