@<TRIPOS>MOLECULE
NONAME
41 43 1 0 0 
SMALL
USER_CHARGES


@<TRIPOS>ATOM
  1 S       -0.8100     0.1320    -0.5040 S.3   1 <1>  -0.0800 
  2 C       -0.5050    -1.5510    -0.8960 C.2   1 <1>  -0.1100 
  3 C       -1.4380    -0.3080     1.0730 C.2   1 <1>  -0.1100 
  4 C       -0.8710    -2.3550     0.1190 C.2   1 <1>  -0.1810 
  5 C       -1.4010    -1.6420     1.2440 C.2   1 <1>  -0.1500 
  6 C       -0.7560    -3.8700     0.1290 C.3   1 <1>   0.0210 
  7 C       -2.1450    -4.5170     0.0320 C.3   1 <1>  -0.0990 
  8 C       -2.1050    -6.0360    -0.0090 C.2   1 <1>   0.5690 
  9 O       -1.0600    -6.6050     0.1960 O.2   1 <1>  -0.5700 
 10 N       -3.2550    -6.7290    -0.2680 N.am  1 <1>  -0.6600 
 11 C       -4.6080    -6.1540    -0.4700 C.3   1 <1>   0.1400 
 12 C       -3.3030    -8.2100    -0.3120 C.3   1 <1>   0.1400 
 13 C       -5.5310    -7.3610    -0.6490 C.3   1 <1>   0.2000 
 14 C       -4.7740    -8.5610    -0.0810 C.3   1 <1>  -0.0800 
 15 O       -6.7260    -7.1930     0.0330 O.3   1 <1>  -0.6800 
 16 C       -5.2150    -9.8910    -0.7160 C.3   1 <1>  -0.0170 
 17 C       -4.4780   -11.0780    -0.1170 C.ar  1 <1>   0.1670 
 18 N       -3.2740   -11.3330    -0.6040 N.ar  1 <1>  -0.6200 
 19 C       -5.0740   -11.8310     0.8940 C.ar  1 <1>   0.1600 
 20 C       -2.7110   -12.3760    -0.0170 C.ar  1 <1>   0.1600 
 21 N       -4.5130   -12.8740     1.4820 N.ar  1 <1>  -0.6200 
 22 C       -3.3100   -13.1210     0.9910 C.ar  1 <1>   0.1600 
 23 H       -0.0790    -1.7610    -1.8610 H     1 <1>   0.1500 
 24 H       -1.7700     0.4890     1.7130 H     1 <1>   0.1500 
 25 H       -1.7260    -2.1620     2.1290 H     1 <1>   0.1500 
 26 H       -0.1560    -4.1900    -0.7050 H     1 <1>   0.0800 
 27 H       -0.2610    -4.1870     1.0310 H     1 <1>   0.0800 
 28 H       -2.6240    -4.1600    -0.8610 H     1 <1>   0.0800 
 29 H       -2.7350    -4.2170     0.8770 H     1 <1>   0.0800 
 30 H       -4.8860    -5.5790     0.3960 H     1 <1>   0.0800 
 31 H       -4.6220    -5.5360    -1.3500 H     1 <1>   0.0800 
 32 H       -2.9740    -8.5440    -1.2820 H     1 <1>   0.0800 
 33 H       -2.6680    -8.6440     0.4440 H     1 <1>   0.0800 
 34 H       -5.7530    -7.4960    -1.6940 H     1 <1>   0.0800 
 35 H       -4.9220    -8.6070     0.9840 H     1 <1>   0.0800 
 36 H       -6.5610    -7.0870     0.9900 H     1 <1>   0.4000 
 37 H       -5.0360    -9.8690    -1.7770 H     1 <1>   0.0800 
 38 H       -6.2730   -10.0160    -0.5710 H     1 <1>   0.0800 
 39 H       -6.0570   -11.5570     1.2330 H     1 <1>   0.1500 
 40 H       -1.7270   -12.6550    -0.3510 H     1 <1>   0.1500 
 41 H       -2.7700   -13.9530     1.4080 H     1 <1>   0.1500 
@<TRIPOS>BOND
  1   1   2  1   
  2   1   3  1   
  3   2   4  2   
  4   2  23  1   
  5   3   5  2   
  6   3  24  1   
  7   4   5  1   
  8   4   6  1   
  9   5  25  1   
 10   6   7  1   
 11   6  26  1   
 12   6  27  1   
 13   7   8  1   
 14   7  28  1   
 15   7  29  1   
 16   8   9  2   
 17   8  10  am  
 18  10  11  1   
 19  10  12  1   
 20  11  13  1   
 21  11  30  1   
 22  11  31  1   
 23  12  14  1   
 24  12  32  1   
 25  12  33  1   
 26  13  14  1   
 27  13  15  1   
 28  13  34  1   
 29  14  16  1   
 30  14  35  1   
 31  15  36  1   
 32  16  17  1   
 33  16  37  1   
 34  16  38  1   
 35  17  18  ar  
 36  17  19  ar  
 37  18  20  ar  
 38  19  21  ar  
 39  19  39  1   
 40  20  22  ar  
 41  20  40  1   
 42  21  22  ar  
 43  22  41  1   
@<TRIPOS>SUBSTRUCTURE
  1 ****  10 GROUP 4 **** **** 0

# MOE 2024.06 (io_trps.svl 2023.06)
