@<TRIPOS>MOLECULE
NONAME
46 47 1 0 0 
SMALL
USER_CHARGES


@<TRIPOS>ATOM
  1 O       -1.1940     0.2110    -1.9480 O.2   1 <1>  -0.5700 
  2 C       -1.9540     0.8490    -1.2440 C.2   1 <1>   0.5440 
  3 N       -3.2170     0.3560    -0.9970 N.am  1 <1>  -0.6600 
  4 C       -1.5090     2.1140    -0.6930 C.ar  1 <1>   0.0860 
  5 C       -3.5350    -1.0970    -1.1210 C.3   1 <1>   0.1400 
  6 C       -4.3820     1.1820    -0.5880 C.3   1 <1>   0.1400 
  7 C       -1.6700     2.4150     0.6590 C.ar  1 <1>  -0.1500 
  8 C       -0.8920     3.0730    -1.4980 C.ar  1 <1>  -0.1500 
  9 C       -4.2570    -1.5070     0.1650 C.3   1 <1>   0.2000 
 10 C       -5.1510     0.5540     0.5990 C.3   1 <1>  -0.1600 
 11 C       -1.2600     3.6300     1.1670 C.ar  1 <1>   0.0820 
 12 C       -0.4710     4.2910    -0.9920 C.ar  1 <1>  -0.1500 
 13 O       -4.0230    -2.8710     0.4090 O.3   1 <1>  -0.6800 
 14 C       -5.7570    -0.8890     0.2110 C.3   1 <1>  -0.1060 
 15 O       -1.4450     3.8980     2.4700 O.3   1 <1>  -0.5320 
 16 C       -0.6560     4.5860     0.3560 C.ar  1 <1>   0.0820 
 17 C       -6.3280    -2.2620    -0.2400 C.2   1 <1>   0.9060 
 18 C       -7.2710    -0.3380     0.3080 C.3   1 <1>  -0.1600 
 19 O       -0.2790     5.7570     0.9350 O.3   1 <1>  -0.3630 
 20 O       -6.5740    -3.1400     0.6070 O.co2 1 <1>  -0.9000 
 21 O       -6.5030    -2.4750    -1.4460 O.co2 1 <1>  -0.9000 
 22 C       -7.7350     0.4910    -0.9110 C.3   1 <1>  -0.1600 
 23 C        0.3680     6.7670     0.1910 C.3   1 <1>   0.0400 
 24 C       -9.2260     0.8290    -0.8190 C.3   1 <1>  -0.2400 
 25 H       -4.1680    -1.2670    -1.9740 H     1 <1>   0.0800 
 26 H       -2.6290    -1.6680    -1.2280 H     1 <1>   0.0800 
 27 H       -4.0740     2.1790    -0.3330 H     1 <1>   0.0800 
 28 H       -5.0390     1.2570    -1.4370 H     1 <1>   0.0800 
 29 H       -2.1210     1.6920     1.3150 H     1 <1>   0.1500 
 30 H       -0.7440     2.8440    -2.5400 H     1 <1>   0.1500 
 31 H       -3.6520    -1.1040     0.9560 H     1 <1>   0.0800 
 32 H       -4.5330     0.5330     1.4800 H     1 <1>   0.0800 
 33 H       -5.8430     1.3330     0.8620 H     1 <1>   0.0800 
 34 H       -0.0040     4.9910    -1.6580 H     1 <1>   0.1500 
 35 H       -4.9210    -3.3030     0.5360 H     1 <1>   0.4000 
 36 H       -1.0860     4.7860     2.6710 H     1 <1>   0.4500 
 37 H       -8.0280    -1.1040     0.4280 H     1 <1>   0.0800 
 38 H       -7.4450     0.2100     1.2190 H     1 <1>   0.0800 
 39 H       -7.1880     1.4110    -0.9910 H     1 <1>   0.0800 
 40 H       -7.5600    -0.0790    -1.8100 H     1 <1>   0.0800 
 41 H        0.5790     7.5880     0.8530 H     1 <1>   0.0800 
 42 H       -0.2860     7.0940    -0.5980 H     1 <1>   0.0800 
 43 H        1.2870     6.3740    -0.2070 H     1 <1>   0.0800 
 44 H       -9.4300     1.3950     0.0720 H     1 <1>   0.0800 
 45 H       -9.8090    -0.0760    -0.7990 H     1 <1>   0.0800 
 46 H       -9.5250     1.4070    -1.6750 H     1 <1>   0.0800 
@<TRIPOS>BOND
  1   1   2  2   
  2   2   3  am  
  3   2   4  1   
  4   3   5  1   
  5   3   6  1   
  6   4   7  ar  
  7   4   8  ar  
  8   5   9  1   
  9   5  25  1   
 10   5  26  1   
 11   6  10  1   
 12   6  27  1   
 13   6  28  1   
 14   7  11  ar  
 15   7  29  1   
 16   8  12  ar  
 17   8  30  1   
 18   9  13  1   
 19   9  14  1   
 20   9  31  1   
 21  10  14  1   
 22  10  32  1   
 23  10  33  1   
 24  11  15  1   
 25  11  16  ar  
 26  12  16  ar  
 27  12  34  1   
 28  13  35  1   
 29  14  17  1   
 30  14  18  1   
 31  15  36  1   
 32  16  19  1   
 33  17  20  ar  
 34  17  21  ar  
 35  18  22  1   
 36  18  37  1   
 37  18  38  1   
 38  19  23  1   
 39  22  24  1   
 40  22  39  1   
 41  22  40  1   
 42  23  41  1   
 43  23  42  1   
 44  23  43  1   
 45  24  44  1   
 46  24  45  1   
 47  24  46  1   
@<TRIPOS>SUBSTRUCTURE
  1 ****   6 GROUP 4 **** **** 0

# MOE 2024.06 (io_trps.svl 2023.06)
