@<TRIPOS>MOLECULE
NONAME
56 59 1 0 0 
SMALL
USER_CHARGES


@<TRIPOS>ATOM
  1 O        2.7880    -1.5470     1.5100 O.2   1 <1>  -0.5700 
  2 C        1.9270    -2.2020     0.9430 C.2   1 <1>   0.5440 
  3 N        1.2640    -1.5890    -0.1050 N.am  1 <1>  -0.6600 
  4 C        1.6360    -3.5570     1.4240 C.ar  1 <1>   0.3960 
  5 C        0.0950    -2.1300    -0.8370 C.3   1 <1>   0.1400 
  6 C        1.5790    -0.2170    -0.5600 C.3   1 <1>   0.1400 
  7 N        1.1220    -4.4910     0.6070 N.ar  1 <1>  -0.6200 
  8 C        1.9050    -3.8450     2.7680 C.ar  1 <1>   0.1600 
  9 C       -0.5040    -0.9280    -1.5550 C.3   1 <1>  -0.1600 
 10 C        0.6750     0.0180    -1.7650 C.3   1 <1>  -0.1600 
 11 C        0.8730    -5.6360     1.1980 C.ar  1 <1>   0.4100 
 12 N        1.6830    -5.0050     3.3750 N.ar  1 <1>  -0.6200 
 13 N        0.2690    -6.5480     0.3820 N.pl3 1 <1>  -0.8690 
 14 C        1.1690    -5.8890     2.5450 C.ar  1 <1>   0.1600 
 15 C       -1.1170    -7.0330     0.6600 C.3   1 <1>   0.2890 
 16 C       -2.2190    -6.2450    -0.1540 C.3   1 <1>   0.5670 
 17 C       -1.0680    -8.5370     0.3630 C.3   1 <1>  -0.2400 
 18 O       -1.7500    -6.1080    -1.4600 O.3   1 <1>  -0.6800 
 19 C       -3.5490    -7.0300    -0.1980 C.ar  1 <1>  -0.1440 
 20 C       -2.5180    -4.8010     0.3250 C.ar  1 <1>  -0.1440 
 21 C       -4.4540    -6.9130     0.8530 C.ar  1 <1>  -0.1500 
 22 C       -3.8780    -7.8760    -1.2550 C.ar  1 <1>  -0.1500 
 23 C       -3.3080    -3.9720    -0.4700 C.ar  1 <1>  -0.1500 
 24 C       -2.0690    -4.2880     1.5410 C.ar  1 <1>  -0.1500 
 25 C       -5.6490    -7.6090     0.8470 C.ar  1 <1>  -0.1500 
 26 C       -5.0740    -8.5720    -1.2630 C.ar  1 <1>  -0.1500 
 27 C       -3.6120    -2.6780    -0.0840 C.ar  1 <1>  -0.1500 
 28 C       -2.3710    -2.9940     1.9300 C.ar  1 <1>  -0.1500 
 29 C       -5.9620    -8.4400    -0.2130 C.ar  1 <1>  -0.1500 
 30 C       -3.1400    -2.1850     1.1170 C.ar  1 <1>  -0.1500 
 31 H        0.4340    -2.8640    -1.5480 H     1 <1>   0.0800 
 32 H       -0.6140    -2.5790    -0.1650 H     1 <1>   0.0800 
 33 H        1.3470     0.4750     0.2320 H     1 <1>   0.0800 
 34 H        2.6210    -0.1320    -0.8190 H     1 <1>   0.0800 
 35 H        2.3280    -3.0630     3.3750 H     1 <1>   0.1500 
 36 H       -0.9770    -1.2110    -2.4790 H     1 <1>   0.0800 
 37 H       -1.2350    -0.4690    -0.9120 H     1 <1>   0.0800 
 38 H        0.3690     1.0460    -1.8400 H     1 <1>   0.0800 
 39 H        1.2090    -0.2560    -2.6580 H     1 <1>   0.0800 
 40 H        0.2880    -6.2130    -0.5910 H     1 <1>   0.4000 
 41 H        0.9560    -6.8710     2.9230 H     1 <1>   0.1500 
 42 H       -1.3350    -6.9340     1.7080 H     1 <1>   0.0800 
 43 H       -0.9130    -8.7040    -0.6880 H     1 <1>   0.0800 
 44 H       -1.9860    -9.0130     0.6560 H     1 <1>   0.0800 
 45 H       -0.2670    -8.9960     0.9130 H     1 <1>   0.0800 
 46 H       -2.3600    -5.5090    -1.9220 H     1 <1>   0.4000 
 47 H       -4.2400    -6.2720     1.6920 H     1 <1>   0.1500 
 48 H       -3.2050    -8.0100    -2.0840 H     1 <1>   0.1500 
 49 H       -3.7140    -4.3290    -1.4000 H     1 <1>   0.1500 
 50 H       -1.4780    -4.8720     2.2180 H     1 <1>   0.1500 
 51 H       -6.3380    -7.5030     1.6670 H     1 <1>   0.1500 
 52 H       -5.3130    -9.2210    -2.0890 H     1 <1>   0.1500 
 53 H       -4.2210    -2.0560    -0.7170 H     1 <1>   0.1500 
 54 H       -2.0060    -2.6170     2.8700 H     1 <1>   0.1500 
 55 H       -6.8920    -8.9810    -0.2200 H     1 <1>   0.1500 
 56 H       -3.3730    -1.1790     1.4190 H     1 <1>   0.1500 
@<TRIPOS>BOND
  1   1   2  2   
  2   2   3  am  
  3   2   4  1   
  4   3   5  1   
  5   3   6  1   
  6   4   7  ar  
  7   4   8  ar  
  8   5   9  1   
  9   5  31  1   
 10   5  32  1   
 11   6  10  1   
 12   6  33  1   
 13   6  34  1   
 14   7  11  ar  
 15   8  12  ar  
 16   8  35  1   
 17   9  10  1   
 18   9  36  1   
 19   9  37  1   
 20  10  38  1   
 21  10  39  1   
 22  11  13  1   
 23  11  14  ar  
 24  12  14  ar  
 25  13  15  1   
 26  13  40  1   
 27  14  41  1   
 28  15  16  1   
 29  15  17  1   
 30  15  42  1   
 31  16  18  1   
 32  16  19  1   
 33  16  20  1   
 34  17  43  1   
 35  17  44  1   
 36  17  45  1   
 37  18  46  1   
 38  19  21  ar  
 39  19  22  ar  
 40  20  23  ar  
 41  20  24  ar  
 42  21  25  ar  
 43  21  47  1   
 44  22  26  ar  
 45  22  48  1   
 46  23  27  ar  
 47  23  49  1   
 48  24  28  ar  
 49  24  50  1   
 50  25  29  ar  
 51  25  51  1   
 52  26  29  ar  
 53  26  52  1   
 54  27  30  ar  
 55  27  53  1   
 56  28  30  ar  
 57  28  54  1   
 58  29  55  1   
 59  30  56  1   
@<TRIPOS>SUBSTRUCTURE
  1 ****  20 GROUP 4 **** **** 0

# MOE 2024.06 (io_trps.svl 2023.06)
