@<TRIPOS>MOLECULE
NONAME
48 51 1 0 0 
SMALL
USER_CHARGES


@<TRIPOS>ATOM
  1 CL      -1.5190     0.4700     2.2540 Cl    1 <1>  -0.1770 
  2 C       -2.3410    -0.8710     1.4740 C.ar  1 <1>   0.1770 
  3 C       -3.4690    -0.6450     0.6880 C.ar  1 <1>   0.0820 
  4 C       -1.8650    -2.1560     1.6550 C.ar  1 <1>   0.1770 
  5 O       -3.9250     0.6170     0.5220 O.3   1 <1>  -0.3630 
  6 C       -4.1430    -1.7140     0.0950 C.ar  1 <1>  -0.0090 
  7 CL      -0.4450    -2.4620     2.6270 Cl    1 <1>  -0.1770 
  8 C       -2.5090    -3.2270     1.0680 C.ar  1 <1>  -0.1500 
  9 C       -3.2620     1.4210    -0.4320 C.3   1 <1>   0.0400 
 10 S       -5.6510    -1.4780    -0.8900 S.o2  1 <1>   1.4470 
 11 C       -3.6400    -2.9990     0.3010 C.ar  1 <1>  -0.1500 
 12 O       -5.9540    -2.7410    -1.5300 O.2   1 <1>  -0.6500 
 13 O       -5.5400    -0.3010    -1.7280 O.2   1 <1>  -0.6500 
 14 N       -6.8420    -1.2030     0.2930 N.am  1 <1>  -0.8490 
 15 C       -7.2540     0.1990     0.4860 C.3   1 <1>   0.1960 
 16 C       -8.0090    -2.0850     0.2700 C.3   1 <1>   0.1960 
 17 C       -8.3720     0.6910    -0.4790 C.3   1 <1>   0.1430 
 18 C       -8.9480    -1.7910    -0.9120 C.3   1 <1>  -0.1600 
 19 C       -9.5420     1.1850     0.3640 C.ar  1 <1>   0.1670 
 20 C       -8.8070    -0.3790    -1.5100 C.3   1 <1>  -0.1600 
 21 C       -7.9450     1.9900    -1.2150 C.3   1 <1>  -0.1600 
 22 N      -10.4110     0.4290     0.9950 N.ar  1 <1>  -0.6200 
 23 C       -9.5810     2.5480     0.4120 C.ar  1 <1>  -0.1440 
 24 C       -8.4630     3.1730    -0.3820 C.3   1 <1>  -0.0170 
 25 C      -11.3260     1.1040     1.6740 C.ar  1 <1>   0.7200 
 26 C      -10.5830     3.1380     1.1450 C.ar  1 <1>   0.1600 
 27 N      -11.4750     2.4160     1.7840 N.ar  1 <1>  -0.6200 
 28 N      -12.2350     0.3650     2.3110 N.pl3 1 <1>  -0.9000 
 29 H       -2.1320    -4.2240     1.2150 H     1 <1>   0.1500 
 30 H       -3.7910     2.3530    -0.5110 H     1 <1>   0.0800 
 31 H       -3.2680     0.9180    -1.3840 H     1 <1>   0.0800 
 32 H       -2.2520     1.6000    -0.1100 H     1 <1>   0.0800 
 33 H       -4.1430    -3.8410    -0.1470 H     1 <1>   0.1500 
 34 H       -6.3940     0.8390     0.4170 H     1 <1>   0.0800 
 35 H       -7.6110     0.2920     1.4980 H     1 <1>   0.0800 
 36 H       -8.5590    -1.9360     1.1860 H     1 <1>   0.0800 
 37 H       -7.6990    -3.1160     0.2490 H     1 <1>   0.0800 
 38 H       -9.9590    -1.9320    -0.5720 H     1 <1>   0.0800 
 39 H       -8.7750    -2.5170    -1.6860 H     1 <1>   0.0800 
 40 H       -8.0680    -0.4230    -2.2900 H     1 <1>   0.0800 
 41 H       -9.7340    -0.0900    -1.9730 H     1 <1>   0.0800 
 42 H       -8.4290     2.0290    -2.1750 H     1 <1>   0.0800 
 43 H       -6.8830     2.0450    -1.3810 H     1 <1>   0.0800 
 44 H       -8.8140     3.9750    -1.0080 H     1 <1>   0.0800 
 45 H       -7.7000     3.5340     0.2860 H     1 <1>   0.0800 
 46 H      -10.6530     4.2110     1.2080 H     1 <1>   0.1500 
 47 H      -13.0870     0.8580     2.5630 H     1 <1>   0.4000 
 48 H      -12.3360    -0.5840     1.9680 H     1 <1>   0.4000 
@<TRIPOS>BOND
  1   1   2  1   
  2   2   3  ar  
  3   2   4  ar  
  4   3   5  1   
  5   3   6  ar  
  6   4   7  1   
  7   4   8  ar  
  8   5   9  1   
  9   6  10  1   
 10   6  11  ar  
 11   8  11  ar  
 12   8  29  1   
 13   9  30  1   
 14   9  31  1   
 15   9  32  1   
 16  10  12  2   
 17  10  13  2   
 18  10  14  am  
 19  11  33  1   
 20  14  15  1   
 21  14  16  1   
 22  15  17  1   
 23  15  34  1   
 24  15  35  1   
 25  16  18  1   
 26  16  36  1   
 27  16  37  1   
 28  17  19  1   
 29  17  20  1   
 30  17  21  1   
 31  18  20  1   
 32  18  38  1   
 33  18  39  1   
 34  19  22  ar  
 35  19  23  ar  
 36  20  40  1   
 37  20  41  1   
 38  21  24  1   
 39  21  42  1   
 40  21  43  1   
 41  22  25  ar  
 42  23  24  1   
 43  23  26  ar  
 44  24  44  1   
 45  24  45  1   
 46  25  27  ar  
 47  25  28  1   
 48  26  27  ar  
 49  26  46  1   
 50  28  47  1   
 51  28  48  1   
@<TRIPOS>SUBSTRUCTURE
  1 ****  15 GROUP 4 **** **** 0

# MOE 2024.06 (io_trps.svl 2023.06)
