@<TRIPOS>MOLECULE
NONAME
40 42 1 0 0 
SMALL
USER_CHARGES


@<TRIPOS>ATOM
  1 O        0.9820     2.3800     2.3500 O.co2 1 <1>  -0.9000 
  2 C        2.2170     2.2850     2.3430 C.2   1 <1>   0.9470 
  3 O        2.9090     2.8980     3.1680 O.co2 1 <1>  -0.9000 
  4 C        2.9140     1.5900     1.1710 C.3   1 <1>  -0.2420 
  5 C        3.4290     0.1830     0.9800 C.3   1 <1>  -0.2420 
  6 C        3.8990     2.5340     0.5100 C.3   1 <1>   0.2350 
  7 C        2.1270     0.6020     0.3470 C.3   1 <1>  -0.2000 
  8 C        3.4430    -1.0170     1.9300 C.2   1 <1>   0.9470 
  9 C        4.7230     0.2600     0.1880 C.3   1 <1>   0.2350 
 10 N        4.8040     1.6660    -0.3000 N.am  1 <1>  -0.6600 
 11 O        4.3980    -1.1570     2.7060 O.co2 1 <1>  -0.9000 
 12 O        2.5890    -1.9050     1.8010 O.co2 1 <1>  -0.9000 
 13 C        5.6040     2.0450    -1.3400 C.2   1 <1>   0.5690 
 14 O        6.2460     1.2400    -1.9760 O.2   1 <1>  -0.5700 
 15 C        5.7020     3.5080    -1.7610 C.3   1 <1>   0.0440 
 16 C        6.8150     4.3030    -1.0760 C.ar  1 <1>  -0.1430 
 17 C        7.4530     5.3190    -1.7720 C.ar  1 <1>  -0.1500 
 18 C        7.2020     4.0450     0.2320 C.ar  1 <1>  -0.1500 
 19 C        8.4560     6.0620    -1.1750 C.ar  1 <1>  -0.1500 
 20 C        8.2040     4.7900     0.8290 C.ar  1 <1>  -0.1500 
 21 C        8.8380     5.8040     0.1310 C.ar  1 <1>  -0.1430 
 22 C        9.9390     6.6170     0.7900 C.3   1 <1>  -0.0170 
 23 C       11.2990     5.9490     0.5770 C.3   1 <1>  -0.2400 
 24 H        4.4730     3.0510     1.2600 H     1 <1>   0.0800 
 25 H        3.3690     3.2430    -0.0980 H     1 <1>   0.0800 
 26 H        2.0710     0.7200    -0.7180 H     1 <1>   0.1000 
 27 H        1.2170     0.2060     0.7680 H     1 <1>   0.1000 
 28 H        4.7140    -0.4370    -0.6320 H     1 <1>   0.0800 
 29 H        5.5650     0.0580     0.8270 H     1 <1>   0.0800 
 30 H        5.8730     3.5170    -2.8210 H     1 <1>   0.0800 
 31 H        4.7660     4.0020    -1.5960 H     1 <1>   0.0800 
 32 H        7.1720     5.5380    -2.7870 H     1 <1>   0.1500 
 33 H        6.7330     3.2620     0.8030 H     1 <1>   0.1500 
 34 H        8.9410     6.8430    -1.7330 H     1 <1>   0.1500 
 35 H        8.4850     4.5690     1.8440 H     1 <1>   0.1500 
 36 H        9.9550     7.6100     0.3760 H     1 <1>   0.0800 
 37 H        9.7410     6.7060     1.8440 H     1 <1>   0.0800 
 38 H       11.5120     5.8720    -0.4740 H     1 <1>   0.0800 
 39 H       11.2950     4.9600     1.0000 H     1 <1>   0.0800 
 40 H       12.0750     6.5260     1.0480 H     1 <1>   0.0800 
@<TRIPOS>BOND
  1   1   2  ar  
  2   2   3  ar  
  3   2   4  1   
  4   4   5  1   
  5   4   6  1   
  6   4   7  1   
  7   5   7  1   
  8   5   8  1   
  9   5   9  1   
 10   6  10  1   
 11   6  24  1   
 12   6  25  1   
 13   7  26  1   
 14   7  27  1   
 15   8  11  ar  
 16   8  12  ar  
 17   9  10  1   
 18   9  28  1   
 19   9  29  1   
 20  10  13  am  
 21  13  14  2   
 22  13  15  1   
 23  15  16  1   
 24  15  30  1   
 25  15  31  1   
 26  16  17  ar  
 27  16  18  ar  
 28  17  19  ar  
 29  17  32  1   
 30  18  20  ar  
 31  18  33  1   
 32  19  21  ar  
 33  19  34  1   
 34  20  21  ar  
 35  20  35  1   
 36  21  22  1   
 37  22  23  1   
 38  22  36  1   
 39  22  37  1   
 40  23  38  1   
 41  23  39  1   
 42  23  40  1   
@<TRIPOS>SUBSTRUCTURE
  1 ****  10 GROUP 4 **** **** 0

# MOE 2024.06 (io_trps.svl 2023.06)
