@<TRIPOS>MOLECULE
NONAME
45 47 1 0 0 
SMALL
USER_CHARGES


@<TRIPOS>ATOM
  1 F        2.6810     0.7190     0.2220 F     1 <1>  -0.3400 
  2 C        2.3250     1.9440     0.5830 C.3   1 <1>   1.1640 
  3 F        1.8770     2.5430    -0.5140 F     1 <1>  -0.3400 
  4 F        1.2780     1.8120     1.3880 F     1 <1>  -0.3400 
  5 C        3.4900     2.7140     1.2300 C.ar  1 <1>  -0.1440 
  6 C        4.4140     3.3930     0.4420 C.ar  1 <1>  -0.1500 
  7 C        3.6520     2.7410     2.6100 C.ar  1 <1>  -0.1500 
  8 C        5.4830     4.1060     0.9900 C.ar  1 <1>   0.0860 
  9 C        4.7060     3.4310     3.1800 C.ar  1 <1>  -0.1500 
 10 C        6.4320     4.8220     0.1520 C.2   1 <1>   0.5440 
 11 C        5.6080     4.1020     2.3780 C.ar  1 <1>  -0.1500 
 12 O        7.5700     5.0510     0.5280 O.2   1 <1>  -0.5700 
 13 N        6.0740     5.3540    -1.0670 N.am  1 <1>  -0.6600 
 14 C        7.0390     5.3330    -2.2200 C.3   1 <1>   0.1400 
 15 C        4.9890     6.3710    -1.1500 C.3   1 <1>   0.1400 
 16 C        7.8790     6.6260    -2.3310 C.3   1 <1>   0.3430 
 17 C        5.4200     7.6740    -0.4520 C.3   1 <1>  -0.1600 
 18 N        7.8100     7.3880    -1.0540 N.4   1 <1>  -0.9590 
 19 C        6.6790     8.3540    -1.0070 C.3   1 <1>   0.3430 
 20 C        9.0950     7.9570    -0.5790 C.3   1 <1>   0.5230 
 21 C        8.9470     8.2840     0.8950 C.2   1 <1>   0.0060 
 22 N        8.8310     9.4900     1.3480 N.2   1 <1>  -0.5650 
 23 N        8.8860     7.3330     1.8570 N.pl3 1 <1>   0.0330 
 24 C        8.7010     9.3230     2.6790 C.2   1 <1>   0.0770 
 25 C        8.7280     8.0130     3.0060 C.2   1 <1>  -0.3020 
 26 H        4.3110     3.3690    -0.6300 H     1 <1>   0.1500 
 27 H        2.9590     2.2230     3.2550 H     1 <1>   0.1500 
 28 H        4.8230     3.4420     4.2510 H     1 <1>   0.1500 
 29 H        6.4260     4.6310     2.8380 H     1 <1>   0.1500 
 30 H        6.5050     5.1660    -3.1400 H     1 <1>   0.0800 
 31 H        7.7110     4.5010    -2.0920 H     1 <1>   0.0800 
 32 H        4.1030     5.9880    -0.6710 H     1 <1>   0.0800 
 33 H        4.7440     6.5620    -2.1810 H     1 <1>   0.0800 
 34 H        7.5130     7.2320    -3.1430 H     1 <1>   0.0800 
 35 H        8.8980     6.3560    -2.5550 H     1 <1>   0.0800 
 36 H        5.5580     7.4900     0.5990 H     1 <1>   0.0800 
 37 H        4.6090     8.3760    -0.5290 H     1 <1>   0.0800 
 38 H        7.5690     6.6550    -0.3560 H     1 <1>   0.4500 
 39 H        6.9310     9.1830    -0.3620 H     1 <1>   0.0800 
 40 H        6.4880     8.7470    -1.9920 H     1 <1>   0.0800 
 41 H        9.3340     8.8550    -1.1240 H     1 <1>   0.0800 
 42 H        9.8940     7.2450    -0.7060 H     1 <1>   0.0800 
 43 H        8.9060     6.3090     1.7380 H     1 <1>   0.2700 
 44 H        8.5930    10.1670     3.3430 H     1 <1>   0.1500 
 45 H        8.6470     7.5440     3.9710 H     1 <1>   0.1500 
@<TRIPOS>BOND
  1   1   2  1   
  2   2   3  1   
  3   2   4  1   
  4   2   5  1   
  5   5   6  ar  
  6   5   7  ar  
  7   6   8  ar  
  8   6  26  1   
  9   7   9  ar  
 10   7  27  1   
 11   8  10  1   
 12   8  11  ar  
 13   9  11  ar  
 14   9  28  1   
 15  10  12  2   
 16  10  13  am  
 17  11  29  1   
 18  13  14  1   
 19  13  15  1   
 20  14  16  1   
 21  14  30  1   
 22  14  31  1   
 23  15  17  1   
 24  15  32  1   
 25  15  33  1   
 26  16  18  1   
 27  16  34  1   
 28  16  35  1   
 29  17  19  1   
 30  17  36  1   
 31  17  37  1   
 32  18  19  1   
 33  18  20  1   
 34  18  38  1   
 35  19  39  1   
 36  19  40  1   
 37  20  21  1   
 38  20  41  1   
 39  20  42  1   
 40  21  22  2   
 41  21  23  1   
 42  22  24  1   
 43  23  25  1   
 44  23  43  1   
 45  24  25  2   
 46  24  44  1   
 47  25  45  1   
@<TRIPOS>SUBSTRUCTURE
  1 ****  10 GROUP 4 **** **** 0

# MOE 2024.06 (io_trps.svl 2023.06)
