@<TRIPOS>MOLECULE
NONAME
57 59 1 0 0 
SMALL
USER_CHARGES


@<TRIPOS>ATOM
  1 CL      -1.3080    -0.7750     1.0480 Cl    1 <1>  -0.1770 
  2 C       -2.1870     0.5250     0.2760 C.ar  1 <1>   0.1770 
  3 C       -3.1330     0.2270    -0.6930 C.ar  1 <1>  -0.1440 
  4 C       -1.9260     1.8260     0.6600 C.ar  1 <1>  -0.1500 
  5 C       -3.8380     1.2690    -1.2790 C.ar  1 <1>  -0.1500 
  6 C       -3.4020    -1.2090    -1.0960 C.3   1 <1>   0.4870 
  7 C       -2.6240     2.8620     0.0660 C.ar  1 <1>   0.0820 
  8 C       -3.6050     2.5790    -0.8930 C.ar  1 <1>   0.0820 
  9 N       -4.1370    -1.8940    -0.0020 N.4   1 <1>  -0.9590 
 10 O       -2.3110     4.1210     0.4530 O.3   1 <1>  -0.3620 
 11 O       -4.3610     3.5360    -1.4820 O.3   1 <1>  -0.3620 
 12 C       -5.4090    -1.2030     0.3500 C.3   1 <1>   0.3430 
 13 C       -4.5070    -3.2840    -0.3440 C.3   1 <1>   0.3430 
 14 C       -1.7540     4.9670    -0.5290 C.3   1 <1>   0.2580 
 15 C       -5.2310     4.2730    -0.6480 C.3   1 <1>   0.0400 
 16 C       -6.4100    -2.2740     0.7850 C.3   1 <1>  -0.0800 
 17 C       -5.6620    -3.6130     0.5900 C.3   1 <1>  -0.0800 
 18 C       -1.2610     6.2220     0.1630 C.2   1 <1>  -0.2880 
 19 C       -7.7430    -2.1740     0.0010 C.3   1 <1>   0.2800 
 20 C       -6.5180    -4.7690     0.0450 C.3   1 <1>  -0.1600 
 21 C       -0.0050     6.6800     0.1380 C.2   1 <1>  -0.3000 
 22 O       -7.4210    -2.1830    -1.3440 O.3   1 <1>  -0.6800 
 23 C       -8.6480    -3.4000     0.2810 C.3   1 <1>  -0.1600 
 24 C       -8.5630    -0.8860     0.2700 C.3   1 <1>  -0.1600 
 25 C       -7.9230    -4.7120     0.6400 C.3   1 <1>  -0.1600 
 26 C       -7.9880     0.4680    -0.1890 C.3   1 <1>  -0.2400 
 27 H       -1.1840     2.0380     1.4100 H     1 <1>   0.1500 
 28 H       -4.5810     1.0870    -2.0370 H     1 <1>   0.1500 
 29 H       -2.4670    -1.7130    -1.2860 H     1 <1>   0.0800 
 30 H       -3.9900    -1.2280    -2.0000 H     1 <1>   0.0800 
 31 H       -3.5340    -1.9030     0.8320 H     1 <1>   0.4500 
 32 H       -5.2510    -0.4750     1.1290 H     1 <1>   0.0800 
 33 H       -5.7900    -0.7000    -0.5220 H     1 <1>   0.0800 
 34 H       -4.8620    -3.3240    -1.3620 H     1 <1>   0.0800 
 35 H       -3.6820    -3.9660    -0.2190 H     1 <1>   0.0800 
 36 H       -0.9420     4.4490    -1.0090 H     1 <1>   0.0800 
 37 H       -2.5100     5.2080    -1.2550 H     1 <1>   0.0800 
 38 H       -5.8270     4.9170    -1.2710 H     1 <1>   0.0800 
 39 H       -4.6570     4.8660     0.0410 H     1 <1>   0.0800 
 40 H       -5.8660     3.5900    -0.1140 H     1 <1>   0.0800 
 41 H       -6.6320    -2.1470     1.8300 H     1 <1>   0.0800 
 42 H       -5.2520    -3.9110     1.5400 H     1 <1>   0.0800 
 43 H       -2.0500     6.7230     0.6990 H     1 <1>   0.1500 
 44 H       -6.6000    -4.7110    -1.0280 H     1 <1>   0.0800 
 45 H       -6.0580    -5.7130     0.2850 H     1 <1>   0.0800 
 46 H        0.3160     7.5750     0.6430 H     1 <1>   0.1500 
 47 H        0.8070     6.2030    -0.3840 H     1 <1>   0.1500 
 48 H       -8.2460    -2.1790    -1.8690 H     1 <1>   0.4000 
 49 H       -9.2970    -3.1760     1.1100 H     1 <1>   0.0800 
 50 H       -9.2890    -3.5690    -0.5670 H     1 <1>   0.0800 
 51 H       -9.5230    -1.0010    -0.2050 H     1 <1>   0.0800 
 52 H       -8.7630    -0.8220     1.3260 H     1 <1>   0.0800 
 53 H       -7.8480    -4.7960     1.7110 H     1 <1>   0.0800 
 54 H       -8.5030    -5.5500     0.2920 H     1 <1>   0.0800 
 55 H       -7.6790     0.4320    -1.2190 H     1 <1>   0.0800 
 56 H       -7.1630     0.7780     0.4240 H     1 <1>   0.0800 
 57 H       -8.7500     1.2240    -0.1020 H     1 <1>   0.0800 
@<TRIPOS>BOND
  1   1   2  1   
  2   2   3  ar  
  3   2   4  ar  
  4   3   5  ar  
  5   3   6  1   
  6   4   7  ar  
  7   4  27  1   
  8   5   8  ar  
  9   5  28  1   
 10   6   9  1   
 11   6  29  1   
 12   6  30  1   
 13   7   8  ar  
 14   7  10  1   
 15   8  11  1   
 16   9  12  1   
 17   9  13  1   
 18   9  31  1   
 19  10  14  1   
 20  11  15  1   
 21  12  16  1   
 22  12  32  1   
 23  12  33  1   
 24  13  17  1   
 25  13  34  1   
 26  13  35  1   
 27  14  18  1   
 28  14  36  1   
 29  14  37  1   
 30  15  38  1   
 31  15  39  1   
 32  15  40  1   
 33  16  17  1   
 34  16  19  1   
 35  16  41  1   
 36  17  20  1   
 37  17  42  1   
 38  18  21  2   
 39  18  43  1   
 40  19  22  1   
 41  19  23  1   
 42  19  24  1   
 43  20  25  1   
 44  20  44  1   
 45  20  45  1   
 46  21  46  1   
 47  21  47  1   
 48  22  48  1   
 49  23  25  1   
 50  23  49  1   
 51  23  50  1   
 52  24  26  1   
 53  24  51  1   
 54  24  52  1   
 55  25  53  1   
 56  25  54  1   
 57  26  55  1   
 58  26  56  1   
 59  26  57  1   
@<TRIPOS>SUBSTRUCTURE
  1 ****   3 GROUP 4 **** **** 0

# MOE 2024.06 (io_trps.svl 2023.06)
