@<TRIPOS>MOLECULE
NONAME
49 52 1 0 0 
SMALL
USER_CHARGES


@<TRIPOS>ATOM
  1 O        2.1710    -0.0690     0.6940 O.2   1 <1>  -0.5700 
  2 C        2.8780    -0.9880     0.3500 C.2   1 <1>   0.5690 
  3 N        4.2330    -0.8750     0.5020 N.am  1 <1>  -0.6600 
  4 C        2.2540    -2.2140    -0.3120 C.3   1 <1>  -0.0190 
  5 C        4.7900    -0.0170     1.6160 C.3   1 <1>   0.1400 
  6 C        5.1880    -1.2180    -0.5970 C.3   1 <1>   0.1400 
  7 C        0.7270    -2.3370    -0.1280 C.3   1 <1>  -0.0160 
  8 C        2.8330    -3.5530     0.1900 C.3   1 <1>  -0.0160 
  9 C        5.1460     1.4210     1.1580 C.3   1 <1>   0.4230 
 10 C        5.7750     0.0150    -1.3330 C.3   1 <1>  -0.0800 
 11 C        0.5030    -3.8280    -0.1790 C.ar  1 <1>  -0.1440 
 12 C        1.6820    -4.5080     0.0010 C.ar  1 <1>  -0.1440 
 13 N        4.3270     1.7330    -0.0700 N.4   1 <1>  -0.9590 
 14 C        6.6820     1.5970     1.0210 C.3   1 <1>   0.1200 
 15 C        7.2120     0.3390    -0.8950 C.3   1 <1>   0.1200 
 16 C        4.9250     1.3030    -1.3720 C.3   1 <1>   0.3430 
 17 C       -0.6840    -4.5080    -0.3720 C.ar  1 <1>  -0.1500 
 18 C        1.7090    -5.8900    -0.0060 C.ar  1 <1>  -0.1500 
 19 C        3.9610     3.2110    -0.1220 C.3   1 <1>   0.2370 
 20 O        7.2980     0.4600     0.4820 O.3   1 <1>  -0.5600 
 21 C       -0.6680    -5.8950    -0.3830 C.ar  1 <1>  -0.1500 
 22 C        0.5240    -6.5830    -0.2000 C.ar  1 <1>  -0.1500 
 23 C        5.1570     4.1610    -0.1810 C.2   1 <1>   0.9060 
 24 O        5.6100     4.5760     0.8890 O.co2 1 <1>  -0.9000 
 25 O        5.7160     4.3210    -1.2700 O.co2 1 <1>  -0.9000 
 26 H        2.4330    -2.1550    -1.3700 H     1 <1>   0.0800 
 27 H        4.0530     0.0580     2.3960 H     1 <1>   0.0800 
 28 H        5.6470    -0.5010     2.0530 H     1 <1>   0.0800 
 29 H        5.9880    -1.8140    -0.1890 H     1 <1>   0.0800 
 30 H        4.6850    -1.8300    -1.3250 H     1 <1>   0.0800 
 31 H        0.1890    -1.8220    -0.9040 H     1 <1>   0.0800 
 32 H        0.4170    -1.9720     0.8360 H     1 <1>   0.0800 
 33 H        3.0790    -3.4990     1.2360 H     1 <1>   0.0800 
 34 H        3.6940    -3.8580    -0.3760 H     1 <1>   0.0800 
 35 H        4.8390     2.0980     1.9380 H     1 <1>   0.0800 
 36 H        5.8810    -0.2780    -2.3620 H     1 <1>   0.0800 
 37 H        3.4600     1.1790     0.0730 H     1 <1>   0.4500 
 38 H        7.0940     1.7250     2.0060 H     1 <1>   0.0800 
 39 H        6.9550     2.4640     0.4470 H     1 <1>   0.0800 
 40 H        7.5760     1.2460    -1.3500 H     1 <1>   0.0800 
 41 H        7.8700    -0.4650    -1.1770 H     1 <1>   0.0800 
 42 H        4.1260     1.1690    -2.0810 H     1 <1>   0.0800 
 43 H        5.5490     2.0980    -1.7500 H     1 <1>   0.0800 
 44 H       -1.6060    -3.9720    -0.5110 H     1 <1>   0.1500 
 45 H        2.6340    -6.4210     0.1370 H     1 <1>   0.1500 
 46 H        3.3550     3.4060    -0.9870 H     1 <1>   0.0800 
 47 H        3.3950     3.4740     0.7530 H     1 <1>   0.0800 
 48 H       -1.5830    -6.4390    -0.5320 H     1 <1>   0.1500 
 49 H        0.5280    -7.6580    -0.2090 H     1 <1>   0.1500 
@<TRIPOS>BOND
  1   1   2  2   
  2   2   3  am  
  3   2   4  1   
  4   3   5  1   
  5   3   6  1   
  6   4   7  1   
  7   4   8  1   
  8   4  26  1   
  9   5   9  1   
 10   5  27  1   
 11   5  28  1   
 12   6  10  1   
 13   6  29  1   
 14   6  30  1   
 15   7  11  1   
 16   7  31  1   
 17   7  32  1   
 18   8  12  1   
 19   8  33  1   
 20   8  34  1   
 21   9  13  1   
 22   9  14  1   
 23   9  35  1   
 24  10  15  1   
 25  10  16  1   
 26  10  36  1   
 27  11  12  ar  
 28  11  17  ar  
 29  12  18  ar  
 30  13  16  1   
 31  13  19  1   
 32  13  37  1   
 33  14  20  1   
 34  14  38  1   
 35  14  39  1   
 36  15  20  1   
 37  15  40  1   
 38  15  41  1   
 39  16  42  1   
 40  16  43  1   
 41  17  21  ar  
 42  17  44  1   
 43  18  22  ar  
 44  18  45  1   
 45  19  23  1   
 46  19  46  1   
 47  19  47  1   
 48  21  22  ar  
 49  21  48  1   
 50  22  49  1   
 51  23  24  ar  
 52  23  25  ar  
@<TRIPOS>SUBSTRUCTURE
  1 ****   3 GROUP 4 **** **** 0

# MOE 2024.06 (io_trps.svl 2023.06)
