@<TRIPOS>MOLECULE
NONAME
61 64 1 0 0 
SMALL
USER_CHARGES


@<TRIPOS>ATOM
  1 O       -2.4520     1.3520    -2.6590 O.2   1 <1>  -0.5700 
  2 C       -2.2740     1.9400    -1.6150 C.2   1 <1>   0.5690 
  3 N       -2.4810     1.3040    -0.4290 N.am  1 <1>  -0.7300 
  4 C       -1.8620     3.4460    -1.6300 C.3   1 <1>   0.3410 
  5 C       -2.7790    -0.1310    -0.2560 C.3   1 <1>   0.2200 
  6 O       -0.9580     3.8040    -0.5810 O.3   1 <1>  -0.3630 
  7 C       -3.1070     4.3070    -1.3750 C.3   1 <1>  -0.2400 
  8 C       -1.2360     3.8940    -2.9640 C.3   1 <1>  -0.2400 
  9 C       -4.1650    -0.2810     0.3510 C.3   1 <1>  -0.0800 
 10 C       -1.8910    -0.6990     0.8450 C.3   1 <1>   0.1200 
 11 C       -0.0830     2.9280    -0.0260 C.ar  1 <1>   0.0820 
 12 C       -3.8820    -0.1320     1.8530 C.3   1 <1>   0.1200 
 13 C       -4.7790    -1.6560     0.0140 C.3   1 <1>  -0.0160 
 14 O       -2.5200    -0.3780     2.0500 O.3   1 <1>  -0.5600 
 15 C       -0.2020     2.6060     1.3270 C.ar  1 <1>  -0.1440 
 16 C        0.9180     2.3540    -0.7970 C.ar  1 <1>  -0.1500 
 17 C       -6.1890    -1.9230     0.5590 C.ar  1 <1>  -0.1440 
 18 C        0.6710     1.6750     1.8840 C.ar  1 <1>  -0.1440 
 19 C       -1.2810     3.2490     2.2000 C.3   1 <1>  -0.0970 
 20 C        1.7850     1.4380    -0.2360 C.ar  1 <1>  -0.1500 
 21 C       -6.7330    -3.2310     0.4990 C.ar  1 <1>   0.0000 
 22 C       -6.9790    -0.9510     1.1060 C.ar  1 <1>  -0.1500 
 23 C        1.6570     1.0990     1.0980 C.ar  1 <1>  -0.1500 
 24 C        0.5700     1.2560     3.3450 C.3   1 <1>  -0.0970 
 25 C       -8.0280    -3.4390     1.0330 C.ar  1 <1>   0.3100 
 26 C       -6.0690    -4.3460    -0.0660 C.ar  1 <1>  -0.1500 
 27 C       -8.2530    -1.2620     1.5980 C.ar  1 <1>   0.1600 
 28 N       -8.7730    -2.4460     1.5780 N.ar  1 <1>  -0.6200 
 29 C       -8.5830    -4.7280     0.9990 C.ar  1 <1>  -0.1500 
 30 C       -6.6390    -5.5910    -0.0870 C.ar  1 <1>  -0.1500 
 31 C       -7.9110    -5.7880     0.4540 C.ar  1 <1>  -0.1500 
 32 H       -2.1310     1.7620     0.4200 H     1 <1>   0.3700 
 33 H       -2.6600    -0.6560    -1.1890 H     1 <1>   0.0800 
 34 H       -3.8410     4.1280    -2.1400 H     1 <1>   0.0800 
 35 H       -2.8510     5.3510    -1.3820 H     1 <1>   0.0800 
 36 H       -3.5430     4.0550    -0.4260 H     1 <1>   0.0800 
 37 H       -1.9770     3.8630    -3.7420 H     1 <1>   0.0800 
 38 H       -0.4460     3.2320    -3.2590 H     1 <1>   0.0800 
 39 H       -0.8590     4.8980    -2.8870 H     1 <1>   0.0800 
 40 H       -4.8160     0.4930    -0.0130 H     1 <1>   0.0800 
 41 H       -0.8980    -0.2860     0.8280 H     1 <1>   0.0800 
 42 H       -1.8380    -1.7710     0.7780 H     1 <1>   0.0800 
 43 H       -4.4470    -0.8230     2.4540 H     1 <1>   0.0800 
 44 H       -4.0780     0.8740     2.1800 H     1 <1>   0.0800 
 45 H       -4.1210    -2.4160     0.3980 H     1 <1>   0.0800 
 46 H       -4.8150    -1.7630    -1.0560 H     1 <1>   0.0800 
 47 H        1.0350     2.6210    -1.8280 H     1 <1>   0.1500 
 48 H       -0.8220     3.7380     3.0410 H     1 <1>   0.0800 
 49 H       -1.9570     2.4970     2.5630 H     1 <1>   0.0800 
 50 H       -1.8500     3.9890     1.6700 H     1 <1>   0.0800 
 51 H        2.5590     0.9910    -0.8350 H     1 <1>   0.1500 
 52 H       -6.6710     0.0740     1.1830 H     1 <1>   0.1500 
 53 H        2.3380     0.3810     1.5210 H     1 <1>   0.1500 
 54 H        1.3070     0.5130     3.5870 H     1 <1>   0.0800 
 55 H       -0.4010     0.8390     3.5420 H     1 <1>   0.0800 
 56 H        0.7260     2.1050     3.9850 H     1 <1>   0.0800 
 57 H       -5.0930    -4.2230    -0.4960 H     1 <1>   0.1500 
 58 H       -8.8370    -0.4620     2.0210 H     1 <1>   0.1500 
 59 H       -9.5640    -4.8550     1.4180 H     1 <1>   0.1500 
 60 H       -6.1190    -6.4290    -0.5190 H     1 <1>   0.1500 
 61 H       -8.3490    -6.7710     0.4350 H     1 <1>   0.1500 
@<TRIPOS>BOND
  1   1   2  2   
  2   2   3  am  
  3   2   4  1   
  4   3   5  1   
  5   3  32  1   
  6   4   6  1   
  7   4   7  1   
  8   4   8  1   
  9   5   9  1   
 10   5  10  1   
 11   5  33  1   
 12   6  11  1   
 13   7  34  1   
 14   7  35  1   
 15   7  36  1   
 16   8  37  1   
 17   8  38  1   
 18   8  39  1   
 19   9  12  1   
 20   9  13  1   
 21   9  40  1   
 22  10  14  1   
 23  10  41  1   
 24  10  42  1   
 25  11  15  ar  
 26  11  16  ar  
 27  12  14  1   
 28  12  43  1   
 29  12  44  1   
 30  13  17  1   
 31  13  45  1   
 32  13  46  1   
 33  15  18  ar  
 34  15  19  1   
 35  16  20  ar  
 36  16  47  1   
 37  17  21  ar  
 38  17  22  ar  
 39  18  23  ar  
 40  18  24  1   
 41  19  48  1   
 42  19  49  1   
 43  19  50  1   
 44  20  23  ar  
 45  20  51  1   
 46  21  25  ar  
 47  21  26  ar  
 48  22  27  ar  
 49  22  52  1   
 50  23  53  1   
 51  24  54  1   
 52  24  55  1   
 53  24  56  1   
 54  25  28  ar  
 55  25  29  ar  
 56  26  30  ar  
 57  26  57  1   
 58  27  28  ar  
 59  27  58  1   
 60  29  31  ar  
 61  29  59  1   
 62  30  31  ar  
 63  30  60  1   
 64  31  61  1   
@<TRIPOS>SUBSTRUCTURE
  1 ****   5 GROUP 4 **** **** 0

# MOE 2024.06 (io_trps.svl 2023.06)
