@<TRIPOS>MOLECULE
NONAME
30 30 1 0 0 
SMALL
USER_CHARGES


@<TRIPOS>ATOM
  1 O       -0.6460    -0.2020    -1.1760 O.2   1 <1>  -0.5700 
  2 C       -1.2720    -0.9660    -0.4710 C.2   1 <1>   0.6340 
  3 O       -2.0600    -0.4640     0.4850 O.3   1 <1>  -0.4300 
  4 C       -1.2090    -2.4050    -0.6150 C.ar  1 <1>   0.0860 
  5 C       -2.1810     0.9300     0.6960 C.3   1 <1>   0.0400 
  6 C       -1.9420    -3.2560     0.2110 C.ar  1 <1>   0.1600 
  7 C       -0.4140    -3.0100    -1.5810 C.ar  1 <1>  -0.1500 
  8 N       -1.9470    -4.5790     0.1560 N.ar  1 <1>  -0.6200 
  9 C       -0.4060    -4.3860    -1.6560 C.ar  1 <1>  -0.1500 
 10 C       -1.1800    -5.1270    -0.7760 C.ar  1 <1>   0.1670 
 11 C       -1.1720    -6.6500    -0.8580 C.3   1 <1>  -0.0160 
 12 C       -0.5250    -7.3340     0.3620 C.3   1 <1>   0.2800 
 13 O       -1.2570    -7.0040     1.4710 O.3   1 <1>  -0.6800 
 14 C       -0.5750    -8.8560     0.2450 C.3   1 <1>  -0.2400 
 15 C        0.9060    -6.8570     0.6190 C.3   1 <1>  -0.2400 
 16 H       -2.8630     1.0940     1.5110 H     1 <1>   0.0800 
 17 H       -2.5590     1.3860    -0.2020 H     1 <1>   0.0800 
 18 H       -1.2110     1.3310     0.9370 H     1 <1>   0.0800 
 19 H       -2.5680    -2.8140     0.9680 H     1 <1>   0.1500 
 20 H        0.1790    -2.4120    -2.2530 H     1 <1>   0.1500 
 21 H        0.2010    -4.8760    -2.3950 H     1 <1>   0.1500 
 22 H       -0.6450    -6.9580    -1.7420 H     1 <1>   0.0800 
 23 H       -2.1850    -6.9960    -0.9600 H     1 <1>   0.0800 
 24 H       -1.5730    -6.0760     1.3500 H     1 <1>   0.4000 
 25 H       -1.5890    -9.1880     0.1190 H     1 <1>   0.0800 
 26 H       -0.1680    -9.3110     1.1300 H     1 <1>   0.0800 
 27 H        0.0010    -9.1850    -0.6010 H     1 <1>   0.0800 
 28 H        0.9330    -5.7970     0.7950 H     1 <1>   0.0800 
 29 H        1.5280    -7.0790    -0.2280 H     1 <1>   0.0800 
 30 H        1.3130    -7.3590     1.4780 H     1 <1>   0.0800 
@<TRIPOS>BOND
  1   1   2  2   
  2   2   3  1   
  3   2   4  1   
  4   3   5  1   
  5   4   6  ar  
  6   4   7  ar  
  7   5  16  1   
  8   5  17  1   
  9   5  18  1   
 10   6   8  ar  
 11   6  19  1   
 12   7   9  ar  
 13   7  20  1   
 14   8  10  ar  
 15   9  10  ar  
 16   9  21  1   
 17  10  11  1   
 18  11  12  1   
 19  11  22  1   
 20  11  23  1   
 21  12  13  1   
 22  12  14  1   
 23  12  15  1   
 24  13  24  1   
 25  14  25  1   
 26  14  26  1   
 27  14  27  1   
 28  15  28  1   
 29  15  29  1   
 30  15  30  1   
@<TRIPOS>SUBSTRUCTURE
  1 ****   8 GROUP 4 **** **** 0

# MOE 2024.06 (io_trps.svl 2023.06)
