@<TRIPOS>MOLECULE
NONAME
50 52 1 0 0 
SMALL
USER_CHARGES


@<TRIPOS>ATOM
  1 O       -3.5800    -0.9930    -3.2640 O.2   1 <1>  -0.5700 
  2 C       -3.2890    -1.2670    -2.1330 C.2   1 <1>   0.5690 
  3 N       -2.8450    -0.3150    -1.2950 N.am  1 <1>  -0.7300 
  4 C       -3.4610    -2.6790    -1.6410 C.3   1 <1>  -0.0190 
  5 C       -2.4640    -0.5200     0.1220 C.3   1 <1>   0.2200 
  6 C       -2.1160    -3.2920    -1.1890 C.3   1 <1>   0.1200 
  7 C       -4.6090    -2.7060    -0.6220 C.3   1 <1>   0.3430 
  8 C       -1.2980    -1.5350     0.2240 C.3   1 <1>   0.1200 
  9 C       -3.7080    -0.9100     0.9690 C.3   1 <1>   0.3430 
 10 O       -1.7160    -2.8710     0.0890 O.3   1 <1>  -0.5600 
 11 N       -4.2000    -2.3220     0.7730 N.4   1 <1>  -0.9590 
 12 C       -5.2010    -2.7300     1.7930 C.3   1 <1>   0.4860 
 13 C       -5.3370    -4.2380     1.7460 C.ar  1 <1>  -0.1440 
 14 C       -6.4780    -4.8120     1.2070 C.ar  1 <1>  -0.1500 
 15 C       -4.3220    -5.0570     2.2190 C.ar  1 <1>  -0.1500 
 16 C       -6.6070    -6.1870     1.1250 C.ar  1 <1>   0.0820 
 17 C       -4.4480    -6.4340     2.1460 C.ar  1 <1>  -0.1500 
 18 O       -7.7500    -6.6510     0.5670 O.3   1 <1>  -0.3630 
 19 C       -5.5840    -7.0020     1.5990 C.ar  1 <1>  -0.1500 
 20 C       -8.0100    -8.0360     0.4600 C.3   1 <1>   0.1200 
 21 C       -9.3660    -8.2470    -0.2300 C.3   1 <1>  -0.0800 
 22 C       -9.7040    -9.7430    -0.2820 C.3   1 <1>  -0.2400 
 23 C       -9.3800    -7.6640    -1.6510 C.3   1 <1>  -0.2400 
 24 H       -2.6990     0.6130    -1.7080 H     1 <1>   0.3700 
 25 H       -3.7890    -3.2470    -2.4930 H     1 <1>   0.0800 
 26 H       -2.1030     0.4270     0.4860 H     1 <1>   0.0800 
 27 H       -1.3320    -3.0610    -1.8930 H     1 <1>   0.0800 
 28 H       -2.2120    -4.3640    -1.1440 H     1 <1>   0.0800 
 29 H       -4.9940    -3.7120    -0.6060 H     1 <1>   0.0800 
 30 H       -5.4040    -2.0620    -0.9640 H     1 <1>   0.0800 
 31 H       -0.8440    -1.4540     1.1970 H     1 <1>   0.0800 
 32 H       -0.5380    -1.3270    -0.5110 H     1 <1>   0.0800 
 33 H       -4.5030    -0.2150     0.7540 H     1 <1>   0.0800 
 34 H       -3.4420    -0.7860     2.0060 H     1 <1>   0.0800 
 35 H       -3.3590    -2.9130     0.9330 H     1 <1>   0.4500 
 36 H       -4.8730    -2.4370     2.7770 H     1 <1>   0.0800 
 37 H       -6.1520    -2.2650     1.5930 H     1 <1>   0.0800 
 38 H       -7.2910    -4.2090     0.8390 H     1 <1>   0.1500 
 39 H       -3.4260    -4.6420     2.6510 H     1 <1>   0.1500 
 40 H       -3.6590    -7.0680     2.5160 H     1 <1>   0.1500 
 41 H       -5.6550    -8.0730     1.5530 H     1 <1>   0.1500 
 42 H       -7.2220    -8.4870    -0.1170 H     1 <1>   0.0800 
 43 H       -8.0240    -8.4510     1.4530 H     1 <1>   0.0800 
 44 H      -10.1220    -7.7540     0.3580 H     1 <1>   0.0800 
 45 H       -8.9720   -10.2790    -0.8620 H     1 <1>   0.0800 
 46 H      -10.6700    -9.8900    -0.7320 H     1 <1>   0.0800 
 47 H       -9.7290   -10.1560     0.7100 H     1 <1>   0.0800 
 48 H       -8.6250    -8.1300    -2.2600 H     1 <1>   0.0800 
 49 H       -9.1930    -6.6050    -1.6240 H     1 <1>   0.0800 
 50 H      -10.3390    -7.8230    -2.1110 H     1 <1>   0.0800 
@<TRIPOS>BOND
  1   1   2  2   
  2   2   3  am  
  3   2   4  1   
  4   3   5  1   
  5   3  24  1   
  6   4   6  1   
  7   4   7  1   
  8   4  25  1   
  9   5   8  1   
 10   5   9  1   
 11   5  26  1   
 12   6  10  1   
 13   6  27  1   
 14   6  28  1   
 15   7  11  1   
 16   7  29  1   
 17   7  30  1   
 18   8  10  1   
 19   8  31  1   
 20   8  32  1   
 21   9  11  1   
 22   9  33  1   
 23   9  34  1   
 24  11  12  1   
 25  11  35  1   
 26  12  13  1   
 27  12  36  1   
 28  12  37  1   
 29  13  14  ar  
 30  13  15  ar  
 31  14  16  ar  
 32  14  38  1   
 33  15  17  ar  
 34  15  39  1   
 35  16  18  1   
 36  16  19  ar  
 37  17  19  ar  
 38  17  40  1   
 39  18  20  1   
 40  19  41  1   
 41  20  21  1   
 42  20  42  1   
 43  20  43  1   
 44  21  22  1   
 45  21  23  1   
 46  21  44  1   
 47  22  45  1   
 48  22  46  1   
 49  22  47  1   
 50  23  48  1   
 51  23  49  1   
 52  23  50  1   
@<TRIPOS>SUBSTRUCTURE
  1 ****  13 GROUP 4 **** **** 0

# MOE 2024.06 (io_trps.svl 2023.06)
