@<TRIPOS>MOLECULE
NONAME
38 40 1 0 0 
SMALL
USER_CHARGES


@<TRIPOS>ATOM
  1 S        0.1710    -0.4400    -0.2940 S.3   1 <1>  -0.0800 
  2 C       -1.4240    -0.9860     0.1160 C.2   1 <1>   0.4420 
  3 C       -0.3940     1.1720    -0.0280 C.2   1 <1>   0.1980 
  4 N       -2.2070    -0.0090     0.4020 N.2   1 <1>  -0.3380 
  5 N       -1.6420    -2.3420     0.0860 N.am  1 <1>  -0.4940 
  6 N       -1.6140     1.2180     0.3180 N.2   1 <1>  -0.3380 
  7 C        0.5680     2.3230    -0.2220 C.3   1 <1>   0.0200 
  8 C       -2.7680    -3.0730     0.3530 C.2   1 <1>   0.7160 
  9 C       -0.1790     3.6360     0.0390 C.3   1 <1>   0.3430 
 10 O       -3.8060    -2.5320     0.6800 O.2   1 <1>  -0.5700 
 11 C       -2.6600    -4.5160     0.2250 C.2   1 <1>   0.2030 
 12 N        0.6710     4.8530    -0.1880 N.4   1 <1>  -0.9590 
 13 N       -1.5460    -5.1490    -0.1300 N.2   1 <1>  -0.7070 
 14 C       -3.6980    -5.4170     0.4560 C.2   1 <1>  -0.1500 
 15 C        1.7590     4.9950     0.8340 C.3   1 <1>   0.2630 
 16 C       -0.1950     6.0740    -0.1820 C.3   1 <1>   0.2630 
 17 N       -1.8770    -6.4530    -0.1250 N.pl3 1 <1>   0.6010 
 18 C       -3.1900    -6.6500     0.2300 C.2   1 <1>  -0.0260 
 19 C       -1.0860    -7.5450    -0.4200 C.2   1 <1>  -0.1810 
 20 N       -3.7760    -7.8980     0.3110 N.2   1 <1>  -0.5760 
 21 C       -1.6500    -8.7790    -0.3450 C.2   1 <1>  -0.1360 
 22 C       -3.0190    -8.9070     0.0300 C.2   1 <1>   0.3760 
 23 H       -0.8570    -2.9390    -0.1740 H     1 <1>   0.3700 
 24 H        0.9360     2.2980    -1.2310 H     1 <1>   0.0800 
 25 H        1.3840     2.2030     0.4660 H     1 <1>   0.0800 
 26 H       -0.5520     3.6340     1.0510 H     1 <1>   0.0800 
 27 H       -1.0340     3.6700    -0.6170 H     1 <1>   0.0800 
 28 H        1.1020     4.7830    -1.1240 H     1 <1>   0.4500 
 29 H       -4.7010    -5.1670     0.7540 H     1 <1>   0.1500 
 30 H        1.3370     5.0560     1.8240 H     1 <1>   0.0800 
 31 H        2.3310     5.8900     0.6490 H     1 <1>   0.0800 
 32 H        2.4280     4.1500     0.7950 H     1 <1>   0.0800 
 33 H       -0.6740     6.1890     0.7770 H     1 <1>   0.0800 
 34 H       -0.9580     5.9960    -0.9400 H     1 <1>   0.0800 
 35 H        0.3950     6.9540    -0.3800 H     1 <1>   0.0800 
 36 H       -0.0680    -7.3410    -0.6920 H     1 <1>   0.1500 
 37 H       -1.1020    -9.6790    -0.5590 H     1 <1>   0.1500 
 38 H       -3.4310    -9.9000     0.0790 H     1 <1>   0.0600 
@<TRIPOS>BOND
  1   1   2  1   
  2   1   3  1   
  3   2   4  2   
  4   2   5  1   
  5   3   6  2   
  6   3   7  1   
  7   4   6  1   
  8   5   8  am  
  9   5  23  1   
 10   7   9  1   
 11   7  24  1   
 12   7  25  1   
 13   8  10  2   
 14   8  11  1   
 15   9  12  1   
 16   9  26  1   
 17   9  27  1   
 18  11  13  2   
 19  11  14  1   
 20  12  15  1   
 21  12  16  1   
 22  12  28  1   
 23  13  17  1   
 24  14  18  2   
 25  14  29  1   
 26  15  30  1   
 27  15  31  1   
 28  15  32  1   
 29  16  33  1   
 30  16  34  1   
 31  16  35  1   
 32  17  18  1   
 33  17  19  1   
 34  18  20  1   
 35  19  21  2   
 36  19  36  1   
 37  20  22  2   
 38  21  22  1   
 39  21  37  1   
 40  22  38  1   
@<TRIPOS>SUBSTRUCTURE
  1 ****   5 GROUP 4 **** **** 0

# MOE 2024.06 (io_trps.svl 2023.06)
