@<TRIPOS>MOLECULE
NONAME
60 64 1 0 0 
SMALL
USER_CHARGES


@<TRIPOS>ATOM
  1 O       -0.9730    -0.4560    -0.0470 O.3   1 <1>  -0.2800 
  2 C        0.1620    -1.0790    -0.3090 C.2   1 <1>  -0.0400 
  3 C       -1.0740     0.5560    -0.8870 C.2   1 <1>  -0.0100 
  4 C        0.8070    -0.4790    -1.3340 C.2   1 <1>  -0.1500 
  5 C        0.5120    -2.2960     0.5230 C.3   1 <1>   0.5230 
  6 C       -0.0060     0.5970    -1.7110 C.2   1 <1>  -0.1500 
  7 N       -0.7150    -3.1490     0.5970 N.4   1 <1>  -0.9590 
  8 C       -0.6330    -4.1450     1.6980 C.3   1 <1>   0.3430 
  9 C       -1.0420    -3.7300    -0.7360 C.3   1 <1>   0.3430 
 10 C       -1.9560    -4.9080     1.7930 C.3   1 <1>  -0.1600 
 11 C       -2.3660    -4.4930    -0.6560 C.3   1 <1>  -0.1600 
 12 C       -2.3300    -5.5480     0.4540 C.3   1 <1>   0.4230 
 13 N       -3.6540    -6.1970     0.5950 N.4   1 <1>  -0.9060 
 14 C       -4.0500    -7.1610    -0.4760 C.3   1 <1>   0.4230 
 15 C       -5.4560    -7.6630    -0.1520 C.3   1 <1>  -0.0800 
 16 C       -3.2520    -8.4450    -0.2770 C.3   1 <1>   0.1200 
 17 C       -5.1870    -8.8210     0.8300 C.3   1 <1>   0.1200 
 18 C       -6.2100    -8.1400    -1.4130 C.3   1 <1>  -0.0170 
 19 O       -3.7950    -8.9410     0.8970 O.3   1 <1>  -0.5600 
 20 C       -7.6160    -8.6110    -1.0540 C.ar  1 <1>  -0.1430 
 21 C       -8.6690    -7.7100    -0.7630 C.ar  1 <1>   0.0000 
 22 C       -7.8950    -9.9460    -0.9930 C.ar  1 <1>  -0.1500 
 23 C       -9.9160    -8.2610    -0.3770 C.ar  1 <1>   0.3100 
 24 C       -8.5660    -6.3010    -0.8360 C.ar  1 <1>  -0.1500 
 25 C       -9.1710   -10.3860    -0.6220 C.ar  1 <1>   0.1600 
 26 N      -10.1480    -9.5950    -0.3120 N.ar  1 <1>  -0.6200 
 27 C      -10.9700    -7.3950    -0.0460 C.ar  1 <1>  -0.1500 
 28 C       -9.6160    -5.4840    -0.5140 C.ar  1 <1>  -0.1500 
 29 C      -10.8330    -6.0360    -0.1070 C.ar  1 <1>  -0.1500 
 30 H       -1.9330     1.2040    -0.8320 H     1 <1>   0.1500 
 31 H        1.7480    -0.7230    -1.8000 H     1 <1>   0.1500 
 32 H        0.7950    -1.9660     1.5100 H     1 <1>   0.0800 
 33 H        1.3370    -2.8310     0.0830 H     1 <1>   0.0800 
 34 H        0.2070     1.2990    -2.5000 H     1 <1>   0.1500 
 35 H       -1.4420    -2.4440     0.8130 H     1 <1>   0.4500 
 36 H        0.1760    -4.8340     1.5090 H     1 <1>   0.0800 
 37 H       -0.4360    -3.6450     2.6350 H     1 <1>   0.0800 
 38 H       -1.1260    -2.9410    -1.4700 H     1 <1>   0.0800 
 39 H       -0.2510    -4.3940    -1.0490 H     1 <1>   0.0800 
 40 H       -2.7230    -4.2270     2.1190 H     1 <1>   0.0800 
 41 H       -1.8470    -5.6740     2.5420 H     1 <1>   0.0800 
 42 H       -2.5340    -4.9630    -1.6090 H     1 <1>   0.0800 
 43 H       -3.1590    -3.7870    -0.4850 H     1 <1>   0.0800 
 44 H       -1.5870    -6.2930     0.2120 H     1 <1>   0.0800 
 45 H       -4.3990    -5.5070     0.7380 H     1 <1>   0.4500 
 46 H       -3.6430    -6.7950     1.4400 H     1 <1>   0.4500 
 47 H       -3.9630    -6.7400    -1.4650 H     1 <1>   0.0800 
 48 H       -6.0480    -6.9050     0.3280 H     1 <1>   0.0800 
 49 H       -2.1940    -8.2970    -0.1560 H     1 <1>   0.0800 
 50 H       -3.4300    -9.1580    -1.0650 H     1 <1>   0.0800 
 51 H       -5.5870    -9.7610     0.4860 H     1 <1>   0.0800 
 52 H       -5.5640    -8.6180     1.8190 H     1 <1>   0.0800 
 53 H       -5.6770    -8.9500    -1.8820 H     1 <1>   0.0800 
 54 H       -6.2780    -7.3510    -2.1410 H     1 <1>   0.0800 
 55 H       -7.1580   -10.6960    -1.2190 H     1 <1>   0.1500 
 56 H       -7.6500    -5.8510    -1.1610 H     1 <1>   0.1500 
 57 H       -9.3490   -11.4470    -0.5850 H     1 <1>   0.1500 
 58 H      -11.9000    -7.8420     0.2560 H     1 <1>   0.1500 
 59 H       -9.5290    -4.4130    -0.5720 H     1 <1>   0.1500 
 60 H      -11.6520    -5.3850     0.1480 H     1 <1>   0.1500 
@<TRIPOS>BOND
  1   1   2  1   
  2   1   3  1   
  3   2   4  2   
  4   2   5  1   
  5   3   6  2   
  6   3  30  1   
  7   4   6  1   
  8   4  31  1   
  9   5   7  1   
 10   5  32  1   
 11   5  33  1   
 12   6  34  1   
 13   7   8  1   
 14   7   9  1   
 15   7  35  1   
 16   8  10  1   
 17   8  36  1   
 18   8  37  1   
 19   9  11  1   
 20   9  38  1   
 21   9  39  1   
 22  10  12  1   
 23  10  40  1   
 24  10  41  1   
 25  11  12  1   
 26  11  42  1   
 27  11  43  1   
 28  12  13  1   
 29  12  44  1   
 30  13  14  1   
 31  13  45  1   
 32  13  46  1   
 33  14  15  1   
 34  14  16  1   
 35  14  47  1   
 36  15  17  1   
 37  15  18  1   
 38  15  48  1   
 39  16  19  1   
 40  16  49  1   
 41  16  50  1   
 42  17  19  1   
 43  17  51  1   
 44  17  52  1   
 45  18  20  1   
 46  18  53  1   
 47  18  54  1   
 48  20  21  ar  
 49  20  22  ar  
 50  21  23  ar  
 51  21  24  ar  
 52  22  25  ar  
 53  22  55  1   
 54  23  26  ar  
 55  23  27  ar  
 56  24  28  ar  
 57  24  56  1   
 58  25  26  ar  
 59  25  57  1   
 60  27  29  ar  
 61  27  58  1   
 62  28  29  ar  
 63  28  59  1   
 64  29  60  1   
@<TRIPOS>SUBSTRUCTURE
  1 ****  13 GROUP 4 **** **** 0

# MOE 2024.06 (io_trps.svl 2023.06)
