@<TRIPOS>MOLECULE
NONAME
46 48 1 0 0 
SMALL
USER_CHARGES


@<TRIPOS>ATOM
  1 O       -4.3370    -1.0810    -1.7460 O.2   1 <1>  -0.5700 
  2 C       -3.6410    -0.3260    -1.1100 C.2   1 <1>   0.5690 
  3 N       -2.9300    -0.6520    -0.0090 N.am  1 <1>  -0.6600 
  4 C       -3.4780     1.1320    -1.4370 C.3   1 <1>  -0.0990 
  5 C       -2.2150     0.4900     0.5800 C.3   1 <1>   0.1400 
  6 C       -2.8770    -2.0030     0.5900 C.3   1 <1>   0.1400 
  7 C       -2.3880     1.6090    -0.4590 C.3   1 <1>  -0.1600 
  8 C       -4.0420    -2.1830     1.5610 C.3   1 <1>  -0.0990 
  9 C       -4.3520    -3.6540     1.7170 C.2   1 <1>   0.5690 
 10 O       -3.8960    -4.2320     2.6740 O.2   1 <1>  -0.5700 
 11 N       -5.1100    -4.3030     0.7830 N.am  1 <1>  -0.6600 
 12 C       -5.6720    -3.7270    -0.4720 C.3   1 <1>   0.1400 
 13 C       -5.3850    -5.7580     0.8470 C.3   1 <1>   0.1400 
 14 C       -6.6630    -4.7820    -0.9590 C.3   1 <1>   0.2000 
 15 C       -6.0340    -6.1030    -0.5000 C.3   1 <1>  -0.0800 
 16 O       -7.8640    -4.5880    -0.2920 O.3   1 <1>  -0.6800 
 17 C       -7.0070    -7.2950    -0.4380 C.3   1 <1>   0.0200 
 18 C       -6.3190    -8.6140    -0.1250 C.2   1 <1>  -0.0400 
 19 O       -7.0580    -9.6720     0.0770 O.3   1 <1>  -0.0190 
 20 C       -5.0340    -8.9850     0.0020 C.2   1 <1>  -0.1500 
 21 N       -6.3410   -10.7270     0.3340 N.2   1 <1>  -0.4100 
 22 C       -5.1160   -10.3430     0.2960 C.2   1 <1>   0.1080 
 23 C       -3.9320   -11.2510     0.5410 C.3   1 <1>  -0.0590 
 24 H       -3.1810     1.2570    -2.4620 H     1 <1>   0.0800 
 25 H       -4.4100     1.6360    -1.2590 H     1 <1>   0.0800 
 26 H       -2.6730     0.7570     1.5170 H     1 <1>   0.0800 
 27 H       -1.1750     0.2520     0.7310 H     1 <1>   0.0800 
 28 H       -2.9480    -2.7270    -0.2050 H     1 <1>   0.0800 
 29 H       -1.9380    -2.1560     1.0940 H     1 <1>   0.0800 
 30 H       -2.6520     2.5390     0.0120 H     1 <1>   0.0800 
 31 H       -1.4600     1.7410    -0.9860 H     1 <1>   0.0800 
 32 H       -4.9170    -1.6740     1.2040 H     1 <1>   0.0800 
 33 H       -3.7810    -1.7710     2.5180 H     1 <1>   0.0800 
 34 H       -6.1520    -2.7770    -0.3150 H     1 <1>   0.0800 
 35 H       -4.8820    -3.6120    -1.1940 H     1 <1>   0.0800 
 36 H       -4.4730    -6.3080     1.0070 H     1 <1>   0.0800 
 37 H       -6.0610    -5.9500     1.6640 H     1 <1>   0.0800 
 38 H       -6.8450    -4.7350    -2.0190 H     1 <1>   0.0800 
 39 H       -5.2460    -6.3410    -1.1920 H     1 <1>   0.0800 
 40 H       -7.6740    -4.4330     0.6550 H     1 <1>   0.4000 
 41 H       -7.5110    -7.3920    -1.3840 H     1 <1>   0.0800 
 42 H       -7.7580    -7.1190     0.3120 H     1 <1>   0.0800 
 43 H       -4.1300    -8.4150    -0.0930 H     1 <1>   0.1500 
 44 H       -3.2980   -11.2660    -0.3260 H     1 <1>   0.0800 
 45 H       -4.2720   -12.2510     0.7400 H     1 <1>   0.0800 
 46 H       -3.3710   -10.8990     1.3870 H     1 <1>   0.0800 
@<TRIPOS>BOND
  1   1   2  2   
  2   2   3  am  
  3   2   4  1   
  4   3   5  1   
  5   3   6  1   
  6   4   7  1   
  7   4  24  1   
  8   4  25  1   
  9   5   7  1   
 10   5  26  1   
 11   5  27  1   
 12   6   8  1   
 13   6  28  1   
 14   6  29  1   
 15   7  30  1   
 16   7  31  1   
 17   8   9  1   
 18   8  32  1   
 19   8  33  1   
 20   9  10  2   
 21   9  11  am  
 22  11  12  1   
 23  11  13  1   
 24  12  14  1   
 25  12  34  1   
 26  12  35  1   
 27  13  15  1   
 28  13  36  1   
 29  13  37  1   
 30  14  15  1   
 31  14  16  1   
 32  14  38  1   
 33  15  17  1   
 34  15  39  1   
 35  16  40  1   
 36  17  18  1   
 37  17  41  1   
 38  17  42  1   
 39  18  19  1   
 40  18  20  2   
 41  19  21  1   
 42  20  22  1   
 43  20  43  1   
 44  21  22  2   
 45  22  23  1   
 46  23  44  1   
 47  23  45  1   
 48  23  46  1   
@<TRIPOS>SUBSTRUCTURE
  1 ****  11 GROUP 4 **** **** 0

# MOE 2024.06 (io_trps.svl 2023.06)
