@<TRIPOS>MOLECULE
NONAME
39 41 1 0 0 
SMALL
USER_CHARGES


@<TRIPOS>ATOM
  1 CL      -0.3050    -0.2040    -1.2230 Cl    1 <1>  -0.1400 
  2 C       -1.6600    -0.9230    -0.3790 C.2   1 <1>   0.1540 
  3 C       -2.6830    -0.0640     0.1310 C.2   1 <1>   0.6160 
  4 C       -1.7200    -2.2730    -0.2240 C.2   1 <1>  -0.1500 
  5 O       -2.7100     1.1520     0.0240 O.2   1 <1>  -0.5700 
  6 N       -3.7190    -0.6690     0.7930 N.am  1 <1>  -0.5390 
  7 C       -2.8240    -2.8740     0.4590 C.2   1 <1>   0.0140 
  8 C       -3.7870    -2.0310     0.9620 C.2   1 <1>  -0.0410 
  9 C       -2.8730    -4.3090     0.6090 C.2   1 <1>   0.6160 
 10 O       -1.8570    -4.9180     0.8890 O.2   1 <1>  -0.5700 
 11 N       -4.0380    -5.0250     0.4330 N.am  1 <1>  -0.6600 
 12 C       -5.1510    -4.6000    -0.4600 C.3   1 <1>   0.1400 
 13 C       -4.1000    -6.4970     0.6480 C.3   1 <1>   0.1400 
 14 C       -6.1290    -5.7730    -0.4460 C.3   1 <1>   0.2000 
 15 C       -5.2250    -6.9970    -0.2670 C.3   1 <1>  -0.0800 
 16 O       -6.9490    -5.6330     0.6630 O.3   1 <1>  -0.6800 
 17 C       -5.9380    -8.2620     0.2500 C.3   1 <1>   0.0200 
 18 C       -5.0350    -9.4830     0.2850 C.2   1 <1>  -0.0400 
 19 O       -5.4860   -10.5780     0.8380 O.3   1 <1>  -0.0190 
 20 C       -3.7890    -9.7320    -0.1520 C.2   1 <1>  -0.1500 
 21 N       -4.6110   -11.5410     0.7990 N.2   1 <1>  -0.4100 
 22 C       -3.5780   -11.0600     0.2080 C.2   1 <1>   0.1080 
 23 C       -2.3080   -11.8380    -0.0550 C.3   1 <1>  -0.0590 
 24 H       -0.9420    -2.9140    -0.6030 H     1 <1>   0.1500 
 25 H       -4.4180    -0.0190     1.1620 H     1 <1>   0.3700 
 26 H       -4.6270    -2.4200     1.5150 H     1 <1>   0.1500 
 27 H       -5.6260    -3.6960    -0.1250 H     1 <1>   0.0800 
 28 H       -4.7660    -4.4580    -1.4560 H     1 <1>   0.0800 
 29 H       -3.1620    -6.9660     0.4050 H     1 <1>   0.0800 
 30 H       -4.3300    -6.6890     1.6820 H     1 <1>   0.0800 
 31 H       -6.7480    -5.8200    -1.3260 H     1 <1>   0.0800 
 32 H       -4.7920    -7.2200    -1.2260 H     1 <1>   0.0800 
 33 H       -6.3950    -5.4930     1.4570 H     1 <1>   0.4000 
 34 H       -6.7800    -8.4800    -0.3830 H     1 <1>   0.0800 
 35 H       -6.3160    -8.0930     1.2430 H     1 <1>   0.0800 
 36 H       -3.0860    -9.1000    -0.6610 H     1 <1>   0.1500 
 37 H       -2.1160   -11.8770    -1.1110 H     1 <1>   0.0800 
 38 H       -2.4100   -12.8420     0.3170 H     1 <1>   0.0800 
 39 H       -1.4810   -11.3660     0.4410 H     1 <1>   0.0800 
@<TRIPOS>BOND
  1   1   2  1   
  2   2   3  1   
  3   2   4  2   
  4   3   5  2   
  5   3   6  am  
  6   4   7  1   
  7   4  24  1   
  8   6   8  1   
  9   6  25  1   
 10   7   8  2   
 11   7   9  1   
 12   8  26  1   
 13   9  10  2   
 14   9  11  am  
 15  11  12  1   
 16  11  13  1   
 17  12  14  1   
 18  12  27  1   
 19  12  28  1   
 20  13  15  1   
 21  13  29  1   
 22  13  30  1   
 23  14  15  1   
 24  14  16  1   
 25  14  31  1   
 26  15  17  1   
 27  15  32  1   
 28  16  33  1   
 29  17  18  1   
 30  17  34  1   
 31  17  35  1   
 32  18  19  1   
 33  18  20  2   
 34  19  21  1   
 35  20  22  1   
 36  20  36  1   
 37  21  22  2   
 38  22  23  1   
 39  23  37  1   
 40  23  38  1   
 41  23  39  1   
@<TRIPOS>SUBSTRUCTURE
  1 ****  11 GROUP 4 **** **** 0

# MOE 2024.06 (io_trps.svl 2023.06)
