@<TRIPOS>MOLECULE
NONAME
40 42 1 0 0 
SMALL
USER_CHARGES


@<TRIPOS>ATOM
  1 O        0.0080     0.0720     0.4120 O.3   1 <1>  -0.0190 
  2 N       -0.4620     1.2820     0.4210 N.2   1 <1>  -0.4100 
  3 C        1.2730     0.2200     0.1000 C.2   1 <1>   0.2980 
  4 C        0.4980     2.0630     0.1190 C.2   1 <1>   0.3350 
  5 N        1.6450     1.4300    -0.0860 N.2   1 <1>  -0.5650 
  6 C        2.1430    -1.0450     0.0430 C.3   1 <1>   0.4690 
  7 C        0.4150     3.5850    -0.0030 C.3   1 <1>   0.1010 
  8 N        1.7240    -2.0280    -0.9990 N.pl3 1 <1>  -0.8380 
  9 C        3.6200    -0.7840    -0.2640 C.3   1 <1>  -0.1600 
 10 C        0.8640     4.2570     1.3020 C.3   1 <1>  -0.2400 
 11 C       -0.9930     4.0690    -0.3870 C.3   1 <1>  -0.2400 
 12 C        0.7060    -2.9120    -0.6610 C.ar  1 <1>   0.4100 
 13 C        2.9090    -2.5780    -1.6930 C.3   1 <1>   0.2090 
 14 C        4.1110    -2.0790    -0.9020 C.3   1 <1>  -0.1600 
 15 N       -0.4040    -2.7260    -1.3520 N.ar  1 <1>  -0.6200 
 16 C        0.8300    -3.9250     0.3380 C.ar  1 <1>   0.3930 
 17 C       -1.3710    -3.5580    -1.0010 C.ar  1 <1>   0.1600 
 18 O        2.0210    -4.0540     0.9910 O.3   1 <1>  -0.3630 
 19 N       -0.1460    -4.7550     0.6750 N.ar  1 <1>  -0.6200 
 20 C       -1.2500    -4.5340    -0.0260 C.ar  1 <1>   0.1600 
 21 C        2.2030    -5.0460     1.9830 C.3   1 <1>   0.0400 
 22 H        2.0810    -1.5180     1.0070 H     1 <1>   0.0800 
 23 H        1.0910     3.8800    -0.7870 H     1 <1>   0.0800 
 24 H        3.7020     0.0160    -0.9780 H     1 <1>   0.0800 
 25 H        4.1690    -0.5220     0.6220 H     1 <1>   0.0800 
 26 H        0.2130     3.9710     2.1090 H     1 <1>   0.0800 
 27 H        0.8470     5.3270     1.2000 H     1 <1>   0.0800 
 28 H        1.8660     3.9500     1.5450 H     1 <1>   0.0800 
 29 H       -1.7000     3.8130     0.3820 H     1 <1>   0.0800 
 30 H       -1.3020     3.5990    -1.3040 H     1 <1>   0.0800 
 31 H       -1.0000     5.1350    -0.5270 H     1 <1>   0.0800 
 32 H        2.8810    -3.6550    -1.7340 H     1 <1>   0.0800 
 33 H        2.9300    -2.1860    -2.6960 H     1 <1>   0.0800 
 34 H        4.3540    -2.7990    -0.1410 H     1 <1>   0.0800 
 35 H        4.9690    -1.9280    -1.5330 H     1 <1>   0.0800 
 36 H       -2.3080    -3.4540    -1.5180 H     1 <1>   0.1500 
 37 H       -2.0970    -5.1610     0.1870 H     1 <1>   0.1500 
 38 H        3.2070    -4.9690     2.3600 H     1 <1>   0.0800 
 39 H        2.0480    -6.0140     1.5400 H     1 <1>   0.0800 
 40 H        1.4960    -4.8790     2.7770 H     1 <1>   0.0800 
@<TRIPOS>BOND
  1   1   2  1   
  2   1   3  1   
  3   2   4  2   
  4   3   5  2   
  5   3   6  1   
  6   4   5  1   
  7   4   7  1   
  8   6   8  1   
  9   6   9  1   
 10   6  22  1   
 11   7  10  1   
 12   7  11  1   
 13   7  23  1   
 14   8  12  1   
 15   8  13  1   
 16   9  14  1   
 17   9  24  1   
 18   9  25  1   
 19  10  26  1   
 20  10  27  1   
 21  10  28  1   
 22  11  29  1   
 23  11  30  1   
 24  11  31  1   
 25  12  15  ar  
 26  12  16  ar  
 27  13  14  1   
 28  13  32  1   
 29  13  33  1   
 30  14  34  1   
 31  14  35  1   
 32  15  17  ar  
 33  16  18  1   
 34  16  19  ar  
 35  17  20  ar  
 36  17  36  1   
 37  18  21  1   
 38  19  20  ar  
 39  20  37  1   
 40  21  38  1   
 41  21  39  1   
 42  21  40  1   
@<TRIPOS>SUBSTRUCTURE
  1 ****   6 GROUP 4 **** **** 0

# MOE 2024.06 (io_trps.svl 2023.06)
