@<TRIPOS>MOLECULE
NONAME
41 42 1 0 0 
SMALL
USER_CHARGES


@<TRIPOS>ATOM
  1 O       -1.2820    -3.9450     1.3500 O.2   1 <1>  -0.5700 
  2 C       -0.2440    -3.3140     1.3240 C.2   1 <1>   0.6900 
  3 N        0.3580    -2.9790     0.1440 N.am  1 <1>  -0.6600 
  4 N        0.3040    -2.9510     2.4870 N.am  1 <1>  -0.8000 
  5 C       -0.3900    -3.1220    -1.1550 C.3   1 <1>   0.2010 
  6 C        1.8180    -2.7210     0.0070 C.3   1 <1>   0.0600 
  7 C       -0.3660    -4.5390    -1.7330 C.2   1 <1>   0.5690 
  8 O       -0.2050    -4.6970    -2.9200 O.2   1 <1>  -0.5700 
  9 N       -0.5470    -5.5830    -0.8910 N.am  1 <1>  -0.7300 
 10 C       -0.6830    -7.0100    -1.2450 C.3   1 <1>   0.2200 
 11 C       -1.9200    -7.6040    -0.5880 C.3   1 <1>  -0.0800 
 12 C        0.4220    -7.8080    -0.5600 C.3   1 <1>   0.1200 
 13 C       -1.4200    -7.9240     0.8220 C.3   1 <1>   0.1200 
 14 C       -3.1880    -6.7290    -0.6190 C.3   1 <1>  -0.0170 
 15 O       -0.0360    -8.0960     0.7290 O.3   1 <1>  -0.5600 
 16 C       -4.3430    -7.4190     0.0890 C.ar  1 <1>  -0.1430 
 17 C       -4.7100    -7.0810     1.3760 C.ar  1 <1>  -0.1500 
 18 C       -5.0820    -8.4170    -0.5140 C.ar  1 <1>  -0.1500 
 19 C       -5.7640    -7.7410     1.9830 C.ar  1 <1>   0.1600 
 20 C       -6.1200    -9.0140     0.1820 C.ar  1 <1>   0.1600 
 21 N       -6.4780    -8.7020     1.4180 N.ar  1 <1>  -0.6200 
 22 H       -0.2200    -3.1330     3.3400 H     1 <1>   0.3700 
 23 H        1.0150    -2.2270     2.5250 H     1 <1>   0.3700 
 24 H       -1.4170    -2.8450    -1.0010 H     1 <1>   0.0800 
 25 H        0.0240    -2.4460    -1.8820 H     1 <1>   0.0800 
 26 H        2.2190    -3.3110    -0.7990 H     1 <1>   0.0800 
 27 H        2.3410    -2.9880     0.9090 H     1 <1>   0.0800 
 28 H        1.9840    -1.6790    -0.2040 H     1 <1>   0.0800 
 29 H       -0.6720    -5.3640     0.1090 H     1 <1>   0.3700 
 30 H       -0.6720    -7.1360    -2.3140 H     1 <1>   0.0800 
 31 H       -2.1390    -8.5400    -1.0710 H     1 <1>   0.0800 
 32 H        1.3480    -7.2640    -0.5030 H     1 <1>   0.0800 
 33 H        0.5770    -8.7440    -1.0660 H     1 <1>   0.0800 
 34 H       -1.8640    -8.8210     1.2180 H     1 <1>   0.0800 
 35 H       -1.5980    -7.1010     1.4940 H     1 <1>   0.0800 
 36 H       -3.4600    -6.5290    -1.6400 H     1 <1>   0.0800 
 37 H       -3.0070    -5.7810    -0.1420 H     1 <1>   0.0800 
 38 H       -4.1850    -6.3100     1.9110 H     1 <1>   0.1500 
 39 H       -4.8600    -8.7330    -1.5160 H     1 <1>   0.1500 
 40 H       -6.0350    -7.4640     2.9870 H     1 <1>   0.1500 
 41 H       -6.6850    -9.7910    -0.3030 H     1 <1>   0.1500 
@<TRIPOS>BOND
  1   1   2  2   
  2   2   3  am  
  3   2   4  am  
  4   3   5  1   
  5   3   6  1   
  6   4  22  1   
  7   4  23  1   
  8   5   7  1   
  9   5  24  1   
 10   5  25  1   
 11   6  26  1   
 12   6  27  1   
 13   6  28  1   
 14   7   8  2   
 15   7   9  am  
 16   9  10  1   
 17   9  29  1   
 18  10  11  1   
 19  10  12  1   
 20  10  30  1   
 21  11  13  1   
 22  11  14  1   
 23  11  31  1   
 24  12  15  1   
 25  12  32  1   
 26  12  33  1   
 27  13  15  1   
 28  13  34  1   
 29  13  35  1   
 30  14  16  1   
 31  14  36  1   
 32  14  37  1   
 33  16  17  ar  
 34  16  18  ar  
 35  17  19  ar  
 36  17  38  1   
 37  18  20  ar  
 38  18  39  1   
 39  19  21  ar  
 40  19  40  1   
 41  20  21  ar  
 42  20  41  1   
@<TRIPOS>SUBSTRUCTURE
  1 ****  14 GROUP 4 **** **** 0

# MOE 2024.06 (io_trps.svl 2023.06)
