@<TRIPOS>MOLECULE
NONAME
55 58 1 0 0 
SMALL
USER_CHARGES


@<TRIPOS>ATOM
  1 O       -4.4700    -0.0080    -0.2130 O.2   1 <1>  -0.5700 
  2 C       -3.2960    -0.4360    -0.3040 C.2   1 <1>   0.5410 
  3 C       -2.1400     0.3810    -0.1190 C.2   1 <1>   0.0140 
  4 C       -3.1430    -1.8070    -0.6030 C.2   1 <1>  -0.1360 
  5 C       -2.2030     1.7780     0.1790 C.2   1 <1>   0.2710 
  6 C       -0.8940    -0.2690    -0.2470 C.2   1 <1>  -0.1500 
  7 C       -1.9120    -2.3880    -0.7210 C.2   1 <1>  -0.1500 
  8 N       -1.0800     2.4920     0.2840 N.2   1 <1>  -0.6210 
  9 N       -3.4060     2.3920     0.3570 N.pl3 1 <1>  -0.6000 
 10 C       -0.7720    -1.6050    -0.5380 C.2   1 <1>  -0.1500 
 11 C       -1.1540     3.7840     0.5730 C.2   1 <1>   0.4860 
 12 C       -3.5420     3.7020     0.6370 C.2   1 <1>  -0.0380 
 13 N        0.0270     4.4690     0.6830 N.pl3 1 <1>  -0.7880 
 14 C       -2.4000     4.4220     0.7470 C.2   1 <1>  -0.1360 
 15 C       -4.9410     4.2590     0.7980 C.3   1 <1>  -0.1020 
 16 C        0.2340     5.7400     1.4390 C.3   1 <1>   0.2090 
 17 C        1.3000     3.9860     0.0560 C.3   1 <1>   0.2090 
 18 C        0.8040     6.8430     0.5250 C.3   1 <1>   0.2090 
 19 C        1.8970     5.0610    -0.8720 C.3   1 <1>   0.2090 
 20 N        2.0460     6.3950    -0.1910 N.pl3 1 <1>  -0.8380 
 21 C        3.2610     6.9510     0.0290 C.ar  1 <1>   0.4100 
 22 N        4.1730     6.1560     0.5570 N.ar  1 <1>  -0.6200 
 23 C        3.5340     8.3070    -0.2930 C.ar  1 <1>  -0.1430 
 24 C        5.3500     6.6710     0.8280 C.ar  1 <1>   0.7710 
 25 C        4.7690     8.7890     0.0120 C.ar  1 <1>   0.2110 
 26 C        2.4660     9.1630    -0.9880 C.3   1 <1>  -0.0170 
 27 N        5.6670     7.9520     0.5840 N.ar  1 <1>  -0.1790 
 28 N        6.2440     5.8510     1.3720 N.pl3 1 <1>  -0.9000 
 29 C        2.9920    10.4390    -1.6570 C.3   1 <1>  -0.2400 
 30 H       -4.0430    -2.3770    -0.7360 H     1 <1>   0.1500 
 31 H        0.0050     0.3070    -0.1100 H     1 <1>   0.1500 
 32 H       -1.8060    -3.4350    -0.9490 H     1 <1>   0.1500 
 33 H       -4.2350     1.7850     0.2500 H     1 <1>   0.4000 
 34 H        0.2010    -2.0600    -0.6270 H     1 <1>   0.1500 
 35 H       -2.4380     5.4690     0.9500 H     1 <1>   0.1500 
 36 H       -5.4430     3.7540     1.6040 H     1 <1>   0.0800 
 37 H       -5.4990     4.1080    -0.1090 H     1 <1>   0.0800 
 38 H       -4.9090     5.3100     1.0140 H     1 <1>   0.0800 
 39 H        0.9360     5.5550     2.2340 H     1 <1>   0.0800 
 40 H       -0.6780     6.0760     1.8940 H     1 <1>   0.0800 
 41 H        1.1340     3.0930    -0.5210 H     1 <1>   0.0800 
 42 H        2.0090     3.7500     0.8290 H     1 <1>   0.0800 
 43 H        1.0200     7.7070     1.1270 H     1 <1>   0.0800 
 44 H        0.0570     7.1150    -0.2000 H     1 <1>   0.0800 
 45 H        1.2470     5.1740    -1.7220 H     1 <1>   0.0800 
 46 H        2.8510     4.7220    -1.2340 H     1 <1>   0.0800 
 47 H        5.0750     9.8030    -0.1850 H     1 <1>   0.1500 
 48 H        1.7080     9.4370    -0.2750 H     1 <1>   0.0800 
 49 H        1.9900     8.5670    -1.7500 H     1 <1>   0.0800 
 50 H        6.6050     8.2520     0.8320 H     1 <1>   0.4570 
 51 H        7.2060     6.0410     1.6560 H     1 <1>   0.4000 
 52 H        5.9490     4.8840     1.5420 H     1 <1>   0.4000 
 53 H        3.3670    11.1360    -0.9290 H     1 <1>   0.0800 
 54 H        2.1890    10.9210    -2.1880 H     1 <1>   0.0800 
 55 H        3.7660    10.2070    -2.3690 H     1 <1>   0.0800 
@<TRIPOS>BOND
  1   1   2  2   
  2   2   3  1   
  3   2   4  1   
  4   3   5  2   
  5   3   6  1   
  6   4   7  2   
  7   4  30  1   
  8   5   8  1   
  9   5   9  1   
 10   6  10  2   
 11   6  31  1   
 12   7  10  1   
 13   7  32  1   
 14   8  11  2   
 15   9  12  1   
 16   9  33  1   
 17  10  34  1   
 18  11  13  1   
 19  11  14  1   
 20  12  14  2   
 21  12  15  1   
 22  13  16  1   
 23  13  17  1   
 24  14  35  1   
 25  15  36  1   
 26  15  37  1   
 27  15  38  1   
 28  16  18  1   
 29  16  39  1   
 30  16  40  1   
 31  17  19  1   
 32  17  41  1   
 33  17  42  1   
 34  18  20  1   
 35  18  43  1   
 36  18  44  1   
 37  19  20  1   
 38  19  45  1   
 39  19  46  1   
 40  20  21  1   
 41  21  22  ar  
 42  21  23  ar  
 43  22  24  ar  
 44  23  25  ar  
 45  23  26  1   
 46  24  27  ar  
 47  24  28  1   
 48  25  27  ar  
 49  25  47  1   
 50  26  29  1   
 51  26  48  1   
 52  26  49  1   
 53  27  50  1   
 54  28  51  1   
 55  28  52  1   
 56  29  53  1   
 57  29  54  1   
 58  29  55  1   
@<TRIPOS>SUBSTRUCTURE
  1 ****  13 GROUP 4 **** **** 0

# MOE 2024.06 (io_trps.svl 2023.06)
