@<TRIPOS>MOLECULE
NONAME
54 57 1 0 0 
SMALL
USER_CHARGES


@<TRIPOS>ATOM
  1 O        1.2350    -1.8510     0.4740 O.3   1 <1>  -0.5600 
  2 C        0.4680    -1.7530    -0.7080 C.3   1 <1>   0.4180 
  3 C        1.2640    -0.7260     1.3160 C.3   1 <1>   0.1200 
  4 C       -0.8380    -1.0150    -0.4500 C.2   1 <1>  -0.2880 
  5 C        0.1800    -3.1970    -1.1440 C.3   1 <1>  -0.1600 
  6 C        1.3130    -1.0680    -1.7880 C.3   1 <1>  -0.1600 
  7 C       -0.1400    -0.4080     1.8450 C.3   1 <1>  -0.0220 
  8 C       -1.1380    -0.4130     0.7030 C.2   1 <1>  -0.2760 
  9 C        1.3960    -3.9180    -1.7410 C.3   1 <1>   0.3430 
 10 C        2.6360    -1.7970    -2.0550 C.3   1 <1>   0.3430 
 11 C       -2.4540     0.2900     0.9880 C.3   1 <1>  -0.1020 
 12 N        2.6350    -3.1580    -1.4310 N.4   1 <1>  -0.9590 
 13 C        3.8910    -3.9290    -1.6320 C.3   1 <1>   0.4860 
 14 C        5.0540    -3.1260    -1.0960 C.ar  1 <1>  -0.1440 
 15 C        5.2100    -2.8910     0.2490 C.ar  1 <1>   0.1600 
 16 C        5.9970    -2.5810    -1.9330 C.ar  1 <1>   0.1600 
 17 N        6.1920    -2.1660     0.7180 N.ar  1 <1>  -0.6200 
 18 N        6.9860    -1.8520    -1.4840 N.ar  1 <1>  -0.6200 
 19 C        7.0640    -1.6610    -0.1620 C.ar  1 <1>   0.6200 
 20 C        8.1610    -0.8480     0.3500 C.ar  1 <1>   0.0000 
 21 C        8.6140    -0.9720     1.6670 C.ar  1 <1>  -0.1500 
 22 C        8.8120     0.0960    -0.4500 C.ar  1 <1>  -0.1500 
 23 C        9.6500    -0.2020     2.1670 C.ar  1 <1>  -0.1440 
 24 C        9.8490     0.8700     0.0360 C.ar  1 <1>  -0.1500 
 25 C       10.2690     0.7220     1.3440 C.ar  1 <1>  -0.1500 
 26 C       10.1120    -0.3670     3.6030 C.3   1 <1>  -0.0970 
 27 H        1.6520     0.1120     0.7630 H     1 <1>   0.0800 
 28 H        1.9300    -0.9370     2.1350 H     1 <1>   0.0800 
 29 H       -1.5110    -1.0280    -1.2890 H     1 <1>   0.1500 
 30 H       -0.5990    -3.2000    -1.8830 H     1 <1>   0.0800 
 31 H       -0.1960    -3.7460    -0.2990 H     1 <1>   0.0800 
 32 H        1.5060    -0.0450    -1.5180 H     1 <1>   0.0800 
 33 H        0.7480    -1.0370    -2.7010 H     1 <1>   0.0800 
 34 H       -0.1170     0.5600     2.3150 H     1 <1>   0.0800 
 35 H       -0.4270    -1.1320     2.5870 H     1 <1>   0.0800 
 36 H        1.2800    -3.9980    -2.8100 H     1 <1>   0.0800 
 37 H        1.4520    -4.9140    -1.3300 H     1 <1>   0.0800 
 38 H        3.4410    -1.2150    -1.6330 H     1 <1>   0.0800 
 39 H        2.8000    -1.8710    -3.1180 H     1 <1>   0.0800 
 40 H       -2.9440    -0.1670     1.8290 H     1 <1>   0.0800 
 41 H       -3.1100     0.2280     0.1380 H     1 <1>   0.0800 
 42 H       -2.2820     1.3290     1.2100 H     1 <1>   0.0800 
 43 H        2.5430    -2.9470    -0.4160 H     1 <1>   0.4500 
 44 H        4.0360    -4.1330    -2.6800 H     1 <1>   0.0800 
 45 H        3.8350    -4.8690    -1.1070 H     1 <1>   0.0800 
 46 H        4.5170    -3.2990     0.9670 H     1 <1>   0.1500 
 47 H        5.9480    -2.7360    -2.9990 H     1 <1>   0.1500 
 48 H        8.1440    -1.6910     2.3150 H     1 <1>   0.1500 
 49 H        8.5030     0.2300    -1.4720 H     1 <1>   0.1500 
 50 H       10.3320     1.5870    -0.6040 H     1 <1>   0.1500 
 51 H       11.0770     1.3260     1.7170 H     1 <1>   0.1500 
 52 H        9.3430    -0.8240     4.2000 H     1 <1>   0.0800 
 53 H       10.3490     0.5900     4.0300 H     1 <1>   0.0800 
 54 H       10.9890    -0.9890     3.6330 H     1 <1>   0.0800 
@<TRIPOS>BOND
  1   1   2  1   
  2   1   3  1   
  3   2   4  1   
  4   2   5  1   
  5   2   6  1   
  6   3   7  1   
  7   3  27  1   
  8   3  28  1   
  9   4   8  2   
 10   4  29  1   
 11   5   9  1   
 12   5  30  1   
 13   5  31  1   
 14   6  10  1   
 15   6  32  1   
 16   6  33  1   
 17   7   8  1   
 18   7  34  1   
 19   7  35  1   
 20   8  11  1   
 21   9  12  1   
 22   9  36  1   
 23   9  37  1   
 24  10  12  1   
 25  10  38  1   
 26  10  39  1   
 27  11  40  1   
 28  11  41  1   
 29  11  42  1   
 30  12  13  1   
 31  12  43  1   
 32  13  14  1   
 33  13  44  1   
 34  13  45  1   
 35  14  15  ar  
 36  14  16  ar  
 37  15  17  ar  
 38  15  46  1   
 39  16  18  ar  
 40  16  47  1   
 41  17  19  ar  
 42  18  19  ar  
 43  19  20  1   
 44  20  21  ar  
 45  20  22  ar  
 46  21  23  ar  
 47  21  48  1   
 48  22  24  ar  
 49  22  49  1   
 50  23  25  ar  
 51  23  26  1   
 52  24  25  ar  
 53  24  50  1   
 54  25  51  1   
 55  26  52  1   
 56  26  53  1   
 57  26  54  1   
@<TRIPOS>SUBSTRUCTURE
  1 ****  15 GROUP 4 **** **** 0

# MOE 2024.06 (io_trps.svl 2023.06)
