@<TRIPOS>MOLECULE
NONAME
54 58 1 0 0 
SMALL
USER_CHARGES


@<TRIPOS>ATOM
  1 F       -0.8000    -0.0940    -2.0950 F     1 <1>  -0.1900 
  2 C       -1.7790    -0.8260    -1.6030 C.ar  1 <1>   0.1900 
  3 C       -2.9360    -0.2440    -1.0870 C.ar  1 <1>   0.4100 
  4 C       -1.6600    -2.1870    -1.6050 C.ar  1 <1>   0.1600 
  5 N       -3.8970    -1.0150    -0.6100 N.ar  1 <1>  -0.6200 
  6 N       -3.1400     1.1300    -1.0320 N.pl3 1 <1>  -0.8380 
  7 N       -2.6130    -2.9620    -1.1240 N.ar  1 <1>  -0.6200 
  8 C       -3.6740    -2.3170    -0.6500 C.ar  1 <1>   0.7200 
  9 C       -2.1910     1.9720    -0.2440 C.3   1 <1>   0.2090 
 10 C       -4.5250     1.6980    -1.0340 C.3   1 <1>   0.2090 
 11 N       -4.6820    -3.0550    -0.1350 N.pl3 1 <1>  -0.8690 
 12 C       -2.7750     2.3100     1.1410 C.3   1 <1>   0.1200 
 13 C       -4.9800     2.0420     0.3960 C.3   1 <1>   0.1200 
 14 C       -4.9520    -4.4440    -0.5760 C.3   1 <1>   0.2890 
 15 O       -4.0500     2.8790     1.0280 O.3   1 <1>  -0.5600 
 16 C       -6.4030    -4.8760    -0.3830 C.3   1 <1>  -0.0800 
 17 C       -4.1660    -5.4760     0.2390 C.3   1 <1>   0.1200 
 18 C       -6.2150    -6.3830    -0.2170 C.3   1 <1>   0.1200 
 19 C       -7.0950    -4.2640     0.8580 C.3   1 <1>  -0.0170 
 20 O       -5.0470    -6.5270     0.5240 O.3   1 <1>  -0.5600 
 21 C       -8.5160    -4.7890     1.0360 C.ar  1 <1>  -0.1440 
 22 C       -9.5940    -4.3520     0.2310 C.ar  1 <1>   0.0000 
 23 C       -8.7820    -5.7180     1.9990 C.ar  1 <1>  -0.1500 
 24 C      -10.8660    -4.9280     0.4700 C.ar  1 <1>   0.3100 
 25 C       -9.4890    -3.3790    -0.7900 C.ar  1 <1>  -0.1500 
 26 C      -10.0800    -6.2170     2.1570 C.ar  1 <1>   0.1600 
 27 N      -11.0910    -5.8570     1.4330 N.ar  1 <1>  -0.6200 
 28 C      -11.9530    -4.5250    -0.3220 C.ar  1 <1>  -0.1500 
 29 C      -10.5700    -3.0060    -1.5420 C.ar  1 <1>  -0.1500 
 30 C      -11.8180    -3.5860    -1.3090 C.ar  1 <1>  -0.1500 
 31 H       -0.7730    -2.6480    -2.0030 H     1 <1>   0.1500 
 32 H       -1.2540     1.4610    -0.1140 H     1 <1>   0.0800 
 33 H       -1.9970     2.8850    -0.7810 H     1 <1>   0.0800 
 34 H       -4.5370     2.5920    -1.6330 H     1 <1>   0.0800 
 35 H       -5.2140     1.0000    -1.4770 H     1 <1>   0.0800 
 36 H       -5.4990    -2.4770     0.0370 H     1 <1>   0.4000 
 37 H       -2.1430     3.0170     1.6480 H     1 <1>   0.0800 
 38 H       -2.8490     1.4190     1.7410 H     1 <1>   0.0800 
 39 H       -5.0870     1.1430     0.9780 H     1 <1>   0.0800 
 40 H       -5.9230     2.5560     0.3710 H     1 <1>   0.0800 
 41 H       -4.6810    -4.5530    -1.6130 H     1 <1>   0.0800 
 42 H       -6.9770    -4.6780    -1.2690 H     1 <1>   0.0800 
 43 H       -3.8270    -5.0630     1.1720 H     1 <1>   0.0800 
 44 H       -3.3350    -5.8630    -0.3220 H     1 <1>   0.0800 
 45 H       -6.0590    -6.8580    -1.1700 H     1 <1>   0.0800 
 46 H       -7.0240    -6.8700     0.2970 H     1 <1>   0.0800 
 47 H       -7.1360    -3.1930     0.7860 H     1 <1>   0.0800 
 48 H       -6.5130    -4.4930     1.7360 H     1 <1>   0.0800 
 49 H       -8.0120    -6.0910     2.6500 H     1 <1>   0.1500 
 50 H       -8.5410    -2.9160    -0.9830 H     1 <1>   0.1500 
 51 H      -10.2460    -6.9500     2.9290 H     1 <1>   0.1500 
 52 H      -12.9050    -4.9820    -0.1220 H     1 <1>   0.1500 
 53 H      -10.4750    -2.2660    -2.3180 H     1 <1>   0.1500 
 54 H      -12.6620    -3.2870    -1.9070 H     1 <1>   0.1500 
@<TRIPOS>BOND
  1   1   2  1   
  2   2   3  ar  
  3   2   4  ar  
  4   3   5  ar  
  5   3   6  1   
  6   4   7  ar  
  7   4  31  1   
  8   5   8  ar  
  9   6   9  1   
 10   6  10  1   
 11   7   8  ar  
 12   8  11  1   
 13   9  12  1   
 14   9  32  1   
 15   9  33  1   
 16  10  13  1   
 17  10  34  1   
 18  10  35  1   
 19  11  14  1   
 20  11  36  1   
 21  12  15  1   
 22  12  37  1   
 23  12  38  1   
 24  13  15  1   
 25  13  39  1   
 26  13  40  1   
 27  14  16  1   
 28  14  17  1   
 29  14  41  1   
 30  16  18  1   
 31  16  19  1   
 32  16  42  1   
 33  17  20  1   
 34  17  43  1   
 35  17  44  1   
 36  18  20  1   
 37  18  45  1   
 38  18  46  1   
 39  19  21  1   
 40  19  47  1   
 41  19  48  1   
 42  21  22  ar  
 43  21  23  ar  
 44  22  24  ar  
 45  22  25  ar  
 46  23  26  ar  
 47  23  49  1   
 48  24  27  ar  
 49  24  28  ar  
 50  25  29  ar  
 51  25  50  1   
 52  26  27  ar  
 53  26  51  1   
 54  28  30  ar  
 55  28  52  1   
 56  29  30  ar  
 57  29  53  1   
 58  30  54  1   
@<TRIPOS>SUBSTRUCTURE
  1 ****  11 GROUP 4 **** **** 0

# MOE 2024.06 (io_trps.svl 2023.06)
