@<TRIPOS>MOLECULE
NONAME
51 54 1 0 0 
SMALL
USER_CHARGES


@<TRIPOS>ATOM
  1 O       -1.7990    -0.4760     0.4120 O.2   1 <1>  -0.5700 
  2 C       -2.2150     0.6110     0.0580 C.2   1 <1>   0.5440 
  3 N       -3.1580     0.6420    -0.9480 N.am  1 <1>  -0.6600 
  4 C       -1.7520     1.8180     0.7190 C.ar  1 <1>   0.0860 
  5 C       -3.2130    -0.4490    -1.9530 C.3   1 <1>   0.1400 
  6 C       -4.4060     1.4270    -0.8130 C.3   1 <1>   0.1400 
  7 C       -1.6510     3.0450     0.0750 C.ar  1 <1>  -0.1500 
  8 C       -1.3640     1.8280     2.0510 C.ar  1 <1>  -0.1500 
  9 C       -4.2960    -1.4410    -1.5310 C.3   1 <1>  -0.1600 
 10 C       -5.5170     0.4740    -0.3630 C.3   1 <1>  -0.1600 
 11 C       -1.2130     4.1610     0.7610 C.ar  1 <1>   0.1600 
 12 C       -0.9380     2.9990     2.6480 C.ar  1 <1>   0.1600 
 13 C       -5.6360    -0.7270    -1.3210 C.3   1 <1>   0.4230 
 14 N       -0.8610     4.1680     2.0350 N.ar  1 <1>  -0.6200 
 15 N       -6.6660    -1.7150    -0.8730 N.4   1 <1>  -0.9590 
 16 C       -8.0510    -1.1810    -1.0290 C.3   1 <1>   0.3430 
 17 C       -6.4360    -2.2600     0.5030 C.3   1 <1>   0.3430 
 18 C       -9.0600    -2.2980    -0.7800 C.3   1 <1>  -0.1600 
 19 C       -7.4290    -3.3850     0.7900 C.3   1 <1>  -0.1600 
 20 C       -8.8800    -2.9240     0.6090 C.3   1 <1>   0.1000 
 21 C       -9.8240    -4.0980     0.8130 C.2   1 <1>  -0.3320 
 22 N      -10.0980    -4.6260     2.0300 N.pl3 1 <1>   0.3000 
 23 C      -10.5420    -4.8210    -0.0780 C.2   1 <1>  -0.1500 
 24 N      -10.9550    -5.6560     1.9470 N.2   1 <1>  -0.7070 
 25 C      -11.2180    -5.7670     0.6830 C.2   1 <1>   0.1390 
 26 H       -2.2580    -0.9460    -2.0100 H     1 <1>   0.0800 
 27 H       -3.4290    -0.0320    -2.9220 H     1 <1>   0.0800 
 28 H       -4.6480     1.8800    -1.7610 H     1 <1>   0.0800 
 29 H       -4.2840     2.2110    -0.0850 H     1 <1>   0.0800 
 30 H       -1.9080     3.1270    -0.9650 H     1 <1>   0.1500 
 31 H       -1.3910     0.9160     2.6190 H     1 <1>   0.1500 
 32 H       -3.9580    -1.9150    -0.6270 H     1 <1>   0.0800 
 33 H       -4.3890    -2.1900    -2.2960 H     1 <1>   0.0800 
 34 H       -6.4400     1.0220    -0.3310 H     1 <1>   0.0800 
 35 H       -5.2750     0.1490     0.6330 H     1 <1>   0.0800 
 36 H       -1.1450     5.1000     0.2370 H     1 <1>   0.1500 
 37 H       -0.6450     2.9750     3.6840 H     1 <1>   0.1500 
 38 H       -5.9350    -0.3390    -2.2820 H     1 <1>   0.0800 
 39 H       -6.5910    -2.5180    -1.5120 H     1 <1>   0.4500 
 40 H       -8.1880    -0.7910    -2.0250 H     1 <1>   0.0800 
 41 H       -8.2170    -0.3810    -0.3250 H     1 <1>   0.0800 
 42 H       -6.5620    -1.4770     1.2330 H     1 <1>   0.0800 
 43 H       -5.4320    -2.6430     0.5930 H     1 <1>   0.0800 
 44 H       -8.9490    -3.0460    -1.5450 H     1 <1>   0.0800 
 45 H      -10.0560    -1.8990    -0.8600 H     1 <1>   0.0800 
 46 H       -7.2830    -3.7260     1.8000 H     1 <1>   0.0800 
 47 H       -7.2250    -4.2180     0.1400 H     1 <1>   0.0800 
 48 H       -9.1070    -2.1740     1.3500 H     1 <1>   0.0800 
 49 H       -9.7280    -4.3130     2.9360 H     1 <1>   0.2700 
 50 H      -10.6170    -4.7330    -1.1470 H     1 <1>   0.1500 
 51 H      -11.8870    -6.5110     0.2820 H     1 <1>   0.1500 
@<TRIPOS>BOND
  1   1   2  2   
  2   2   3  am  
  3   2   4  1   
  4   3   5  1   
  5   3   6  1   
  6   4   7  ar  
  7   4   8  ar  
  8   5   9  1   
  9   5  26  1   
 10   5  27  1   
 11   6  10  1   
 12   6  28  1   
 13   6  29  1   
 14   7  11  ar  
 15   7  30  1   
 16   8  12  ar  
 17   8  31  1   
 18   9  13  1   
 19   9  32  1   
 20   9  33  1   
 21  10  13  1   
 22  10  34  1   
 23  10  35  1   
 24  11  14  ar  
 25  11  36  1   
 26  12  14  ar  
 27  12  37  1   
 28  13  15  1   
 29  13  38  1   
 30  15  16  1   
 31  15  17  1   
 32  15  39  1   
 33  16  18  1   
 34  16  40  1   
 35  16  41  1   
 36  17  19  1   
 37  17  42  1   
 38  17  43  1   
 39  18  20  1   
 40  18  44  1   
 41  18  45  1   
 42  19  20  1   
 43  19  46  1   
 44  19  47  1   
 45  20  21  1   
 46  20  48  1   
 47  21  22  1   
 48  21  23  2   
 49  22  24  1   
 50  22  49  1   
 51  23  25  1   
 52  23  50  1   
 53  24  25  2   
 54  25  51  1   
@<TRIPOS>SUBSTRUCTURE
  1 ****  10 GROUP 4 **** **** 0

# MOE 2024.06 (io_trps.svl 2023.06)
