@<TRIPOS>MOLECULE
NONAME
55 57 1 0 0 
SMALL
USER_CHARGES


@<TRIPOS>ATOM
  1 O        1.5480    -3.5750    -2.9520 O.2   1 <1>  -0.5700 
  2 C        1.0840    -3.2610    -1.8690 C.2   1 <1>   0.5440 
  3 N        0.0260    -2.3700    -1.8590 N.am  1 <1>  -0.6600 
  4 C        1.6790    -3.8170    -0.6560 C.ar  1 <1>   0.3960 
  5 C       -0.4760    -1.7060    -3.0830 C.3   1 <1>   0.1400 
  6 C       -0.5530    -1.7470    -0.6460 C.3   1 <1>   0.1400 
  7 N        0.9060    -4.2440     0.3540 N.ar  1 <1>  -0.6200 
  8 C        3.0720    -3.9000    -0.5960 C.ar  1 <1>   0.1600 
  9 C       -1.1360    -0.4260    -2.5860 C.3   1 <1>  -0.1600 
 10 C       -1.5860    -0.7520    -1.1650 C.3   1 <1>  -0.1600 
 11 C        1.5810    -4.7360     1.3820 C.ar  1 <1>   0.4100 
 12 N        3.7730    -4.3770     0.4230 N.ar  1 <1>  -0.6200 
 13 N        0.8260    -5.2160     2.4520 N.pl3 1 <1>  -0.8380 
 14 C        2.9850    -4.7930     1.3940 C.ar  1 <1>   0.1600 
 15 C       -0.5910    -5.6260     2.2530 C.3   1 <1>   0.2090 
 16 C        1.1570    -4.7750     3.8370 C.3   1 <1>   0.1290 
 17 C       -0.6290    -6.9330     1.4500 C.3   1 <1>  -0.1600 
 18 C       -2.0320    -7.2310     0.9060 C.3   1 <1>  -0.1600 
 19 C       -2.0010    -8.4830     0.0270 C.3   1 <1>   0.3430 
 20 N       -3.3420    -8.7320    -0.5700 N.4   1 <1>  -0.9590 
 21 C       -3.4480   -10.1450    -1.0760 C.3   1 <1>   0.3430 
 22 C       -3.6530    -7.7660    -1.6850 C.3   1 <1>   0.3430 
 23 C       -4.7900   -10.3900    -1.7920 C.3   1 <1>   0.1200 
 24 C       -4.9840    -8.1140    -2.3810 C.3   1 <1>   0.1200 
 25 O       -4.9780    -9.4470    -2.8060 O.3   1 <1>  -0.5600 
 26 H       -1.1990    -2.3480    -3.5570 H     1 <1>   0.0800 
 27 H        0.3260    -1.4970    -3.7710 H     1 <1>   0.0800 
 28 H        0.2240    -1.2370    -0.1020 H     1 <1>   0.0800 
 29 H       -1.0130    -2.4870    -0.0140 H     1 <1>   0.0800 
 30 H        3.6310    -3.5490    -1.4460 H     1 <1>   0.1500 
 31 H       -1.9520    -0.1260    -3.2190 H     1 <1>   0.0800 
 32 H       -0.4000     0.3590    -2.5670 H     1 <1>   0.0800 
 33 H       -1.6450     0.1230    -0.5430 H     1 <1>   0.0800 
 34 H       -2.5490    -1.2300    -1.1890 H     1 <1>   0.0800 
 35 H        3.4550    -5.2190     2.2600 H     1 <1>   0.1500 
 36 H       -1.1180    -4.8450     1.7300 H     1 <1>   0.0800 
 37 H       -1.0740    -5.7720     3.2040 H     1 <1>   0.0800 
 38 H        2.0750    -4.2130     3.8540 H     1 <1>   0.0800 
 39 H        1.2650    -5.6350     4.4760 H     1 <1>   0.0800 
 40 H        0.3720    -4.1470     4.2210 H     1 <1>   0.0800 
 41 H       -0.2890    -7.7350     2.0820 H     1 <1>   0.0800 
 42 H        0.0490    -6.8500     0.6180 H     1 <1>   0.0800 
 43 H       -2.3540    -6.3820     0.3300 H     1 <1>   0.0800 
 44 H       -2.7090    -7.3750     1.7300 H     1 <1>   0.0800 
 45 H       -1.7080    -9.3240     0.6340 H     1 <1>   0.0800 
 46 H       -1.2670    -8.3630    -0.7550 H     1 <1>   0.0800 
 47 H       -4.0520    -8.6100     0.1630 H     1 <1>   0.4500 
 48 H       -3.3500   -10.8400    -0.2580 H     1 <1>   0.0800 
 49 H       -2.6520   -10.3430    -1.7760 H     1 <1>   0.0800 
 50 H       -2.8680    -7.7960    -2.4230 H     1 <1>   0.0800 
 51 H       -3.7080    -6.7610    -1.3030 H     1 <1>   0.0800 
 52 H       -5.6170   -10.3310    -1.1040 H     1 <1>   0.0800 
 53 H       -4.7950   -11.3650    -2.2490 H     1 <1>   0.0800 
 54 H       -5.1190    -7.4950    -3.2520 H     1 <1>   0.0800 
 55 H       -5.8200    -7.9630    -1.7210 H     1 <1>   0.0800 
@<TRIPOS>BOND
  1   1   2  2   
  2   2   3  am  
  3   2   4  1   
  4   3   5  1   
  5   3   6  1   
  6   4   7  ar  
  7   4   8  ar  
  8   5   9  1   
  9   5  26  1   
 10   5  27  1   
 11   6  10  1   
 12   6  28  1   
 13   6  29  1   
 14   7  11  ar  
 15   8  12  ar  
 16   8  30  1   
 17   9  10  1   
 18   9  31  1   
 19   9  32  1   
 20  10  33  1   
 21  10  34  1   
 22  11  13  1   
 23  11  14  ar  
 24  12  14  ar  
 25  13  15  1   
 26  13  16  1   
 27  14  35  1   
 28  15  17  1   
 29  15  36  1   
 30  15  37  1   
 31  16  38  1   
 32  16  39  1   
 33  16  40  1   
 34  17  18  1   
 35  17  41  1   
 36  17  42  1   
 37  18  19  1   
 38  18  43  1   
 39  18  44  1   
 40  19  20  1   
 41  19  45  1   
 42  19  46  1   
 43  20  21  1   
 44  20  22  1   
 45  20  47  1   
 46  21  23  1   
 47  21  48  1   
 48  21  49  1   
 49  22  24  1   
 50  22  50  1   
 51  22  51  1   
 52  23  25  1   
 53  23  52  1   
 54  23  53  1   
 55  24  25  1   
 56  24  54  1   
 57  24  55  1   
@<TRIPOS>SUBSTRUCTURE
  1 ****   7 GROUP 4 **** **** 0

# MOE 2024.06 (io_trps.svl 2023.06)
