@<TRIPOS>MOLECULE
NONAME
47 48 1 0 0 
SMALL
USER_CHARGES


@<TRIPOS>ATOM
  1 O       -0.0330     1.1850    -1.1490 O.3   1 <1>  -0.6800 
  2 C       -0.6120     2.4520    -1.2690 C.3   1 <1>   0.2000 
  3 C       -1.4110     2.8000     0.0250 C.3   1 <1>   0.0000 
  4 C        0.5680     3.4130    -1.5090 C.3   1 <1>   0.3430 
  5 C       -0.4170     3.0260     1.2000 C.3   1 <1>  -0.1600 
  6 C       -2.3290     1.5950     0.3870 C.3   1 <1>   0.1200 
  7 C       -2.3560     4.0300    -0.1780 C.3   1 <1>  -0.1600 
  8 N        1.4990     3.3700    -0.3420 N.4   1 <1>  -0.9590 
  9 C        0.8100     3.8830     0.8760 C.3   1 <1>   0.3430 
 10 O       -3.0900     1.8510     1.5170 O.3   1 <1>  -0.6800 
 11 C       -1.8250     5.3290    -0.8120 C.3   1 <1>  -0.1600 
 12 C        2.7940     4.0670    -0.6230 C.3   1 <1>   0.4860 
 13 C       -2.8910     6.4260    -0.7590 C.3   1 <1>  -0.2400 
 14 C        2.5750     5.5610    -0.8180 C.ar  1 <1>  -0.1440 
 15 C        2.6900     6.4840     0.2230 C.ar  1 <1>   0.1670 
 16 C        2.2490     6.0220    -2.0820 C.ar  1 <1>  -0.1500 
 17 N        2.4470     7.7740     0.0850 N.ar  1 <1>  -0.6200 
 18 C        3.1110     6.1200     1.6380 C.3   1 <1>  -0.0970 
 19 C        2.0150     7.3710    -2.2280 C.ar  1 <1>  -0.1500 
 20 C        2.1190     8.1940    -1.1240 C.ar  1 <1>   0.1600 
 21 H       -0.6980     0.4780    -1.2990 H     1 <1>   0.4000 
 22 H       -1.2620     2.4420    -2.1280 H     1 <1>   0.0800 
 23 H        0.2230     4.4170    -1.6630 H     1 <1>   0.0800 
 24 H        1.0820     3.1000    -2.4030 H     1 <1>   0.0800 
 25 H       -0.0540     2.0730     1.5430 H     1 <1>   0.0800 
 26 H       -0.9330     3.4750     2.0300 H     1 <1>   0.0800 
 27 H       -1.7630     0.7000     0.5820 H     1 <1>   0.0800 
 28 H       -3.0160     1.3940    -0.4180 H     1 <1>   0.0800 
 29 H       -3.1890     3.7130    -0.7830 H     1 <1>   0.0800 
 30 H       -2.7780     4.2900     0.7800 H     1 <1>   0.0800 
 31 H        1.6710     2.3610    -0.2030 H     1 <1>   0.4500 
 32 H        1.4850     3.8550     1.7160 H     1 <1>   0.0800 
 33 H        0.5160     4.9080     0.7270 H     1 <1>   0.0800 
 34 H       -2.5600     1.7850     2.3350 H     1 <1>   0.4000 
 35 H       -0.9570     5.6940    -0.2950 H     1 <1>   0.0800 
 36 H       -1.5830     5.1670    -1.8470 H     1 <1>   0.0800 
 37 H        3.4860     3.8960     0.1830 H     1 <1>   0.0800 
 38 H        3.2350     3.6580    -1.5170 H     1 <1>   0.0800 
 39 H       -3.1560     6.6510     0.2600 H     1 <1>   0.0800 
 40 H       -3.7790     6.1190    -1.2840 H     1 <1>   0.0800 
 41 H       -2.5200     7.3260    -1.2180 H     1 <1>   0.0800 
 42 H        2.1790     5.3720    -2.9370 H     1 <1>   0.1500 
 43 H        3.4620     5.1130     1.7400 H     1 <1>   0.0800 
 44 H        2.2860     6.2760     2.3090 H     1 <1>   0.0800 
 45 H        3.9080     6.7760     1.9430 H     1 <1>   0.0800 
 46 H        1.7560     7.7890    -3.1850 H     1 <1>   0.1500 
 47 H        1.9290     9.2480    -1.2400 H     1 <1>   0.1500 
@<TRIPOS>BOND
  1   1   2  1   
  2   1  21  1   
  3   2   3  1   
  4   2   4  1   
  5   2  22  1   
  6   3   5  1   
  7   3   6  1   
  8   3   7  1   
  9   4   8  1   
 10   4  23  1   
 11   4  24  1   
 12   5   9  1   
 13   5  25  1   
 14   5  26  1   
 15   6  10  1   
 16   6  27  1   
 17   6  28  1   
 18   7  11  1   
 19   7  29  1   
 20   7  30  1   
 21   8   9  1   
 22   8  12  1   
 23   8  31  1   
 24   9  32  1   
 25   9  33  1   
 26  10  34  1   
 27  11  13  1   
 28  11  35  1   
 29  11  36  1   
 30  12  14  1   
 31  12  37  1   
 32  12  38  1   
 33  13  39  1   
 34  13  40  1   
 35  13  41  1   
 36  14  15  ar  
 37  14  16  ar  
 38  15  17  ar  
 39  15  18  1   
 40  16  19  ar  
 41  16  42  1   
 42  17  20  ar  
 43  18  43  1   
 44  18  44  1   
 45  18  45  1   
 46  19  20  ar  
 47  19  46  1   
 48  20  47  1   
@<TRIPOS>SUBSTRUCTURE
  1 ****   9 GROUP 4 **** **** 0

# MOE 2024.06 (io_trps.svl 2023.06)
