@<TRIPOS>MOLECULE
NONAME
23 23 1 0 0 
SMALL
USER_CHARGES


@<TRIPOS>ATOM
  1 N        4.1170     3.3480    -0.4820 N.1   1 <1>   0.6880 
  2 N        4.0850     2.2370     0.1040 N.2   1 <1>  -0.5640 
  3 N        4.1680     4.4290    -1.0680 N.1   1 <1>  -0.3700 
  4 C        5.3420     1.5380     0.3330 C.3   1 <1>   0.0860 
  5 C        5.2280     0.0980    -0.1850 C.3   1 <1>  -0.0800 
  6 C        4.0000    -0.5970     0.4270 C.3   1 <1>   0.3430 
  7 C        6.5150    -0.6890     0.1220 C.3   1 <1>  -0.1600 
  8 N        3.9210    -2.0150    -0.0320 N.4   1 <1>  -0.9060 
  9 C        6.3680    -2.1610    -0.2920 C.3   1 <1>  -0.1600 
 10 C        5.1280    -2.8080     0.3270 C.3   1 <1>   0.3430 
 11 H        5.5430     1.5360     1.3920 H     1 <1>   0.0800 
 12 H        6.1550     2.0470    -0.1610 H     1 <1>   0.0800 
 13 H        5.1000     0.1470    -1.2530 H     1 <1>   0.0800 
 14 H        3.1070    -0.0650     0.1370 H     1 <1>   0.0800 
 15 H        4.0730    -0.5640     1.5020 H     1 <1>   0.0800 
 16 H        6.7310    -0.6380     1.1770 H     1 <1>   0.0800 
 17 H        7.3480    -0.2490    -0.4030 H     1 <1>   0.0800 
 18 H        3.8100    -2.0230    -1.0530 H     1 <1>   0.4500 
 19 H        3.0820    -2.4570     0.3640 H     1 <1>   0.4500 
 20 H        7.2420    -2.7060     0.0230 H     1 <1>   0.0800 
 21 H        6.3160    -2.2380    -1.3650 H     1 <1>   0.0800 
 22 H        5.0280    -3.8210    -0.0330 H     1 <1>   0.0800 
 23 H        5.2380    -2.8400     1.4000 H     1 <1>   0.0800 
@<TRIPOS>BOND
  1   1   2  2   
  2   1   3  3   
  3   2   4  1   
  4   4   5  1   
  5   4  11  1   
  6   4  12  1   
  7   5   6  1   
  8   5   7  1   
  9   5  13  1   
 10   6   8  1   
 11   6  14  1   
 12   6  15  1   
 13   7   9  1   
 14   7  16  1   
 15   7  17  1   
 16   8  10  1   
 17   8  18  1   
 18   8  19  1   
 19   9  10  1   
 20   9  20  1   
 21   9  21  1   
 22  10  22  1   
 23  10  23  1   
@<TRIPOS>SUBSTRUCTURE
  1 ****   5 GROUP 4 **** **** 0

# MOE 2024.06 (io_trps.svl 2023.06)
