@<TRIPOS>MOLECULE
NONAME
47 50 1 0 0 
SMALL
USER_CHARGES


@<TRIPOS>ATOM
  1 CL       0.5190     0.2150     2.1170 Cl    1 <1>  -0.1770 
  2 C        1.8960     0.0470     1.0560 C.ar  1 <1>   0.1770 
  3 C        2.3640    -1.2360     0.7460 C.ar  1 <1>   0.0000 
  4 C        2.5060     1.1620     0.5350 C.ar  1 <1>  -0.1500 
  5 C        3.4560    -1.3720    -0.1040 C.ar  1 <1>  -0.1520 
  6 C        1.9800    -2.5370     1.1080 C.2   1 <1>  -0.1500 
  7 C        3.6090     1.0160    -0.3160 C.ar  1 <1>  -0.1500 
  8 N        3.7200    -2.7120    -0.2570 N.pl3 1 <1>   0.0480 
  9 C        4.0840    -0.2360    -0.6350 C.ar  1 <1>  -0.1500 
 10 C        2.8030    -3.4310     0.4860 C.2   1 <1>  -0.2370 
 11 C        4.8190    -3.2830    -1.0630 C.3   1 <1>   0.0160 
 12 C        2.7980    -4.8720     0.5500 C.2   1 <1>   0.7150 
 13 O        3.8440    -5.4780     0.6930 O.2   1 <1>  -0.5700 
 14 N        1.6320    -5.5880     0.4300 N.am  1 <1>  -0.6600 
 15 C        0.3470    -5.0430    -0.0810 C.3   1 <1>   0.1400 
 16 C        1.6150    -7.0740     0.3600 C.3   1 <1>   0.1400 
 17 C       -0.6180    -6.2260    -0.0340 C.3   1 <1>   0.2000 
 18 C        0.2830    -7.4300    -0.3100 C.3   1 <1>  -0.0800 
 19 O       -1.1250    -6.3120     1.2550 O.3   1 <1>  -0.6800 
 20 C       -0.2800    -8.7980     0.1150 C.3   1 <1>   0.0210 
 21 C        0.7070    -9.9080    -0.1880 C.2   1 <1>   0.1080 
 22 N        1.1570   -10.1450    -1.3820 N.2   1 <1>  -0.7070 
 23 C        1.2440   -10.7760     0.7570 C.2   1 <1>  -0.1500 
 24 N        2.0000   -11.1830    -1.2280 N.pl3 1 <1>   0.3000 
 25 C        2.0720   -11.5820     0.0590 C.2   1 <1>  -0.3320 
 26 C        2.9390   -12.7260     0.5500 C.3   1 <1>  -0.0600 
 27 H        2.1400     2.1430     0.7790 H     1 <1>   0.1500 
 28 H        1.1690    -2.7490     1.7830 H     1 <1>   0.1500 
 29 H        4.0810     1.8970    -0.7180 H     1 <1>   0.1500 
 30 H        4.9320    -0.3450    -1.2870 H     1 <1>   0.1500 
 31 H        4.4640    -4.1470    -1.5950 H     1 <1>   0.0800 
 32 H        5.6200    -3.5750    -0.4080 H     1 <1>   0.0800 
 33 H        5.1760    -2.5580    -1.7700 H     1 <1>   0.0800 
 34 H       -0.0160    -4.2230     0.5130 H     1 <1>   0.0800 
 35 H        0.4840    -4.7180    -1.0980 H     1 <1>   0.0800 
 36 H        2.4470    -7.4490    -0.2130 H     1 <1>   0.0800 
 37 H        1.6650    -7.4730     1.3580 H     1 <1>   0.0800 
 38 H       -1.4400    -6.1360    -0.7240 H     1 <1>   0.0800 
 39 H        0.4640    -7.4650    -1.3710 H     1 <1>   0.0800 
 40 H       -0.3820    -6.2260     1.8860 H     1 <1>   0.4000 
 41 H       -1.1920    -8.9930    -0.4200 H     1 <1>   0.0800 
 42 H       -0.5040    -8.8070     1.1660 H     1 <1>   0.0800 
 43 H        1.0290   -10.7800     1.8100 H     1 <1>   0.1500 
 44 H        2.5100   -11.5940    -2.0190 H     1 <1>   0.2700 
 45 H        2.8220   -12.8490     1.6130 H     1 <1>   0.0800 
 46 H        3.9750   -12.5250     0.3410 H     1 <1>   0.0800 
 47 H        2.6540   -13.6430     0.0660 H     1 <1>   0.0800 
@<TRIPOS>BOND
  1   1   2  1   
  2   2   3  ar  
  3   2   4  ar  
  4   3   5  ar  
  5   3   6  1   
  6   4   7  ar  
  7   4  27  1   
  8   5   8  1   
  9   5   9  ar  
 10   6  10  2   
 11   6  28  1   
 12   7   9  ar  
 13   7  29  1   
 14   8  10  1   
 15   8  11  1   
 16   9  30  1   
 17  10  12  1   
 18  11  31  1   
 19  11  32  1   
 20  11  33  1   
 21  12  13  2   
 22  12  14  am  
 23  14  15  1   
 24  14  16  1   
 25  15  17  1   
 26  15  34  1   
 27  15  35  1   
 28  16  18  1   
 29  16  36  1   
 30  16  37  1   
 31  17  18  1   
 32  17  19  1   
 33  17  38  1   
 34  18  20  1   
 35  18  39  1   
 36  19  40  1   
 37  20  21  1   
 38  20  41  1   
 39  20  42  1   
 40  21  22  2   
 41  21  23  1   
 42  22  24  1   
 43  23  25  2   
 44  23  43  1   
 45  24  25  1   
 46  24  44  1   
 47  25  26  1   
 48  26  45  1   
 49  26  46  1   
 50  26  47  1   
@<TRIPOS>SUBSTRUCTURE
  1 ****  14 GROUP 4 **** **** 0

# MOE 2024.06 (io_trps.svl 2023.06)
