@<TRIPOS>MOLECULE
NONAME
38 39 1 0 0 
SMALL
USER_CHARGES


@<TRIPOS>ATOM
  1 S       -0.4430    -1.0580    -0.3160 S.3   1 <1>  -0.0800 
  2 C       -1.1020     0.5570    -0.1660 C.2   1 <1>   0.1980 
  3 C       -2.0630    -1.6760    -0.4360 C.2   1 <1>  -0.1100 
  4 N       -2.3730     0.6090    -0.2030 N.2   1 <1>  -0.5650 
  5 C       -0.1230     1.7050    -0.0160 C.3   1 <1>   0.0200 
  6 C       -2.9310    -0.6540    -0.3550 C.2   1 <1>   0.0460 
  7 C        0.5130     1.7290     1.3820 C.3   1 <1>  -0.1600 
  8 C       -4.4510    -0.7360    -0.4130 C.3   1 <1>   0.3210 
  9 C        1.4810     2.9070     1.5430 C.3   1 <1>  -0.2400 
 10 N       -4.9160    -2.1370    -0.2920 N.am  1 <1>  -0.7300 
 11 C       -5.7110    -2.7860    -1.1760 C.2   1 <1>   0.5690 
 12 O       -6.1960    -2.2260    -2.1280 O.2   1 <1>  -0.5700 
 13 C       -6.0100    -4.2650    -0.9670 C.3   1 <1>   0.1310 
 14 S       -4.8290    -5.0420     0.2030 S.3   1 <1>  -0.4600 
 15 C       -5.2420    -6.8080     0.1340 C.3   1 <1>   0.1650 
 16 C       -6.6530    -7.0070     0.6950 C.3   1 <1>  -0.1950 
 17 C       -6.9110    -6.9670     2.1680 C.3   1 <1>  -0.2000 
 18 C       -7.0040    -8.2670     1.4210 C.3   1 <1>  -0.2000 
 19 H       -2.1930    -2.7360    -0.5560 H     1 <1>   0.1500 
 20 H       -0.6510     2.6260    -0.1860 H     1 <1>   0.0800 
 21 H        0.6400     1.6140    -0.7690 H     1 <1>   0.0800 
 22 H        1.0420     0.8080     1.5530 H     1 <1>   0.0800 
 23 H       -0.2670     1.8040     2.1210 H     1 <1>   0.0800 
 24 H       -4.7940    -0.3050    -1.3380 H     1 <1>   0.0800 
 25 H       -4.8640    -0.1610     0.3980 H     1 <1>   0.0800 
 26 H        2.2800     2.8390     0.8260 H     1 <1>   0.0800 
 27 H        1.9070     2.8990     2.5300 H     1 <1>   0.0800 
 28 H        0.9650     3.8410     1.4020 H     1 <1>   0.0800 
 29 H       -4.5040    -2.6780     0.4740 H     1 <1>   0.3700 
 30 H       -5.9320    -4.7910    -1.9000 H     1 <1>   0.0800 
 31 H       -6.9960    -4.3820    -0.5580 H     1 <1>   0.0800 
 32 H       -4.5080    -7.3210     0.7300 H     1 <1>   0.0800 
 33 H       -5.1700    -7.1280    -0.8910 H     1 <1>   0.0800 
 34 H       -7.4140    -6.6090     0.0480 H     1 <1>   0.1000 
 35 H       -7.8160    -6.5040     2.5210 H     1 <1>   0.1000 
 36 H       -6.0810    -6.8080     2.8350 H     1 <1>   0.1000 
 37 H       -6.2460    -9.0110     1.5980 H     1 <1>   0.1000 
 38 H       -7.9770    -8.7020     1.2680 H     1 <1>   0.1000 
@<TRIPOS>BOND
  1   1   2  1   
  2   1   3  1   
  3   2   4  2   
  4   2   5  1   
  5   3   6  2   
  6   3  19  1   
  7   4   6  1   
  8   5   7  1   
  9   5  20  1   
 10   5  21  1   
 11   6   8  1   
 12   7   9  1   
 13   7  22  1   
 14   7  23  1   
 15   8  10  1   
 16   8  24  1   
 17   8  25  1   
 18   9  26  1   
 19   9  27  1   
 20   9  28  1   
 21  10  11  am  
 22  10  29  1   
 23  11  12  2   
 24  11  13  1   
 25  13  14  1   
 26  13  30  1   
 27  13  31  1   
 28  14  15  1   
 29  15  16  1   
 30  15  32  1   
 31  15  33  1   
 32  16  17  1   
 33  16  18  1   
 34  16  34  1   
 35  17  18  1   
 36  17  35  1   
 37  17  36  1   
 38  18  37  1   
 39  18  38  1   
@<TRIPOS>SUBSTRUCTURE
  1 ****  10 GROUP 4 **** **** 0

# MOE 2024.06 (io_trps.svl 2023.06)
