@<TRIPOS>MOLECULE
NONAME
46 48 1 0 0 
SMALL
USER_CHARGES


@<TRIPOS>ATOM
  1 CL       2.6070     1.0480     2.8070 Cl    1 <1>  -0.1770 
  2 C        3.0010     1.6650     1.2180 C.ar  1 <1>   0.1770 
  3 C        3.2610     0.8050     0.1630 C.ar  1 <1>   0.1900 
  4 C        3.0540     3.0310     1.0180 C.ar  1 <1>  -0.1500 
  5 F        3.2130    -0.4900     0.3460 F     1 <1>  -0.1900 
  6 C        3.5740     1.2840    -1.0960 C.ar  1 <1>  -0.1500 
  7 C        3.3680     3.5310    -0.2390 C.ar  1 <1>   0.0830 
  8 C        3.6270     2.6550    -1.2960 C.ar  1 <1>  -0.1500 
  9 O        3.4050     4.8800    -0.3550 O.3   1 <1>  -0.3630 
 10 C        3.7530     5.5110    -1.5810 C.3   1 <1>   0.1810 
 11 C        3.7420     7.0330    -1.4540 C.2   1 <1>   0.5690 
 12 O        2.9640     7.6300    -2.1630 O.2   1 <1>  -0.5700 
 13 N        4.5980     7.6980    -0.6030 N.am  1 <1>  -0.6600 
 14 C        5.5690     7.0420     0.3150 C.3   1 <1>   0.1400 
 15 C        4.5760     9.1820    -0.4950 C.3   1 <1>   0.1400 
 16 C        6.9770     7.5820     0.0440 C.3   1 <1>  -0.1600 
 17 C        5.9760     9.7440    -0.7680 C.3   1 <1>  -0.1600 
 18 C        7.0380     9.1150     0.1540 C.3   1 <1>  -0.0800 
 19 C        8.4600     9.6040    -0.1790 C.3   1 <1>  -0.1600 
 20 C        8.6470    11.1140     0.0370 C.3   1 <1>   0.0960 
 21 N       10.0500    11.5030    -0.2010 N.pl3 1 <1>   0.3140 
 22 N       10.4820    11.8990    -1.4120 N.2   1 <1>  -0.7070 
 23 C       11.0490    11.5180     0.7040 C.2   1 <1>  -0.3020 
 24 C       11.7440    12.1540    -1.2480 C.2   1 <1>   0.1390 
 25 C       12.1600    11.9350     0.0590 C.2   1 <1>  -0.1500 
 26 H        2.8510     3.7040     1.8300 H     1 <1>   0.1500 
 27 H        3.7690     0.5940    -1.8990 H     1 <1>   0.1500 
 28 H        3.8680     3.0170    -2.2790 H     1 <1>   0.1500 
 29 H        3.0350     5.2150    -2.3240 H     1 <1>   0.0800 
 30 H        4.7330     5.1840    -1.8700 H     1 <1>   0.0800 
 31 H        5.5720     5.9750     0.1900 H     1 <1>   0.0800 
 32 H        5.2850     7.2560     1.3310 H     1 <1>   0.0800 
 33 H        4.2570     9.4550     0.4960 H     1 <1>   0.0800 
 34 H        3.8780     9.6080    -1.1960 H     1 <1>   0.0800 
 35 H        7.2790     7.2730    -0.9420 H     1 <1>   0.0800 
 36 H        7.6580     7.1390     0.7480 H     1 <1>   0.0800 
 37 H        5.9400    10.8090    -0.6290 H     1 <1>   0.0800 
 38 H        6.2240     9.5560    -1.7990 H     1 <1>   0.0800 
 39 H        6.8100     9.3860     1.1720 H     1 <1>   0.0800 
 40 H        8.6900     9.3690    -1.2050 H     1 <1>   0.0800 
 41 H        9.1620     9.0810     0.4470 H     1 <1>   0.0800 
 42 H        8.3850    11.3860     1.0430 H     1 <1>   0.0800 
 43 H        8.0340    11.6720    -0.6450 H     1 <1>   0.0800 
 44 H       10.9190    11.2380     1.7320 H     1 <1>   0.1500 
 45 H       12.3860    12.4970    -2.0420 H     1 <1>   0.1500 
 46 H       13.1550    12.0750     0.4410 H     1 <1>   0.1500 
@<TRIPOS>BOND
  1   1   2  1   
  2   2   3  ar  
  3   2   4  ar  
  4   3   5  1   
  5   3   6  ar  
  6   4   7  ar  
  7   4  26  1   
  8   6   8  ar  
  9   6  27  1   
 10   7   8  ar  
 11   7   9  1   
 12   8  28  1   
 13   9  10  1   
 14  10  11  1   
 15  10  29  1   
 16  10  30  1   
 17  11  12  2   
 18  11  13  am  
 19  13  14  1   
 20  13  15  1   
 21  14  16  1   
 22  14  31  1   
 23  14  32  1   
 24  15  17  1   
 25  15  33  1   
 26  15  34  1   
 27  16  18  1   
 28  16  35  1   
 29  16  36  1   
 30  17  18  1   
 31  17  37  1   
 32  17  38  1   
 33  18  19  1   
 34  18  39  1   
 35  19  20  1   
 36  19  40  1   
 37  19  41  1   
 38  20  21  1   
 39  20  42  1   
 40  20  43  1   
 41  21  22  1   
 42  21  23  1   
 43  22  24  2   
 44  23  25  2   
 45  23  44  1   
 46  24  25  1   
 47  24  45  1   
 48  25  46  1   
@<TRIPOS>SUBSTRUCTURE
  1 ****  14 GROUP 4 **** **** 0

# MOE 2024.06 (io_trps.svl 2023.06)
