@<TRIPOS>MOLECULE
NONAME
53 56 1 0 0 
SMALL
USER_CHARGES


@<TRIPOS>ATOM
  1 O       -3.1110     0.9060    -1.8540 O.2   1 <1>  -0.5700 
  2 C       -2.6410     0.9830    -0.7460 C.2   1 <1>   0.5690 
  3 N       -2.3640    -0.1170    -0.0080 N.am  1 <1>  -0.7300 
  4 C       -2.3490     2.3470    -0.1640 C.3   1 <1>  -0.0990 
  5 C       -2.6190    -1.5040    -0.4530 C.3   1 <1>   0.2200 
  6 C       -1.0710     2.9270    -0.7730 C.3   1 <1>   0.0210 
  7 C       -3.9760    -1.9480     0.0670 C.3   1 <1>  -0.0800 
  8 C       -1.6820    -2.4600     0.2730 C.3   1 <1>   0.1200 
  9 C       -0.5990     4.2450    -0.1610 C.2   1 <1>  -0.1810 
 10 C       -3.6440    -2.4600     1.4740 C.3   1 <1>   0.1200 
 11 C       -4.5890    -3.0440    -0.8270 C.3   1 <1>  -0.0160 
 12 O       -2.2620    -2.6780     1.5220 O.3   1 <1>  -0.5600 
 13 C       -1.1080     5.1220     0.7300 C.2   1 <1>  -0.0400 
 14 C        0.6290     4.8230    -0.4950 C.2   1 <1>   0.1080 
 15 C       -6.0010    -3.4050    -0.3770 C.ar  1 <1>  -0.1440 
 16 O       -0.2400     6.0860     0.8800 O.3   1 <1>  -0.0190 
 17 C       -2.3840     5.2350     1.5440 C.3   1 <1>  -0.0600 
 18 N        0.8160     5.9180     0.1450 N.2   1 <1>  -0.4100 
 19 C        1.6380     4.2650    -1.4780 C.3   1 <1>  -0.0590 
 20 C       -7.1140    -2.5690    -0.6360 C.ar  1 <1>   0.0000 
 21 C       -6.2300    -4.5670     0.3010 C.ar  1 <1>  -0.1500 
 22 C       -8.3780    -2.9900    -0.1550 C.ar  1 <1>   0.3100 
 23 C       -7.0490    -1.3460    -1.3450 C.ar  1 <1>  -0.1500 
 24 C       -7.5230    -4.8930     0.7270 C.ar  1 <1>   0.1600 
 25 N       -8.5650    -4.1510     0.5230 N.ar  1 <1>  -0.6200 
 26 C       -9.4980    -2.1760    -0.3860 C.ar  1 <1>  -0.1500 
 27 C       -8.1620    -0.5780    -1.5550 C.ar  1 <1>  -0.1500 
 28 C       -9.4030    -0.9940    -1.0690 C.ar  1 <1>  -0.1500 
 29 H       -2.0340    -0.0410     0.9570 H     1 <1>   0.3700 
 30 H       -3.1790     2.9900    -0.3900 H     1 <1>   0.0800 
 31 H       -2.2450     2.2670     0.9010 H     1 <1>   0.0800 
 32 H       -2.5280    -1.5730    -1.5250 H     1 <1>   0.0800 
 33 H       -1.2240     3.0720    -1.8280 H     1 <1>   0.0800 
 34 H       -0.2830     2.2030    -0.6560 H     1 <1>   0.0800 
 35 H       -4.6570    -1.1180     0.1200 H     1 <1>   0.0800 
 36 H       -0.6910    -2.0600     0.3970 H     1 <1>   0.0800 
 37 H       -1.6320    -3.4060    -0.2360 H     1 <1>   0.0800 
 38 H       -4.1490    -3.3780     1.7170 H     1 <1>   0.0800 
 39 H       -3.8810    -1.7170     2.2160 H     1 <1>   0.0800 
 40 H       -3.9670    -3.9220    -0.8040 H     1 <1>   0.0800 
 41 H       -4.6220    -2.7120    -1.8500 H     1 <1>   0.0800 
 42 H       -3.0740     4.4440     1.3360 H     1 <1>   0.0800 
 43 H       -2.8650     6.1700     1.3210 H     1 <1>   0.0800 
 44 H       -2.1430     5.2160     2.5910 H     1 <1>   0.0800 
 45 H        1.1710     4.1070    -2.4320 H     1 <1>   0.0800 
 46 H        2.0290     3.3350    -1.1110 H     1 <1>   0.0800 
 47 H        2.4500     4.9580    -1.6010 H     1 <1>   0.0800 
 48 H       -5.4360    -5.2550     0.5270 H     1 <1>   0.1500 
 49 H       -6.1080    -1.0050    -1.7330 H     1 <1>   0.1500 
 50 H       -7.6590    -5.8180     1.2590 H     1 <1>   0.1500 
 51 H      -10.4430    -2.5180    -0.0050 H     1 <1>   0.1500 
 52 H       -8.0960     0.3510    -2.0950 H     1 <1>   0.1500 
 53 H      -10.2710    -0.3810    -1.2390 H     1 <1>   0.1500 
@<TRIPOS>BOND
  1   1   2  2   
  2   2   3  am  
  3   2   4  1   
  4   3   5  1   
  5   3  29  1   
  6   4   6  1   
  7   4  30  1   
  8   4  31  1   
  9   5   7  1   
 10   5   8  1   
 11   5  32  1   
 12   6   9  1   
 13   6  33  1   
 14   6  34  1   
 15   7  10  1   
 16   7  11  1   
 17   7  35  1   
 18   8  12  1   
 19   8  36  1   
 20   8  37  1   
 21   9  13  2   
 22   9  14  1   
 23  10  12  1   
 24  10  38  1   
 25  10  39  1   
 26  11  15  1   
 27  11  40  1   
 28  11  41  1   
 29  13  16  1   
 30  13  17  1   
 31  14  18  2   
 32  14  19  1   
 33  15  20  ar  
 34  15  21  ar  
 35  16  18  1   
 36  17  42  1   
 37  17  43  1   
 38  17  44  1   
 39  19  45  1   
 40  19  46  1   
 41  19  47  1   
 42  20  22  ar  
 43  20  23  ar  
 44  21  24  ar  
 45  21  48  1   
 46  22  25  ar  
 47  22  26  ar  
 48  23  27  ar  
 49  23  49  1   
 50  24  25  ar  
 51  24  50  1   
 52  26  28  ar  
 53  26  51  1   
 54  27  28  ar  
 55  27  52  1   
 56  28  53  1   
@<TRIPOS>SUBSTRUCTURE
  1 ****   3 GROUP 4 **** **** 0

# MOE 2024.06 (io_trps.svl 2023.06)
