@<TRIPOS>MOLECULE
NONAME
48 51 1 0 0 
SMALL
USER_CHARGES


@<TRIPOS>ATOM
  1 S       -0.6430    -0.0410    -0.6400 S.3   1 <1>  -0.0800 
  2 C       -2.2300    -0.4310    -0.0210 C.2   1 <1>  -0.1100 
  3 C       -0.1200    -1.7010    -0.4480 C.2   1 <1>  -0.1100 
  4 C       -2.3460    -1.7460     0.2890 C.2   1 <1>  -0.0860 
  5 C       -1.1170    -2.4560     0.0460 C.2   1 <1>  -0.1500 
  6 C       -3.5170    -2.4160     0.8190 C.2   1 <1>   0.7160 
  7 O       -3.3860    -3.1070     1.8130 O.2   1 <1>  -0.5700 
  8 N       -4.7600    -2.3230     0.2230 N.am  1 <1>  -0.6600 
  9 C       -5.9990    -2.6670     0.9990 C.3   1 <1>   0.1400 
 10 C       -4.9450    -1.8570    -1.1870 C.3   1 <1>   0.1400 
 11 C       -6.9710    -1.4800     1.2440 C.3   1 <1>   0.1900 
 12 C       -6.0610    -0.8120    -1.4020 C.3   1 <1>  -0.0800 
 13 N       -7.9630    -1.2530     0.1600 N.3   1 <1>  -0.8100 
 14 C       -6.2740    -0.1420     1.6020 C.3   1 <1>   0.1200 
 15 C       -5.8730     0.5320    -0.6610 C.3   1 <1>   0.1200 
 16 C       -7.4570    -1.4200    -1.2030 C.3   1 <1>   0.1100 
 17 C       -9.2790    -1.8890     0.3770 C.3   1 <1>   0.2900 
 18 O       -5.3890     0.3710     0.6370 O.3   1 <1>  -0.5600 
 19 C       -9.2150    -3.4060     0.3880 C.2   1 <1>  -0.0400 
 20 O       -8.8470    -4.0360     1.4720 O.3   1 <1>  -0.0190 
 21 C       -9.4870    -4.3270    -0.5500 C.2   1 <1>  -0.1500 
 22 N       -8.8460    -5.3260     1.3070 N.2   1 <1>  -0.4100 
 23 C       -9.2290    -5.5330     0.0970 C.2   1 <1>   0.1080 
 24 C       -9.3740    -6.9070    -0.5290 C.3   1 <1>   0.0210 
 25 C      -10.8480    -7.3030    -0.6680 C.3   1 <1>  -0.2400 
 26 H       -2.9440     0.3700     0.0630 H     1 <1>   0.1500 
 27 H        0.8930    -1.9370    -0.7250 H     1 <1>   0.1500 
 28 H       -1.0540    -3.5080     0.2660 H     1 <1>   0.1500 
 29 H       -6.5110    -3.4700     0.5030 H     1 <1>   0.0800 
 30 H       -5.7170    -3.0410     1.9660 H     1 <1>   0.0800 
 31 H       -4.0280    -1.4470    -1.5650 H     1 <1>   0.0800 
 32 H       -5.1630    -2.7220    -1.7890 H     1 <1>   0.0800 
 33 H       -7.5310    -1.7450     2.1240 H     1 <1>   0.0800 
 34 H       -6.0180    -0.5720    -2.4490 H     1 <1>   0.0800 
 35 H       -5.6970    -0.2820     2.4980 H     1 <1>   0.0800 
 36 H       -7.0180     0.6080     1.7990 H     1 <1>   0.0800 
 37 H       -6.7930     1.0900    -0.6210 H     1 <1>   0.0800 
 38 H       -5.1430     1.1230    -1.1830 H     1 <1>   0.0800 
 39 H       -7.4380    -2.4640    -1.4660 H     1 <1>   0.0800 
 40 H       -8.1430    -0.9290    -1.8720 H     1 <1>   0.0800 
 41 H       -9.6930    -1.5460     1.3100 H     1 <1>   0.0800 
 42 H       -9.9480    -1.5730    -0.4050 H     1 <1>   0.0800 
 43 H       -9.8230    -4.2040    -1.5620 H     1 <1>   0.1500 
 44 H       -8.9020    -6.9070    -1.4940 H     1 <1>   0.0800 
 45 H       -8.8670    -7.6280     0.0890 H     1 <1>   0.0800 
 46 H      -11.3660    -6.6060    -1.3030 H     1 <1>   0.0800 
 47 H      -11.3190    -7.3060     0.2990 H     1 <1>   0.0800 
 48 H      -10.9280    -8.2870    -1.0950 H     1 <1>   0.0800 
@<TRIPOS>BOND
  1   1   2  1   
  2   1   3  1   
  3   2   4  2   
  4   2  26  1   
  5   3   5  2   
  6   3  27  1   
  7   4   5  1   
  8   4   6  1   
  9   5  28  1   
 10   6   7  2   
 11   6   8  am  
 12   8   9  1   
 13   8  10  1   
 14   9  11  1   
 15   9  29  1   
 16   9  30  1   
 17  10  12  1   
 18  10  31  1   
 19  10  32  1   
 20  11  13  1   
 21  11  14  1   
 22  11  33  1   
 23  12  15  1   
 24  12  16  1   
 25  12  34  1   
 26  13  16  1   
 27  13  17  1   
 28  14  18  1   
 29  14  35  1   
 30  14  36  1   
 31  15  18  1   
 32  15  37  1   
 33  15  38  1   
 34  16  39  1   
 35  16  40  1   
 36  17  19  1   
 37  17  41  1   
 38  17  42  1   
 39  19  20  1   
 40  19  21  2   
 41  20  22  1   
 42  21  23  1   
 43  21  43  1   
 44  22  23  2   
 45  23  24  1   
 46  24  25  1   
 47  24  44  1   
 48  24  45  1   
 49  25  46  1   
 50  25  47  1   
 51  25  48  1   
@<TRIPOS>SUBSTRUCTURE
  1 ****   9 GROUP 4 **** **** 0

# MOE 2024.06 (io_trps.svl 2023.06)
