@<TRIPOS>MOLECULE
NONAME
50 53 1 0 0 
SMALL
USER_CHARGES


@<TRIPOS>ATOM
  1 O       -1.6740    -2.6850    -1.1190 O.2   1 <1>  -0.5700 
  2 C       -0.6140    -3.1750    -0.8270 C.2   1 <1>   0.5690 
  3 N       -0.4860    -4.5010    -0.6090 N.am  1 <1>  -0.7300 
  4 C        0.6240    -2.3190    -0.6770 C.3   1 <1>  -0.0990 
  5 C        0.7890    -5.1360    -0.2190 C.3   1 <1>   0.1400 
  6 C        1.8410    -3.0080    -1.3240 C.3   1 <1>  -0.0800 
  7 C        1.9500    -4.5230    -1.0300 C.3   1 <1>  -0.0800 
  8 C        3.1790    -2.3900    -0.8980 C.3   1 <1>  -0.1600 
  9 C        3.3140    -4.7130    -0.3550 C.3   1 <1>  -0.1600 
 10 C        4.1690    -3.5530    -0.8700 C.3   1 <1>   0.2200 
 11 N        5.3670    -3.2270    -0.0330 N.am  1 <1>  -0.6600 
 12 C        6.1720    -2.1600    -0.3880 C.2   1 <1>   0.5440 
 13 C        5.8770    -4.2750     0.9020 C.3   1 <1>   0.0600 
 14 O        6.1310    -1.7490    -1.5330 O.2   1 <1>  -0.5700 
 15 C        7.0790    -1.5320     0.5600 C.ar  1 <1>   0.0860 
 16 C        8.3330    -1.0800     0.1550 C.ar  1 <1>  -0.1500 
 17 C        6.7310    -1.3490     1.8990 C.ar  1 <1>  -0.1500 
 18 C        9.2380    -0.4890     1.0320 C.ar  1 <1>   0.1170 
 19 C        7.6080    -0.7650     2.7910 C.ar  1 <1>  -0.1500 
 20 N       10.5070    -0.0610     0.5880 N.am  1 <1>  -0.4770 
 21 C        8.8520    -0.3440     2.3610 C.ar  1 <1>  -0.1500 
 22 C       11.3160     0.9220     1.0960 C.2   1 <1>   0.6900 
 23 C       11.2180    -0.7260    -0.5380 C.3   1 <1>   0.1400 
 24 O       11.0270     1.7220     1.9630 O.2   1 <1>  -0.5700 
 25 N       12.5110     0.9430     0.4860 N.am  1 <1>  -0.7300 
 26 C       12.5820    -0.0210    -0.6180 C.3   1 <1>   0.1400 
 27 H       -1.3290    -5.0750    -0.6770 H     1 <1>   0.3700 
 28 H        0.4560    -1.3600    -1.1320 H     1 <1>   0.0800 
 29 H        0.7900    -2.1700     0.3740 H     1 <1>   0.0800 
 30 H        0.9390    -4.9680     0.8340 H     1 <1>   0.0800 
 31 H        0.7390    -6.1970    -0.3930 H     1 <1>   0.0800 
 32 H        1.7450    -2.9000    -2.3930 H     1 <1>   0.0800 
 33 H        1.9820    -5.0300    -1.9800 H     1 <1>   0.0800 
 34 H        3.1010    -1.9730     0.0900 H     1 <1>   0.0800 
 35 H        3.4890    -1.6240    -1.5870 H     1 <1>   0.0800 
 36 H        3.7430    -5.6670    -0.6030 H     1 <1>   0.0800 
 37 H        3.1950    -4.6240     0.7100 H     1 <1>   0.0800 
 38 H        4.4890    -3.7690    -1.8780 H     1 <1>   0.0800 
 39 H        5.2500    -4.3240     1.7750 H     1 <1>   0.0800 
 40 H        6.8840    -4.0560     1.2130 H     1 <1>   0.0800 
 41 H        5.8850    -5.2330     0.4120 H     1 <1>   0.0800 
 42 H        8.5890    -1.1930    -0.8810 H     1 <1>   0.1500 
 43 H        5.7590    -1.6660     2.2370 H     1 <1>   0.1500 
 44 H        7.3270    -0.6320     3.8220 H     1 <1>   0.1500 
 45 H        9.5260     0.1050     3.0670 H     1 <1>   0.1500 
 46 H       11.3380    -1.7750    -0.3330 H     1 <1>   0.0800 
 47 H       10.6760    -0.5920    -1.4580 H     1 <1>   0.0800 
 48 H       13.1420     1.7350     0.6060 H     1 <1>   0.3700 
 49 H       12.7000     0.4880    -1.5590 H     1 <1>   0.0800 
 50 H       13.3900    -0.7150    -0.4650 H     1 <1>   0.0800 
@<TRIPOS>BOND
  1   1   2  2   
  2   2   3  am  
  3   2   4  1   
  4   3   5  1   
  5   3  27  1   
  6   4   6  1   
  7   4  28  1   
  8   4  29  1   
  9   5   7  1   
 10   5  30  1   
 11   5  31  1   
 12   6   7  1   
 13   6   8  1   
 14   6  32  1   
 15   7   9  1   
 16   7  33  1   
 17   8  10  1   
 18   8  34  1   
 19   8  35  1   
 20   9  10  1   
 21   9  36  1   
 22   9  37  1   
 23  10  11  1   
 24  10  38  1   
 25  11  12  am  
 26  11  13  1   
 27  12  14  2   
 28  12  15  1   
 29  13  39  1   
 30  13  40  1   
 31  13  41  1   
 32  15  16  ar  
 33  15  17  ar  
 34  16  18  ar  
 35  16  42  1   
 36  17  19  ar  
 37  17  43  1   
 38  18  20  1   
 39  18  21  ar  
 40  19  21  ar  
 41  19  44  1   
 42  20  22  am  
 43  20  23  1   
 44  21  45  1   
 45  22  24  2   
 46  22  25  am  
 47  23  26  1   
 48  23  46  1   
 49  23  47  1   
 50  25  26  1   
 51  25  48  1   
 52  26  49  1   
 53  26  50  1   
@<TRIPOS>SUBSTRUCTURE
  1 ****  12 GROUP 4 **** **** 0

# MOE 2024.06 (io_trps.svl 2023.06)
