@<TRIPOS>MOLECULE
NONAME
55 59 1 0 0 
SMALL
USER_CHARGES


@<TRIPOS>ATOM
  1 O       -1.8380    -1.5720     1.2170 O.2   1 <1>  -0.5700 
  2 C       -1.4300    -0.5460     0.7300 C.2   1 <1>   0.5690 
  3 N       -2.1760     0.4220     0.1180 N.am  1 <1>  -0.4770 
  4 C        0.0330    -0.1970     0.7320 C.3   1 <1>  -0.0990 
  5 C       -3.5510     0.3920    -0.1640 C.ar  1 <1>   0.1170 
  6 C       -1.3140     1.5160    -0.3770 C.3   1 <1>   0.1400 
  7 C        0.0630     1.2570     0.2470 C.3   1 <1>  -0.1600 
  8 C       -4.3380     1.5350    -0.0550 C.ar  1 <1>  -0.1500 
  9 C       -4.1720    -0.7850    -0.5700 C.ar  1 <1>  -0.1500 
 10 C       -5.6900     1.4990    -0.3400 C.ar  1 <1>  -0.1500 
 11 C       -5.5240    -0.8180    -0.8540 C.ar  1 <1>  -0.1500 
 12 C       -6.3210     0.3210    -0.7370 C.ar  1 <1>   0.0860 
 13 C       -7.7430     0.2910    -1.0160 C.2   1 <1>   0.5440 
 14 O       -8.2290     1.1530    -1.7260 O.2   1 <1>  -0.5700 
 15 N       -8.5730    -0.6790    -0.4900 N.am  1 <1>  -0.6600 
 16 C       -9.9540    -0.9070    -1.0250 C.3   1 <1>   0.1400 
 17 C       -8.2640    -1.4480     0.7490 C.3   1 <1>   0.1400 
 18 C      -11.0250    -0.5770     0.0320 C.3   1 <1>   0.1430 
 19 C       -9.3070    -1.1360     1.8300 C.3   1 <1>  -0.1600 
 20 C      -12.3880    -0.8910    -0.5570 C.ar  1 <1>   0.1670 
 21 C      -10.7430    -1.3680     1.3280 C.3   1 <1>  -0.1600 
 22 C      -11.1240     0.9510     0.2880 C.3   1 <1>  -0.1600 
 23 N      -12.8910    -2.0950    -0.7270 N.ar  1 <1>  -0.6200 
 24 C      -13.0510     0.2440    -0.9170 C.ar  1 <1>  -0.1430 
 25 C      -12.2400     1.4820    -0.6270 C.3   1 <1>  -0.0170 
 26 C      -14.1010    -2.1120    -1.2680 C.ar  1 <1>   0.4770 
 27 C      -14.2990     0.1090    -1.4720 C.ar  1 <1>   0.1600 
 28 N      -14.8390    -1.0790    -1.6530 N.ar  1 <1>  -0.6200 
 29 C      -14.7140    -3.4750    -1.4780 C.3   1 <1>  -0.0970 
 30 H        0.5470    -0.8470     0.0480 H     1 <1>   0.0800 
 31 H        0.4460    -0.3000     1.7190 H     1 <1>   0.0800 
 32 H       -1.6950     2.4770    -0.0800 H     1 <1>   0.0800 
 33 H       -1.2630     1.4620    -1.4520 H     1 <1>   0.0800 
 34 H        0.8570     1.4330    -0.4580 H     1 <1>   0.0800 
 35 H        0.1950     1.9170     1.0870 H     1 <1>   0.0800 
 36 H       -3.8950     2.4600     0.2620 H     1 <1>   0.1500 
 37 H       -3.5870    -1.6820    -0.6650 H     1 <1>   0.1500 
 38 H       -6.2810     2.3950    -0.2560 H     1 <1>   0.1500 
 39 H       -5.9770    -1.7400    -1.1740 H     1 <1>   0.1500 
 40 H      -10.0460    -1.9410    -1.3070 H     1 <1>   0.0800 
 41 H      -10.1210    -0.3150    -1.9080 H     1 <1>   0.0800 
 42 H       -7.2870    -1.2000     1.1240 H     1 <1>   0.0800 
 43 H       -8.2790    -2.5000     0.5190 H     1 <1>   0.0800 
 44 H       -9.1870    -0.1140     2.1440 H     1 <1>   0.0800 
 45 H       -9.1220    -1.7610     2.6870 H     1 <1>   0.0800 
 46 H      -10.8730    -2.4180     1.1270 H     1 <1>   0.0800 
 47 H      -11.4530    -1.0960     2.0890 H     1 <1>   0.0800 
 48 H      -10.1940     1.4630     0.1130 H     1 <1>   0.0800 
 49 H      -11.4170     1.1250     1.3070 H     1 <1>   0.0800 
 50 H      -11.8250     1.8670    -1.5430 H     1 <1>   0.0800 
 51 H      -12.8250     2.2430    -0.1390 H     1 <1>   0.0800 
 52 H      -14.8600     0.9770    -1.7730 H     1 <1>   0.1500 
 53 H      -14.3090    -4.1760    -0.7720 H     1 <1>   0.0800 
 54 H      -14.4960    -3.8100    -2.4740 H     1 <1>   0.0800 
 55 H      -15.7780    -3.4230    -1.3470 H     1 <1>   0.0800 
@<TRIPOS>BOND
  1   1   2  2   
  2   2   3  am  
  3   2   4  1   
  4   3   5  1   
  5   3   6  1   
  6   4   7  1   
  7   4  30  1   
  8   4  31  1   
  9   5   8  ar  
 10   5   9  ar  
 11   6   7  1   
 12   6  32  1   
 13   6  33  1   
 14   7  34  1   
 15   7  35  1   
 16   8  10  ar  
 17   8  36  1   
 18   9  11  ar  
 19   9  37  1   
 20  10  12  ar  
 21  10  38  1   
 22  11  12  ar  
 23  11  39  1   
 24  12  13  1   
 25  13  14  2   
 26  13  15  am  
 27  15  16  1   
 28  15  17  1   
 29  16  18  1   
 30  16  40  1   
 31  16  41  1   
 32  17  19  1   
 33  17  42  1   
 34  17  43  1   
 35  18  20  1   
 36  18  21  1   
 37  18  22  1   
 38  19  21  1   
 39  19  44  1   
 40  19  45  1   
 41  20  23  ar  
 42  20  24  ar  
 43  21  46  1   
 44  21  47  1   
 45  22  25  1   
 46  22  48  1   
 47  22  49  1   
 48  23  26  ar  
 49  24  25  1   
 50  24  27  ar  
 51  25  50  1   
 52  25  51  1   
 53  26  28  ar  
 54  26  29  1   
 55  27  28  ar  
 56  27  52  1   
 57  29  53  1   
 58  29  54  1   
 59  29  55  1   
@<TRIPOS>SUBSTRUCTURE
  1 ****  15 GROUP 4 **** **** 0

# MOE 2024.06 (io_trps.svl 2023.06)
