@<TRIPOS>MOLECULE
NONAME
50 52 1 0 0 
SMALL
USER_CHARGES


@<TRIPOS>ATOM
  1 O       -0.1540     0.4070    -0.9530 O.2   1 <1>  -0.5700 
  2 C       -0.2020     1.5590    -0.5880 C.2   1 <1>   0.5690 
  3 N       -1.4050     2.1690    -0.3190 N.am  1 <1>  -0.6600 
  4 C        1.1020     2.3470    -0.4650 C.3   1 <1>  -0.0990 
  5 C       -2.6820     1.4250    -0.5560 C.3   1 <1>   0.1400 
  6 C       -1.5370     3.5920     0.1260 C.3   1 <1>   0.1400 
  7 C        2.4040     1.5230    -0.5680 C.3   1 <1>  -0.0800 
  8 C       -3.7600     2.3690    -1.0920 C.3   1 <1>  -0.1600 
  9 C       -2.8800     3.8120     0.8190 C.3   1 <1>  -0.1600 
 10 C        2.5890     0.6000     0.6530 C.3   1 <1>  -0.1600 
 11 C        3.6160     2.4630    -0.7070 C.3   1 <1>  -0.1600 
 12 C       -4.0500     3.5440    -0.1410 C.3   1 <1>   0.4180 
 13 C        3.9050    -0.1850     0.5730 C.3   1 <1>  -0.1600 
 14 C        4.9330     1.6790    -0.7900 C.3   1 <1>  -0.1600 
 15 O       -4.2120     4.6660    -0.9740 O.3   1 <1>  -0.5600 
 16 C       -5.3300     3.2680     0.6470 C.2   1 <1>  -0.2880 
 17 C        5.1060     0.7570     0.4230 C.3   1 <1>  -0.1600 
 18 C       -4.9540     5.7500    -0.4840 C.3   1 <1>   0.1200 
 19 C       -6.4090     4.0530     0.6300 C.2   1 <1>  -0.2760 
 20 C       -6.3990     5.3320    -0.1840 C.3   1 <1>  -0.0220 
 21 C       -7.6990     3.7620     1.3750 C.3   1 <1>  -0.1020 
 22 H        1.1150     2.8630     0.4760 H     1 <1>   0.0800 
 23 H        1.0940     3.0830    -1.2480 H     1 <1>   0.0800 
 24 H       -3.0060     0.9780     0.3680 H     1 <1>   0.0800 
 25 H       -2.5240     0.6340    -1.2700 H     1 <1>   0.0800 
 26 H       -1.4630     4.2390    -0.7320 H     1 <1>   0.0800 
 27 H       -0.7520     3.8430     0.8160 H     1 <1>   0.0800 
 28 H        2.3530     0.9120    -1.4550 H     1 <1>   0.0800 
 29 H       -4.6620     1.8130    -1.2690 H     1 <1>   0.0800 
 30 H       -3.4210     2.7420    -2.0420 H     1 <1>   0.0800 
 31 H       -2.9340     4.8080     1.2120 H     1 <1>   0.0800 
 32 H       -2.9370     3.1410     1.6570 H     1 <1>   0.0800 
 33 H        1.7730    -0.0990     0.7130 H     1 <1>   0.0800 
 34 H        2.5850     1.1870     1.5550 H     1 <1>   0.0800 
 35 H        3.6560     3.1280     0.1390 H     1 <1>   0.0800 
 36 H        3.5110     3.0630    -1.5950 H     1 <1>   0.0800 
 37 H        3.8660    -0.8520    -0.2720 H     1 <1>   0.0800 
 38 H        4.0220    -0.7820     1.4600 H     1 <1>   0.0800 
 39 H        5.7600     2.3660    -0.8410 H     1 <1>   0.0800 
 40 H        4.9380     1.0880    -1.6900 H     1 <1>   0.0800 
 41 H       -5.2780     2.3560     1.2140 H     1 <1>   0.1500 
 42 H        6.0060     0.1780     0.3110 H     1 <1>   0.0800 
 43 H        5.2040     1.3530     1.3140 H     1 <1>   0.0800 
 44 H       -4.9370     6.5240    -1.2310 H     1 <1>   0.0800 
 45 H       -4.4800     6.1200     0.4070 H     1 <1>   0.0800 
 46 H       -6.9350     5.1840    -1.1050 H     1 <1>   0.0800 
 47 H       -6.8780     6.1260     0.3600 H     1 <1>   0.0800 
 48 H       -7.9070     4.5460     2.0820 H     1 <1>   0.0800 
 49 H       -7.6240     2.8330     1.9110 H     1 <1>   0.0800 
 50 H       -8.5180     3.6910     0.6820 H     1 <1>   0.0800 
@<TRIPOS>BOND
  1   1   2  2   
  2   2   3  am  
  3   2   4  1   
  4   3   5  1   
  5   3   6  1   
  6   4   7  1   
  7   4  22  1   
  8   4  23  1   
  9   5   8  1   
 10   5  24  1   
 11   5  25  1   
 12   6   9  1   
 13   6  26  1   
 14   6  27  1   
 15   7  10  1   
 16   7  11  1   
 17   7  28  1   
 18   8  12  1   
 19   8  29  1   
 20   8  30  1   
 21   9  12  1   
 22   9  31  1   
 23   9  32  1   
 24  10  13  1   
 25  10  33  1   
 26  10  34  1   
 27  11  14  1   
 28  11  35  1   
 29  11  36  1   
 30  12  15  1   
 31  12  16  1   
 32  13  17  1   
 33  13  37  1   
 34  13  38  1   
 35  14  17  1   
 36  14  39  1   
 37  14  40  1   
 38  15  18  1   
 39  16  19  2   
 40  16  41  1   
 41  17  42  1   
 42  17  43  1   
 43  18  20  1   
 44  18  44  1   
 45  18  45  1   
 46  19  20  1   
 47  19  21  1   
 48  20  46  1   
 49  20  47  1   
 50  21  48  1   
 51  21  49  1   
 52  21  50  1   
@<TRIPOS>SUBSTRUCTURE
  1 ****   3 GROUP 4 **** **** 0

# MOE 2024.06 (io_trps.svl 2023.06)
