@<TRIPOS>MOLECULE
NONAME
52 54 1 0 0 
SMALL
USER_CHARGES


@<TRIPOS>ATOM
  1 CL      -0.9960    -0.3430    -0.2600 Cl    1 <1>  -0.1770 
  2 C       -1.6410    -1.9580    -0.4020 C.ar  1 <1>   0.1770 
  3 C       -2.7610    -2.3130     0.3240 C.ar  1 <1>  -0.1500 
  4 C       -1.0230    -2.8650    -1.2410 C.ar  1 <1>  -0.1500 
  5 C       -3.2640    -3.5960     0.2090 C.ar  1 <1>  -0.1500 
  6 C       -1.5380    -4.1440    -1.3490 C.ar  1 <1>  -0.1500 
  7 C       -2.6690    -4.5420    -0.6290 C.ar  1 <1>   0.0530 
  8 C       -3.1730    -5.8900    -0.7490 C.2   1 <1>   0.0870 
  9 O       -2.3230    -6.8690    -0.9720 O.3   1 <1>  -0.0190 
 10 C       -4.4080    -6.4560    -0.6690 C.2   1 <1>  -0.2330 
 11 N       -2.8970    -8.0410    -1.0420 N.2   1 <1>  -0.4100 
 12 C       -4.1460    -7.8090    -0.8720 C.2   1 <1>   0.3720 
 13 C       -5.7210    -5.9260    -0.4400 C.2   1 <1>   1.0330 
 14 N       -5.1270    -8.7850    -0.8730 N.pl3 1 <1>  -0.8520 
 15 O       -5.9800    -4.7250    -0.5700 O.co2 1 <1>  -0.9000 
 16 O       -6.6510    -6.6880    -0.0940 O.co2 1 <1>  -0.9000 
 17 C       -4.9090    -9.9090     0.0780 C.3   1 <1>   0.2090 
 18 C       -6.1870   -10.3250     0.8800 C.3   1 <1>   0.5030 
 19 N       -7.4470   -10.3510     0.0630 N.4   1 <1>  -0.9590 
 20 C       -6.3770    -9.4000     2.0910 C.3   1 <1>  -0.2400 
 21 C       -5.9960   -11.7470     1.4200 C.3   1 <1>  -0.2400 
 22 C       -7.3190   -11.0330    -1.2710 C.3   1 <1>   0.3430 
 23 C       -8.1520    -9.0380    -0.1690 C.3   1 <1>   0.3430 
 24 C       -8.6830   -11.1130    -2.0030 C.3   1 <1>   0.1100 
 25 C       -9.5890    -9.2820    -0.6810 C.3   1 <1>   0.1100 
 26 N       -9.8040   -10.6820    -1.1350 N.3   1 <1>  -0.8100 
 27 C      -11.0970   -10.8230    -1.8140 C.3   1 <1>   0.0300 
 28 H       -3.2350    -1.5950     0.9680 H     1 <1>   0.1500 
 29 H       -0.1540    -2.5700    -1.8000 H     1 <1>   0.1500 
 30 H       -4.1370    -3.8670     0.7760 H     1 <1>   0.1500 
 31 H       -1.0620    -4.8520    -2.0050 H     1 <1>   0.1500 
 32 H       -5.9800    -8.2580    -0.5950 H     1 <1>   0.4000 
 33 H       -4.1280    -9.6510     0.7740 H     1 <1>   0.0800 
 34 H       -4.5500   -10.7500    -0.4880 H     1 <1>   0.0800 
 35 H       -8.1560   -10.9010     0.5630 H     1 <1>   0.4500 
 36 H       -6.3930    -8.3670     1.7940 H     1 <1>   0.0800 
 37 H       -5.5530    -9.5100     2.7730 H     1 <1>   0.0800 
 38 H       -7.2820    -9.6330     2.6210 H     1 <1>   0.0800 
 39 H       -5.8300   -12.4520     0.6270 H     1 <1>   0.0800 
 40 H       -6.8530   -12.0570     1.9930 H     1 <1>   0.0800 
 41 H       -5.1380   -11.7820     2.0670 H     1 <1>   0.0800 
 42 H       -6.9420   -12.0320    -1.1380 H     1 <1>   0.0800 
 43 H       -6.6190   -10.4980    -1.8920 H     1 <1>   0.0800 
 44 H       -7.6240    -8.4730    -0.9180 H     1 <1>   0.0800 
 45 H       -8.1880    -8.4360     0.7230 H     1 <1>   0.0800 
 46 H       -8.8450   -12.1260    -2.3280 H     1 <1>   0.0800 
 47 H       -8.6450   -10.4910    -2.8820 H     1 <1>   0.0800 
 48 H       -9.7840    -8.5910    -1.4850 H     1 <1>   0.0800 
 49 H      -10.2830    -9.0580     0.1110 H     1 <1>   0.0800 
 50 H      -11.2570   -11.8500    -2.0930 H     1 <1>   0.0800 
 51 H      -11.1320   -10.2090    -2.6990 H     1 <1>   0.0800 
 52 H      -11.8930   -10.5250    -1.1520 H     1 <1>   0.0800 
@<TRIPOS>BOND
  1   1   2  1   
  2   2   3  ar  
  3   2   4  ar  
  4   3   5  ar  
  5   3  28  1   
  6   4   6  ar  
  7   4  29  1   
  8   5   7  ar  
  9   5  30  1   
 10   6   7  ar  
 11   6  31  1   
 12   7   8  1   
 13   8   9  1   
 14   8  10  2   
 15   9  11  1   
 16  10  12  1   
 17  10  13  1   
 18  11  12  2   
 19  12  14  1   
 20  13  15  ar  
 21  13  16  ar  
 22  14  17  1   
 23  14  32  1   
 24  17  18  1   
 25  17  33  1   
 26  17  34  1   
 27  18  19  1   
 28  18  20  1   
 29  18  21  1   
 30  19  22  1   
 31  19  23  1   
 32  19  35  1   
 33  20  36  1   
 34  20  37  1   
 35  20  38  1   
 36  21  39  1   
 37  21  40  1   
 38  21  41  1   
 39  22  24  1   
 40  22  42  1   
 41  22  43  1   
 42  23  25  1   
 43  23  44  1   
 44  23  45  1   
 45  24  26  1   
 46  24  46  1   
 47  24  47  1   
 48  25  26  1   
 49  25  48  1   
 50  25  49  1   
 51  26  27  1   
 52  27  50  1   
 53  27  51  1   
 54  27  52  1   
@<TRIPOS>SUBSTRUCTURE
  1 ****  10 GROUP 4 **** **** 0

# MOE 2024.06 (io_trps.svl 2023.06)
