@<TRIPOS>MOLECULE
NONAME
49 52 1 0 0 
SMALL
USER_CHARGES


@<TRIPOS>ATOM
  1 S       -0.3600    -0.2660     1.1550 S.o2  1 <1>   1.4470 
  2 O       -1.4770     0.6170     1.3960 O.2   1 <1>  -0.6500 
  3 O       -0.2290    -1.4850     1.9150 O.2   1 <1>  -0.6500 
  4 N       -0.5390    -0.6260    -0.4770 N.am  1 <1>  -0.9140 
  5 C        1.1990     0.6570     1.1930 C.ar  1 <1>  -0.0090 
  6 C       -0.7680    -1.9790    -1.0050 C.3   1 <1>   0.2760 
  7 C        1.2300     2.0250     0.9430 C.ar  1 <1>  -0.1500 
  8 C        2.4070     0.0160     1.4470 C.ar  1 <1>  -0.1500 
  9 C       -2.1500    -2.6090    -0.8320 C.3   1 <1>  -0.0800 
 10 C        0.2060    -3.0980    -0.6200 C.3   1 <1>   0.1200 
 11 C        2.4180     2.7340     0.9390 C.ar  1 <1>   0.0820 
 12 C        3.6040     0.7140     1.4580 C.ar  1 <1>  -0.1500 
 13 C       -1.8120    -4.0590    -1.1850 C.3   1 <1>   0.1200 
 14 C       -2.8000    -2.5250     0.5640 C.3   1 <1>  -0.0160 
 15 O       -0.5240    -4.2890    -0.7000 O.3   1 <1>  -0.5600 
 16 O        2.3420     4.0670     0.7150 O.3   1 <1>  -0.3630 
 17 C        3.6200     2.0720     1.2000 C.ar  1 <1>   0.0820 
 18 C       -4.1580    -3.2100     0.5920 C.ar  1 <1>  -0.1430 
 19 C        3.0680     4.6080    -0.3620 C.3   1 <1>   0.1200 
 20 O        4.8170     2.7020     1.2530 O.3   1 <1>  -0.3630 
 21 C       -4.3400    -4.4450     1.1830 C.ar  1 <1>  -0.1500 
 22 C       -5.2800    -2.6320     0.0340 C.ar  1 <1>  -0.1500 
 23 C        4.5470     4.7490    -0.0030 C.3   1 <1>  -0.1600 
 24 C        5.2580     3.4010     0.1150 C.3   1 <1>   0.1200 
 25 C       -5.5960    -5.0290     1.1770 C.ar  1 <1>   0.1600 
 26 C       -6.4920    -3.3010     0.0820 C.ar  1 <1>   0.1600 
 27 N       -6.6760    -4.4880     0.6370 N.ar  1 <1>  -0.6200 
 28 H       -1.3160    -0.0320    -0.7610 H     1 <1>   0.4200 
 29 H       -0.6400    -1.8780    -2.0700 H     1 <1>   0.0800 
 30 H        0.3130     2.5550     0.7530 H     1 <1>   0.1500 
 31 H        2.4130    -1.0430     1.6480 H     1 <1>   0.1500 
 32 H       -2.8330    -2.2130    -1.5630 H     1 <1>   0.0800 
 33 H        0.5830    -3.0250     0.3800 H     1 <1>   0.0800 
 34 H        1.0260    -3.1550    -1.3140 H     1 <1>   0.0800 
 35 H        4.5290     0.2080     1.6700 H     1 <1>   0.1500 
 36 H       -1.7860    -4.1970    -2.2520 H     1 <1>   0.0800 
 37 H       -2.4830    -4.7800    -0.7530 H     1 <1>   0.0800 
 38 H       -2.9460    -1.4980     0.8450 H     1 <1>   0.0800 
 39 H       -2.1580    -2.9820     1.2970 H     1 <1>   0.0800 
 40 H        2.9280     3.9770    -1.2230 H     1 <1>   0.0800 
 41 H        2.6480     5.5760    -0.5680 H     1 <1>   0.0800 
 42 H       -3.5160    -4.9570     1.6460 H     1 <1>   0.1500 
 43 H       -5.2250    -1.6670    -0.4360 H     1 <1>   0.1500 
 44 H        5.0260     5.3080    -0.7860 H     1 <1>   0.0800 
 45 H        4.6570     5.3090     0.9100 H     1 <1>   0.0800 
 46 H        6.3160     3.5540     0.2320 H     1 <1>   0.0800 
 47 H        5.0890     2.7860    -0.7530 H     1 <1>   0.0800 
 48 H       -5.7160    -5.9930     1.6410 H     1 <1>   0.1500 
 49 H       -7.3560    -2.8350    -0.3580 H     1 <1>   0.1500 
@<TRIPOS>BOND
  1   1   2  2   
  2   1   3  2   
  3   1   4  am  
  4   1   5  1   
  5   4   6  1   
  6   4  28  1   
  7   5   7  ar  
  8   5   8  ar  
  9   6   9  1   
 10   6  10  1   
 11   6  29  1   
 12   7  11  ar  
 13   7  30  1   
 14   8  12  ar  
 15   8  31  1   
 16   9  13  1   
 17   9  14  1   
 18   9  32  1   
 19  10  15  1   
 20  10  33  1   
 21  10  34  1   
 22  11  16  1   
 23  11  17  ar  
 24  12  17  ar  
 25  12  35  1   
 26  13  15  1   
 27  13  36  1   
 28  13  37  1   
 29  14  18  1   
 30  14  38  1   
 31  14  39  1   
 32  16  19  1   
 33  17  20  1   
 34  18  21  ar  
 35  18  22  ar  
 36  19  23  1   
 37  19  40  1   
 38  19  41  1   
 39  20  24  1   
 40  21  25  ar  
 41  21  42  1   
 42  22  26  ar  
 43  22  43  1   
 44  23  24  1   
 45  23  44  1   
 46  23  45  1   
 47  24  46  1   
 48  24  47  1   
 49  25  27  ar  
 50  25  48  1   
 51  26  27  ar  
 52  26  49  1   
@<TRIPOS>SUBSTRUCTURE
  1 ****   1 GROUP 4 **** **** 0

# MOE 2024.06 (io_trps.svl 2023.06)
