@<TRIPOS>MOLECULE
NONAME
53 55 1 0 0 
SMALL
USER_CHARGES


@<TRIPOS>ATOM
  1 O       -0.1040    -0.3900    -1.0550 O.3   1 <1>  -0.5600 
  2 C        0.9580     0.2980    -1.6520 C.3   1 <1>   0.1200 
  3 C        0.1960    -1.6790    -0.5900 C.3   1 <1>   0.1200 
  4 C        2.1490     0.4210    -0.6750 C.3   1 <1>   0.4230 
  5 C        1.3500    -1.6320     0.4410 C.3   1 <1>   0.4230 
  6 N        2.5470    -0.9320    -0.1280 N.4   1 <1>  -0.9590 
  7 C        3.3530     1.1460    -1.3330 C.3   1 <1>   0.1100 
  8 C        1.7380    -3.0210     0.9730 C.3   1 <1>  -0.1600 
  9 C        3.3460    -1.7070    -1.1410 C.3   1 <1>   0.3430 
 10 N        4.6420     0.4540    -1.0640 N.3   1 <1>  -0.8100 
 11 C        0.6530    -3.6280     1.8770 C.3   1 <1>  -0.1600 
 12 C        4.6070    -0.9280    -1.5940 C.3   1 <1>   0.1100 
 13 C        5.8130     1.2080    -1.5510 C.3   1 <1>   0.2530 
 14 C        1.1120    -4.9700     2.4520 C.3   1 <1>  -0.2400 
 15 C        5.8980     2.5370    -0.8270 C.ar  1 <1>  -0.1430 
 16 C        5.9000     3.7370    -1.4970 C.ar  1 <1>   0.1600 
 17 C        5.9520     2.5960     0.5450 C.ar  1 <1>   0.1600 
 18 N        5.9300     4.8870    -0.8720 N.ar  1 <1>  -0.6200 
 19 N        5.9830     3.7300     1.1980 N.ar  1 <1>  -0.6200 
 20 C        5.9700     4.8390     0.4600 C.ar  1 <1>   0.7200 
 21 N        5.9930     6.0430     1.1340 N.pl3 1 <1>  -0.8380 
 22 C        6.3520     6.1340     2.5770 C.3   1 <1>   0.1290 
 23 C        5.7490     7.3420     0.4470 C.3   1 <1>   0.1290 
 24 H        1.2400    -0.2190    -2.5520 H     1 <1>   0.0800 
 25 H        0.5980     1.2770    -1.9190 H     1 <1>   0.0800 
 26 H       -0.6970    -2.0660    -0.1330 H     1 <1>   0.0800 
 27 H        0.4450    -2.3020    -1.4300 H     1 <1>   0.0800 
 28 H        1.8180     1.0370     0.1440 H     1 <1>   0.0800 
 29 H        0.9950    -1.0560     1.2810 H     1 <1>   0.0800 
 30 H        3.2140    -0.7110     0.6240 H     1 <1>   0.4500 
 31 H        3.3800     2.1500    -0.9440 H     1 <1>   0.0800 
 32 H        3.2040     1.2240    -2.3970 H     1 <1>   0.0800 
 33 H        1.9190    -3.6970     0.1550 H     1 <1>   0.0800 
 34 H        2.6410    -2.9340     1.5530 H     1 <1>   0.0800 
 35 H        3.6580    -2.6510    -0.7260 H     1 <1>   0.0800 
 36 H        2.7350    -1.9180    -2.0030 H     1 <1>   0.0800 
 37 H        0.4350    -2.9570     2.6920 H     1 <1>   0.0800 
 38 H       -0.2570    -3.7870     1.3240 H     1 <1>   0.0800 
 39 H        4.6410    -0.9130    -2.6710 H     1 <1>   0.0800 
 40 H        5.4810    -1.4580    -1.2520 H     1 <1>   0.0800 
 41 H        6.7130     0.6490    -1.3530 H     1 <1>   0.0800 
 42 H        5.7390     1.3630    -2.6150 H     1 <1>   0.0800 
 43 H        2.0010    -4.8500     3.0450 H     1 <1>   0.0800 
 44 H        1.3130    -5.6750     1.6640 H     1 <1>   0.0800 
 45 H        0.3420    -5.3810     3.0820 H     1 <1>   0.0800 
 46 H        5.8700     3.7610    -2.5730 H     1 <1>   0.1500 
 47 H        5.9610     1.6860     1.1200 H     1 <1>   0.1500 
 48 H        6.8630     7.0600     2.7750 H     1 <1>   0.0800 
 49 H        7.0020     5.3240     2.8580 H     1 <1>   0.0800 
 50 H        5.4570     6.0870     3.1730 H     1 <1>   0.0800 
 51 H        5.3130     8.0470     1.1320 H     1 <1>   0.0800 
 52 H        5.0720     7.2110    -0.3790 H     1 <1>   0.0800 
 53 H        6.6810     7.7340     0.0780 H     1 <1>   0.0800 
@<TRIPOS>BOND
  1   1   2  1   
  2   1   3  1   
  3   2   4  1   
  4   2  24  1   
  5   2  25  1   
  6   3   5  1   
  7   3  26  1   
  8   3  27  1   
  9   4   6  1   
 10   4   7  1   
 11   4  28  1   
 12   5   6  1   
 13   5   8  1   
 14   5  29  1   
 15   6   9  1   
 16   6  30  1   
 17   7  10  1   
 18   7  31  1   
 19   7  32  1   
 20   8  11  1   
 21   8  33  1   
 22   8  34  1   
 23   9  12  1   
 24   9  35  1   
 25   9  36  1   
 26  10  12  1   
 27  10  13  1   
 28  11  14  1   
 29  11  37  1   
 30  11  38  1   
 31  12  39  1   
 32  12  40  1   
 33  13  15  1   
 34  13  41  1   
 35  13  42  1   
 36  14  43  1   
 37  14  44  1   
 38  14  45  1   
 39  15  16  ar  
 40  15  17  ar  
 41  16  18  ar  
 42  16  46  1   
 43  17  19  ar  
 44  17  47  1   
 45  18  20  ar  
 46  19  20  ar  
 47  20  21  1   
 48  21  22  1   
 49  21  23  1   
 50  22  48  1   
 51  22  49  1   
 52  22  50  1   
 53  23  51  1   
 54  23  52  1   
 55  23  53  1   
@<TRIPOS>SUBSTRUCTURE
  1 ****   7 GROUP 4 **** **** 0

# MOE 2024.06 (io_trps.svl 2023.06)
