@<TRIPOS>MOLECULE
NONAME
30 31 1 0 0 
SMALL
USER_CHARGES


@<TRIPOS>ATOM
  1 BR       0.6880     0.2680    -0.3770 Br    1 <1>  -0.1110 
  2 C        0.4550    -1.6220    -0.1070 C.ar  1 <1>   0.1110 
  3 C       -0.8190    -2.1180     0.0820 C.ar  1 <1>  -0.1500 
  4 C        1.5670    -2.4390    -0.1080 C.ar  1 <1>  -0.1500 
  5 C       -0.9760    -3.4800     0.2750 C.ar  1 <1>  -0.1500 
  6 C        1.3890    -3.7990     0.0870 C.ar  1 <1>  -0.1500 
  7 C        0.1200    -4.3420     0.2810 C.ar  1 <1>  -0.0090 
  8 S       -0.1150    -6.1260     0.5180 S.o2  1 <1>   1.4470 
  9 O       -1.0340    -6.3330     1.6170 O.2   1 <1>  -0.6500 
 10 O        1.1690    -6.7950     0.5180 O.2   1 <1>  -0.6500 
 11 N       -0.8750    -6.5870    -0.9340 N.am  1 <1>  -0.6310 
 12 N       -1.7030    -7.7990    -1.0320 N.3   1 <1>  -0.4670 
 13 C       -3.0870    -7.5390    -0.5950 C.3   1 <1>   0.1100 
 14 C       -1.0480    -9.0300    -0.5230 C.3   1 <1>   0.1100 
 15 C       -3.9580    -8.7970    -0.6680 C.3   1 <1>   0.0700 
 16 C       -1.6300    -9.5400     0.8030 C.3   1 <1>   0.0700 
 17 S       -3.3640   -10.0230     0.5370 S.3   1 <1>  -0.4600 
 18 H       -1.6650    -1.4530     0.0790 H     1 <1>   0.1500 
 19 H        2.5470    -2.0200    -0.2560 H     1 <1>   0.1500 
 20 H       -1.9640    -3.8840     0.4270 H     1 <1>   0.1500 
 21 H        2.2510    -4.4470     0.0910 H     1 <1>   0.1500 
 22 H       -0.1520    -6.6210    -1.6530 H     1 <1>   0.4200 
 23 H       -3.5060    -6.7800    -1.2310 H     1 <1>   0.0800 
 24 H       -3.0910    -7.1670     0.4140 H     1 <1>   0.0800 
 25 H        0.0100    -8.8710    -0.4160 H     1 <1>   0.0800 
 26 H       -1.1770    -9.8030    -1.2590 H     1 <1>   0.0800 
 27 H       -3.9130    -9.2450    -1.6450 H     1 <1>   0.0800 
 28 H       -4.9790    -8.5780    -0.4130 H     1 <1>   0.0800 
 29 H       -1.6080    -8.7860     1.5680 H     1 <1>   0.0800 
 30 H       -1.1100   -10.4160     1.1450 H     1 <1>   0.0800 
@<TRIPOS>BOND
  1   1   2  1   
  2   2   3  ar  
  3   2   4  ar  
  4   3   5  ar  
  5   3  18  1   
  6   4   6  ar  
  7   4  19  1   
  8   5   7  ar  
  9   5  20  1   
 10   6   7  ar  
 11   6  21  1   
 12   7   8  1   
 13   8   9  2   
 14   8  10  2   
 15   8  11  am  
 16  11  12  1   
 17  11  22  1   
 18  12  13  1   
 19  12  14  1   
 20  13  15  1   
 21  13  23  1   
 22  13  24  1   
 23  14  16  1   
 24  14  25  1   
 25  14  26  1   
 26  15  17  1   
 27  15  27  1   
 28  15  28  1   
 29  16  17  1   
 30  16  29  1   
 31  16  30  1   
@<TRIPOS>SUBSTRUCTURE
  1 ****   8 GROUP 4 **** **** 0

# MOE 2024.06 (io_trps.svl 2023.06)
