@<TRIPOS>MOLECULE
NONAME
60 64 1 0 0 
SMALL
USER_CHARGES


@<TRIPOS>ATOM
  1 S       -0.6350     0.5430    -0.6000 S.o2  1 <1>   1.3330 
  2 O       -0.1370    -0.7370    -1.0430 O.2   1 <1>  -0.6500 
  3 O       -0.9930     1.5650    -1.5580 O.2   1 <1>  -0.6500 
  4 N       -1.9840     0.2650     0.3850 N.am  1 <1>  -0.8490 
  5 C        0.5360     1.2220     0.5540 C.3   1 <1>  -0.1350 
  6 C       -2.6790    -1.0020     0.1010 C.3   1 <1>   0.1960 
  7 C       -3.0020     1.3060     0.3500 C.3   1 <1>   0.1960 
  8 C       -4.1410    -0.7690     0.4940 C.3   1 <1>   0.2800 
  9 C       -4.2320     0.6660     0.9990 C.3   1 <1>  -0.0800 
 10 O       -4.9930    -0.7140    -0.5970 O.3   1 <1>  -0.5600 
 11 C       -4.8840    -1.7340     1.4130 C.3   1 <1>  -0.1600 
 12 C       -5.6640     1.0650     0.5570 C.3   1 <1>  -0.0800 
 13 C       -6.1470    -0.2850     0.0040 C.3   1 <1>   0.2000 
 14 C       -6.3330    -1.3370     1.1100 C.3   1 <1>  -0.1600 
 15 C       -5.6770     2.1390    -0.5450 C.3   1 <1>   0.3430 
 16 N       -6.9560     2.9030    -0.6030 N.4   1 <1>  -0.9590 
 17 C       -8.1600     2.1350    -1.0160 C.3   1 <1>   0.4860 
 18 C       -6.8160     4.1720    -1.3680 C.3   1 <1>   0.3430 
 19 C       -9.4550     2.9280    -0.8500 C.ar  1 <1>  -0.1430 
 20 C       -6.6900     5.3200    -0.3610 C.3   1 <1>  -0.1600 
 21 C       -9.6350     3.9850     0.0470 C.ar  1 <1>   0.0830 
 22 C      -10.5260     2.5440    -1.6460 C.ar  1 <1>  -0.1500 
 23 C       -7.9830     5.6160     0.4210 C.3   1 <1>   0.1200 
 24 O       -8.6020     4.4070     0.8270 O.3   1 <1>  -0.3630 
 25 C      -10.8700     4.6320     0.1510 C.ar  1 <1>   0.0830 
 26 C      -11.7470     3.1860    -1.5540 C.ar  1 <1>  -0.1500 
 27 O      -10.9870     5.6520     1.0480 O.3   1 <1>  -0.3620 
 28 C      -11.9240     4.2250    -0.6590 C.ar  1 <1>  -0.1500 
 29 C      -12.2400     6.2240     1.3580 C.3   1 <1>   0.0400 
 30 H        0.7280     0.5170     1.3380 H     1 <1>   0.0800 
 31 H        0.1540     2.1260     0.9840 H     1 <1>   0.0800 
 32 H        1.4580     1.4400     0.0530 H     1 <1>   0.0800 
 33 H       -2.6260    -1.2520    -0.9460 H     1 <1>   0.0800 
 34 H       -2.2360    -1.7920     0.6810 H     1 <1>   0.0800 
 35 H       -2.6720     2.1860     0.8760 H     1 <1>   0.0800 
 36 H       -3.2080     1.5510    -0.6780 H     1 <1>   0.0800 
 37 H       -4.1200     0.6960     2.0690 H     1 <1>   0.0800 
 38 H       -4.6900    -2.7500     1.1170 H     1 <1>   0.0800 
 39 H       -4.6160    -1.6010     2.4470 H     1 <1>   0.0800 
 40 H       -6.2440     1.3820     1.4050 H     1 <1>   0.0800 
 41 H       -6.9520    -0.2550    -0.7080 H     1 <1>   0.0800 
 42 H       -6.8400    -0.9340     1.9690 H     1 <1>   0.0800 
 43 H       -6.8860    -2.1800     0.7330 H     1 <1>   0.0800 
 44 H       -5.4650     1.6810    -1.4990 H     1 <1>   0.0800 
 45 H       -4.8850     2.8390    -0.3370 H     1 <1>   0.0800 
 46 H       -7.2120     3.2250     0.3480 H     1 <1>   0.4500 
 47 H       -8.0580     1.8290    -2.0440 H     1 <1>   0.0800 
 48 H       -8.2450     1.2500    -0.4100 H     1 <1>   0.0800 
 49 H       -5.9450     4.1330    -2.0030 H     1 <1>   0.0800 
 50 H       -7.6830     4.3400    -1.9880 H     1 <1>   0.0800 
 51 H       -6.4210     6.2140    -0.8950 H     1 <1>   0.0800 
 52 H       -5.8880     5.1220     0.3280 H     1 <1>   0.0800 
 53 H      -10.4290     1.7340    -2.3510 H     1 <1>   0.1500 
 54 H       -8.6760     6.1780    -0.1850 H     1 <1>   0.0800 
 55 H       -7.7710     6.1890     1.3070 H     1 <1>   0.0800 
 56 H      -12.5680     2.8750    -2.1790 H     1 <1>   0.1500 
 57 H      -12.8850     4.7010    -0.6120 H     1 <1>   0.1500 
 58 H      -12.0940     6.9420     2.1440 H     1 <1>   0.0800 
 59 H      -12.9060     5.4490     1.6920 H     1 <1>   0.0800 
 60 H      -12.6270     6.7170     0.4830 H     1 <1>   0.0800 
@<TRIPOS>BOND
  1   1   2  2   
  2   1   3  2   
  3   1   4  am  
  4   1   5  1   
  5   4   6  1   
  6   4   7  1   
  7   5  30  1   
  8   5  31  1   
  9   5  32  1   
 10   6   8  1   
 11   6  33  1   
 12   6  34  1   
 13   7   9  1   
 14   7  35  1   
 15   7  36  1   
 16   8   9  1   
 17   8  10  1   
 18   8  11  1   
 19   9  12  1   
 20   9  37  1   
 21  10  13  1   
 22  11  14  1   
 23  11  38  1   
 24  11  39  1   
 25  12  13  1   
 26  12  15  1   
 27  12  40  1   
 28  13  14  1   
 29  13  41  1   
 30  14  42  1   
 31  14  43  1   
 32  15  16  1   
 33  15  44  1   
 34  15  45  1   
 35  16  17  1   
 36  16  18  1   
 37  16  46  1   
 38  17  19  1   
 39  17  47  1   
 40  17  48  1   
 41  18  20  1   
 42  18  49  1   
 43  18  50  1   
 44  19  21  ar  
 45  19  22  ar  
 46  20  23  1   
 47  20  51  1   
 48  20  52  1   
 49  21  24  1   
 50  21  25  ar  
 51  22  26  ar  
 52  22  53  1   
 53  23  24  1   
 54  23  54  1   
 55  23  55  1   
 56  25  27  1   
 57  25  28  ar  
 58  26  28  ar  
 59  26  56  1   
 60  27  29  1   
 61  28  57  1   
 62  29  58  1   
 63  29  59  1   
 64  29  60  1   
@<TRIPOS>SUBSTRUCTURE
  1 ****  15 GROUP 4 **** **** 0

# MOE 2024.06 (io_trps.svl 2023.06)
