@<TRIPOS>MOLECULE
NONAME
52 54 1 0 0 
SMALL
USER_CHARGES


@<TRIPOS>ATOM
  1 O        1.9880    -0.5570    -2.1580 O.2   1 <1>  -0.5700 
  2 C        1.9350    -0.7620    -0.9700 C.2   1 <1>   0.5690 
  3 N        2.1240     0.2610    -0.0740 N.am  1 <1>  -0.6600 
  4 C        1.7320    -2.1860    -0.4800 C.3   1 <1>  -0.0990 
  5 C        2.7890     0.0700     1.2460 C.3   1 <1>   0.1400 
  6 C        1.9550     1.6750    -0.5050 C.3   1 <1>   0.1400 
  7 C        0.9040    -3.0500    -1.4400 C.3   1 <1>  -0.0160 
  8 C        4.2990    -0.1800     1.0530 C.3   1 <1>   0.3430 
  9 C        3.2990     2.4070    -0.5940 C.3   1 <1>  -0.1600 
 10 C        0.7520    -4.4480    -0.8640 C.ar  1 <1>  -0.1440 
 11 N        5.0440     0.9510     0.4010 N.4   1 <1>  -0.9590 
 12 C        4.4880     1.4870    -0.8800 C.3   1 <1>   0.3430 
 13 C       -0.2030    -4.7000     0.1080 C.ar  1 <1>  -0.1500 
 14 C        1.5710    -5.4800    -1.2930 C.ar  1 <1>  -0.1500 
 15 C        6.4960     0.6690     0.2650 C.3   1 <1>   0.5230 
 16 C       -0.3400    -5.9640     0.6590 C.ar  1 <1>   0.0820 
 17 C        1.4390    -6.7480    -0.7530 C.ar  1 <1>  -0.1500 
 18 C        7.2290     1.9540     0.6310 C.2   1 <1>   0.0060 
 19 O       -1.2960    -6.1140     1.6100 O.3   1 <1>  -0.3630 
 20 C        0.4880    -6.9940     0.2220 C.ar  1 <1>  -0.1500 
 21 N        6.6510     2.9510     1.2320 N.2   1 <1>  -0.5650 
 22 N        8.5410     2.1710     0.3720 N.pl3 1 <1>   0.0330 
 23 C       -1.5430    -7.3670     2.2070 C.3   1 <1>   0.0400 
 24 C        7.6340     3.8620     1.3700 C.2   1 <1>   0.0770 
 25 C        8.7910     3.4010     0.8500 C.2   1 <1>  -0.3020 
 26 H        1.2230    -2.1660     0.4650 H     1 <1>   0.0800 
 27 H        2.6930    -2.6450    -0.3420 H     1 <1>   0.0800 
 28 H        2.3510    -0.7680     1.7580 H     1 <1>   0.0800 
 29 H        2.6360     0.9360     1.8670 H     1 <1>   0.0800 
 30 H        1.3010     2.1860     0.1820 H     1 <1>   0.0800 
 31 H        1.4760     1.6990    -1.4710 H     1 <1>   0.0800 
 32 H        1.3840    -3.1010    -2.4020 H     1 <1>   0.0800 
 33 H       -0.0680    -2.6100    -1.5850 H     1 <1>   0.0800 
 34 H        4.4150    -1.0720     0.4600 H     1 <1>   0.0800 
 35 H        4.7330    -0.3740     2.0200 H     1 <1>   0.0800 
 36 H        3.4740     2.9810     0.2980 H     1 <1>   0.0800 
 37 H        3.2200     3.1150    -1.4000 H     1 <1>   0.0800 
 38 H        5.0660     1.7660     1.0460 H     1 <1>   0.4500 
 39 H        5.2470     2.0740    -1.3730 H     1 <1>   0.0800 
 40 H        4.1940     0.6870    -1.5420 H     1 <1>   0.0800 
 41 H       -0.8550    -3.9190     0.4530 H     1 <1>   0.1500 
 42 H        2.3140    -5.3050    -2.0520 H     1 <1>   0.1500 
 43 H        6.7320     0.3650    -0.7410 H     1 <1>   0.0800 
 44 H        6.7940    -0.1070     0.9490 H     1 <1>   0.0800 
 45 H        2.0780    -7.5440    -1.0930 H     1 <1>   0.1500 
 46 H        0.4070    -7.9850     0.6250 H     1 <1>   0.1500 
 47 H        9.2230     1.5530    -0.0840 H     1 <1>   0.2700 
 48 H       -2.3450    -7.2480     2.9140 H     1 <1>   0.0800 
 49 H       -0.6540    -7.6940     2.7160 H     1 <1>   0.0800 
 50 H       -1.8310    -8.0670     1.4430 H     1 <1>   0.0800 
 51 H        7.4590     4.8160     1.8430 H     1 <1>   0.1500 
 52 H        9.7560     3.8770     0.8000 H     1 <1>   0.1500 
@<TRIPOS>BOND
  1   1   2  2   
  2   2   3  am  
  3   2   4  1   
  4   3   5  1   
  5   3   6  1   
  6   4   7  1   
  7   4  26  1   
  8   4  27  1   
  9   5   8  1   
 10   5  28  1   
 11   5  29  1   
 12   6   9  1   
 13   6  30  1   
 14   6  31  1   
 15   7  10  1   
 16   7  32  1   
 17   7  33  1   
 18   8  11  1   
 19   8  34  1   
 20   8  35  1   
 21   9  12  1   
 22   9  36  1   
 23   9  37  1   
 24  10  13  ar  
 25  10  14  ar  
 26  11  12  1   
 27  11  15  1   
 28  11  38  1   
 29  12  39  1   
 30  12  40  1   
 31  13  16  ar  
 32  13  41  1   
 33  14  17  ar  
 34  14  42  1   
 35  15  18  1   
 36  15  43  1   
 37  15  44  1   
 38  16  19  1   
 39  16  20  ar  
 40  17  20  ar  
 41  17  45  1   
 42  18  21  2   
 43  18  22  1   
 44  19  23  1   
 45  20  46  1   
 46  21  24  1   
 47  22  25  1   
 48  22  47  1   
 49  23  48  1   
 50  23  49  1   
 51  23  50  1   
 52  24  25  2   
 53  24  51  1   
 54  25  52  1   
@<TRIPOS>SUBSTRUCTURE
  1 ****   2 GROUP 4 **** **** 0

# MOE 2024.06 (io_trps.svl 2023.06)
