@<TRIPOS>MOLECULE
NONAME
47 50 1 0 0 
SMALL
USER_CHARGES


@<TRIPOS>ATOM
  1 O       -0.1290     0.4300     0.2970 O.3   1 <1>  -0.5600 
  2 C        0.0840     1.1680    -0.8590 C.3   1 <1>   0.1200 
  3 C       -1.4950     0.4230     0.5920 C.3   1 <1>   0.1200 
  4 C       -0.8570     2.3540    -0.6800 C.3   1 <1>   0.4230 
  5 C       -2.0890     1.6560    -0.1140 C.3   1 <1>  -0.0800 
  6 N       -0.3030     3.2410     0.3760 N.4   1 <1>  -0.9060 
  7 C       -3.0870     1.2610    -1.2240 C.3   1 <1>  -0.0170 
  8 C        0.7780     4.1460    -0.0500 C.3   1 <1>   0.4230 
  9 C       -4.3380     0.6290    -0.6220 C.ar  1 <1>  -0.1440 
 10 C        1.3230     4.8330     1.1940 C.3   1 <1>  -0.1600 
 11 C        0.1820     5.3070    -0.8410 C.3   1 <1>  -0.1600 
 12 C       -5.3440     1.3960     0.0140 C.ar  1 <1>   0.0000 
 13 C       -4.5150    -0.7230    -0.6750 C.ar  1 <1>  -0.1500 
 14 C        0.3400     5.9670     1.5140 C.3   1 <1>  -0.1600 
 15 C       -0.3980     6.2690     0.2030 C.3   1 <1>  -0.1600 
 16 C       -6.4340     0.6990     0.5920 C.ar  1 <1>   0.3100 
 17 C       -5.3410     2.8090     0.1080 C.ar  1 <1>  -0.1500 
 18 C       -5.6410    -1.3110    -0.0870 C.ar  1 <1>   0.1600 
 19 N       -6.5650    -0.6490     0.5320 N.ar  1 <1>  -0.6200 
 20 C       -7.4330     1.4270     1.2570 C.ar  1 <1>  -0.1500 
 21 C       -6.3340     3.4890     0.7590 C.ar  1 <1>  -0.1500 
 22 C       -7.3910     2.7910     1.3470 C.ar  1 <1>  -0.1500 
 23 H        1.1220     1.4410    -0.9320 H     1 <1>   0.0800 
 24 H       -0.1950     0.5620    -1.7050 H     1 <1>   0.0800 
 25 H       -1.9110    -0.5040     0.2330 H     1 <1>   0.0800 
 26 H       -1.6130     0.4710     1.6620 H     1 <1>   0.0800 
 27 H       -1.0540     2.8890    -1.5950 H     1 <1>   0.0800 
 28 H       -2.6020     2.2770     0.5980 H     1 <1>   0.0800 
 29 H       -1.0360     3.8140     0.8050 H     1 <1>   0.4500 
 30 H        0.0590     2.6080     1.1040 H     1 <1>   0.4500 
 31 H       -2.6280     0.5630    -1.9040 H     1 <1>   0.0800 
 32 H       -3.3710     2.1200    -1.8060 H     1 <1>   0.0800 
 33 H        1.5470     3.6180    -0.5930 H     1 <1>   0.0800 
 34 H        1.4690     4.1620     2.0230 H     1 <1>   0.0800 
 35 H        2.2770     5.2680     0.9470 H     1 <1>   0.0800 
 36 H        0.9860     5.8090    -1.3540 H     1 <1>   0.0800 
 37 H       -0.5430     5.0090    -1.5770 H     1 <1>   0.0800 
 38 H       -3.8070    -1.3740    -1.1550 H     1 <1>   0.1500 
 39 H       -0.3610     5.6590     2.2710 H     1 <1>   0.0800 
 40 H        0.8660     6.8360     1.8740 H     1 <1>   0.0800 
 41 H       -0.2490     7.2940    -0.0980 H     1 <1>   0.0800 
 42 H       -1.4550     6.1040     0.3280 H     1 <1>   0.0800 
 43 H       -4.5500     3.3700    -0.3460 H     1 <1>   0.1500 
 44 H       -5.7430    -2.3820    -0.1500 H     1 <1>   0.1500 
 45 H       -8.2400     0.8690     1.6960 H     1 <1>   0.1500 
 46 H       -6.3230     4.5630     0.8260 H     1 <1>   0.1500 
 47 H       -8.1660     3.3350     1.8600 H     1 <1>   0.1500 
@<TRIPOS>BOND
  1   1   2  1   
  2   1   3  1   
  3   2   4  1   
  4   2  23  1   
  5   2  24  1   
  6   3   5  1   
  7   3  25  1   
  8   3  26  1   
  9   4   5  1   
 10   4   6  1   
 11   4  27  1   
 12   5   7  1   
 13   5  28  1   
 14   6   8  1   
 15   6  29  1   
 16   6  30  1   
 17   7   9  1   
 18   7  31  1   
 19   7  32  1   
 20   8  10  1   
 21   8  11  1   
 22   8  33  1   
 23   9  12  ar  
 24   9  13  ar  
 25  10  14  1   
 26  10  34  1   
 27  10  35  1   
 28  11  15  1   
 29  11  36  1   
 30  11  37  1   
 31  12  16  ar  
 32  12  17  ar  
 33  13  18  ar  
 34  13  38  1   
 35  14  15  1   
 36  14  39  1   
 37  14  40  1   
 38  15  41  1   
 39  15  42  1   
 40  16  19  ar  
 41  16  20  ar  
 42  17  21  ar  
 43  17  43  1   
 44  18  19  ar  
 45  18  44  1   
 46  20  22  ar  
 47  20  45  1   
 48  21  22  ar  
 49  21  46  1   
 50  22  47  1   
@<TRIPOS>SUBSTRUCTURE
  1 ****   5 GROUP 4 **** **** 0

# MOE 2024.06 (io_trps.svl 2023.06)
