@<TRIPOS>MOLECULE
NONAME
53 55 1 0 0 
SMALL
USER_CHARGES


@<TRIPOS>ATOM
  1 S        0.3080    -0.1210     1.4830 S.o2  1 <1>   1.4470 
  2 O        0.5930     1.2010     2.0030 O.2   1 <1>  -0.6500 
  3 O       -0.0880    -1.1210     2.4520 O.2   1 <1>  -0.6500 
  4 N       -1.0240     0.1150     0.4590 N.am  1 <1>  -0.8490 
  5 C        1.6000    -0.8060     0.3500 C.ar  1 <1>  -0.0090 
  6 C       -2.2430     0.4090     1.2260 C.3   1 <1>   0.1960 
  7 C       -0.7790     1.1600    -0.5370 C.3   1 <1>   0.1960 
  8 C        1.4240    -2.0820    -0.2210 C.ar  1 <1>  -0.1440 
  9 C        2.7630    -0.0870     0.0100 C.ar  1 <1>  -0.1430 
 10 C       -3.4880     0.3960     0.3160 C.3   1 <1>   0.0000 
 11 C       -1.9340     1.2130    -1.5430 C.3   1 <1>  -0.1600 
 12 C        2.3700    -2.6110    -1.0960 C.ar  1 <1>  -0.1430 
 13 C        0.1880    -2.9290     0.1230 C.3   1 <1>  -0.0970 
 14 C        3.6960    -0.6190    -0.8800 C.ar  1 <1>  -0.1430 
 15 C        3.0380     1.2950     0.6130 C.3   1 <1>  -0.0970 
 16 C       -4.7630     0.6510     1.1430 C.3   1 <1>   0.2000 
 17 C       -3.2870     1.4130    -0.8420 C.3   1 <1>  -0.1600 
 18 C       -3.7770    -1.0120    -0.2380 C.3   1 <1>  -0.1600 
 19 C        3.4860    -1.8700    -1.4170 C.ar  1 <1>  -0.1500 
 20 C        2.2520    -3.9920    -1.7340 C.3   1 <1>  -0.0970 
 21 C        4.9700     0.1040    -1.3080 C.3   1 <1>  -0.0970 
 22 O       -5.0080     1.9940     1.3630 O.3   1 <1>  -0.6800 
 23 C       -5.9170     0.0230     0.3630 C.3   1 <1>  -0.1600 
 24 C       -5.2800    -1.0430    -0.5380 C.3   1 <1>  -0.1600 
 25 H       -2.3720    -0.3300     1.9990 H     1 <1>   0.0800 
 26 H       -2.1510     1.3700     1.7050 H     1 <1>   0.0800 
 27 H       -0.6750     2.1160    -0.0480 H     1 <1>   0.0800 
 28 H        0.1340     0.9530    -1.0690 H     1 <1>   0.0800 
 29 H       -1.7640     2.0230    -2.2300 H     1 <1>   0.0800 
 30 H       -1.9340     0.3040    -2.1170 H     1 <1>   0.0800 
 31 H        0.0670    -3.7860    -0.5070 H     1 <1>   0.0800 
 32 H       -0.7160    -2.3620     0.0160 H     1 <1>   0.0800 
 33 H        0.2600    -3.2820     1.1360 H     1 <1>   0.0800 
 34 H        3.9760     1.7230     0.3240 H     1 <1>   0.0800 
 35 H        3.0580     1.2280     1.6860 H     1 <1>   0.0800 
 36 H        2.2740     1.9890     0.3130 H     1 <1>   0.0800 
 37 H       -4.6800     0.1700     2.1040 H     1 <1>   0.0800 
 38 H       -4.0840     1.3400    -1.5610 H     1 <1>   0.0800 
 39 H       -3.2920     2.4130    -0.4450 H     1 <1>   0.0800 
 40 H       -3.1890    -1.2600    -1.1030 H     1 <1>   0.0800 
 41 H       -3.5650    -1.7430     0.5240 H     1 <1>   0.0800 
 42 H        4.2100    -2.2800    -2.0990 H     1 <1>   0.1500 
 43 H        3.1270    -4.2350    -2.3090 H     1 <1>   0.0800 
 44 H        1.4030    -4.0230    -2.3920 H     1 <1>   0.0800 
 45 H        2.1430    -4.7430    -0.9730 H     1 <1>   0.0800 
 46 H        5.5260    -0.4710    -2.0270 H     1 <1>   0.0800 
 47 H        5.6050     0.2690    -0.4560 H     1 <1>   0.0800 
 48 H        4.7260     1.0480    -1.7610 H     1 <1>   0.0800 
 49 H       -5.1550     2.4420     0.5100 H     1 <1>   0.4000 
 50 H       -6.6230    -0.4210     1.0420 H     1 <1>   0.0800 
 51 H       -6.4190     0.7550    -0.2460 H     1 <1>   0.0800 
 52 H       -5.6900    -2.0200    -0.3460 H     1 <1>   0.0800 
 53 H       -5.4510    -0.7940    -1.5720 H     1 <1>   0.0800 
@<TRIPOS>BOND
  1   1   2  2   
  2   1   3  2   
  3   1   4  am  
  4   1   5  1   
  5   4   6  1   
  6   4   7  1   
  7   5   8  ar  
  8   5   9  ar  
  9   6  10  1   
 10   6  25  1   
 11   6  26  1   
 12   7  11  1   
 13   7  27  1   
 14   7  28  1   
 15   8  12  ar  
 16   8  13  1   
 17   9  14  ar  
 18   9  15  1   
 19  10  16  1   
 20  10  17  1   
 21  10  18  1   
 22  11  17  1   
 23  11  29  1   
 24  11  30  1   
 25  12  19  ar  
 26  12  20  1   
 27  13  31  1   
 28  13  32  1   
 29  13  33  1   
 30  14  19  ar  
 31  14  21  1   
 32  15  34  1   
 33  15  35  1   
 34  15  36  1   
 35  16  22  1   
 36  16  23  1   
 37  16  37  1   
 38  17  38  1   
 39  17  39  1   
 40  18  24  1   
 41  18  40  1   
 42  18  41  1   
 43  19  42  1   
 44  20  43  1   
 45  20  44  1   
 46  20  45  1   
 47  21  46  1   
 48  21  47  1   
 49  21  48  1   
 50  22  49  1   
 51  23  24  1   
 52  23  50  1   
 53  23  51  1   
 54  24  52  1   
 55  24  53  1   
@<TRIPOS>SUBSTRUCTURE
  1 ****   4 GROUP 4 **** **** 0

# MOE 2024.06 (io_trps.svl 2023.06)
