@<TRIPOS>MOLECULE
NONAME
47 49 1 0 0 
SMALL
USER_CHARGES


@<TRIPOS>ATOM
  1 F       -2.1050    -0.9470    -0.0720 F     1 <1>  -0.1900 
  2 C       -1.6250    -2.1600    -0.0050 C.ar  1 <1>   0.1900 
  3 C       -2.0410    -3.0910    -0.9370 C.ar  1 <1>  -0.1500 
  4 C       -0.7200    -2.4630     0.9940 C.ar  1 <1>  -0.1500 
  5 C       -1.5350    -4.3820    -0.8690 C.ar  1 <1>  -0.1440 
  6 C       -0.2150    -3.7510     1.0550 C.ar  1 <1>  -0.1500 
  7 C       -0.6210    -4.7000     0.1280 C.ar  1 <1>  -0.1500 
  8 C       -1.9700    -5.4390    -1.8810 C.3   1 <1>   0.0450 
  9 C       -2.3920    -6.7550    -1.2370 C.2   1 <1>   0.5690 
 10 O       -1.7280    -7.7340    -1.4940 O.2   1 <1>  -0.5700 
 11 N       -3.4930    -6.8470    -0.4220 N.am  1 <1>  -0.6600 
 12 C       -3.8480    -8.1270     0.2600 C.3   1 <1>   0.1400 
 13 C       -4.5050    -5.7730    -0.2010 C.3   1 <1>   0.1400 
 14 C       -5.1820    -8.6400    -0.3240 C.3   1 <1>   0.4230 
 15 C       -5.8670    -6.2610    -0.7240 C.3   1 <1>  -0.1600 
 16 N       -5.6100    -9.9930     0.1720 N.4   1 <1>  -0.9590 
 17 C       -6.3090    -7.6090    -0.0790 C.3   1 <1>  -0.1060 
 18 C       -6.8730   -10.5010    -0.4420 C.3   1 <1>   0.3430 
 19 C       -4.5440   -11.0270     0.2450 C.3   1 <1>   0.2630 
 20 C       -6.4940    -7.4550     1.4430 C.2   1 <1>   0.9060 
 21 C       -7.6480    -8.0830    -0.7190 C.3   1 <1>  -0.1600 
 22 C       -7.5410    -9.4730    -1.3670 C.3   1 <1>  -0.1600 
 23 O       -6.4030    -8.4670     2.1560 O.co2 1 <1>  -0.9000 
 24 O       -6.7210    -6.3470     1.9240 O.co2 1 <1>  -0.9000 
 25 H       -2.7460    -2.7990    -1.6940 H     1 <1>   0.1500 
 26 H       -0.4220    -1.7110     1.7010 H     1 <1>   0.1500 
 27 H        0.4910    -4.0170     1.8230 H     1 <1>   0.1500 
 28 H       -0.2170    -5.6970     0.1900 H     1 <1>   0.1500 
 29 H       -1.1460    -5.6320    -2.5420 H     1 <1>   0.0800 
 30 H       -2.7820    -5.0770    -2.4830 H     1 <1>   0.0800 
 31 H       -3.0690    -8.8490     0.1020 H     1 <1>   0.0800 
 32 H       -3.9340    -7.9500     1.3190 H     1 <1>   0.0800 
 33 H       -4.5660    -5.5530     0.8530 H     1 <1>   0.0800 
 34 H       -4.2330    -4.8640    -0.7040 H     1 <1>   0.0800 
 35 H       -5.0300    -8.7180    -1.3870 H     1 <1>   0.0800 
 36 H       -6.6030    -5.5040    -0.5090 H     1 <1>   0.0800 
 37 H       -5.8100    -6.3600    -1.7940 H     1 <1>   0.0800 
 38 H       -5.8910    -9.7360     1.1580 H     1 <1>   0.4500 
 39 H       -6.6730   -11.3980    -1.0040 H     1 <1>   0.0800 
 40 H       -7.5600   -10.7510     0.3510 H     1 <1>   0.0800 
 41 H       -4.1580   -11.2350    -0.7390 H     1 <1>   0.0800 
 42 H       -4.9400   -11.9360     0.6670 H     1 <1>   0.0800 
 43 H       -3.7380   -10.6870     0.8740 H     1 <1>   0.0800 
 44 H       -8.4080    -8.1180     0.0460 H     1 <1>   0.0800 
 45 H       -7.9930    -7.3770    -1.4550 H     1 <1>   0.0800 
 46 H       -6.9810    -9.4070    -2.2840 H     1 <1>   0.0800 
 47 H       -8.5260    -9.8230    -1.6240 H     1 <1>   0.0800 
@<TRIPOS>BOND
  1   1   2  1   
  2   2   3  ar  
  3   2   4  ar  
  4   3   5  ar  
  5   3  25  1   
  6   4   6  ar  
  7   4  26  1   
  8   5   7  ar  
  9   5   8  1   
 10   6   7  ar  
 11   6  27  1   
 12   7  28  1   
 13   8   9  1   
 14   8  29  1   
 15   8  30  1   
 16   9  10  2   
 17   9  11  am  
 18  11  12  1   
 19  11  13  1   
 20  12  14  1   
 21  12  31  1   
 22  12  32  1   
 23  13  15  1   
 24  13  33  1   
 25  13  34  1   
 26  14  16  1   
 27  14  17  1   
 28  14  35  1   
 29  15  17  1   
 30  15  36  1   
 31  15  37  1   
 32  16  18  1   
 33  16  19  1   
 34  16  38  1   
 35  17  20  1   
 36  17  21  1   
 37  18  22  1   
 38  18  39  1   
 39  18  40  1   
 40  19  41  1   
 41  19  42  1   
 42  19  43  1   
 43  20  23  ar  
 44  20  24  ar  
 45  21  22  1   
 46  21  44  1   
 47  21  45  1   
 48  22  46  1   
 49  22  47  1   
@<TRIPOS>SUBSTRUCTURE
  1 ****  11 GROUP 4 **** **** 0

# MOE 2024.06 (io_trps.svl 2023.06)
