@<TRIPOS>MOLECULE
NONAME
47 49 1 0 0 
SMALL
USER_CHARGES


@<TRIPOS>ATOM
  1 CL       5.3330     2.1590     3.6430 Cl    1 <1>  -0.1770 
  2 C        4.4580     2.5770     2.1930 C.ar  1 <1>   0.1770 
  3 C        4.6840     3.8020     1.5960 C.ar  1 <1>  -0.1500 
  4 C        3.5530     1.6750     1.6640 C.ar  1 <1>  -0.1500 
  5 C        3.9940     4.1360     0.4430 C.ar  1 <1>   0.0830 
  6 C        2.8590     2.0100     0.5130 C.ar  1 <1>  -0.1500 
  7 O        4.2680     5.3470    -0.0980 O.3   1 <1>  -0.3630 
  8 C        3.0760     3.2350    -0.0970 C.ar  1 <1>  -0.1500 
  9 C        3.6850     5.7620    -1.3260 C.3   1 <1>   0.1810 
 10 C        4.2360     7.1130    -1.7740 C.2   1 <1>   0.5690 
 11 O        3.4360     8.0060    -1.9390 O.2   1 <1>  -0.5700 
 12 N        5.5790     7.3060    -1.9960 N.am  1 <1>  -0.6600 
 13 C        6.6430     6.2670    -1.8010 C.3   1 <1>   0.1400 
 14 C        6.1070     8.6470    -2.3700 C.3   1 <1>   0.1400 
 15 C        7.3720     6.4210    -0.4560 C.3   1 <1>   0.1400 
 16 C        6.3120     9.5290    -1.1300 C.3   1 <1>  -0.1600 
 17 N        7.9010     7.8050    -0.2560 N.am  1 <1>  -0.6600 
 18 C        6.8640     8.8090     0.1090 C.3   1 <1>   0.1400 
 19 C        9.1560     8.1600    -0.7020 C.2   1 <1>   0.7150 
 20 O        9.7910     7.3510    -1.3570 O.2   1 <1>  -0.5700 
 21 C        9.7100     9.4610    -0.4220 C.2   1 <1>  -0.0450 
 22 S       10.1740    10.4600    -1.8020 S.3   1 <1>  -0.0800 
 23 C        9.9700    10.1470     0.7250 C.2   1 <1>  -0.1810 
 24 C       10.6880    11.7740    -0.7700 C.2   1 <1>  -0.1100 
 25 C       10.5150    11.4500     0.5240 C.2   1 <1>  -0.1500 
 26 C        9.7480     9.6320     2.1360 C.3   1 <1>  -0.0590 
 27 H        5.3880     4.4890     2.0260 H     1 <1>   0.1500 
 28 H        3.3970     0.7290     2.1500 H     1 <1>   0.1500 
 29 H        2.1500     1.3160     0.0940 H     1 <1>   0.1500 
 30 H        2.5190     3.4670    -0.9850 H     1 <1>   0.1500 
 31 H        2.6230     5.8410    -1.1810 H     1 <1>   0.0800 
 32 H        3.8980     5.0240    -2.0760 H     1 <1>   0.0800 
 33 H        7.3650     6.3420    -2.5960 H     1 <1>   0.0800 
 34 H        6.2190     5.2810    -1.8560 H     1 <1>   0.0800 
 35 H        5.4230     9.1310    -3.0480 H     1 <1>   0.0800 
 36 H        7.0460     8.5300    -2.8840 H     1 <1>   0.0800 
 37 H        8.1850     5.7170    -0.4180 H     1 <1>   0.0800 
 38 H        6.7010     6.1740     0.3470 H     1 <1>   0.0800 
 39 H        5.3680     9.9730    -0.8690 H     1 <1>   0.0800 
 40 H        6.9700    10.3370    -1.3920 H     1 <1>   0.0800 
 41 H        6.0520     8.3090     0.6090 H     1 <1>   0.0800 
 42 H        7.2680     9.5310     0.7960 H     1 <1>   0.0800 
 43 H       11.0720    12.6600    -1.2440 H     1 <1>   0.1500 
 44 H       10.7590    12.0880     1.3560 H     1 <1>   0.1500 
 45 H        9.3680     8.6260     2.1230 H     1 <1>   0.0800 
 46 H        9.0440    10.2610     2.6510 H     1 <1>   0.0800 
 47 H       10.6780     9.6370     2.6760 H     1 <1>   0.0800 
@<TRIPOS>BOND
  1   1   2  1   
  2   2   3  ar  
  3   2   4  ar  
  4   3   5  ar  
  5   3  27  1   
  6   4   6  ar  
  7   4  28  1   
  8   5   7  1   
  9   5   8  ar  
 10   6   8  ar  
 11   6  29  1   
 12   7   9  1   
 13   8  30  1   
 14   9  10  1   
 15   9  31  1   
 16   9  32  1   
 17  10  11  2   
 18  10  12  am  
 19  12  13  1   
 20  12  14  1   
 21  13  15  1   
 22  13  33  1   
 23  13  34  1   
 24  14  16  1   
 25  14  35  1   
 26  14  36  1   
 27  15  17  1   
 28  15  37  1   
 29  15  38  1   
 30  16  18  1   
 31  16  39  1   
 32  16  40  1   
 33  17  18  1   
 34  17  19  am  
 35  18  41  1   
 36  18  42  1   
 37  19  20  2   
 38  19  21  1   
 39  21  22  1   
 40  21  23  2   
 41  22  24  1   
 42  23  25  1   
 43  23  26  1   
 44  24  25  2   
 45  24  43  1   
 46  25  44  1   
 47  26  45  1   
 48  26  46  1   
 49  26  47  1   
@<TRIPOS>SUBSTRUCTURE
  1 ****  15 GROUP 4 **** **** 0

# MOE 2024.06 (io_trps.svl 2023.06)
