@<TRIPOS>MOLECULE
NONAME
54 56 1 0 0 
SMALL
USER_CHARGES


@<TRIPOS>ATOM
  1 O       -2.9590    -0.6900    -2.4580 O.3   1 <1>  -0.5600 
  2 C       -3.1490    -1.3670    -1.2630 C.3   1 <1>   0.1200 
  3 C       -2.3330     0.5490    -2.3290 C.3   1 <1>   0.0400 
  4 C       -3.8220    -2.7020    -1.6020 C.3   1 <1>   0.3430 
  5 N       -4.0430    -3.5710    -0.4000 N.4   1 <1>  -0.9590 
  6 C       -4.4360    -4.9430    -0.8430 C.3   1 <1>   0.3430 
  7 C       -5.0540    -2.9900     0.5370 C.3   1 <1>   0.3430 
  8 C       -4.5550    -5.8570     0.3720 C.3   1 <1>  -0.1600 
  9 C       -5.2080    -3.8860     1.7690 C.3   1 <1>  -0.1600 
 10 C       -5.5980    -5.3160     1.3670 C.3   1 <1>  -0.0800 
 11 C       -5.7800    -6.2270     2.6010 C.3   1 <1>   0.2090 
 12 N       -6.2770    -7.5750     2.2170 N.pl3 1 <1>  -0.8380 
 13 C       -7.4040    -7.7020     1.4250 C.ar  1 <1>   0.4100 
 14 C       -5.3110    -8.7060     2.2850 C.3   1 <1>   0.1290 
 15 N       -7.2330    -7.9760     0.1260 N.ar  1 <1>  -0.3100 
 16 C       -8.6600    -7.5180     1.9680 C.ar  1 <1>  -0.1500 
 17 N       -8.2650    -8.0550    -0.6760 N.ar  1 <1>  -0.3100 
 18 C       -9.7410    -7.6190     1.1310 C.ar  1 <1>  -0.1500 
 19 C       -9.5120    -7.8880    -0.2100 C.ar  1 <1>   0.3100 
 20 C      -10.6150    -7.9970    -1.1420 C.ar  1 <1>   0.0000 
 21 C      -11.6750    -7.0890    -1.1300 C.ar  1 <1>  -0.1500 
 22 C      -10.6570    -9.0200    -2.0890 C.ar  1 <1>  -0.1500 
 23 C      -12.7310    -7.2020    -2.0160 C.ar  1 <1>  -0.1500 
 24 C      -11.7100    -9.1380    -2.9780 C.ar  1 <1>  -0.1500 
 25 C      -12.7510    -8.2290    -2.9430 C.ar  1 <1>  -0.1500 
 26 H       -3.7750    -0.7620    -0.6310 H     1 <1>   0.0800 
 27 H       -2.1860    -1.5280    -0.8080 H     1 <1>   0.0800 
 28 H       -2.2390     0.9800    -3.3110 H     1 <1>   0.0800 
 29 H       -1.3550     0.4150    -1.9010 H     1 <1>   0.0800 
 30 H       -2.9340     1.1930    -1.7110 H     1 <1>   0.0800 
 31 H       -3.1900    -3.2200    -2.3050 H     1 <1>   0.0800 
 32 H       -4.7650    -2.5030    -2.0840 H     1 <1>   0.0800 
 33 H       -3.1530    -3.6660     0.1060 H     1 <1>   0.4500 
 34 H       -3.6980    -5.3420    -1.5200 H     1 <1>   0.0800 
 35 H       -5.3840    -4.9080    -1.3560 H     1 <1>   0.0800 
 36 H       -6.0050    -2.9080     0.0350 H     1 <1>   0.0800 
 37 H       -4.7500    -2.0050     0.8490 H     1 <1>   0.0800 
 38 H       -3.5960    -5.9670     0.8470 H     1 <1>   0.0800 
 39 H       -4.8510    -6.8290     0.0210 H     1 <1>   0.0800 
 40 H       -5.9750    -3.4700     2.4010 H     1 <1>   0.0800 
 41 H       -4.2910    -3.8890     2.3320 H     1 <1>   0.0800 
 42 H       -6.5500    -5.2570     0.8650 H     1 <1>   0.0800 
 43 H       -6.4940    -5.7830     3.2740 H     1 <1>   0.0800 
 44 H       -4.8470    -6.3230     3.1300 H     1 <1>   0.0800 
 45 H       -5.0450    -8.8960     3.3100 H     1 <1>   0.0800 
 46 H       -4.4240    -8.4760     1.7240 H     1 <1>   0.0800 
 47 H       -5.7570    -9.5970     1.8750 H     1 <1>   0.0800 
 48 H       -8.7650    -7.3120     3.0160 H     1 <1>   0.1500 
 49 H      -10.7420    -7.5010     1.5020 H     1 <1>   0.1500 
 50 H      -11.6730    -6.2780    -0.4240 H     1 <1>   0.1500 
 51 H       -9.8500    -9.7320    -2.1270 H     1 <1>   0.1500 
 52 H      -13.5380    -6.4900    -1.9880 H     1 <1>   0.1500 
 53 H      -11.7180    -9.9370    -3.6990 H     1 <1>   0.1500 
 54 H      -13.5720    -8.3190    -3.6340 H     1 <1>   0.1500 
@<TRIPOS>BOND
  1   1   2  1   
  2   1   3  1   
  3   2   4  1   
  4   2  26  1   
  5   2  27  1   
  6   3  28  1   
  7   3  29  1   
  8   3  30  1   
  9   4   5  1   
 10   4  31  1   
 11   4  32  1   
 12   5   6  1   
 13   5   7  1   
 14   5  33  1   
 15   6   8  1   
 16   6  34  1   
 17   6  35  1   
 18   7   9  1   
 19   7  36  1   
 20   7  37  1   
 21   8  10  1   
 22   8  38  1   
 23   8  39  1   
 24   9  10  1   
 25   9  40  1   
 26   9  41  1   
 27  10  11  1   
 28  10  42  1   
 29  11  12  1   
 30  11  43  1   
 31  11  44  1   
 32  12  13  1   
 33  12  14  1   
 34  13  15  ar  
 35  13  16  ar  
 36  14  45  1   
 37  14  46  1   
 38  14  47  1   
 39  15  17  ar  
 40  16  18  ar  
 41  16  48  1   
 42  17  19  ar  
 43  18  19  ar  
 44  18  49  1   
 45  19  20  1   
 46  20  21  ar  
 47  20  22  ar  
 48  21  23  ar  
 49  21  50  1   
 50  22  24  ar  
 51  22  51  1   
 52  23  25  ar  
 53  23  52  1   
 54  24  25  ar  
 55  24  53  1   
 56  25  54  1   
@<TRIPOS>SUBSTRUCTURE
  1 ****  15 GROUP 4 **** **** 0

# MOE 2024.06 (io_trps.svl 2023.06)
