@<TRIPOS>MOLECULE
NONAME
46 48 1 0 0 
SMALL
USER_CHARGES


@<TRIPOS>ATOM
  1 S       -0.2000     0.1770     0.4040 S.3   1 <1>  -0.0800 
  2 C        0.9930    -1.0950     0.5420 C.2   1 <1>   0.1980 
  3 C        1.0890     1.3460     0.3580 C.2   1 <1>  -0.1400 
  4 N        2.1970    -0.6860     0.5500 N.2   1 <1>  -0.5650 
  5 C        0.4940    -2.5200     0.6290 C.3   1 <1>   0.0200 
  6 C        2.2610     0.6930     0.4480 C.2   1 <1>   0.0460 
  7 C        0.6810     2.8010     0.2330 C.3   1 <1>  -0.0600 
  8 C        0.1020    -3.0220    -0.7590 C.3   1 <1>   0.1400 
  9 C        3.6510     1.2910     0.4500 C.3   1 <1>  -0.0590 
 10 N       -0.3360    -4.4370    -0.6860 N.am  1 <1>  -0.7300 
 11 C       -1.6230    -4.8680    -0.5880 C.2   1 <1>   0.5690 
 12 O       -2.5350    -4.0790    -0.5050 O.2   1 <1>  -0.5700 
 13 C       -1.9010    -6.3780    -0.5710 C.3   1 <1>   0.2610 
 14 O       -0.6810    -7.0920    -0.3800 O.3   1 <1>  -0.5600 
 15 C       -2.9700    -6.7220     0.5080 C.3   1 <1>   0.3640 
 16 C       -0.8120    -8.4940    -0.3340 C.3   1 <1>   0.1810 
 17 N       -2.7940    -8.0770     1.0910 N.am  1 <1>  -0.7300 
 18 C       -4.3840    -6.6470    -0.0690 C.ar  1 <1>  -0.1440 
 19 C       -1.8350    -8.9440     0.7070 C.2   1 <1>   0.5690 
 20 C       -5.1830    -5.5440     0.1980 C.ar  1 <1>  -0.1500 
 21 C       -4.8930    -7.6660    -0.8660 C.ar  1 <1>  -0.1500 
 22 O       -1.7980   -10.0630     1.1520 O.2   1 <1>  -0.5700 
 23 C       -6.4650    -5.4600    -0.3170 C.ar  1 <1>  -0.1500 
 24 C       -6.1750    -7.5840    -1.3820 C.ar  1 <1>  -0.1500 
 25 C       -6.9620    -6.4800    -1.1070 C.ar  1 <1>  -0.1500 
 26 H        1.2800    -3.1350     1.0280 H     1 <1>   0.0800 
 27 H       -0.3530    -2.5600     1.2890 H     1 <1>   0.0800 
 28 H        1.5440     3.4390     0.2120 H     1 <1>   0.0800 
 29 H        0.0660     3.0790     1.0700 H     1 <1>   0.0800 
 30 H        0.1210     2.9450    -0.6730 H     1 <1>   0.0800 
 31 H        0.9420    -2.9420    -1.4280 H     1 <1>   0.0800 
 32 H       -0.6990    -2.4160    -1.1490 H     1 <1>   0.0800 
 33 H        3.6130     2.3600     0.3680 H     1 <1>   0.0800 
 34 H        4.2120     0.8970    -0.3770 H     1 <1>   0.0800 
 35 H        4.1510     1.0300     1.3650 H     1 <1>   0.0800 
 36 H        0.3960    -5.1560    -0.6850 H     1 <1>   0.3700 
 37 H       -2.2800    -6.6480    -1.5400 H     1 <1>   0.0800 
 38 H       -2.8840    -6.0090     1.3100 H     1 <1>   0.0800 
 39 H       -1.1060    -8.8440    -1.3070 H     1 <1>   0.0800 
 40 H        0.1500    -8.9070    -0.0900 H     1 <1>   0.0800 
 41 H       -3.5200    -8.4020     1.7320 H     1 <1>   0.3700 
 42 H       -4.8100    -4.7350     0.8030 H     1 <1>   0.1500 
 43 H       -4.3000    -8.5360    -1.0900 H     1 <1>   0.1500 
 44 H       -7.0730    -4.5980    -0.1050 H     1 <1>   0.1500 
 45 H       -6.5610    -8.3790    -1.9960 H     1 <1>   0.1500 
 46 H       -7.9590    -6.4140    -1.5080 H     1 <1>   0.1500 
@<TRIPOS>BOND
  1   1   2  1   
  2   1   3  1   
  3   2   4  2   
  4   2   5  1   
  5   3   6  2   
  6   3   7  1   
  7   4   6  1   
  8   5   8  1   
  9   5  26  1   
 10   5  27  1   
 11   6   9  1   
 12   7  28  1   
 13   7  29  1   
 14   7  30  1   
 15   8  10  1   
 16   8  31  1   
 17   8  32  1   
 18   9  33  1   
 19   9  34  1   
 20   9  35  1   
 21  10  11  am  
 22  10  36  1   
 23  11  12  2   
 24  11  13  1   
 25  13  14  1   
 26  13  15  1   
 27  13  37  1   
 28  14  16  1   
 29  15  17  1   
 30  15  18  1   
 31  15  38  1   
 32  16  19  1   
 33  16  39  1   
 34  16  40  1   
 35  17  19  am  
 36  17  41  1   
 37  18  20  ar  
 38  18  21  ar  
 39  19  22  2   
 40  20  23  ar  
 41  20  42  1   
 42  21  24  ar  
 43  21  43  1   
 44  23  25  ar  
 45  23  44  1   
 46  24  25  ar  
 47  24  45  1   
 48  25  46  1   
@<TRIPOS>SUBSTRUCTURE
  1 ****  11 GROUP 4 **** **** 0

# MOE 2024.06 (io_trps.svl 2023.06)
