@<TRIPOS>MOLECULE
NONAME
58 61 1 0 0 
SMALL
USER_CHARGES


@<TRIPOS>ATOM
  1 O       -0.7210    -0.1180     2.1060 O.3   1 <1>  -0.3630 
  2 C       -0.7510     0.4380     0.8680 C.ar  1 <1>   0.0820 
  3 C       -1.9240    -0.1300     2.8540 C.3   1 <1>   0.1200 
  4 C       -0.4820    -0.3490    -0.2510 C.ar  1 <1>   0.0820 
  5 C       -1.0470     1.7830     0.7070 C.ar  1 <1>  -0.1500 
  6 C       -2.5150    -1.5500     2.8590 C.3   1 <1>   0.3430 
  7 O       -0.2050    -1.6660    -0.1170 O.3   1 <1>  -0.3630 
  8 C       -0.5380     0.2010    -1.5200 C.ar  1 <1>  -0.1500 
  9 C       -1.0990     2.3310    -0.5640 C.ar  1 <1>  -0.1500 
 10 N       -2.5460    -2.1570     1.4960 N.4   1 <1>  -0.9590 
 11 C        1.1460    -1.9660     0.1470 C.3   1 <1>   0.1200 
 12 C       -0.8480     1.5420    -1.6750 C.ar  1 <1>  -0.1500 
 13 C       -3.5020    -1.4890     0.5550 C.3   1 <1>   0.3430 
 14 C       -2.8940    -3.6060     1.5230 C.3   1 <1>   0.3430 
 15 C        1.2670    -3.4710     0.3520 C.3   1 <1>  -0.2400 
 16 C       -4.4920    -2.5660     0.1010 C.3   1 <1>   0.2000 
 17 C       -3.7180    -3.8710     0.2590 C.3   1 <1>  -0.0800 
 18 O       -5.5530    -2.5810     0.9990 O.3   1 <1>  -0.6800 
 19 C       -2.8290    -4.1700    -0.9670 C.3   1 <1>  -0.0170 
 20 C       -2.1840    -5.5440    -0.8690 C.ar  1 <1>   0.1670 
 21 N       -1.2660    -5.7110     0.0340 N.ar  1 <1>  -0.6200 
 22 C       -2.6030    -6.5600    -1.7450 C.ar  1 <1>  -0.1500 
 23 C       -0.6770    -6.9330     0.1230 C.ar  1 <1>   0.3100 
 24 C       -2.0350    -7.7950    -1.6730 C.ar  1 <1>  -0.1500 
 25 C       -1.0340    -8.0130    -0.7130 C.ar  1 <1>   0.0000 
 26 C        0.3270    -7.1360     1.0840 C.ar  1 <1>  -0.1500 
 27 C       -0.3790    -9.2490    -0.5520 C.ar  1 <1>  -0.1500 
 28 C        0.9530    -8.3460     1.2230 C.ar  1 <1>  -0.1500 
 29 C        0.5940    -9.4140     0.3950 C.ar  1 <1>  -0.1500 
 30 H       -1.6880     0.1740     3.8590 H     1 <1>   0.0800 
 31 H       -2.6230     0.5730     2.4380 H     1 <1>   0.0800 
 32 H       -1.2280     2.4050     1.5660 H     1 <1>   0.1500 
 33 H       -3.5100    -1.5260     3.2710 H     1 <1>   0.0800 
 34 H       -1.9070    -2.1620     3.5040 H     1 <1>   0.0800 
 35 H       -0.3360    -0.4140    -2.3790 H     1 <1>   0.1500 
 36 H       -1.3280     3.3770    -0.6910 H     1 <1>   0.1500 
 37 H       -1.5930    -2.0500     1.0880 H     1 <1>   0.4500 
 38 H        1.7380    -1.6440    -0.6940 H     1 <1>   0.0800 
 39 H        1.4530    -1.4330     1.0310 H     1 <1>   0.0800 
 40 H       -0.8870     1.9740    -2.6610 H     1 <1>   0.1500 
 41 H       -4.0240    -0.6700     1.0200 H     1 <1>   0.0800 
 42 H       -2.9570    -1.1210    -0.2990 H     1 <1>   0.0800 
 43 H       -2.0120    -4.2210     1.5810 H     1 <1>   0.0800 
 44 H       -3.5160    -3.8080     2.3800 H     1 <1>   0.0800 
 45 H        0.9550    -3.9950    -0.5340 H     1 <1>   0.0800 
 46 H        0.6660    -3.7850     1.1860 H     1 <1>   0.0800 
 47 H        2.2910    -3.7290     0.5540 H     1 <1>   0.0800 
 48 H       -4.8780    -2.3880    -0.8890 H     1 <1>   0.0800 
 49 H       -4.3830    -4.7040     0.4090 H     1 <1>   0.0800 
 50 H       -6.2730    -3.1700     0.6890 H     1 <1>   0.4000 
 51 H       -2.0490    -3.4350    -1.0650 H     1 <1>   0.0800 
 52 H       -3.4250    -4.1250    -1.8610 H     1 <1>   0.0800 
 53 H       -3.3690    -6.3570    -2.4710 H     1 <1>   0.1500 
 54 H       -2.3290    -8.5970    -2.3260 H     1 <1>   0.1500 
 55 H        0.5940    -6.3070     1.7110 H     1 <1>   0.1500 
 56 H       -0.6580   -10.0670    -1.1930 H     1 <1>   0.1500 
 57 H        1.7220    -8.4900     1.9630 H     1 <1>   0.1500 
 58 H        1.0940   -10.3610     0.5160 H     1 <1>   0.1500 
@<TRIPOS>BOND
  1   1   2  1   
  2   1   3  1   
  3   2   4  ar  
  4   2   5  ar  
  5   3   6  1   
  6   3  30  1   
  7   3  31  1   
  8   4   7  1   
  9   4   8  ar  
 10   5   9  ar  
 11   5  32  1   
 12   6  10  1   
 13   6  33  1   
 14   6  34  1   
 15   7  11  1   
 16   8  12  ar  
 17   8  35  1   
 18   9  12  ar  
 19   9  36  1   
 20  10  13  1   
 21  10  14  1   
 22  10  37  1   
 23  11  15  1   
 24  11  38  1   
 25  11  39  1   
 26  12  40  1   
 27  13  16  1   
 28  13  41  1   
 29  13  42  1   
 30  14  17  1   
 31  14  43  1   
 32  14  44  1   
 33  15  45  1   
 34  15  46  1   
 35  15  47  1   
 36  16  17  1   
 37  16  18  1   
 38  16  48  1   
 39  17  19  1   
 40  17  49  1   
 41  18  50  1   
 42  19  20  1   
 43  19  51  1   
 44  19  52  1   
 45  20  21  ar  
 46  20  22  ar  
 47  21  23  ar  
 48  22  24  ar  
 49  22  53  1   
 50  23  25  ar  
 51  23  26  ar  
 52  24  25  ar  
 53  24  54  1   
 54  25  27  ar  
 55  26  28  ar  
 56  26  55  1   
 57  27  29  ar  
 58  27  56  1   
 59  28  29  ar  
 60  28  57  1   
 61  29  58  1   
@<TRIPOS>SUBSTRUCTURE
  1 ****  14 GROUP 4 **** **** 0

# MOE 2024.06 (io_trps.svl 2023.06)
