@<TRIPOS>MOLECULE
NONAME
54 57 1 0 0 
SMALL
USER_CHARGES


@<TRIPOS>ATOM
  1 O       -1.2260     0.2270     2.2080 O.2   1 <1>  -0.5700 
  2 C       -1.6120     0.7010     1.1550 C.2   1 <1>   0.5440 
  3 N       -2.2370    -0.1190     0.2340 N.am  1 <1>  -0.6600 
  4 C       -1.4390     2.1100     0.8930 C.ar  1 <1>   0.0860 
  5 C       -2.3050    -1.6000     0.4650 C.3   1 <1>   0.3640 
  6 C       -2.9110     0.4370    -0.9800 C.3   1 <1>   0.1400 
  7 C       -0.2490     2.6620     0.3740 C.ar  1 <1>   0.1000 
  8 C       -2.5090     2.9670     1.1630 C.ar  1 <1>  -0.1500 
  9 C       -1.0130    -2.2430    -0.0550 C.ar  1 <1>  -0.1440 
 10 C       -3.5760    -2.2870    -0.1210 C.3   1 <1>   0.2000 
 11 C       -3.8690    -0.5470    -1.6720 C.3   1 <1>   0.1200 
 12 N        0.9310     1.9530     0.1300 N.pl3 1 <1>  -0.8380 
 13 C       -0.2130     4.0280     0.1040 C.ar  1 <1>  -0.1500 
 14 C       -2.4450     4.3200     0.8990 C.ar  1 <1>  -0.1500 
 15 C       -0.0790    -2.6990     0.8650 C.ar  1 <1>  -0.1500 
 16 C       -0.7330    -2.3770    -1.4100 C.ar  1 <1>  -0.1500 
 17 O       -4.4660    -1.3900    -0.7390 O.3   1 <1>  -0.5600 
 18 C       -4.3770    -3.0310     0.9560 C.3   1 <1>   0.1200 
 19 C        2.0710     2.1760     1.0640 C.3   1 <1>   0.2090 
 20 C        0.9600     0.5570    -0.4040 C.3   1 <1>   0.2090 
 21 C       -1.2890     4.8530     0.3580 C.ar  1 <1>  -0.1500 
 22 C        1.1030    -3.2810     0.4450 C.ar  1 <1>  -0.1500 
 23 C        0.4480    -2.9630    -1.8330 C.ar  1 <1>  -0.1500 
 24 O       -3.6100    -4.0410     1.5330 O.3   1 <1>  -0.6800 
 25 C        3.4010     1.8040     0.3820 C.3   1 <1>   0.1200 
 26 C        2.3350     0.2460    -1.0210 C.3   1 <1>   0.1200 
 27 C        1.3670    -3.4170    -0.9050 C.ar  1 <1>  -0.1500 
 28 O        3.3740     0.4900    -0.1090 O.3   1 <1>  -0.5600 
 29 H       -2.3330    -1.7630     1.5290 H     1 <1>   0.0800 
 30 H       -3.4880     1.2980    -0.6930 H     1 <1>   0.0800 
 31 H       -2.1670     0.7680    -1.6830 H     1 <1>   0.0800 
 32 H       -3.4060     2.5510     1.5870 H     1 <1>   0.1500 
 33 H       -3.2890    -3.0030    -0.8690 H     1 <1>   0.0800 
 34 H       -3.3600    -1.1440    -2.4050 H     1 <1>   0.0800 
 35 H       -4.6500    -0.0020    -2.1720 H     1 <1>   0.0800 
 36 H        0.6860     4.4420    -0.3140 H     1 <1>   0.1500 
 37 H       -3.2850     4.9580     1.1120 H     1 <1>   0.1500 
 38 H       -0.2670    -2.5910     1.9210 H     1 <1>   0.1500 
 39 H       -1.4250    -2.0270    -2.1490 H     1 <1>   0.1500 
 40 H       -5.2560    -3.4810     0.5290 H     1 <1>   0.0800 
 41 H       -4.6650    -2.3510     1.7390 H     1 <1>   0.0800 
 42 H        2.0990     3.2050     1.3730 H     1 <1>   0.0800 
 43 H        1.9370     1.5660     1.9410 H     1 <1>   0.0800 
 44 H        0.7820    -0.1400     0.3950 H     1 <1>   0.0800 
 45 H        0.1930     0.4320    -1.1460 H     1 <1>   0.0800 
 46 H       -1.2300     5.9050     0.1420 H     1 <1>   0.1500 
 47 H        1.8180    -3.6250     1.1720 H     1 <1>   0.1500 
 48 H        0.6530    -3.0670    -2.8850 H     1 <1>   0.1500 
 49 H       -3.3920    -4.7380     0.8820 H     1 <1>   0.4000 
 50 H        4.2100     1.8740     1.0860 H     1 <1>   0.0800 
 51 H        3.5960     2.4710    -0.4390 H     1 <1>   0.0800 
 52 H        2.4960     0.8530    -1.8940 H     1 <1>   0.0800 
 53 H        2.3840    -0.7900    -1.3030 H     1 <1>   0.0800 
 54 H        2.2870    -3.8720    -1.2300 H     1 <1>   0.1500 
@<TRIPOS>BOND
  1   1   2  2   
  2   2   3  am  
  3   2   4  1   
  4   3   5  1   
  5   3   6  1   
  6   4   7  ar  
  7   4   8  ar  
  8   5   9  1   
  9   5  10  1   
 10   5  29  1   
 11   6  11  1   
 12   6  30  1   
 13   6  31  1   
 14   7  12  1   
 15   7  13  ar  
 16   8  14  ar  
 17   8  32  1   
 18   9  15  ar  
 19   9  16  ar  
 20  10  17  1   
 21  10  18  1   
 22  10  33  1   
 23  11  17  1   
 24  11  34  1   
 25  11  35  1   
 26  12  19  1   
 27  12  20  1   
 28  13  21  ar  
 29  13  36  1   
 30  14  21  ar  
 31  14  37  1   
 32  15  22  ar  
 33  15  38  1   
 34  16  23  ar  
 35  16  39  1   
 36  18  24  1   
 37  18  40  1   
 38  18  41  1   
 39  19  25  1   
 40  19  42  1   
 41  19  43  1   
 42  20  26  1   
 43  20  44  1   
 44  20  45  1   
 45  21  46  1   
 46  22  27  ar  
 47  22  47  1   
 48  23  27  ar  
 49  23  48  1   
 50  24  49  1   
 51  25  28  1   
 52  25  50  1   
 53  25  51  1   
 54  26  28  1   
 55  26  52  1   
 56  26  53  1   
 57  27  54  1   
@<TRIPOS>SUBSTRUCTURE
  1 ****   3 GROUP 4 **** **** 0

# MOE 2024.06 (io_trps.svl 2023.06)
