@<TRIPOS>MOLECULE
NONAME
46 48 1 0 0 
SMALL
USER_CHARGES


@<TRIPOS>ATOM
  1 S        1.1550    -0.6560    -0.8040 S.o2  1 <1>   1.2040 
  2 O        0.7360    -0.4310    -2.1700 O.2   1 <1>  -0.6500 
  3 O        2.2030    -1.6140    -0.5270 O.2   1 <1>  -0.6500 
  4 C        1.5470     0.9250    -0.0160 C.ar  1 <1>  -0.0090 
  5 C       -0.2900    -1.1700     0.1040 C.3   1 <1>  -0.0550 
  6 C        2.3720     0.9840     1.1010 C.ar  1 <1>  -0.1500 
  7 C        1.0050     2.1150    -0.4890 C.ar  1 <1>  -0.1500 
  8 C       -0.7720    -2.5320    -0.3840 C.3   1 <1>   0.1100 
  9 C        2.6470     2.1870     1.7280 C.ar  1 <1>  -0.1500 
 10 C        1.2740     3.3230     0.1320 C.ar  1 <1>  -0.1500 
 11 N       -1.9610    -2.9460     0.3690 N.3   1 <1>  -0.8100 
 12 C        2.0960     3.3590     1.2440 C.ar  1 <1>  -0.1500 
 13 C       -3.1920    -2.2390    -0.0240 C.3   1 <1>   0.1100 
 14 C       -2.2500    -4.3830     0.2140 C.3   1 <1>   0.1100 
 15 C       -4.3090    -3.1360     0.4920 C.3   1 <1>   0.2000 
 16 C       -3.7800    -4.5310     0.1560 C.3   1 <1>  -0.0800 
 17 O       -4.3560    -2.9760     1.8650 O.3   1 <1>  -0.6800 
 18 C       -4.3290    -5.6700     1.0370 C.3   1 <1>   0.0200 
 19 C       -3.8910    -7.0480     0.5690 C.2   1 <1>  -0.0400 
 20 O       -4.1760    -8.0830     1.3140 O.3   1 <1>  -0.0190 
 21 C       -3.2320    -7.4940    -0.5130 C.2   1 <1>  -0.1500 
 22 N       -3.7410    -9.1940     0.7920 N.2   1 <1>  -0.4100 
 23 C       -3.1680    -8.8700    -0.3100 C.2   1 <1>   0.1080 
 24 C       -2.5160    -9.8570    -1.2510 C.3   1 <1>  -0.0590 
 25 H       -0.0570    -1.2420     1.1490 H     1 <1>   0.0800 
 26 H       -1.0690    -0.4460    -0.0280 H     1 <1>   0.0800 
 27 H        2.8120     0.0770     1.4840 H     1 <1>   0.1500 
 28 H        0.3680     2.1000    -1.3580 H     1 <1>   0.1500 
 29 H        0.0180    -3.2490    -0.2240 H     1 <1>   0.0800 
 30 H       -0.9870    -2.5000    -1.4400 H     1 <1>   0.0800 
 31 H        3.2910     2.2120     2.5910 H     1 <1>   0.1500 
 32 H        0.8470     4.2340    -0.2510 H     1 <1>   0.1500 
 33 H        2.3080     4.2960     1.7290 H     1 <1>   0.1500 
 34 H       -3.2450    -1.2530     0.4060 H     1 <1>   0.0800 
 35 H       -3.2550    -2.1700    -1.0970 H     1 <1>   0.0800 
 36 H       -1.8120    -4.7700    -0.6920 H     1 <1>   0.0800 
 37 H       -1.8370    -4.9170     1.0540 H     1 <1>   0.0800 
 38 H       -5.2780    -2.9190     0.0760 H     1 <1>   0.0800 
 39 H       -4.0500    -4.7360    -0.8650 H     1 <1>   0.0800 
 40 H       -3.4230    -2.9700     2.1720 H     1 <1>   0.4000 
 41 H       -5.4040    -5.6350     1.0380 H     1 <1>   0.0800 
 42 H       -4.0000    -5.5370     2.0530 H     1 <1>   0.0800 
 43 H       -2.8350    -6.9630    -1.3560 H     1 <1>   0.1500 
 44 H       -1.4850    -9.5940    -1.4000 H     1 <1>   0.0800 
 45 H       -3.0250    -9.8510    -2.1960 H     1 <1>   0.0800 
 46 H       -2.5660   -10.8480    -0.8350 H     1 <1>   0.0800 
@<TRIPOS>BOND
  1   1   2  2   
  2   1   3  2   
  3   1   4  1   
  4   1   5  1   
  5   4   6  ar  
  6   4   7  ar  
  7   5   8  1   
  8   5  25  1   
  9   5  26  1   
 10   6   9  ar  
 11   6  27  1   
 12   7  10  ar  
 13   7  28  1   
 14   8  11  1   
 15   8  29  1   
 16   8  30  1   
 17   9  12  ar  
 18   9  31  1   
 19  10  12  ar  
 20  10  32  1   
 21  11  13  1   
 22  11  14  1   
 23  12  33  1   
 24  13  15  1   
 25  13  34  1   
 26  13  35  1   
 27  14  16  1   
 28  14  36  1   
 29  14  37  1   
 30  15  16  1   
 31  15  17  1   
 32  15  38  1   
 33  16  18  1   
 34  16  39  1   
 35  17  40  1   
 36  18  19  1   
 37  18  41  1   
 38  18  42  1   
 39  19  20  1   
 40  19  21  2   
 41  20  22  1   
 42  21  23  1   
 43  21  43  1   
 44  22  23  2   
 45  23  24  1   
 46  24  44  1   
 47  24  45  1   
 48  24  46  1   
@<TRIPOS>SUBSTRUCTURE
  1 ****  11 GROUP 4 **** **** 0

# MOE 2024.06 (io_trps.svl 2023.06)
