@<TRIPOS>MOLECULE
NONAME
40 41 1 0 0 
SMALL
USER_CHARGES


@<TRIPOS>ATOM
  1 O        2.8160    -0.7740     1.5780 O.co2 1 <1>  -0.9000 
  2 C        1.7250    -0.4240     1.0970 C.2   1 <1>   0.9060 
  3 O        0.6600    -0.6490     1.6760 O.co2 1 <1>  -0.9000 
  4 C        1.6780     0.2920    -0.2440 C.3   1 <1>  -0.0860 
  5 C        2.8910     1.1630    -0.5550 C.2   1 <1>   0.0060 
  6 N        2.9800     2.0560    -1.4820 N.2   1 <1>  -0.3380 
  7 N        4.0260     1.0640     0.1260 N.pl3 1 <1>   0.0330 
  8 N        4.2150     2.5670    -1.4140 N.2   1 <1>  -0.3380 
  9 C        4.8260     1.9590    -0.4470 C.2   1 <1>   0.0070 
 10 C        6.2570     2.1900     0.0240 C.3   1 <1>   0.4690 
 11 N        6.7730     3.4110    -0.6110 N.pl3 1 <1>  -0.8690 
 12 C        7.1650     1.0360    -0.3870 C.3   1 <1>  -0.2400 
 13 C        7.3020     4.4330     0.1280 C.ar  1 <1>   0.4100 
 14 N        8.0020     4.1230     1.2030 N.ar  1 <1>  -0.6200 
 15 C        7.1130     5.7390    -0.2480 C.ar  1 <1>  -0.1500 
 16 C        8.4930     5.1520     1.8650 C.ar  1 <1>   0.4700 
 17 C        7.6610     6.7320     0.5290 C.ar  1 <1>   0.4100 
 18 N        8.3690     6.4370     1.6050 N.ar  1 <1>  -0.6200 
 19 N        7.4750     8.0660     0.2140 N.pl3 1 <1>  -0.8380 
 20 C        8.5050     9.0720     0.5840 C.3   1 <1>   0.2090 
 21 C        6.0860     8.5790     0.0630 C.3   1 <1>   0.1290 
 22 C        8.7510    10.0080    -0.5960 C.3   1 <1>  -0.2400 
 23 H        0.7960     0.9020    -0.2620 H     1 <1>   0.0800 
 24 H        1.5810    -0.4560    -1.0040 H     1 <1>   0.0800 
 25 H        4.1390     0.3990     0.9100 H     1 <1>   0.2700 
 26 H        6.2610     2.2960     1.0960 H     1 <1>   0.0800 
 27 H        6.0960     3.6850    -1.3320 H     1 <1>   0.4000 
 28 H        7.1460     0.9160    -1.4550 H     1 <1>   0.0800 
 29 H        6.8310     0.1250     0.0720 H     1 <1>   0.0800 
 30 H        8.1710     1.2380    -0.0660 H     1 <1>   0.0800 
 31 H        6.5550     5.9830    -1.1270 H     1 <1>   0.1500 
 32 H        9.0710     4.9080     2.7400 H     1 <1>   0.1500 
 33 H        9.4300     8.5780     0.8310 H     1 <1>   0.0800 
 34 H        8.1790     9.6250     1.4480 H     1 <1>   0.0800 
 35 H        5.3720     7.7870     0.2060 H     1 <1>   0.0800 
 36 H        5.9570     8.9900    -0.9230 H     1 <1>   0.0800 
 37 H        5.8940     9.3450     0.7940 H     1 <1>   0.0800 
 38 H        9.0380     9.4360    -1.4590 H     1 <1>   0.0800 
 39 H        9.5460    10.6890    -0.3540 H     1 <1>   0.0800 
 40 H        7.8690    10.5790    -0.8180 H     1 <1>   0.0800 
@<TRIPOS>BOND
  1   1   2  ar  
  2   2   3  ar  
  3   2   4  1   
  4   4   5  1   
  5   4  23  1   
  6   4  24  1   
  7   5   6  2   
  8   5   7  1   
  9   6   8  1   
 10   7   9  1   
 11   7  25  1   
 12   8   9  2   
 13   9  10  1   
 14  10  11  1   
 15  10  12  1   
 16  10  26  1   
 17  11  13  1   
 18  11  27  1   
 19  12  28  1   
 20  12  29  1   
 21  12  30  1   
 22  13  14  ar  
 23  13  15  ar  
 24  14  16  ar  
 25  15  17  ar  
 26  15  31  1   
 27  16  18  ar  
 28  16  32  1   
 29  17  18  ar  
 30  17  19  1   
 31  19  20  1   
 32  19  21  1   
 33  20  22  1   
 34  20  33  1   
 35  20  34  1   
 36  21  35  1   
 37  21  36  1   
 38  21  37  1   
 39  22  38  1   
 40  22  39  1   
 41  22  40  1   
@<TRIPOS>SUBSTRUCTURE
  1 ****  11 GROUP 4 **** **** 0

# MOE 2024.06 (io_trps.svl 2023.06)
