@<TRIPOS>MOLECULE
NONAME
48 51 1 0 0 
SMALL
USER_CHARGES


@<TRIPOS>ATOM
  1 O        0.4590     0.0370     1.8620 O.3   1 <1>  -0.5600 
  2 C        1.5150    -0.5100     1.1030 C.3   1 <1>   0.4240 
  3 C       -0.8420    -0.2500     1.4550 C.3   1 <1>   0.1200 
  4 C        1.2000    -1.9510     0.6410 C.ar  1 <1>  -0.1440 
  5 C        1.7710     0.4080    -0.1020 C.3   1 <1>  -0.1600 
  6 C        2.7320    -0.5060     2.0360 C.3   1 <1>  -0.1600 
  7 C       -1.0960    -1.7430     1.6360 C.3   1 <1>  -0.0160 
  8 C       -0.0370    -2.5340     0.8970 C.ar  1 <1>  -0.1440 
  9 C        2.1510    -2.6920    -0.0510 C.ar  1 <1>  -0.1500 
 10 C        2.1530     1.8220     0.3340 C.3   1 <1>   0.2090 
 11 C        3.1450     0.9100     2.4420 C.3   1 <1>   0.2090 
 12 C       -0.3030    -3.8270     0.4780 C.ar  1 <1>  -0.1500 
 13 C        1.8860    -3.9830    -0.4720 C.ar  1 <1>  -0.1500 
 14 N        3.3190     1.7730     1.2450 N.pl3 1 <1>  -0.8380 
 15 C        0.6500    -4.5610    -0.2060 C.ar  1 <1>   0.0820 
 16 C        4.5800     1.9200     0.6970 C.ar  1 <1>   0.4100 
 17 O        0.3050    -5.8190    -0.5800 O.3   1 <1>  -0.3630 
 18 N        5.1690     0.8060     0.2750 N.ar  1 <1>  -0.6200 
 19 C        5.1650     3.1900     0.5980 C.ar  1 <1>  -0.1430 
 20 C        1.2110    -6.6500    -1.2690 C.3   1 <1>   0.0400 
 21 C        6.3670     0.9520    -0.2600 C.ar  1 <1>   0.1600 
 22 C        6.4150     3.3140     0.0340 C.ar  1 <1>  -0.1500 
 23 C        4.4410     4.4290     1.1100 C.3   1 <1>  -0.0970 
 24 C        7.0260     2.1580    -0.4050 C.ar  1 <1>  -0.1500 
 25 H       -0.9650     0.0420     0.4270 H     1 <1>   0.0800 
 26 H       -1.5140     0.3230     2.0690 H     1 <1>   0.0800 
 27 H        0.9080     0.4370    -0.7380 H     1 <1>   0.0800 
 28 H        2.5810     0.0140    -0.6860 H     1 <1>   0.0800 
 29 H        3.5700    -0.9660     1.5510 H     1 <1>   0.0800 
 30 H        2.5090    -1.0860     2.9110 H     1 <1>   0.0800 
 31 H       -2.0730    -1.9860     1.2570 H     1 <1>   0.0800 
 32 H       -1.0670    -1.9880     2.6820 H     1 <1>   0.0800 
 33 H        3.1150    -2.2640    -0.2710 H     1 <1>   0.1500 
 34 H        1.3270     2.2880     0.8440 H     1 <1>   0.0800 
 35 H        2.3960     2.4140    -0.5320 H     1 <1>   0.0800 
 36 H        4.0680     0.8730     2.9950 H     1 <1>   0.0800 
 37 H        2.3890     1.3420     3.0760 H     1 <1>   0.0800 
 38 H       -1.2560    -4.2830     0.6790 H     1 <1>   0.1500 
 39 H        2.6500    -4.5180    -1.0020 H     1 <1>   0.1500 
 40 H        0.7260    -7.5920    -1.4530 H     1 <1>   0.0800 
 41 H        2.0820    -6.8000    -0.6560 H     1 <1>   0.0800 
 42 H        1.4710    -6.1840    -2.2030 H     1 <1>   0.0800 
 43 H        6.8530     0.0560    -0.6040 H     1 <1>   0.1500 
 44 H        6.9030     4.2670    -0.0640 H     1 <1>   0.1500 
 45 H        4.1550     4.2830     2.1360 H     1 <1>   0.0800 
 46 H        3.5550     4.5990     0.5280 H     1 <1>   0.0800 
 47 H        5.0680     5.3000     1.0500 H     1 <1>   0.0800 
 48 H        8.0020     2.1930    -0.8520 H     1 <1>   0.1500 
@<TRIPOS>BOND
  1   1   2  1   
  2   1   3  1   
  3   2   4  1   
  4   2   5  1   
  5   2   6  1   
  6   3   7  1   
  7   3  25  1   
  8   3  26  1   
  9   4   8  ar  
 10   4   9  ar  
 11   5  10  1   
 12   5  27  1   
 13   5  28  1   
 14   6  11  1   
 15   6  29  1   
 16   6  30  1   
 17   7   8  1   
 18   7  31  1   
 19   7  32  1   
 20   8  12  ar  
 21   9  13  ar  
 22   9  33  1   
 23  10  14  1   
 24  10  34  1   
 25  10  35  1   
 26  11  14  1   
 27  11  36  1   
 28  11  37  1   
 29  12  15  ar  
 30  12  38  1   
 31  13  15  ar  
 32  13  39  1   
 33  14  16  1   
 34  15  17  1   
 35  16  18  ar  
 36  16  19  ar  
 37  17  20  1   
 38  18  21  ar  
 39  19  22  ar  
 40  19  23  1   
 41  20  40  1   
 42  20  41  1   
 43  20  42  1   
 44  21  24  ar  
 45  21  43  1   
 46  22  24  ar  
 47  22  44  1   
 48  23  45  1   
 49  23  46  1   
 50  23  47  1   
 51  24  48  1   
@<TRIPOS>SUBSTRUCTURE
  1 ****   2 GROUP 4 **** **** 0

# MOE 2024.06 (io_trps.svl 2023.06)
