@<TRIPOS>MOLECULE
NONAME
52 54 1 0 0 
SMALL
USER_CHARGES


@<TRIPOS>ATOM
  1 CL      -0.2590     1.2100     2.0450 Cl    1 <1>  -0.1770 
  2 C       -0.2140     2.7810     1.2870 C.ar  1 <1>   0.1770 
  3 C        0.4160     2.9270     0.0660 C.ar  1 <1>  -0.1500 
  4 C       -0.8100     3.8560     1.9190 C.ar  1 <1>  -0.1500 
  5 C        0.4500     4.1750    -0.5340 C.ar  1 <1>  -0.1500 
  6 C       -0.7730     5.1020     1.3150 C.ar  1 <1>  -0.1500 
  7 C       -0.1440     5.2670     0.0870 C.ar  1 <1>  -0.1430 
  8 C       -0.1000     6.6340    -0.5700 C.3   1 <1>   0.2840 
  9 N        1.1370     7.3040    -0.1310 N.am  1 <1>  -0.7300 
 10 C        1.6400     8.4140    -0.7120 C.2   1 <1>   0.5690 
 11 O        1.0880     8.9590    -1.6340 O.2   1 <1>  -0.5700 
 12 C        2.9360     8.9900    -0.1910 C.3   1 <1>  -0.0990 
 13 C        3.2040    10.3360    -0.8690 C.3   1 <1>   0.3430 
 14 N        4.4400    10.9920    -0.3430 N.4   1 <1>  -0.9590 
 15 C        4.4620    12.4280    -0.7810 C.3   1 <1>   0.3430 
 16 C        5.6840    10.2870    -0.7770 C.3   1 <1>   0.3430 
 17 C        5.6590    13.1740    -0.1780 C.3   1 <1>  -0.0190 
 18 C        6.9060    10.9670    -0.1570 C.3   1 <1>  -0.1600 
 19 C        5.6700    14.6140    -0.6910 C.2   1 <1>   0.4230 
 20 C        6.9780    12.4560    -0.5240 C.3   1 <1>  -0.1600 
 21 O        5.1620    14.8010    -1.7710 O.2   1 <1>  -0.5700 
 22 C        6.2730    15.6670     0.1130 C.ar  1 <1>   0.3960 
 23 N        6.7770    15.3580     1.3190 N.ar  1 <1>  -0.6200 
 24 C        6.3180    16.9740    -0.3790 C.ar  1 <1>  -0.1500 
 25 C        7.3160    16.3420     2.0160 C.ar  1 <1>   0.1600 
 26 C        6.8820    17.9910     0.3570 C.ar  1 <1>  -0.1500 
 27 C        7.3940    17.6560     1.5900 C.ar  1 <1>  -0.1500 
 28 H        0.8710     2.0740    -0.4050 H     1 <1>   0.1500 
 29 H       -1.2950     3.7150     2.8680 H     1 <1>   0.1500 
 30 H        0.9410     4.2930    -1.4850 H     1 <1>   0.1500 
 31 H       -1.2380     5.9410     1.8050 H     1 <1>   0.1500 
 32 H       -0.9530     7.2220    -0.2780 H     1 <1>   0.0800 
 33 H       -0.1040     6.5390    -1.6440 H     1 <1>   0.0800 
 34 H        1.6090     6.8200     0.6360 H     1 <1>   0.3700 
 35 H        3.7200     8.2900    -0.4070 H     1 <1>   0.0800 
 36 H        2.8470     9.1220     0.8710 H     1 <1>   0.0800 
 37 H        2.3530    10.9760    -0.6950 H     1 <1>   0.0800 
 38 H        3.2850    10.1910    -1.9350 H     1 <1>   0.0800 
 39 H        4.4080    10.9840     0.6840 H     1 <1>   0.4500 
 40 H        3.5520    12.9220    -0.4800 H     1 <1>   0.0800 
 41 H        4.5240    12.4790    -1.8570 H     1 <1>   0.0800 
 42 H        5.7640    10.3170    -1.8520 H     1 <1>   0.0800 
 43 H        5.6570     9.2550    -0.4670 H     1 <1>   0.0800 
 44 H        5.5270    13.1850     0.8890 H     1 <1>   0.0800 
 45 H        7.7970    10.4740    -0.5080 H     1 <1>   0.0800 
 46 H        6.8780    10.8520     0.9130 H     1 <1>   0.0800 
 47 H        7.7960    12.9200     0.0030 H     1 <1>   0.0800 
 48 H        7.1720    12.5550    -1.5800 H     1 <1>   0.0800 
 49 H        5.9060    17.1870    -1.3500 H     1 <1>   0.1500 
 50 H        7.7220    16.0950     2.9840 H     1 <1>   0.1500 
 51 H        6.9220    19.0020    -0.0130 H     1 <1>   0.1500 
 52 H        7.8490    18.4020     2.2160 H     1 <1>   0.1500 
@<TRIPOS>BOND
  1   1   2  1   
  2   2   3  ar  
  3   2   4  ar  
  4   3   5  ar  
  5   3  28  1   
  6   4   6  ar  
  7   4  29  1   
  8   5   7  ar  
  9   5  30  1   
 10   6   7  ar  
 11   6  31  1   
 12   7   8  1   
 13   8   9  1   
 14   8  32  1   
 15   8  33  1   
 16   9  10  am  
 17   9  34  1   
 18  10  11  2   
 19  10  12  1   
 20  12  13  1   
 21  12  35  1   
 22  12  36  1   
 23  13  14  1   
 24  13  37  1   
 25  13  38  1   
 26  14  15  1   
 27  14  16  1   
 28  14  39  1   
 29  15  17  1   
 30  15  40  1   
 31  15  41  1   
 32  16  18  1   
 33  16  42  1   
 34  16  43  1   
 35  17  19  1   
 36  17  20  1   
 37  17  44  1   
 38  18  20  1   
 39  18  45  1   
 40  18  46  1   
 41  19  21  2   
 42  19  22  1   
 43  20  47  1   
 44  20  48  1   
 45  22  23  ar  
 46  22  24  ar  
 47  23  25  ar  
 48  24  26  ar  
 49  24  49  1   
 50  25  27  ar  
 51  25  50  1   
 52  26  27  ar  
 53  26  51  1   
 54  27  52  1   
@<TRIPOS>SUBSTRUCTURE
  1 ****  13 GROUP 4 **** **** 0

# MOE 2024.06 (io_trps.svl 2023.06)
