@<TRIPOS>MOLECULE
NONAME
58 61 1 0 0 
SMALL
USER_CHARGES


@<TRIPOS>ATOM
  1 O       -0.4730    -1.4820    -0.8290 O.3   1 <1>  -0.6800 
  2 C        0.5530    -2.4060    -0.8860 C.3   1 <1>   0.1200 
  3 C        1.4220    -2.3400     0.4090 C.3   1 <1>   0.0000 
  4 C        2.8590    -2.8540     0.1210 C.3   1 <1>   0.4230 
  5 C        1.5500    -0.8870     0.9450 C.3   1 <1>  -0.1600 
  6 C        0.7700    -3.1990     1.5280 C.3   1 <1>  -0.1600 
  7 N        2.9040    -4.3260    -0.3000 N.4   1 <1>  -0.9590 
  8 C        3.6290    -1.8620    -0.8180 C.3   1 <1>   0.3430 
  9 C        2.1790     0.0560    -0.0750 C.3   1 <1>   0.3430 
 10 C        1.3650    -4.6140     1.6510 C.3   1 <1>  -0.1600 
 11 C        1.8120    -5.1720     0.3020 C.3   1 <1>   0.3430 
 12 C        2.9680    -4.6140    -1.7740 C.3   1 <1>   0.2630 
 13 N        3.5680    -0.4150    -0.3830 N.4   1 <1>  -0.9590 
 14 C        4.2120     0.5060    -1.3690 C.3   1 <1>   0.5240 
 15 C        4.3650     1.8540    -0.7060 C.2   1 <1>  -0.1810 
 16 C        5.3380     2.2290     0.2160 C.2   1 <1>   0.1080 
 17 C        3.6010     2.9590    -0.8570 C.2   1 <1>  -0.3020 
 18 N        5.1740     3.4430     0.6150 N.2   1 <1>  -0.7070 
 19 C        6.4900     1.3970     0.7420 C.3   1 <1>  -0.0590 
 20 N        4.0960     3.9320    -0.0480 N.pl3 1 <1>   0.5930 
 21 C        3.6030     5.2610     0.1090 C.ar  1 <1>  -0.0230 
 22 C        2.2480     5.5530    -0.0420 C.ar  1 <1>  -0.1500 
 23 C        4.4720     6.3040     0.4200 C.ar  1 <1>  -0.1500 
 24 C        1.7810     6.8470     0.1030 C.ar  1 <1>  -0.1500 
 25 C        4.0060     7.5990     0.5670 C.ar  1 <1>  -0.1500 
 26 C        2.6600     7.8720     0.4060 C.ar  1 <1>  -0.1500 
 27 H       -1.1920    -1.6800    -1.4690 H     1 <1>   0.4000 
 28 H        0.1090    -3.3800    -1.0060 H     1 <1>   0.0800 
 29 H        1.1200    -2.1780    -1.7710 H     1 <1>   0.0800 
 30 H        3.3670    -2.8040     1.0700 H     1 <1>   0.0800 
 31 H        2.1330    -0.8600     1.8500 H     1 <1>   0.0800 
 32 H        0.5780    -0.5020     1.2060 H     1 <1>   0.0800 
 33 H        0.8720    -2.7240     2.4900 H     1 <1>   0.0800 
 34 H       -0.2920    -3.2710     1.3500 H     1 <1>   0.0800 
 35 H        3.7700    -4.7140     0.1100 H     1 <1>   0.4500 
 36 H        3.2050    -1.9340    -1.8050 H     1 <1>   0.0800 
 37 H        4.6610    -2.1680    -0.8720 H     1 <1>   0.0800 
 38 H        2.2060     1.0550     0.3340 H     1 <1>   0.0800 
 39 H        1.5760     0.0780    -0.9700 H     1 <1>   0.0800 
 40 H        0.6220    -5.2690     2.0750 H     1 <1>   0.0800 
 41 H        2.2010    -4.6110     2.3290 H     1 <1>   0.0800 
 42 H        0.9580    -5.1950    -0.3560 H     1 <1>   0.0800 
 43 H        2.1570    -6.1870     0.4260 H     1 <1>   0.0800 
 44 H        2.0830    -4.2530    -2.2720 H     1 <1>   0.0800 
 45 H        3.0360    -5.6780    -1.9420 H     1 <1>   0.0800 
 46 H        3.8350    -4.1530    -2.2200 H     1 <1>   0.0800 
 47 H        4.1070    -0.2710     0.4840 H     1 <1>   0.4500 
 48 H        5.1840     0.1400    -1.6580 H     1 <1>   0.0800 
 49 H        3.6010     0.6010    -2.2530 H     1 <1>   0.0800 
 50 H        2.7460     3.1360    -1.4830 H     1 <1>   0.1500 
 51 H        6.7050     0.5650     0.0990 H     1 <1>   0.0800 
 52 H        6.2630     1.0450     1.7320 H     1 <1>   0.0800 
 53 H        7.3690     2.0140     0.8010 H     1 <1>   0.0800 
 54 H        1.5440     4.7740    -0.2710 H     1 <1>   0.1500 
 55 H        5.5220     6.1010     0.5510 H     1 <1>   0.1500 
 56 H        0.7330     7.0610    -0.0180 H     1 <1>   0.1500 
 57 H        4.6920     8.3930     0.8060 H     1 <1>   0.1500 
 58 H        2.2970     8.8790     0.5200 H     1 <1>   0.1500 
@<TRIPOS>BOND
  1   1   2  1   
  2   1  27  1   
  3   2   3  1   
  4   2  28  1   
  5   2  29  1   
  6   3   4  1   
  7   3   5  1   
  8   3   6  1   
  9   4   7  1   
 10   4   8  1   
 11   4  30  1   
 12   5   9  1   
 13   5  31  1   
 14   5  32  1   
 15   6  10  1   
 16   6  33  1   
 17   6  34  1   
 18   7  11  1   
 19   7  12  1   
 20   7  35  1   
 21   8  13  1   
 22   8  36  1   
 23   8  37  1   
 24   9  13  1   
 25   9  38  1   
 26   9  39  1   
 27  10  11  1   
 28  10  40  1   
 29  10  41  1   
 30  11  42  1   
 31  11  43  1   
 32  12  44  1   
 33  12  45  1   
 34  12  46  1   
 35  13  14  1   
 36  13  47  1   
 37  14  15  1   
 38  14  48  1   
 39  14  49  1   
 40  15  16  1   
 41  15  17  2   
 42  16  18  2   
 43  16  19  1   
 44  17  20  1   
 45  17  50  1   
 46  18  20  1   
 47  19  51  1   
 48  19  52  1   
 49  19  53  1   
 50  20  21  1   
 51  21  22  ar  
 52  21  23  ar  
 53  22  24  ar  
 54  22  54  1   
 55  23  25  ar  
 56  23  55  1   
 57  24  26  ar  
 58  24  56  1   
 59  25  26  ar  
 60  25  57  1   
 61  26  58  1   
@<TRIPOS>SUBSTRUCTURE
  1 ****   9 GROUP 4 **** **** 0

# MOE 2024.06 (io_trps.svl 2023.06)
