@<TRIPOS>MOLECULE
NONAME
53 56 1 0 0 
SMALL
USER_CHARGES


@<TRIPOS>ATOM
  1 O        1.0400     0.5510    -0.1320 O.3   1 <1>  -0.6800 
  2 C        2.1160     0.0670    -0.8660 C.3   1 <1>   0.2000 
  3 C        2.5960    -1.2200    -0.1980 C.3   1 <1>  -0.0800 
  4 C        3.2920     1.0400    -0.6860 C.3   1 <1>   0.3430 
  5 C        3.3810    -0.6710     0.9960 C.3   1 <1>   0.3430 
  6 C        3.4660    -2.0620    -1.1600 C.3   1 <1>  -0.0160 
  7 N        4.0870     0.5230     0.4730 N.4   1 <1>  -0.9590 
  8 C        4.1540    -3.2230    -0.4580 C.ar  1 <1>   0.1670 
  9 C        4.3740     1.5330     1.5200 C.3   1 <1>   0.4860 
 10 N        5.2780    -2.9330     0.1800 N.ar  1 <1>  -0.6200 
 11 C        3.6020    -4.5020    -0.5090 C.ar  1 <1>   0.1600 
 12 C        4.9360     2.8140     0.9010 C.ar  1 <1>  -0.1430 
 13 C        5.8090    -4.0020     0.7560 C.ar  1 <1>   0.1600 
 14 N        4.1280    -5.5640     0.0740 N.ar  1 <1>  -0.6200 
 15 C        6.1530     2.8310     0.1910 C.ar  1 <1>  -0.0230 
 16 C        4.2140     3.9950     1.0660 C.ar  1 <1>  -0.1430 
 17 C        5.2520    -5.2740     0.7060 C.ar  1 <1>   0.1600 
 18 N        6.9300     1.6590    -0.0970 N.pl3 1 <1>   0.5930 
 19 C        6.6230     4.0520    -0.2870 C.ar  1 <1>  -0.1500 
 20 C        4.7060     5.1840     0.5550 C.ar  1 <1>  -0.1500 
 21 C        2.8790     4.0470     1.8060 C.3   1 <1>  -0.0970 
 22 N        6.9330     0.5260     0.6610 N.2   1 <1>  -0.7070 
 23 C        7.6330     1.4250    -1.2350 C.2   1 <1>  -0.3020 
 24 C        5.9110     5.2210    -0.1170 C.ar  1 <1>  -0.1430 
 25 C        7.6430    -0.3420     0.0110 C.2   1 <1>   0.1390 
 26 C        8.1080     0.1640    -1.1930 C.2   1 <1>  -0.1500 
 27 C        6.4410     6.5400    -0.6520 C.3   1 <1>  -0.0970 
 28 H        0.2100     0.0800    -0.3590 H     1 <1>   0.4000 
 29 H        1.8160    -0.0400    -1.8950 H     1 <1>   0.0800 
 30 H        1.7720    -1.8240     0.1420 H     1 <1>   0.0800 
 31 H        2.9250     2.0380    -0.5080 H     1 <1>   0.0800 
 32 H        3.9090     1.0430    -1.5680 H     1 <1>   0.0800 
 33 H        4.0660    -1.3890     1.4160 H     1 <1>   0.0800 
 34 H        2.6800    -0.3680     1.7580 H     1 <1>   0.0800 
 35 H        4.2280    -1.4560    -1.6190 H     1 <1>   0.0800 
 36 H        2.8480    -2.4450    -1.9540 H     1 <1>   0.0800 
 37 H        5.0270     0.2050     0.1640 H     1 <1>   0.4500 
 38 H        3.4710     1.7470     2.0640 H     1 <1>   0.0800 
 39 H        5.0930     1.1350     2.2180 H     1 <1>   0.0800 
 40 H        2.6870    -4.6580    -1.0530 H     1 <1>   0.1500 
 41 H        6.7290    -3.8690     1.2970 H     1 <1>   0.1500 
 42 H        5.7560    -6.0820     1.2070 H     1 <1>   0.1500 
 43 H        7.5670     4.1000    -0.8030 H     1 <1>   0.1500 
 44 H        4.1540     6.0990     0.6850 H     1 <1>   0.1500 
 45 H        2.4550     5.0350     1.7670 H     1 <1>   0.0800 
 46 H        3.0170     3.7920     2.8420 H     1 <1>   0.0800 
 47 H        2.1700     3.3710     1.3620 H     1 <1>   0.0800 
 48 H        7.7540     2.1630    -2.0060 H     1 <1>   0.1500 
 49 H        7.8410    -1.3430     0.3640 H     1 <1>   0.1500 
 50 H        8.7120    -0.3620    -1.9120 H     1 <1>   0.1500 
 51 H        5.6360     7.1350    -1.0440 H     1 <1>   0.0800 
 52 H        7.1540     6.3750    -1.4400 H     1 <1>   0.0800 
 53 H        6.9220     7.0870     0.1390 H     1 <1>   0.0800 
@<TRIPOS>BOND
  1   1   2  1   
  2   1  28  1   
  3   2   3  1   
  4   2   4  1   
  5   2  29  1   
  6   3   5  1   
  7   3   6  1   
  8   3  30  1   
  9   4   7  1   
 10   4  31  1   
 11   4  32  1   
 12   5   7  1   
 13   5  33  1   
 14   5  34  1   
 15   6   8  1   
 16   6  35  1   
 17   6  36  1   
 18   7   9  1   
 19   7  37  1   
 20   8  10  ar  
 21   8  11  ar  
 22   9  12  1   
 23   9  38  1   
 24   9  39  1   
 25  10  13  ar  
 26  11  14  ar  
 27  11  40  1   
 28  12  15  ar  
 29  12  16  ar  
 30  13  17  ar  
 31  13  41  1   
 32  14  17  ar  
 33  15  18  1   
 34  15  19  ar  
 35  16  20  ar  
 36  16  21  1   
 37  17  42  1   
 38  18  22  1   
 39  18  23  1   
 40  19  24  ar  
 41  19  43  1   
 42  20  24  ar  
 43  20  44  1   
 44  21  45  1   
 45  21  46  1   
 46  21  47  1   
 47  22  25  2   
 48  23  26  2   
 49  23  48  1   
 50  24  27  1   
 51  25  26  1   
 52  25  49  1   
 53  26  50  1   
 54  27  51  1   
 55  27  52  1   
 56  27  53  1   
@<TRIPOS>SUBSTRUCTURE
  1 ****   7 GROUP 4 **** **** 0

# MOE 2024.06 (io_trps.svl 2023.06)
