@<TRIPOS>MOLECULE
NONAME
25 25 1 0 0 
SMALL
USER_CHARGES


@<TRIPOS>ATOM
  1 O       -0.4530    -0.3720    -0.7790 O.3   1 <1>  -0.3630 
  2 C       -0.2040    -1.6170    -0.3270 C.ar  1 <1>   0.3920 
  3 C       -1.7030     0.2490    -0.5420 C.3   1 <1>   0.0400 
  4 N       -1.1390    -2.2590     0.3610 N.ar  1 <1>  -0.6200 
  5 C        1.0430    -2.1480    -0.6200 C.ar  1 <1>  -0.1500 
  6 C       -0.8210    -3.4740     0.7660 C.ar  1 <1>   0.1600 
  7 C        1.3750    -3.4170    -0.1890 C.ar  1 <1>  -0.1440 
  8 C        0.3960    -4.0900     0.5270 C.ar  1 <1>  -0.1500 
  9 C        2.7450    -3.9980    -0.4940 C.3   1 <1>   0.5660 
 10 N        3.4830    -4.1050     0.7720 N.4   1 <1>  -0.8530 
 11 C        2.6910    -5.3820    -1.1820 C.3   1 <1>   0.1200 
 12 O        3.8290    -6.1260    -0.8420 O.3   1 <1>  -0.6800 
 13 H       -1.6860     1.2270    -0.9890 H     1 <1>   0.0800 
 14 H       -1.8570     0.3290     0.5200 H     1 <1>   0.0800 
 15 H       -2.4790    -0.3480    -0.9890 H     1 <1>   0.0800 
 16 H        1.7230    -1.5370    -1.1870 H     1 <1>   0.1500 
 17 H       -1.5760    -4.0070     1.3220 H     1 <1>   0.1500 
 18 H        0.5450    -5.0860     0.9050 H     1 <1>   0.1500 
 19 H        3.2720    -3.3270    -1.1530 H     1 <1>   0.0800 
 20 H        2.8480    -4.3640     1.5290 H     1 <1>   0.4500 
 21 H        3.9700    -3.2380     1.0060 H     1 <1>   0.4500 
 22 H        4.1560    -4.8760     0.6240 H     1 <1>   0.4500 
 23 H        2.6570    -5.2630    -2.2520 H     1 <1>   0.0800 
 24 H        1.8240    -5.9400    -0.8730 H     1 <1>   0.0800 
 25 H        3.8630    -6.9730    -1.3470 H     1 <1>   0.4000 
@<TRIPOS>BOND
  1   1   2  1   
  2   1   3  1   
  3   2   4  ar  
  4   2   5  ar  
  5   3  13  1   
  6   3  14  1   
  7   3  15  1   
  8   4   6  ar  
  9   5   7  ar  
 10   5  16  1   
 11   6   8  ar  
 12   6  17  1   
 13   7   8  ar  
 14   7   9  1   
 15   8  18  1   
 16   9  10  1   
 17   9  11  1   
 18   9  19  1   
 19  10  20  1   
 20  10  21  1   
 21  10  22  1   
 22  11  12  1   
 23  11  23  1   
 24  11  24  1   
 25  12  25  1   
@<TRIPOS>SUBSTRUCTURE
  1 ****   7 GROUP 4 **** **** 0

# MOE 2024.06 (io_trps.svl 2023.06)
