@<TRIPOS>MOLECULE
NONAME
53 55 1 0 0 
SMALL
USER_CHARGES


@<TRIPOS>ATOM
  1 O       -2.1330     1.0080     0.3250 O.3   1 <1>  -0.3630 
  2 C       -1.1970     1.9780     0.5610 C.ar  1 <1>   0.0830 
  3 C       -1.7840    -0.3600     0.4090 C.3   1 <1>   0.0400 
  4 C        0.1390     1.9050     0.1320 C.ar  1 <1>   0.0830 
  5 C       -1.6380     3.1010     1.2570 C.ar  1 <1>  -0.1440 
  6 O        0.5480     0.8360    -0.6100 O.3   1 <1>  -0.3620 
  7 C        1.0100     2.9430     0.4530 C.ar  1 <1>  -0.1500 
  8 C       -0.7550     4.1250     1.5620 C.ar  1 <1>  -0.1500 
  9 C       -3.0900     3.2130     1.6820 C.3   1 <1>   0.4860 
 10 C        1.8650     0.7200    -1.1050 C.3   1 <1>   0.0400 
 11 C        0.5660     4.0420     1.1640 C.ar  1 <1>  -0.1500 
 12 N       -3.9310     3.1500     0.4650 N.4   1 <1>  -0.9590 
 13 C       -5.3630     2.8810     0.7790 C.3   1 <1>   0.3430 
 14 C       -3.7500     4.3250    -0.4280 C.3   1 <1>   0.3430 
 15 C       -6.1700     2.6040    -0.5070 C.3   1 <1>   0.0000 
 16 C       -4.5110     4.0970    -1.7360 C.3   1 <1>  -0.1600 
 17 C       -7.6450     2.3780    -0.1410 C.3   1 <1>   0.2000 
 18 C       -5.9960     3.7790    -1.4920 C.3   1 <1>  -0.1600 
 19 C       -5.7700     1.2520    -1.1220 C.3   1 <1>  -0.1600 
 20 O       -8.0020     3.2020     0.9270 O.3   1 <1>  -0.5600 
 21 C       -7.7650     0.8970     0.2450 C.3   1 <1>  -0.1600 
 22 C       -6.5050     0.2020    -0.2880 C.3   1 <1>  -0.1600 
 23 C       -9.3770     3.3420     1.1220 C.3   1 <1>   0.0400 
 24 H       -2.6720    -0.9250     0.6290 H     1 <1>   0.0800 
 25 H       -1.0580    -0.4960     1.1910 H     1 <1>   0.0800 
 26 H       -1.3820    -0.6770    -0.5370 H     1 <1>   0.0800 
 27 H        2.0420     2.9210     0.1560 H     1 <1>   0.1500 
 28 H       -1.0790     4.9940     2.1100 H     1 <1>   0.1500 
 29 H       -3.2630     4.1350     2.2120 H     1 <1>   0.0800 
 30 H       -3.3260     2.3880     2.3340 H     1 <1>   0.0800 
 31 H        1.9330    -0.1960    -1.6640 H     1 <1>   0.0800 
 32 H        2.5500     0.6920    -0.2760 H     1 <1>   0.0800 
 33 H        2.0720     1.5550    -1.7510 H     1 <1>   0.0800 
 34 H        1.2540     4.8350     1.4060 H     1 <1>   0.1500 
 35 H       -3.5580     2.3260    -0.0370 H     1 <1>   0.4500 
 36 H       -5.4480     2.0310     1.4360 H     1 <1>   0.0800 
 37 H       -5.7890     3.7340     1.2820 H     1 <1>   0.0800 
 38 H       -4.1250     5.2120     0.0570 H     1 <1>   0.0800 
 39 H       -2.7020     4.4700    -0.6430 H     1 <1>   0.0800 
 40 H       -4.4330     4.9810    -2.3440 H     1 <1>   0.0800 
 41 H       -4.0440     3.2950    -2.2820 H     1 <1>   0.0800 
 42 H       -8.2720     2.5960    -0.9910 H     1 <1>   0.0800 
 43 H       -6.4790     3.5570    -2.4290 H     1 <1>   0.0800 
 44 H       -6.4770     4.6510    -1.0820 H     1 <1>   0.0800 
 45 H       -6.1330     1.1960    -2.1350 H     1 <1>   0.0800 
 46 H       -4.7080     1.0760    -1.1370 H     1 <1>   0.0800 
 47 H       -7.8270     0.7770     1.3130 H     1 <1>   0.0800 
 48 H       -8.6440     0.4740    -0.2100 H     1 <1>   0.0800 
 49 H       -5.8880    -0.1110     0.5380 H     1 <1>   0.0800 
 50 H       -6.7510    -0.6640    -0.8790 H     1 <1>   0.0800 
 51 H       -9.5330     3.9960     1.9620 H     1 <1>   0.0800 
 52 H       -9.8130     2.3800     1.3290 H     1 <1>   0.0800 
 53 H       -9.8200     3.7750     0.2420 H     1 <1>   0.0800 
@<TRIPOS>BOND
  1   1   2  1   
  2   1   3  1   
  3   2   4  ar  
  4   2   5  ar  
  5   3  24  1   
  6   3  25  1   
  7   3  26  1   
  8   4   6  1   
  9   4   7  ar  
 10   5   8  ar  
 11   5   9  1   
 12   6  10  1   
 13   7  11  ar  
 14   7  27  1   
 15   8  11  ar  
 16   8  28  1   
 17   9  12  1   
 18   9  29  1   
 19   9  30  1   
 20  10  31  1   
 21  10  32  1   
 22  10  33  1   
 23  11  34  1   
 24  12  13  1   
 25  12  14  1   
 26  12  35  1   
 27  13  15  1   
 28  13  36  1   
 29  13  37  1   
 30  14  16  1   
 31  14  38  1   
 32  14  39  1   
 33  15  17  1   
 34  15  18  1   
 35  15  19  1   
 36  16  18  1   
 37  16  40  1   
 38  16  41  1   
 39  17  20  1   
 40  17  21  1   
 41  17  42  1   
 42  18  43  1   
 43  18  44  1   
 44  19  22  1   
 45  19  45  1   
 46  19  46  1   
 47  20  23  1   
 48  21  22  1   
 49  21  47  1   
 50  21  48  1   
 51  22  49  1   
 52  22  50  1   
 53  23  51  1   
 54  23  52  1   
 55  23  53  1   
@<TRIPOS>SUBSTRUCTURE
  1 ****  12 GROUP 4 **** **** 0

# MOE 2024.06 (io_trps.svl 2023.06)
