@<TRIPOS>MOLECULE
NONAME
37 39 1 0 0 
SMALL
USER_CHARGES


@<TRIPOS>ATOM
  1 O        1.4950    -0.4380    -2.0780 O.2   1 <1>  -0.5700 
  2 C        1.5630    -1.1780    -1.1100 C.2   1 <1>   0.5440 
  3 N        1.6500    -0.5700     0.1330 N.am  1 <1>  -0.6600 
  4 C        1.5680    -2.6290    -1.3340 C.ar  1 <1>   0.3960 
  5 C        1.7450     0.8980     0.2960 C.3   1 <1>   0.1400 
  6 C        1.8050    -1.2510     1.4400 C.3   1 <1>   0.1400 
  7 N        1.1650    -3.4890    -0.3810 N.ar  1 <1>  -0.6200 
  8 C        1.9970    -3.0910    -2.5850 C.ar  1 <1>   0.1600 
  9 C        2.3420     1.0960     1.6830 C.3   1 <1>  -0.1600 
 10 C        1.8910    -0.1300     2.4710 C.3   1 <1>  -0.1600 
 11 C        1.2250    -4.7510    -0.7430 C.ar  1 <1>   0.4100 
 12 N        2.0690    -4.3620    -2.9630 N.ar  1 <1>  -0.6200 
 13 N        0.8020    -5.6200     0.2230 N.pl3 1 <1>  -0.8690 
 14 C        1.6760    -5.1710    -2.0020 C.ar  1 <1>   0.1600 
 15 C       -0.4330    -6.3970    -0.0050 C.3   1 <1>   0.2890 
 16 C       -1.6210    -5.6680     0.6160 C.3   1 <1>   0.1200 
 17 C       -0.3790    -7.6390     0.8540 C.3   1 <1>  -0.1600 
 18 O       -1.5770    -5.9600     1.9810 O.3   1 <1>  -0.5600 
 19 C       -0.8880    -7.1530     2.2110 C.3   1 <1>   0.1200 
 20 H        0.7550     1.3180     0.2440 H     1 <1>   0.0800 
 21 H        2.3640     1.3370    -0.4690 H     1 <1>   0.0800 
 22 H        2.7110    -1.8330     1.4340 H     1 <1>   0.0800 
 23 H        0.9620    -1.8900     1.6430 H     1 <1>   0.0800 
 24 H        2.3010    -2.3610    -3.3150 H     1 <1>   0.1500 
 25 H        2.0150     2.0170     2.1310 H     1 <1>   0.0800 
 26 H        3.4150     1.1050     1.6020 H     1 <1>   0.0800 
 27 H        2.5650    -0.3750     3.2720 H     1 <1>   0.0800 
 28 H        0.9100     0.0410     2.8800 H     1 <1>   0.0800 
 29 H        0.7110    -5.1320     1.1210 H     1 <1>   0.4000 
 30 H        1.7040    -6.2270    -2.1930 H     1 <1>   0.1500 
 31 H       -0.5770    -6.6100    -1.0510 H     1 <1>   0.0800 
 32 H       -2.5470    -6.0530     0.2280 H     1 <1>   0.0800 
 33 H       -1.5750    -4.6030     0.4700 H     1 <1>   0.0800 
 34 H        0.6070    -8.0650     0.9120 H     1 <1>   0.0800 
 35 H       -1.0580    -8.3780     0.4710 H     1 <1>   0.0800 
 36 H       -0.0700    -6.9340     2.8760 H     1 <1>   0.0800 
 37 H       -1.5560    -7.8610     2.6710 H     1 <1>   0.0800 
@<TRIPOS>BOND
  1   1   2  2   
  2   2   3  am  
  3   2   4  1   
  4   3   5  1   
  5   3   6  1   
  6   4   7  ar  
  7   4   8  ar  
  8   5   9  1   
  9   5  20  1   
 10   5  21  1   
 11   6  10  1   
 12   6  22  1   
 13   6  23  1   
 14   7  11  ar  
 15   8  12  ar  
 16   8  24  1   
 17   9  10  1   
 18   9  25  1   
 19   9  26  1   
 20  10  27  1   
 21  10  28  1   
 22  11  13  1   
 23  11  14  ar  
 24  12  14  ar  
 25  13  15  1   
 26  13  29  1   
 27  14  30  1   
 28  15  16  1   
 29  15  17  1   
 30  15  31  1   
 31  16  18  1   
 32  16  32  1   
 33  16  33  1   
 34  17  19  1   
 35  17  34  1   
 36  17  35  1   
 37  18  19  1   
 38  19  36  1   
 39  19  37  1   
@<TRIPOS>SUBSTRUCTURE
  1 ****   7 GROUP 4 **** **** 0

# MOE 2024.06 (io_trps.svl 2023.06)
