@<TRIPOS>MOLECULE
NONAME
55 57 1 0 0 
SMALL
USER_CHARGES


@<TRIPOS>ATOM
  1 S        0.0510    -0.6020     1.6420 S.o2  1 <1>   1.4470 
  2 O        0.9070    -1.6030     2.2470 O.2   1 <1>  -0.6500 
  3 O       -0.9810    -0.0230     2.4760 O.2   1 <1>  -0.6500 
  4 N       -0.7120    -1.3850     0.3420 N.am  1 <1>  -0.8490 
  5 C        1.1310     0.6170     0.8360 C.ar  1 <1>  -0.0090 
  6 C       -1.7130    -0.5710    -0.3480 C.3   1 <1>   0.1960 
  7 C       -1.3820    -2.6270     0.7390 C.3   1 <1>   0.1960 
  8 C        0.7550     1.9410     0.6180 C.ar  1 <1>   0.0830 
  9 C        2.3850     0.2150     0.3900 C.ar  1 <1>  -0.1500 
 10 C       -3.0660    -0.9370     0.2650 C.3   1 <1>  -0.0800 
 11 C       -2.8960    -2.4250     0.5940 C.3   1 <1>  -0.0800 
 12 O       -0.4740     2.3370     1.0350 O.3   1 <1>  -0.3630 
 13 C        1.6230     2.8260    -0.0180 C.ar  1 <1>  -0.1500 
 14 C        3.2590     1.0930    -0.2400 C.ar  1 <1>   0.0830 
 15 C       -4.3290    -0.5740    -0.5710 C.3   1 <1>   0.2800 
 16 C       -3.4980    -3.3230    -0.4990 C.3   1 <1>  -0.1600 
 17 C       -0.7870     3.6970     1.2440 C.3   1 <1>   0.0400 
 18 C        2.8720     2.4110    -0.4450 C.ar  1 <1>  -0.1430 
 19 O        4.4950     0.7220    -0.6750 O.3   1 <1>  -0.3630 
 20 O       -4.0330    -0.5960    -1.9210 O.3   1 <1>  -0.6800 
 21 C       -5.4290    -1.6260    -0.3370 C.3   1 <1>  -0.1600 
 22 C       -4.8800     0.8340    -0.2520 C.3   1 <1>  -0.1600 
 23 C       -5.0030    -3.0660    -0.6920 C.3   1 <1>  -0.1600 
 24 C        3.8060     3.3940    -1.1370 C.3   1 <1>  -0.0970 
 25 C        4.9770    -0.5920    -0.4960 C.3   1 <1>   0.0400 
 26 C       -3.9070     2.0030    -0.4810 C.3   1 <1>  -0.2400 
 27 H       -1.5040     0.4790    -0.2780 H     1 <1>   0.0800 
 28 H       -1.6920    -0.8470    -1.3880 H     1 <1>   0.0800 
 29 H       -1.0430    -3.4240     0.0990 H     1 <1>   0.0800 
 30 H       -1.1440    -2.8940     1.7560 H     1 <1>   0.0800 
 31 H        2.6630    -0.8100     0.5510 H     1 <1>   0.1500 
 32 H       -3.1460    -0.4230     1.2050 H     1 <1>   0.0800 
 33 H       -3.3760    -2.6520     1.5300 H     1 <1>   0.0800 
 34 H        1.3340     3.8440    -0.1930 H     1 <1>   0.1500 
 35 H       -2.9920    -3.1190    -1.4280 H     1 <1>   0.0800 
 36 H       -3.3370    -4.3610    -0.2630 H     1 <1>   0.0800 
 37 H       -1.7380     3.7450     1.7440 H     1 <1>   0.0800 
 38 H       -0.8510     4.1920     0.2920 H     1 <1>   0.0800 
 39 H       -0.0270     4.1400     1.8630 H     1 <1>   0.0800 
 40 H       -4.8450    -0.4280    -2.4300 H     1 <1>   0.4000 
 41 H       -5.6850    -1.6030     0.7080 H     1 <1>   0.0800 
 42 H       -6.3210    -1.3680    -0.8800 H     1 <1>   0.0800 
 43 H       -5.7640     1.0040    -0.8410 H     1 <1>   0.0800 
 44 H       -5.1870     0.8560     0.7790 H     1 <1>   0.0800 
 45 H       -5.5670    -3.7510    -0.0830 H     1 <1>   0.0800 
 46 H       -5.2510    -3.2690    -1.7200 H     1 <1>   0.0800 
 47 H        3.3610     4.3690    -1.2180 H     1 <1>   0.0800 
 48 H        4.0380     3.0400    -2.1250 H     1 <1>   0.0800 
 49 H        4.7220     3.4790    -0.5790 H     1 <1>   0.0800 
 50 H        5.9670    -0.6430    -0.9090 H     1 <1>   0.0800 
 51 H        4.3280    -1.2760    -1.0150 H     1 <1>   0.0800 
 52 H        5.0080    -0.8120     0.5570 H     1 <1>   0.0800 
 53 H       -3.5000     1.9750    -1.4770 H     1 <1>   0.0800 
 54 H       -3.1010     1.9660     0.2280 H     1 <1>   0.0800 
 55 H       -4.4220     2.9380    -0.3500 H     1 <1>   0.0800 
@<TRIPOS>BOND
  1   1   2  2   
  2   1   3  2   
  3   1   4  am  
  4   1   5  1   
  5   4   6  1   
  6   4   7  1   
  7   5   8  ar  
  8   5   9  ar  
  9   6  10  1   
 10   6  27  1   
 11   6  28  1   
 12   7  11  1   
 13   7  29  1   
 14   7  30  1   
 15   8  12  1   
 16   8  13  ar  
 17   9  14  ar  
 18   9  31  1   
 19  10  11  1   
 20  10  15  1   
 21  10  32  1   
 22  11  16  1   
 23  11  33  1   
 24  12  17  1   
 25  13  18  ar  
 26  13  34  1   
 27  14  18  ar  
 28  14  19  1   
 29  15  20  1   
 30  15  21  1   
 31  15  22  1   
 32  16  23  1   
 33  16  35  1   
 34  16  36  1   
 35  17  37  1   
 36  17  38  1   
 37  17  39  1   
 38  18  24  1   
 39  19  25  1   
 40  20  40  1   
 41  21  23  1   
 42  21  41  1   
 43  21  42  1   
 44  22  26  1   
 45  22  43  1   
 46  22  44  1   
 47  23  45  1   
 48  23  46  1   
 49  24  47  1   
 50  24  48  1   
 51  24  49  1   
 52  25  50  1   
 53  25  51  1   
 54  25  52  1   
 55  26  53  1   
 56  26  54  1   
 57  26  55  1   
@<TRIPOS>SUBSTRUCTURE
  1 ****   6 GROUP 4 **** **** 0

# MOE 2024.06 (io_trps.svl 2023.06)
