@<TRIPOS>MOLECULE
NONAME
49 52 1 0 0 
SMALL
USER_CHARGES


@<TRIPOS>ATOM
  1 O       -0.0260     1.8000    -1.4570 O.2   1 <1>  -0.5700 
  2 C       -0.3800     2.9180    -1.1580 C.2   1 <1>   0.5690 
  3 N       -1.0140     3.2270     0.0140 N.am  1 <1>  -0.5090 
  4 C       -0.1060     4.0570    -2.1320 C.3   1 <1>   0.1810 
  5 C       -1.4490     4.6350     0.2860 C.3   1 <1>   0.3640 
  6 C       -1.1360     2.2600     1.1310 C.3   1 <1>   0.0490 
  7 O        0.2920     5.2090    -1.4380 O.3   1 <1>  -0.5600 
  8 C       -2.9480     4.8050     0.0060 C.ar  1 <1>  -0.1440 
  9 C       -0.6590     5.7190    -0.5080 C.3   1 <1>   0.2610 
 10 C       -1.8910     0.9900     0.8950 C.3   1 <1>  -0.2000 
 11 C       -2.4570     2.0330     1.8010 C.3   1 <1>  -0.2000 
 12 C       -3.6560     5.7500     0.7370 C.ar  1 <1>  -0.1500 
 13 C       -3.6270     4.0610    -0.9540 C.ar  1 <1>  -0.1500 
 14 C        0.0200     6.6740     0.4810 C.2   1 <1>   0.5690 
 15 C       -5.0070     5.9460     0.5160 C.ar  1 <1>  -0.1500 
 16 C       -4.9790     4.2540    -1.1770 C.ar  1 <1>  -0.1500 
 17 O       -0.6540     7.2510     1.3010 O.2   1 <1>  -0.5700 
 18 N        1.3630     6.8530     0.4260 N.am  1 <1>  -0.7300 
 19 C       -5.6790     5.2030    -0.4390 C.ar  1 <1>   0.0820 
 20 C        2.1470     7.7980     1.2380 C.3   1 <1>   0.3200 
 21 O       -7.0030     5.4540    -0.5920 O.3   1 <1>  -0.3630 
 22 C        3.2080     8.4340     0.3600 C.2   1 <1>  -0.0400 
 23 C       -7.7870     4.7260    -1.5110 C.3   1 <1>   0.0400 
 24 O        4.1210     7.6620    -0.2020 O.3   1 <1>  -0.2800 
 25 C        3.4080     9.7260     0.0180 C.2   1 <1>  -0.1500 
 26 C        4.9180     8.4370    -0.9090 C.2   1 <1>  -0.0100 
 27 C        4.5330     9.7280    -0.8160 C.2   1 <1>  -0.1500 
 28 H       -0.9860     4.2800    -2.7070 H     1 <1>   0.0800 
 29 H        0.6920     3.7790    -2.7960 H     1 <1>   0.0800 
 30 H       -1.3020     4.8110     1.3380 H     1 <1>   0.0800 
 31 H       -0.2390     2.2070     1.7270 H     1 <1>   0.1000 
 32 H       -1.3560     6.3080    -1.0750 H     1 <1>   0.0800 
 33 H       -2.3370     0.8340    -0.0720 H     1 <1>   0.1000 
 34 H       -1.5120     0.0810     1.3260 H     1 <1>   0.1000 
 35 H       -2.4750     1.8260     2.8570 H     1 <1>   0.1000 
 36 H       -3.3390     2.5520     1.4710 H     1 <1>   0.1000 
 37 H       -3.1610     6.3460     1.4870 H     1 <1>   0.1500 
 38 H       -3.1160     3.3130    -1.5350 H     1 <1>   0.1500 
 39 H       -5.5510     6.6790     1.0840 H     1 <1>   0.1500 
 40 H       -5.4680     3.6590    -1.9230 H     1 <1>   0.1500 
 41 H        1.8910     6.3890    -0.3220 H     1 <1>   0.3700 
 42 H        1.5030     8.5570     1.6490 H     1 <1>   0.0800 
 43 H        2.6200     7.2680     2.0460 H     1 <1>   0.0800 
 44 H       -8.7980     5.0870    -1.4460 H     1 <1>   0.0800 
 45 H       -7.7540     3.6840    -1.2490 H     1 <1>   0.0800 
 46 H       -7.4040     4.8890    -2.5020 H     1 <1>   0.0800 
 47 H        2.8440    10.5960     0.3040 H     1 <1>   0.1500 
 48 H        5.7340     7.9890    -1.4480 H     1 <1>   0.1500 
 49 H        4.9730    10.5970    -1.2720 H     1 <1>   0.1500 
@<TRIPOS>BOND
  1   1   2  2   
  2   2   3  am  
  3   2   4  1   
  4   3   5  1   
  5   3   6  1   
  6   4   7  1   
  7   4  28  1   
  8   4  29  1   
  9   5   8  1   
 10   5   9  1   
 11   5  30  1   
 12   6  10  1   
 13   6  11  1   
 14   6  31  1   
 15   7   9  1   
 16   8  12  ar  
 17   8  13  ar  
 18   9  14  1   
 19   9  32  1   
 20  10  11  1   
 21  10  33  1   
 22  10  34  1   
 23  11  35  1   
 24  11  36  1   
 25  12  15  ar  
 26  12  37  1   
 27  13  16  ar  
 28  13  38  1   
 29  14  17  2   
 30  14  18  am  
 31  15  19  ar  
 32  15  39  1   
 33  16  19  ar  
 34  16  40  1   
 35  18  20  1   
 36  18  41  1   
 37  19  21  1   
 38  20  22  1   
 39  20  42  1   
 40  20  43  1   
 41  21  23  1   
 42  22  24  1   
 43  22  25  2   
 44  23  44  1   
 45  23  45  1   
 46  23  46  1   
 47  24  26  1   
 48  25  27  1   
 49  25  47  1   
 50  26  27  2   
 51  26  48  1   
 52  27  49  1   
@<TRIPOS>SUBSTRUCTURE
  1 ****   9 GROUP 4 **** **** 0

# MOE 2024.06 (io_trps.svl 2023.06)
