@<TRIPOS>MOLECULE
NONAME
18 17 1 0 0 
SMALL
USER_CHARGES


@<TRIPOS>ATOM
  1 O        0.9360    -0.7550     1.6600 O.3   1 <1>  -0.6800 
  2 C        0.7240    -1.3820     0.4340 C.3   1 <1>   0.5380 
  3 C        2.0260    -1.6460    -0.2720 C.1   1 <1>   0.3570 
  4 C       -0.1100    -2.6420     0.6690 C.2   1 <1>  -0.0730 
  5 N        2.9820    -1.8480    -0.8580 N.1   1 <1>  -0.5570 
  6 C        0.6270    -3.6120     1.4320 C.1   1 <1>   0.4920 
  7 C       -1.3760    -2.8280     0.2250 C.2   1 <1>  -0.2760 
  8 N        1.1870    -4.3920     2.0450 N.1   1 <1>  -0.5570 
  9 C       -2.2220    -1.8440    -0.5840 C.3   1 <1>  -0.1020 
 10 C       -2.1770    -4.1080     0.4770 C.3   1 <1>  -0.1020 
 11 H        0.0920    -0.6770     2.1440 H     1 <1>   0.4000 
 12 H        0.1930    -0.6760    -0.1700 H     1 <1>   0.0800 
 13 H       -3.1360    -1.6300    -0.0580 H     1 <1>   0.0800 
 14 H       -2.4800    -2.2810    -1.5340 H     1 <1>   0.0800 
 15 H       -1.7380    -0.9080    -0.7800 H     1 <1>   0.0800 
 16 H       -3.0750    -3.8810     1.0250 H     1 <1>   0.0800 
 17 H       -1.6300    -4.8430     1.0400 H     1 <1>   0.0800 
 18 H       -2.4560    -4.5590    -0.4600 H     1 <1>   0.0800 
@<TRIPOS>BOND
  1   1   2  1   
  2   1  11  1   
  3   2   3  1   
  4   2   4  1   
  5   2  12  1   
  6   3   5  3   
  7   4   6  1   
  8   4   7  2   
  9   6   8  3   
 10   7   9  1   
 11   7  10  1   
 12   9  13  1   
 13   9  14  1   
 14   9  15  1   
 15  10  16  1   
 16  10  17  1   
 17  10  18  1   
@<TRIPOS>SUBSTRUCTURE
  1 ****   4 GROUP 4 **** **** 0

# MOE 2024.06 (io_trps.svl 2023.06)
