@<TRIPOS>MOLECULE
NONAME
43 45 1 0 0 
SMALL
USER_CHARGES


@<TRIPOS>ATOM
  1 F       -1.4460    -0.3740    -2.5470 F     1 <1>  -0.1900 
  2 C       -2.0390    -0.9850    -1.5560 C.ar  1 <1>   0.1900 
  3 C       -2.0100    -2.3620    -1.5120 C.ar  1 <1>  -0.1500 
  4 C       -2.6730    -0.2240    -0.5930 C.ar  1 <1>  -0.1500 
  5 C       -2.6440    -3.0320    -0.4680 C.ar  1 <1>   0.0860 
  6 C       -3.2970    -0.8730     0.4590 C.ar  1 <1>  -0.1440 
  7 C       -2.6400    -4.4820    -0.4120 C.2   1 <1>   0.5440 
  8 C       -3.2740    -2.2590     0.5120 C.ar  1 <1>  -0.1500 
  9 C       -3.9960    -0.0680     1.5410 C.3   1 <1>  -0.0960 
 10 O       -1.6010    -5.0890    -0.5900 O.2   1 <1>  -0.5700 
 11 N       -3.7910    -5.2000    -0.1800 N.am  1 <1>  -0.6600 
 12 C       -5.1670    -4.6890    -0.4080 C.3   1 <1>   0.1400 
 13 C       -3.7930    -6.6840    -0.1120 C.3   1 <1>   0.1400 
 14 C       -5.9850    -5.9260    -0.7680 C.3   1 <1>   0.2000 
 15 C       -5.2680    -7.0890    -0.0890 C.3   1 <1>  -0.0800 
 16 O       -7.2890    -5.8290    -0.3100 O.3   1 <1>  -0.6800 
 17 C       -5.5430    -8.4450    -0.7560 C.3   1 <1>   0.0210 
 18 C       -4.7390    -9.5460    -0.0920 C.2   1 <1>   0.1080 
 19 N       -4.9100    -9.8910     1.1460 N.2   1 <1>  -0.7070 
 20 C       -3.7400   -10.2880    -0.7130 C.2   1 <1>  -0.1500 
 21 N       -4.0150   -10.8760     1.3500 N.pl3 1 <1>   0.3000 
 22 C       -3.2930   -11.1330     0.2390 C.2   1 <1>  -0.3320 
 23 C       -2.2040   -12.1860     0.1550 C.3   1 <1>  -0.0600 
 24 H       -1.4990    -2.9190    -2.2770 H     1 <1>   0.1500 
 25 H       -2.6700     0.8480    -0.6720 H     1 <1>   0.1500 
 26 H       -3.7480    -2.7660     1.3340 H     1 <1>   0.1500 
 27 H       -4.0590    -0.6320     2.4540 H     1 <1>   0.0800 
 28 H       -4.9900     0.1880     1.2220 H     1 <1>   0.0800 
 29 H       -3.4520     0.8380     1.7420 H     1 <1>   0.0800 
 30 H       -5.5330    -4.2450     0.5010 H     1 <1>   0.0800 
 31 H       -5.1840    -3.9710    -1.2090 H     1 <1>   0.0800 
 32 H       -3.2980    -7.0770    -0.9840 H     1 <1>   0.0800 
 33 H       -3.2790    -7.0270     0.7700 H     1 <1>   0.0800 
 34 H       -6.0080    -6.0460    -1.8380 H     1 <1>   0.0800 
 35 H       -5.5630    -7.1410     0.9450 H     1 <1>   0.0800 
 36 H       -7.3140    -5.9280     0.6620 H     1 <1>   0.4000 
 37 H       -5.2950    -8.4020    -1.8010 H     1 <1>   0.0800 
 38 H       -6.5880    -8.6830    -0.6690 H     1 <1>   0.0800 
 39 H       -3.4130   -10.1880    -1.7320 H     1 <1>   0.1500 
 40 H       -3.9220   -11.3500     2.2560 H     1 <1>   0.2700 
 41 H       -1.7780   -12.1980    -0.8330 H     1 <1>   0.0800 
 42 H       -2.6100   -13.1600     0.3650 H     1 <1>   0.0800 
 43 H       -1.4220   -11.9700     0.8610 H     1 <1>   0.0800 
@<TRIPOS>BOND
  1   1   2  1   
  2   2   3  ar  
  3   2   4  ar  
  4   3   5  ar  
  5   3  24  1   
  6   4   6  ar  
  7   4  25  1   
  8   5   7  1   
  9   5   8  ar  
 10   6   8  ar  
 11   6   9  1   
 12   7  10  2   
 13   7  11  am  
 14   8  26  1   
 15   9  27  1   
 16   9  28  1   
 17   9  29  1   
 18  11  12  1   
 19  11  13  1   
 20  12  14  1   
 21  12  30  1   
 22  12  31  1   
 23  13  15  1   
 24  13  32  1   
 25  13  33  1   
 26  14  15  1   
 27  14  16  1   
 28  14  34  1   
 29  15  17  1   
 30  15  35  1   
 31  16  36  1   
 32  17  18  1   
 33  17  37  1   
 34  17  38  1   
 35  18  19  2   
 36  18  20  1   
 37  19  21  1   
 38  20  22  2   
 39  20  39  1   
 40  21  22  1   
 41  21  40  1   
 42  22  23  1   
 43  23  41  1   
 44  23  42  1   
 45  23  43  1   
@<TRIPOS>SUBSTRUCTURE
  1 ****  11 GROUP 4 **** **** 0

# MOE 2024.06 (io_trps.svl 2023.06)
