@<TRIPOS>MOLECULE
NONAME
58 61 1 0 0 
SMALL
USER_CHARGES


@<TRIPOS>ATOM
  1 O       -0.3780     0.7250     0.0020 O.2   1 <1>  -0.5700 
  2 C        0.5330     1.2940    -0.5520 C.2   1 <1>   0.5690 
  3 N        0.7920     2.6280    -0.3120 N.am  1 <1>  -0.6600 
  4 C        1.3170     0.4630    -1.5670 C.3   1 <1>   0.0440 
  5 C       -0.1890     3.4390     0.5100 C.3   1 <1>   0.2200 
  6 C        2.0970     3.3070    -0.6080 C.3   1 <1>   0.1400 
  7 C        1.7620    -0.9050    -1.0250 C.ar  1 <1>  -0.1440 
  8 C        0.2950     4.8750     0.8930 C.3   1 <1>   0.1380 
  9 C       -1.6270     3.4280    -0.0470 C.3   1 <1>  -0.1600 
 10 C        2.6910     4.0110     0.6280 C.3   1 <1>  -0.1600 
 11 C        1.0350    -2.0620    -1.2650 C.ar  1 <1>   0.1660 
 12 C        2.9170    -1.0480    -0.2730 C.ar  1 <1>   0.1660 
 13 C        0.4590     5.9110    -0.2660 C.2   1 <1>  -0.2760 
 14 C       -0.7390     5.4320     1.9190 C.3   1 <1>   0.1200 
 15 C        1.6600     4.6520     1.5790 C.3   1 <1>  -0.1600 
 16 C       -2.4350     4.6180     0.4840 C.3   1 <1>   0.1200 
 17 N        1.4390    -3.2350    -0.8440 N.ar  1 <1>  -0.6200 
 18 C       -0.2800    -2.0710    -2.0260 C.3   1 <1>  -0.0970 
 19 N        3.3290    -2.2140     0.1580 N.ar  1 <1>  -0.6200 
 20 C        3.7910     0.1290     0.1190 C.3   1 <1>  -0.0970 
 21 C        0.0990     5.7520    -1.5480 C.2   1 <1>  -0.2880 
 22 C        1.1270     7.2410     0.1110 C.3   1 <1>  -0.0220 
 23 O       -2.0250     4.8800     1.7880 O.3   1 <1>  -0.5600 
 24 C        2.5690    -3.2380    -0.1680 C.ar  1 <1>   0.7200 
 25 C        0.3040     6.7940    -2.6420 C.3   1 <1>   0.2580 
 26 C        0.8930     8.3140    -0.9610 C.3   1 <1>   0.1200 
 27 N        2.9780    -4.4290     0.2720 N.pl3 1 <1>  -0.9000 
 28 O        1.1890     7.7850    -2.2140 O.3   1 <1>  -0.5600 
 29 H        0.6740     0.3290    -2.4140 H     1 <1>   0.0800 
 30 H        2.1670     0.9820    -1.9510 H     1 <1>   0.0800 
 31 H       -0.2650     2.9160     1.4500 H     1 <1>   0.0800 
 32 H        2.8330     2.6170    -0.9660 H     1 <1>   0.0800 
 33 H        1.9430     4.0260    -1.3900 H     1 <1>   0.0800 
 34 H       -2.1180     2.5320     0.2860 H     1 <1>   0.0800 
 35 H       -1.6470     3.4180    -1.1180 H     1 <1>   0.0800 
 36 H        3.2840     3.3060     1.1830 H     1 <1>   0.0800 
 37 H        3.3630     4.7730     0.2740 H     1 <1>   0.0800 
 38 H       -0.8470     6.4960     1.8330 H     1 <1>   0.0800 
 39 H       -0.4210     5.2130     2.9230 H     1 <1>   0.0800 
 40 H        2.0520     5.5640     1.9910 H     1 <1>   0.0800 
 41 H        1.5170     3.9800     2.4100 H     1 <1>   0.0800 
 42 H       -3.4860     4.3850     0.5030 H     1 <1>   0.0800 
 43 H       -2.2830     5.5040    -0.1090 H     1 <1>   0.0800 
 44 H       -0.9350    -1.3060    -1.6510 H     1 <1>   0.0800 
 45 H       -0.7750    -3.0170    -1.9030 H     1 <1>   0.0800 
 46 H       -0.0990    -1.9140    -3.0720 H     1 <1>   0.0800 
 47 H        3.2100     0.8420     0.6730 H     1 <1>   0.0800 
 48 H        4.2080     0.5900    -0.7560 H     1 <1>   0.0800 
 49 H        4.6010    -0.1990     0.7450 H     1 <1>   0.0800 
 50 H       -0.3620     4.8710    -1.9440 H     1 <1>   0.1500 
 51 H        2.1880     7.0970     0.2120 H     1 <1>   0.0800 
 52 H        0.7610     7.6250     1.0430 H     1 <1>   0.0800 
 53 H       -0.6290     7.2590    -2.9090 H     1 <1>   0.0800 
 54 H        0.7350     6.3400    -3.5170 H     1 <1>   0.0800 
 55 H        1.5370     9.1600    -0.7970 H     1 <1>   0.0800 
 56 H       -0.1320     8.6440    -0.9600 H     1 <1>   0.0800 
 57 H        3.6220    -4.3890     1.0540 H     1 <1>   0.4000 
 58 H        2.2470    -5.1320     0.3160 H     1 <1>   0.4000 
@<TRIPOS>BOND
  1   1   2  2   
  2   2   3  am  
  3   2   4  1   
  4   3   5  1   
  5   3   6  1   
  6   4   7  1   
  7   4  29  1   
  8   4  30  1   
  9   5   8  1   
 10   5   9  1   
 11   5  31  1   
 12   6  10  1   
 13   6  32  1   
 14   6  33  1   
 15   7  11  ar  
 16   7  12  ar  
 17   8  13  1   
 18   8  14  1   
 19   8  15  1   
 20   9  16  1   
 21   9  34  1   
 22   9  35  1   
 23  10  15  1   
 24  10  36  1   
 25  10  37  1   
 26  11  17  ar  
 27  11  18  1   
 28  12  19  ar  
 29  12  20  1   
 30  13  21  2   
 31  13  22  1   
 32  14  23  1   
 33  14  38  1   
 34  14  39  1   
 35  15  40  1   
 36  15  41  1   
 37  16  23  1   
 38  16  42  1   
 39  16  43  1   
 40  17  24  ar  
 41  18  44  1   
 42  18  45  1   
 43  18  46  1   
 44  19  24  ar  
 45  20  47  1   
 46  20  48  1   
 47  20  49  1   
 48  21  25  1   
 49  21  50  1   
 50  22  26  1   
 51  22  51  1   
 52  22  52  1   
 53  24  27  1   
 54  25  28  1   
 55  25  53  1   
 56  25  54  1   
 57  26  28  1   
 58  26  55  1   
 59  26  56  1   
 60  27  57  1   
 61  27  58  1   
@<TRIPOS>SUBSTRUCTURE
  1 ****   3 GROUP 4 **** **** 0

# MOE 2024.06 (io_trps.svl 2023.06)
