@<TRIPOS>MOLECULE
NONAME
42 44 1 0 0 
SMALL
USER_CHARGES


@<TRIPOS>ATOM
  1 CL      -1.7970    -1.0180    -1.6560 Cl    1 <1>  -0.1770 
  2 C       -2.1170     0.3460    -0.6040 C.ar  1 <1>   0.1770 
  3 C       -1.6050     1.5930    -0.9250 C.ar  1 <1>   0.1770 
  4 C       -2.8820     0.1670     0.5430 C.ar  1 <1>  -0.1440 
  5 CL      -0.6570     1.8180    -2.3750 Cl    1 <1>  -0.1770 
  6 C       -1.8400     2.6810    -0.1060 C.ar  1 <1>  -0.1500 
  7 C       -3.1060     1.2630     1.3680 C.ar  1 <1>  -0.1500 
  8 C       -3.4500    -1.1940     0.9140 C.3   1 <1>   0.4870 
  9 C       -2.5920     2.5100     1.0450 C.ar  1 <1>  -0.1500 
 10 N       -4.3520    -1.7290    -0.1540 N.4   1 <1>  -0.9590 
 11 C       -5.7590    -1.2280    -0.0880 C.3   1 <1>   0.4230 
 12 C       -4.2820    -3.2260    -0.1440 C.3   1 <1>   0.2630 
 13 C       -6.6270    -1.8370    -1.1900 C.3   1 <1>  -0.1600 
 14 C       -5.8710     0.2750    -0.3370 C.3   1 <1>  -0.1600 
 15 C       -7.7830    -0.8520    -1.3900 C.3   1 <1>  -0.0800 
 16 C       -7.2970     0.5010    -0.8520 C.3   1 <1>  -0.0800 
 17 C       -9.0470    -1.2070    -0.5940 C.3   1 <1>  -0.1600 
 18 C       -8.2930     0.9170     0.2420 C.3   1 <1>  -0.1600 
 19 C       -9.5540     0.1280    -0.0740 C.3   1 <1>   0.2000 
 20 O      -10.3040    -0.0530     1.0660 O.3   1 <1>  -0.6800 
 21 H       -1.4370     3.6450    -0.3650 H     1 <1>   0.1500 
 22 H       -3.6810     1.1650     2.2750 H     1 <1>   0.1500 
 23 H       -3.9830    -1.1300     1.8480 H     1 <1>   0.0800 
 24 H       -2.6190    -1.8680     1.0530 H     1 <1>   0.0800 
 25 H       -2.7740     3.3540     1.6920 H     1 <1>   0.1500 
 26 H       -3.9550    -1.4070    -1.0500 H     1 <1>   0.4500 
 27 H       -6.2000    -1.4600     0.8690 H     1 <1>   0.0800 
 28 H       -4.7060    -3.6170     0.7670 H     1 <1>   0.0800 
 29 H       -3.2570    -3.5530    -0.2190 H     1 <1>   0.0800 
 30 H       -4.8250    -3.6350    -0.9800 H     1 <1>   0.0800 
 31 H       -6.0690    -1.8870    -2.1090 H     1 <1>   0.0800 
 32 H       -6.9870    -2.8180    -0.9350 H     1 <1>   0.0800 
 33 H       -5.6850     0.8520     0.5500 H     1 <1>   0.0800 
 34 H       -5.1850     0.5730    -1.1110 H     1 <1>   0.0800 
 35 H       -8.0330    -0.7650    -2.4360 H     1 <1>   0.0800 
 36 H       -7.3050     1.2370    -1.6400 H     1 <1>   0.0800 
 37 H       -8.8080    -1.8520     0.2330 H     1 <1>   0.0800 
 38 H       -9.7850    -1.6820    -1.2180 H     1 <1>   0.0800 
 39 H       -8.4850     1.9750     0.2160 H     1 <1>   0.0800 
 40 H       -7.9270     0.6410     1.2150 H     1 <1>   0.0800 
 41 H      -10.1550     0.6330    -0.8130 H     1 <1>   0.0800 
 42 H       -9.7910    -0.5130     1.7540 H     1 <1>   0.4000 
@<TRIPOS>BOND
  1   1   2  1   
  2   2   3  ar  
  3   2   4  ar  
  4   3   5  1   
  5   3   6  ar  
  6   4   7  ar  
  7   4   8  1   
  8   6   9  ar  
  9   6  21  1   
 10   7   9  ar  
 11   7  22  1   
 12   8  10  1   
 13   8  23  1   
 14   8  24  1   
 15   9  25  1   
 16  10  11  1   
 17  10  12  1   
 18  10  26  1   
 19  11  13  1   
 20  11  14  1   
 21  11  27  1   
 22  12  28  1   
 23  12  29  1   
 24  12  30  1   
 25  13  15  1   
 26  13  31  1   
 27  13  32  1   
 28  14  16  1   
 29  14  33  1   
 30  14  34  1   
 31  15  16  1   
 32  15  17  1   
 33  15  35  1   
 34  16  18  1   
 35  16  36  1   
 36  17  19  1   
 37  17  37  1   
 38  17  38  1   
 39  18  19  1   
 40  18  39  1   
 41  18  40  1   
 42  19  20  1   
 43  19  41  1   
 44  20  42  1   
@<TRIPOS>SUBSTRUCTURE
  1 ****  14 GROUP 4 **** **** 0

# MOE 2024.06 (io_trps.svl 2023.06)
