@<TRIPOS>MOLECULE
NONAME
52 54 1 0 0 
SMALL
USER_CHARGES


@<TRIPOS>ATOM
  1 N       -0.1100    -1.6550    -0.9950 N.2   1 <1>  -0.3380 
  2 N        0.5390    -2.5220    -0.2180 N.2   1 <1>  -0.3380 
  3 C       -1.3570    -1.7290    -0.6920 C.2   1 <1>   0.0070 
  4 C       -0.3410    -3.0870     0.5260 C.2   1 <1>   0.0360 
  5 N       -1.5700    -2.6380     0.2660 N.pl3 1 <1>   0.0480 
  6 C       -2.4230    -0.8760    -1.3560 C.3   1 <1>  -0.0600 
  7 C       -2.8360    -3.1230     0.8340 C.3   1 <1>   0.0960 
  8 C       -3.4000    -4.1900    -0.1170 C.3   1 <1>   0.3430 
  9 N       -4.5980    -4.9240     0.4290 N.4   1 <1>  -0.9590 
 10 C       -4.9930    -6.0370    -0.5030 C.3   1 <1>   0.4860 
 11 C       -5.7510    -3.9900     0.6880 C.3   1 <1>   0.2630 
 12 C       -6.0590    -6.9250     0.1370 C.ar  1 <1>  -0.1430 
 13 C       -5.7900    -8.0860     0.8750 C.ar  1 <1>  -0.1430 
 14 C       -7.3810    -6.5360    -0.0440 C.ar  1 <1>  -0.1500 
 15 C       -6.8440    -8.7580     1.4830 C.ar  1 <1>  -0.1500 
 16 C       -4.3990    -8.6980     1.0450 C.3   1 <1>   0.4860 
 17 C       -8.4190    -7.2310     0.5440 C.ar  1 <1>  -0.1500 
 18 C       -8.1490    -8.3360     1.3210 C.ar  1 <1>  -0.1500 
 19 N       -4.4050   -10.0900     0.5160 N.4   1 <1>  -0.9590 
 20 C       -3.1230   -10.8220     0.6750 C.3   1 <1>   0.3430 
 21 C       -4.7900   -10.2260    -0.9120 C.3   1 <1>   0.3430 
 22 C       -3.2350   -11.9970    -0.2880 C.3   1 <1>  -0.1600 
 23 C       -4.3380   -11.6300    -1.2850 C.3   1 <1>  -0.1600 
 24 H       -0.1140    -3.8340     1.2640 H     1 <1>   0.1500 
 25 H       -1.9570    -0.2000    -2.0530 H     1 <1>   0.0800 
 26 H       -2.9440    -0.2900    -0.6210 H     1 <1>   0.0800 
 27 H       -3.1190    -1.4880    -1.8970 H     1 <1>   0.0800 
 28 H       -3.5090    -2.2900     0.9330 H     1 <1>   0.0800 
 29 H       -2.6350    -3.5400     1.8040 H     1 <1>   0.0800 
 30 H       -2.6140    -4.9000    -0.3220 H     1 <1>   0.0800 
 31 H       -3.6640    -3.7150    -1.0490 H     1 <1>   0.0800 
 32 H       -4.3600    -5.3530     1.3340 H     1 <1>   0.4500 
 33 H       -4.1300    -6.6310    -0.7530 H     1 <1>   0.0800 
 34 H       -5.3810    -5.6220    -1.4200 H     1 <1>   0.0800 
 35 H       -6.0980    -3.5500    -0.2340 H     1 <1>   0.0800 
 36 H       -5.4590    -3.1980     1.3580 H     1 <1>   0.0800 
 37 H       -6.5710    -4.5210     1.1450 H     1 <1>   0.0800 
 38 H       -7.6350    -5.6790    -0.6470 H     1 <1>   0.1500 
 39 H       -6.6780    -9.6290     2.0950 H     1 <1>   0.1500 
 40 H       -4.1440    -8.7110     2.0930 H     1 <1>   0.0800 
 41 H       -3.6610    -8.1150     0.5220 H     1 <1>   0.0800 
 42 H       -9.4400    -6.9140     0.4020 H     1 <1>   0.1500 
 43 H       -8.9580    -8.8700     1.7940 H     1 <1>   0.1500 
 44 H       -5.1150   -10.6190     1.0400 H     1 <1>   0.4500 
 45 H       -2.9730   -11.1560     1.6900 H     1 <1>   0.0800 
 46 H       -2.2980   -10.1950     0.3770 H     1 <1>   0.0800 
 47 H       -4.2540    -9.5070    -1.5100 H     1 <1>   0.0800 
 48 H       -5.8520   -10.0970    -1.0550 H     1 <1>   0.0800 
 49 H       -3.4980   -12.8910     0.2520 H     1 <1>   0.0800 
 50 H       -2.2930   -12.1660    -0.7810 H     1 <1>   0.0800 
 51 H       -3.9860   -11.6590    -2.3020 H     1 <1>   0.0800 
 52 H       -5.1660   -12.3130    -1.1950 H     1 <1>   0.0800 
@<TRIPOS>BOND
  1   1   2  1   
  2   1   3  2   
  3   2   4  2   
  4   3   5  1   
  5   3   6  1   
  6   4   5  1   
  7   4  24  1   
  8   5   7  1   
  9   6  25  1   
 10   6  26  1   
 11   6  27  1   
 12   7   8  1   
 13   7  28  1   
 14   7  29  1   
 15   8   9  1   
 16   8  30  1   
 17   8  31  1   
 18   9  10  1   
 19   9  11  1   
 20   9  32  1   
 21  10  12  1   
 22  10  33  1   
 23  10  34  1   
 24  11  35  1   
 25  11  36  1   
 26  11  37  1   
 27  12  13  ar  
 28  12  14  ar  
 29  13  15  ar  
 30  13  16  1   
 31  14  17  ar  
 32  14  38  1   
 33  15  18  ar  
 34  15  39  1   
 35  16  19  1   
 36  16  40  1   
 37  16  41  1   
 38  17  18  ar  
 39  17  42  1   
 40  18  43  1   
 41  19  20  1   
 42  19  21  1   
 43  19  44  1   
 44  20  22  1   
 45  20  45  1   
 46  20  46  1   
 47  21  23  1   
 48  21  47  1   
 49  21  48  1   
 50  22  23  1   
 51  22  49  1   
 52  22  50  1   
 53  23  51  1   
 54  23  52  1   
@<TRIPOS>SUBSTRUCTURE
  1 ****  10 GROUP 4 **** **** 0

# MOE 2024.06 (io_trps.svl 2023.06)
