@<TRIPOS>MOLECULE
NONAME
45 47 1 0 0 
SMALL
USER_CHARGES


@<TRIPOS>ATOM
  1 O        1.6170     2.0990     0.6530 O.co2 1 <1>  -0.9000 
  2 C        0.9800     2.3960    -0.3640 C.2   1 <1>   0.9060 
  3 O        1.5060     2.3180    -1.4790 O.co2 1 <1>  -0.9000 
  4 C       -0.3350     3.1710    -0.2040 C.3   1 <1>   0.0380 
  5 C       -1.5470     2.3470     0.2700 C.ar  1 <1>  -0.1440 
  6 C        0.0440     4.2540     0.7910 C.3   1 <1>   0.3430 
  7 C       -0.6570     4.0240    -1.4430 C.3   1 <1>  -0.1600 
  8 C       -1.4840     0.9600     0.3420 C.ar  1 <1>  -0.1500 
  9 C       -2.7340     2.9740     0.6360 C.ar  1 <1>  -0.1500 
 10 N        0.8140     5.2750     0.0070 N.4   1 <1>  -0.9590 
 11 C        0.4090     5.1140    -1.4260 C.3   1 <1>   0.3430 
 12 C       -2.5740     0.2220     0.7690 C.ar  1 <1>  -0.1500 
 13 C       -3.8250     2.2370     1.0640 C.ar  1 <1>  -0.1500 
 14 C        2.2860     5.0090     0.1310 C.3   1 <1>   0.5230 
 15 C       -3.7460     0.8590     1.1310 C.ar  1 <1>  -0.1500 
 16 C        3.0290     6.3230     0.0090 C.2   1 <1>  -0.0400 
 17 O        2.8270     7.0850    -1.0310 O.3   1 <1>  -0.0190 
 18 C        3.9160     6.9380     0.8060 C.2   1 <1>  -0.1500 
 19 N        3.5210     8.1820    -0.9680 N.2   1 <1>  -0.4100 
 20 C        4.1960     8.1230     0.1270 C.2   1 <1>   0.1080 
 21 C        5.1650     9.1950     0.6180 C.3   1 <1>   0.1010 
 22 C        4.4270    10.5120     0.8890 C.3   1 <1>  -0.2400 
 23 C        6.2950     9.4160    -0.3950 C.3   1 <1>  -0.2400 
 24 H        0.6170     3.8500     1.6110 H     1 <1>   0.0800 
 25 H       -0.8530     4.7010     1.1830 H     1 <1>   0.0800 
 26 H       -1.6290     4.4760    -1.3730 H     1 <1>   0.0800 
 27 H       -0.6130     3.4460    -2.3500 H     1 <1>   0.0800 
 28 H       -0.5860     0.4300     0.0690 H     1 <1>   0.1500 
 29 H       -2.8320     4.0430     0.5920 H     1 <1>   0.1500 
 30 H        0.6370     6.2270     0.3410 H     1 <1>   0.4500 
 31 H        0.0350     6.0370    -1.8390 H     1 <1>   0.0800 
 32 H        1.2530     4.7820    -2.0130 H     1 <1>   0.0800 
 33 H       -2.5040    -0.8510     0.8190 H     1 <1>   0.1500 
 34 H       -4.7370     2.7340     1.3440 H     1 <1>   0.1500 
 35 H        2.6110     4.3210    -0.6350 H     1 <1>   0.0800 
 36 H        2.5040     4.5590     1.0860 H     1 <1>   0.0800 
 37 H       -4.5920     0.2820     1.4640 H     1 <1>   0.1500 
 38 H        4.3350     6.6300     1.7470 H     1 <1>   0.1500 
 39 H        5.6040     8.8590     1.5420 H     1 <1>   0.0800 
 40 H        3.9840    10.8850    -0.0180 H     1 <1>   0.0800 
 41 H        5.1070    11.2520     1.2710 H     1 <1>   0.0800 
 42 H        3.6470    10.3560     1.6120 H     1 <1>   0.0800 
 43 H        5.8950     9.7660    -1.3300 H     1 <1>   0.0800 
 44 H        6.8160     8.4920    -0.5730 H     1 <1>   0.0800 
 45 H        6.9970    10.1410    -0.0240 H     1 <1>   0.0800 
@<TRIPOS>BOND
  1   1   2  ar  
  2   2   3  ar  
  3   2   4  1   
  4   4   5  1   
  5   4   6  1   
  6   4   7  1   
  7   5   8  ar  
  8   5   9  ar  
  9   6  10  1   
 10   6  24  1   
 11   6  25  1   
 12   7  11  1   
 13   7  26  1   
 14   7  27  1   
 15   8  12  ar  
 16   8  28  1   
 17   9  13  ar  
 18   9  29  1   
 19  10  11  1   
 20  10  14  1   
 21  10  30  1   
 22  11  31  1   
 23  11  32  1   
 24  12  15  ar  
 25  12  33  1   
 26  13  15  ar  
 27  13  34  1   
 28  14  16  1   
 29  14  35  1   
 30  14  36  1   
 31  15  37  1   
 32  16  17  1   
 33  16  18  2   
 34  17  19  1   
 35  18  20  1   
 36  18  38  1   
 37  19  20  2   
 38  20  21  1   
 39  21  22  1   
 40  21  23  1   
 41  21  39  1   
 42  22  40  1   
 43  22  41  1   
 44  22  42  1   
 45  23  43  1   
 46  23  44  1   
 47  23  45  1   
@<TRIPOS>SUBSTRUCTURE
  1 ****  10 GROUP 4 **** **** 0

# MOE 2024.06 (io_trps.svl 2023.06)
