@<TRIPOS>MOLECULE
NONAME
40 42 1 0 0 
SMALL
USER_CHARGES


@<TRIPOS>ATOM
  1 CL      -0.8350    -0.2850    -1.4430 Cl    1 <1>  -0.1770 
  2 C       -1.8960     0.8000    -0.5860 C.ar  1 <1>   0.1770 
  3 C       -1.7390     2.1530    -0.7170 C.ar  1 <1>  -0.1500 
  4 C       -2.8960     0.2610     0.2150 C.ar  1 <1>  -0.1500 
  5 C       -2.5550     3.0650    -0.0130 C.ar  1 <1>   0.0000 
  6 C       -3.7630     1.1130     0.8510 C.ar  1 <1>  -0.1500 
  7 C       -3.6340     2.5060     0.7120 C.ar  1 <1>   0.3610 
  8 C       -2.3920     4.4950    -0.0270 C.ar  1 <1>   0.1000 
  9 N       -4.5950     3.3370     1.2410 N.ar  1 <1>  -0.1790 
 10 N       -1.2550     5.1420    -0.4190 N.pl3 1 <1>  -0.8380 
 11 C       -3.4720     5.2450     0.4520 C.ar  1 <1>  -0.1500 
 12 C       -4.5420     4.6690     1.0800 C.ar  1 <1>   0.2110 
 13 C       -1.1410     6.6280    -0.5840 C.3   1 <1>   0.2090 
 14 C        0.1220     4.5710    -0.4760 C.3   1 <1>   0.2090 
 15 C        0.3220     6.9210    -0.9000 C.3   1 <1>  -0.0190 
 16 C        1.0590     5.7480    -0.2550 C.3   1 <1>  -0.1600 
 17 C        0.7540     8.3000    -0.4210 C.2   1 <1>   0.5690 
 18 O       -0.0860     9.1460    -0.2300 O.2   1 <1>  -0.5700 
 19 N        2.0770     8.5480    -0.2400 N.am  1 <1>  -0.7300 
 20 C        2.6440     9.8260     0.2320 C.3   1 <1>   0.1400 
 21 C        3.6500     9.5320     1.3380 C.3   1 <1>  -0.2400 
 22 H       -0.9840     2.5020    -1.3890 H     1 <1>   0.1500 
 23 H       -2.9740    -0.8100     0.3040 H     1 <1>   0.1500 
 24 H       -4.5540     0.6990     1.4520 H     1 <1>   0.1500 
 25 H       -5.3820     2.9050     1.7320 H     1 <1>   0.4570 
 26 H       -3.4650     6.3150     0.3600 H     1 <1>   0.1500 
 27 H       -5.3470     5.2770     1.4620 H     1 <1>   0.1500 
 28 H       -1.4090     7.1060     0.3430 H     1 <1>   0.0800 
 29 H       -1.7830     6.9840    -1.3720 H     1 <1>   0.0800 
 30 H        0.3000     4.1680    -1.4590 H     1 <1>   0.0800 
 31 H        0.2670     3.8090     0.2710 H     1 <1>   0.0800 
 32 H        0.4470     6.8820    -1.9670 H     1 <1>   0.0800 
 33 H        2.0240     5.5730    -0.6940 H     1 <1>   0.0800 
 34 H        1.1710     5.9130     0.8030 H     1 <1>   0.0800 
 35 H        2.7610     7.8160    -0.4340 H     1 <1>   0.3700 
 36 H        1.8590    10.4630     0.6070 H     1 <1>   0.0800 
 37 H        3.1270    10.3280    -0.5890 H     1 <1>   0.0800 
 38 H        3.1640     9.0330     2.1580 H     1 <1>   0.0800 
 39 H        4.0630    10.4550     1.7010 H     1 <1>   0.0800 
 40 H        4.4530     8.9220     0.9670 H     1 <1>   0.0800 
@<TRIPOS>BOND
  1   1   2  1   
  2   2   3  ar  
  3   2   4  ar  
  4   3   5  ar  
  5   3  22  1   
  6   4   6  ar  
  7   4  23  1   
  8   5   7  ar  
  9   5   8  ar  
 10   6   7  ar  
 11   6  24  1   
 12   7   9  ar  
 13   8  10  1   
 14   8  11  ar  
 15   9  12  ar  
 16   9  25  1   
 17  10  13  1   
 18  10  14  1   
 19  11  12  ar  
 20  11  26  1   
 21  12  27  1   
 22  13  15  1   
 23  13  28  1   
 24  13  29  1   
 25  14  16  1   
 26  14  30  1   
 27  14  31  1   
 28  15  16  1   
 29  15  17  1   
 30  15  32  1   
 31  16  33  1   
 32  16  34  1   
 33  17  18  2   
 34  17  19  am  
 35  19  20  1   
 36  19  35  1   
 37  20  21  1   
 38  20  36  1   
 39  20  37  1   
 40  21  38  1   
 41  21  39  1   
 42  21  40  1   
@<TRIPOS>SUBSTRUCTURE
  1 ****  10 GROUP 4 **** **** 0

# MOE 2024.06 (io_trps.svl 2023.06)
