@<TRIPOS>MOLECULE
NONAME
43 44 1 0 0 
SMALL
USER_CHARGES


@<TRIPOS>ATOM
  1 S        0.1200    -0.5240    -0.5520 S.3   1 <1>  -0.2860 
  2 C       -0.8780    -1.9550    -0.1240 C.2   1 <1>   0.2420 
  3 C        1.8440    -1.1020    -0.2360 C.3   1 <1>  -0.0100 
  4 N       -0.3640    -3.0660     0.2860 N.2   1 <1>  -0.5650 
  5 N       -2.2270    -1.9310    -0.2180 N.pl3 1 <1>   0.0480 
  6 C       -1.4520    -3.8350     0.4780 C.2   1 <1>   0.0770 
  7 C       -2.5960    -3.1750     0.1680 C.2   1 <1>  -0.3320 
  8 C       -3.0820    -0.8060    -0.6490 C.3   1 <1>   0.0160 
  9 C       -4.0340    -3.6510     0.2240 C.3   1 <1>   0.3200 
 10 N       -4.0480    -5.1140     0.1210 N.am  1 <1>  -0.7300 
 11 C       -5.0820    -5.9050     0.5300 C.2   1 <1>   0.5440 
 12 O       -6.0690    -5.3590     0.9850 O.2   1 <1>  -0.5700 
 13 C       -5.0140    -7.3500     0.4050 C.ar  1 <1>   0.0860 
 14 C       -3.7970    -8.0340     0.3410 C.ar  1 <1>  -0.1500 
 15 C       -6.1780    -8.1200     0.3440 C.ar  1 <1>  -0.1500 
 16 C       -3.7480    -9.4090     0.2090 C.ar  1 <1>  -0.1500 
 17 C       -6.1390    -9.4960     0.2130 C.ar  1 <1>  -0.1500 
 18 C       -4.9140   -10.1530     0.1420 C.ar  1 <1>   0.0820 
 19 O       -4.7810   -11.4920     0.0110 O.3   1 <1>  -0.3620 
 20 C       -5.9000   -12.3460    -0.0530 C.3   1 <1>   0.1200 
 21 C       -5.3970   -13.7830    -0.1910 C.3   1 <1>  -0.1600 
 22 C       -6.5610   -14.7770    -0.2680 C.3   1 <1>  -0.2400 
 23 H        2.5130    -0.2940    -0.4690 H     1 <1>   0.0800 
 24 H        2.0240    -1.9520    -0.8700 H     1 <1>   0.0800 
 25 H        1.9110    -1.3790     0.8010 H     1 <1>   0.0800 
 26 H       -1.3530    -4.8450     0.8400 H     1 <1>   0.1500 
 27 H       -2.6160     0.1250    -0.3820 H     1 <1>   0.0800 
 28 H       -4.0390    -0.8690    -0.1630 H     1 <1>   0.0800 
 29 H       -3.2110    -0.8490    -1.7150 H     1 <1>   0.0800 
 30 H       -4.5980    -3.2460    -0.5990 H     1 <1>   0.0800 
 31 H       -4.4960    -3.3410     1.1470 H     1 <1>   0.0800 
 32 H       -3.2800    -5.5060    -0.4220 H     1 <1>   0.3700 
 33 H       -2.8730    -7.4880     0.4040 H     1 <1>   0.1500 
 34 H       -7.1310    -7.6210     0.4010 H     1 <1>   0.1500 
 35 H       -2.8030    -9.9220     0.1600 H     1 <1>   0.1500 
 36 H       -7.0650   -10.0370     0.1690 H     1 <1>   0.1500 
 37 H       -6.4920   -12.0660    -0.9060 H     1 <1>   0.0800 
 38 H       -6.4690   -12.2280     0.8530 H     1 <1>   0.0800 
 39 H       -4.7800   -14.0240     0.6570 H     1 <1>   0.0800 
 40 H       -4.8020   -13.8640    -1.0840 H     1 <1>   0.0800 
 41 H       -7.1610   -14.7260     0.6240 H     1 <1>   0.0800 
 42 H       -6.1810   -15.7790    -0.3650 H     1 <1>   0.0800 
 43 H       -7.1830   -14.5650    -1.1200 H     1 <1>   0.0800 
@<TRIPOS>BOND
  1   1   2  1   
  2   1   3  1   
  3   2   4  2   
  4   2   5  1   
  5   3  23  1   
  6   3  24  1   
  7   3  25  1   
  8   4   6  1   
  9   5   7  1   
 10   5   8  1   
 11   6   7  2   
 12   6  26  1   
 13   7   9  1   
 14   8  27  1   
 15   8  28  1   
 16   8  29  1   
 17   9  10  1   
 18   9  30  1   
 19   9  31  1   
 20  10  11  am  
 21  10  32  1   
 22  11  12  2   
 23  11  13  1   
 24  13  14  ar  
 25  13  15  ar  
 26  14  16  ar  
 27  14  33  1   
 28  15  17  ar  
 29  15  34  1   
 30  16  18  ar  
 31  16  35  1   
 32  17  18  ar  
 33  17  36  1   
 34  18  19  1   
 35  19  20  1   
 36  20  21  1   
 37  20  37  1   
 38  20  38  1   
 39  21  22  1   
 40  21  39  1   
 41  21  40  1   
 42  22  41  1   
 43  22  42  1   
 44  22  43  1   
@<TRIPOS>SUBSTRUCTURE
  1 ****  10 GROUP 4 **** **** 0

# MOE 2024.06 (io_trps.svl 2023.06)
