@<TRIPOS>MOLECULE
NONAME
43 44 1 0 0 
SMALL
USER_CHARGES


@<TRIPOS>ATOM
  1 S        0.2870     0.0020     0.6610 S.o2  1 <1>   1.3330 
  2 O       -0.6830     0.0610     1.7310 O.2   1 <1>  -0.6500 
  3 O        1.6980     0.0820     0.9670 O.2   1 <1>  -0.6500 
  4 N        0.0260    -1.4240    -0.2230 N.am  1 <1>  -0.8490 
  5 C       -0.1280     1.2840    -0.5180 C.3   1 <1>  -0.0550 
  6 C       -0.3700    -2.5450     0.6350 C.3   1 <1>   0.1160 
  7 C        1.1710    -1.8130    -1.0540 C.3   1 <1>   0.1160 
  8 C       -0.0530     2.7000     0.0780 C.3   1 <1>  -0.0800 
  9 C       -0.5150     3.7690    -0.9060 C.3   1 <1>   0.2000 
 10 C        1.3590     3.1460     0.4670 C.3   1 <1>   0.1400 
 11 O       -1.8970     3.8610    -0.8960 O.3   1 <1>  -0.6800 
 12 C        0.1460     5.0610    -0.4350 C.3   1 <1>   0.1400 
 13 N        1.3690     4.6200     0.2820 N.am  1 <1>  -0.6600 
 14 C        2.5020     5.3760     0.5030 C.2   1 <1>   0.6160 
 15 O        3.5270     4.7830     0.7850 O.2   1 <1>  -0.5700 
 16 C        2.5450     6.8260     0.4050 C.2   1 <1>   0.0910 
 17 O        1.3730     7.4900     0.4980 O.3   1 <1>  -0.1530 
 18 C        3.6900     7.5480     0.2450 C.2   1 <1>  -0.1360 
 19 C        1.2930     8.8230     0.4300 C.2   1 <1>  -0.0620 
 20 C        3.6800     8.9620     0.1620 C.2   1 <1>   0.5410 
 21 C        2.4040     9.5760     0.2660 C.2   1 <1>  -0.1360 
 22 C       -0.1170     9.3670     0.5540 C.3   1 <1>  -0.1020 
 23 O        4.6970     9.6140     0.0080 O.2   1 <1>  -0.5700 
 24 H        0.5250     1.2180    -1.3660 H     1 <1>   0.0800 
 25 H       -1.1300     1.1140    -0.8640 H     1 <1>   0.0800 
 26 H       -0.5430    -3.4260     0.0420 H     1 <1>   0.0800 
 27 H       -1.2830    -2.3070     1.1550 H     1 <1>   0.0800 
 28 H        0.3980    -2.7500     1.3620 H     1 <1>   0.0800 
 29 H        0.9160    -2.6670    -1.6580 H     1 <1>   0.0800 
 30 H        2.0190    -2.0600    -0.4360 H     1 <1>   0.0800 
 31 H        1.4460    -1.0040    -1.7100 H     1 <1>   0.0800 
 32 H       -0.6590     2.7470     0.9670 H     1 <1>   0.0800 
 33 H       -0.1970     3.5450    -1.9110 H     1 <1>   0.0800 
 34 H        2.1000     2.7070    -0.1800 H     1 <1>   0.0800 
 35 H        1.5900     2.8900     1.4890 H     1 <1>   0.0800 
 36 H       -2.2290     3.9770     0.0160 H     1 <1>   0.4000 
 37 H       -0.4940     5.5880     0.2520 H     1 <1>   0.0800 
 38 H        0.3980     5.6900    -1.2710 H     1 <1>   0.0800 
 39 H        4.6520     7.0750     0.1770 H     1 <1>   0.1500 
 40 H        2.3860    10.6480     0.2060 H     1 <1>   0.1500 
 41 H       -0.5410     9.0720     1.4980 H     1 <1>   0.0800 
 42 H       -0.7310     8.9790    -0.2390 H     1 <1>   0.0800 
 43 H       -0.1160    10.4400     0.4970 H     1 <1>   0.0800 
@<TRIPOS>BOND
  1   1   2  2   
  2   1   3  2   
  3   1   4  am  
  4   1   5  1   
  5   4   6  1   
  6   4   7  1   
  7   5   8  1   
  8   5  24  1   
  9   5  25  1   
 10   6  26  1   
 11   6  27  1   
 12   6  28  1   
 13   7  29  1   
 14   7  30  1   
 15   7  31  1   
 16   8   9  1   
 17   8  10  1   
 18   8  32  1   
 19   9  11  1   
 20   9  12  1   
 21   9  33  1   
 22  10  13  1   
 23  10  34  1   
 24  10  35  1   
 25  11  36  1   
 26  12  13  1   
 27  12  37  1   
 28  12  38  1   
 29  13  14  am  
 30  14  15  2   
 31  14  16  1   
 32  16  17  1   
 33  16  18  2   
 34  17  19  1   
 35  18  20  1   
 36  18  39  1   
 37  19  21  2   
 38  19  22  1   
 39  20  21  1   
 40  20  23  2   
 41  21  40  1   
 42  22  41  1   
 43  22  42  1   
 44  22  43  1   
@<TRIPOS>SUBSTRUCTURE
  1 ****  13 GROUP 4 **** **** 0

# MOE 2024.06 (io_trps.svl 2023.06)
