@<TRIPOS>MOLECULE
NONAME
49 53 1 0 0 
SMALL
USER_CHARGES


@<TRIPOS>ATOM
  1 O       -1.4630    -1.2250     0.7490 O.2   1 <1>  -0.5700 
  2 C       -2.1410    -0.3220     0.3170 C.2   1 <1>   0.6300 
  3 N       -2.7010    -0.3980    -0.9340 N.am  1 <1>  -0.6600 
  4 C       -2.3770     0.8840     1.2230 C.3   1 <1>  -0.0950 
  5 C       -3.7780     0.5000    -1.4240 C.3   1 <1>   0.1400 
  6 C       -2.4300    -1.5630    -1.8350 C.3   1 <1>   0.1400 
  7 C       -2.5740     0.6520     2.6990 C.3   1 <1>  -0.2000 
  8 C       -3.7350     1.0710     1.8500 C.3   1 <1>  -0.2000 
  9 C       -1.5060     2.0590     0.7500 C.3   1 <1>   0.2150 
 10 C       -5.1120    -0.2560    -1.3940 C.3   1 <1>  -0.1600 
 11 C       -3.7040    -2.0320    -2.5520 C.3   1 <1>  -0.1600 
 12 O       -1.8170     3.2190     1.4400 O.3   1 <1>  -0.6800 
 13 C       -4.9850    -1.7510    -1.7570 C.3   1 <1>   0.4600 
 14 O       -6.0410    -2.0780    -2.6300 O.3   1 <1>  -0.5600 
 15 C       -5.0800    -2.6440    -0.5170 C.2   1 <1>  -0.3320 
 16 C       -7.3150    -2.2830    -2.0660 C.3   1 <1>   0.1200 
 17 N       -4.1510    -2.7640     0.4820 N.pl3 1 <1>   0.0330 
 18 C       -6.1300    -3.4430    -0.2380 C.2   1 <1>  -0.1810 
 19 C       -7.3230    -3.5230    -1.1570 C.3   1 <1>   0.0210 
 20 C       -4.6300    -3.6590     1.4050 C.ar  1 <1>  -0.1520 
 21 C       -5.8760    -4.1100     0.9790 C.ar  1 <1>   0.0000 
 22 C       -4.0660    -4.1210     2.5960 C.ar  1 <1>  -0.1500 
 23 C       -6.5750    -5.0400     1.7550 C.ar  1 <1>  -0.1500 
 24 C       -4.7650    -5.0350     3.3510 C.ar  1 <1>  -0.1500 
 25 C       -6.0200    -5.4940     2.9300 C.ar  1 <1>  -0.1500 
 26 H       -3.5490     0.7900    -2.4360 H     1 <1>   0.0800 
 27 H       -3.8500     1.4000    -0.8380 H     1 <1>   0.0800 
 28 H       -2.0320    -2.3850    -1.2650 H     1 <1>   0.0800 
 29 H       -1.6850    -1.2840    -2.5610 H     1 <1>   0.0800 
 30 H       -2.1840     1.3520     3.4160 H     1 <1>   0.1000 
 31 H       -2.5470    -0.3590     3.0690 H     1 <1>   0.1000 
 32 H       -4.5070     0.3410     1.6800 H     1 <1>   0.1000 
 33 H       -4.1330     2.0650     1.9620 H     1 <1>   0.1000 
 34 H       -1.6620     2.2550    -0.2970 H     1 <1>   0.0800 
 35 H       -0.4640     1.8380     0.9100 H     1 <1>   0.0800 
 36 H       -5.7780     0.2320    -2.0820 H     1 <1>   0.0800 
 37 H       -5.5420    -0.1700    -0.4140 H     1 <1>   0.0800 
 38 H       -3.6310    -3.0850    -2.7510 H     1 <1>   0.0800 
 39 H       -3.7680    -1.5240    -3.4970 H     1 <1>   0.0800 
 40 H       -1.8190     3.0360     2.3990 H     1 <1>   0.4000 
 41 H       -8.0160    -2.4080    -2.8720 H     1 <1>   0.0800 
 42 H       -7.5840    -1.4060    -1.5030 H     1 <1>   0.0800 
 43 H       -3.2380    -2.2900     0.5340 H     1 <1>   0.2700 
 44 H       -7.2630    -4.4160    -1.7520 H     1 <1>   0.0800 
 45 H       -8.2320    -3.5480    -0.5840 H     1 <1>   0.0800 
 46 H       -3.1010    -3.7610     2.9050 H     1 <1>   0.1500 
 47 H       -7.5350    -5.3840     1.4190 H     1 <1>   0.1500 
 48 H       -4.3530    -5.4070     4.2720 H     1 <1>   0.1500 
 49 H       -6.5460    -6.2100     3.5370 H     1 <1>   0.1500 
@<TRIPOS>BOND
  1   1   2  2   
  2   2   3  am  
  3   2   4  1   
  4   3   5  1   
  5   3   6  1   
  6   4   7  1   
  7   4   8  1   
  8   4   9  1   
  9   5  10  1   
 10   5  26  1   
 11   5  27  1   
 12   6  11  1   
 13   6  28  1   
 14   6  29  1   
 15   7   8  1   
 16   7  30  1   
 17   7  31  1   
 18   8  32  1   
 19   8  33  1   
 20   9  12  1   
 21   9  34  1   
 22   9  35  1   
 23  10  13  1   
 24  10  36  1   
 25  10  37  1   
 26  11  13  1   
 27  11  38  1   
 28  11  39  1   
 29  12  40  1   
 30  13  14  1   
 31  13  15  1   
 32  14  16  1   
 33  15  17  1   
 34  15  18  2   
 35  16  19  1   
 36  16  41  1   
 37  16  42  1   
 38  17  20  1   
 39  17  43  1   
 40  18  19  1   
 41  18  21  1   
 42  19  44  1   
 43  19  45  1   
 44  20  21  ar  
 45  20  22  ar  
 46  21  23  ar  
 47  22  24  ar  
 48  22  46  1   
 49  23  25  ar  
 50  23  47  1   
 51  24  25  ar  
 52  24  48  1   
 53  25  49  1   
@<TRIPOS>SUBSTRUCTURE
  1 ****  17 GROUP 4 **** **** 0

# MOE 2024.06 (io_trps.svl 2023.06)
