@<TRIPOS>MOLECULE
NONAME
45 46 1 0 0 
SMALL
USER_CHARGES


@<TRIPOS>ATOM
  1 N        0.0200     1.3730    -0.3970 N.2   1 <1>  -0.3380 
  2 N       -0.2380     2.0540     0.7200 N.2   1 <1>  -0.3380 
  3 C        1.2820     1.4810    -0.6200 C.2   1 <1>   0.0360 
  4 C        0.8780     2.5450     1.1270 C.2   1 <1>   0.0360 
  5 N        1.8840     2.2240     0.3110 N.pl3 1 <1>   0.0480 
  6 C        3.2870     2.6580     0.3740 C.3   1 <1>   0.0960 
  7 C        3.4160     3.9770    -0.4030 C.3   1 <1>   0.3430 
  8 N        4.7890     4.5970    -0.3200 N.4   1 <1>  -0.9590 
  9 C        4.7690     5.9780    -0.9100 C.3   1 <1>   0.3430 
 10 C        5.8180     3.7400    -1.0070 C.3   1 <1>   0.2630 
 11 C        5.5040     7.0070    -0.0240 C.3   1 <1>  -0.0800 
 12 C        5.3420     8.4240    -0.6310 C.3   1 <1>   0.3430 
 13 C        6.9910     6.6690     0.2150 C.3   1 <1>  -0.1600 
 14 N        6.5020     9.3320    -0.3450 N.4   1 <1>  -0.9590 
 15 C        7.6610     7.7220     1.1220 C.3   1 <1>  -0.1600 
 16 C        7.0560     9.1290     1.0240 C.3   1 <1>   0.3430 
 17 C        6.1380    10.7550    -0.5940 C.3   1 <1>   0.3430 
 18 C        7.4030    11.5850    -0.7790 C.3   1 <1>  -0.2400 
 19 H        1.7870     1.0310    -1.4550 H     1 <1>   0.1500 
 20 H        0.9870     3.1430     2.0140 H     1 <1>   0.1500 
 21 H        3.9010     1.8890    -0.0610 H     1 <1>   0.0800 
 22 H        3.5550     2.7930     1.4060 H     1 <1>   0.0800 
 23 H        2.6920     4.6700    -0.0020 H     1 <1>   0.0800 
 24 H        3.1640     3.7990    -1.4370 H     1 <1>   0.0800 
 25 H        5.0470     4.6800     0.6760 H     1 <1>   0.4500 
 26 H        3.7450     6.3000    -1.0260 H     1 <1>   0.0800 
 27 H        5.2140     5.9590    -1.8940 H     1 <1>   0.0800 
 28 H        5.5600     3.5980    -2.0450 H     1 <1>   0.0800 
 29 H        5.8840     2.7730    -0.5360 H     1 <1>   0.0800 
 30 H        6.7910     4.2030    -0.9590 H     1 <1>   0.0800 
 31 H        5.0040     7.0230     0.9300 H     1 <1>   0.0800 
 32 H        4.4380     8.8650    -0.2400 H     1 <1>   0.0800 
 33 H        5.2280     8.3490    -1.7010 H     1 <1>   0.0800 
 34 H        7.5080     6.6430    -0.7300 H     1 <1>   0.0800 
 35 H        7.1080     5.7040     0.6770 H     1 <1>   0.0800 
 36 H        7.2650     9.1070    -0.9990 H     1 <1>   0.4500 
 37 H        8.7110     7.7730     0.8900 H     1 <1>   0.0800 
 38 H        7.5930     7.4100     2.1510 H     1 <1>   0.0800 
 39 H        6.2660     9.2370     1.7510 H     1 <1>   0.0800 
 40 H        7.8170     9.8600     1.2460 H     1 <1>   0.0800 
 41 H        5.5550    11.1440     0.2260 H     1 <1>   0.0800 
 42 H        5.5450    10.8290    -1.4930 H     1 <1>   0.0800 
 43 H        7.9890    11.6240     0.1220 H     1 <1>   0.0800 
 44 H        7.1260    12.5940    -1.0270 H     1 <1>   0.0800 
 45 H        8.0020    11.2020    -1.5860 H     1 <1>   0.0800 
@<TRIPOS>BOND
  1   1   2  1   
  2   1   3  2   
  3   2   4  2   
  4   3   5  1   
  5   3  19  1   
  6   4   5  1   
  7   4  20  1   
  8   5   6  1   
  9   6   7  1   
 10   6  21  1   
 11   6  22  1   
 12   7   8  1   
 13   7  23  1   
 14   7  24  1   
 15   8   9  1   
 16   8  10  1   
 17   8  25  1   
 18   9  11  1   
 19   9  26  1   
 20   9  27  1   
 21  10  28  1   
 22  10  29  1   
 23  10  30  1   
 24  11  12  1   
 25  11  13  1   
 26  11  31  1   
 27  12  14  1   
 28  12  32  1   
 29  12  33  1   
 30  13  15  1   
 31  13  34  1   
 32  13  35  1   
 33  14  16  1   
 34  14  17  1   
 35  14  36  1   
 36  15  16  1   
 37  15  37  1   
 38  15  38  1   
 39  16  39  1   
 40  16  40  1   
 41  17  18  1   
 42  17  41  1   
 43  17  42  1   
 44  18  43  1   
 45  18  44  1   
 46  18  45  1   
@<TRIPOS>SUBSTRUCTURE
  1 ****   9 GROUP 4 **** **** 0

# MOE 2024.06 (io_trps.svl 2023.06)
