@<TRIPOS>MOLECULE
NONAME
53 55 1 0 0 
SMALL
USER_CHARGES


@<TRIPOS>ATOM
  1 S       -0.1110    -0.2720    -0.5000 S.o2  1 <1>   1.4470 
  2 O        0.8130    -1.3530    -0.7410 O.2   1 <1>  -0.6500 
  3 O        0.3620     0.9540     0.0940 O.2   1 <1>  -0.6500 
  4 N       -0.4860     0.1810    -2.0470 N.am  1 <1>  -0.9780 
  5 C       -1.6820    -0.8680     0.2130 C.ar  1 <1>  -0.0090 
  6 C       -2.7490    -0.0300     0.5650 C.ar  1 <1>  -0.1430 
  7 C       -1.8300    -2.2340     0.4100 C.ar  1 <1>  -0.1500 
  8 C       -3.9080    -0.5740     1.1200 C.ar  1 <1>  -0.1430 
  9 C       -2.6260     1.4810     0.3490 C.3   1 <1>  -0.0970 
 10 C       -2.9810    -2.8040     0.9360 C.ar  1 <1>   0.0860 
 11 C       -4.0070    -1.9410     1.2980 C.ar  1 <1>  -0.1500 
 12 C       -5.0920     0.2800     1.5610 C.3   1 <1>  -0.0970 
 13 C       -3.0980    -4.2400     1.1030 C.2   1 <1>   0.5440 
 14 O       -2.2100    -4.8580     1.6580 O.2   1 <1>  -0.5700 
 15 N       -4.1890    -4.9260     0.6230 N.am  1 <1>  -0.6600 
 16 C       -5.0650    -4.4470    -0.4780 C.3   1 <1>   0.1400 
 17 C       -4.3880    -6.3800     0.8220 C.3   1 <1>   0.1400 
 18 C       -5.8620    -5.6730    -0.9470 C.3   1 <1>   0.2000 
 19 C       -5.0190    -6.8650    -0.4830 C.3   1 <1>  -0.0800 
 20 O       -7.0980    -5.7110    -0.2900 O.3   1 <1>  -0.5600 
 21 C       -5.7970    -8.1860    -0.3370 C.3   1 <1>   0.0200 
 22 C       -8.1200    -4.9920    -0.9060 C.3   1 <1>   0.0400 
 23 C       -4.9020    -9.3790    -0.0470 C.2   1 <1>  -0.0400 
 24 O       -5.4580   -10.5410     0.1750 O.3   1 <1>  -0.0190 
 25 C       -3.5720    -9.5430     0.0400 C.2   1 <1>  -0.1500 
 26 N       -4.5750   -11.4690     0.4070 N.2   1 <1>  -0.4100 
 27 C       -3.4290   -10.8950     0.3340 C.2   1 <1>   0.1080 
 28 C       -2.1080   -11.6020     0.5410 C.3   1 <1>  -0.0590 
 29 H       -0.0380    -0.5400    -2.6080 H     1 <1>   0.4200 
 30 H        0.0720     1.0200    -2.1790 H     1 <1>   0.4200 
 31 H       -1.0210    -2.8980     0.1500 H     1 <1>   0.1500 
 32 H       -3.5650     1.9930     0.4220 H     1 <1>   0.0800 
 33 H       -2.2390     1.6960    -0.6300 H     1 <1>   0.0800 
 34 H       -1.9600     1.9010     1.0830 H     1 <1>   0.0800 
 35 H       -4.8940    -2.3680     1.7340 H     1 <1>   0.1500 
 36 H       -5.8380    -0.3130     2.0590 H     1 <1>   0.0800 
 37 H       -5.5500     0.7460     0.7070 H     1 <1>   0.0800 
 38 H       -4.7640     1.0410     2.2470 H     1 <1>   0.0800 
 39 H       -5.7180    -3.6640    -0.1380 H     1 <1>   0.0800 
 40 H       -4.4480    -4.0830    -1.2810 H     1 <1>   0.0800 
 41 H       -3.4580    -6.8810     1.0310 H     1 <1>   0.0800 
 42 H       -5.0650    -6.5260     1.6460 H     1 <1>   0.0800 
 43 H       -6.0230    -5.6850    -2.0120 H     1 <1>   0.0800 
 44 H       -4.2280    -7.0050    -1.1990 H     1 <1>   0.0800 
 45 H       -6.3370    -8.3820    -1.2460 H     1 <1>   0.0800 
 46 H       -6.5180    -8.0970     0.4570 H     1 <1>   0.0800 
 47 H       -9.0040    -5.0860    -0.2990 H     1 <1>   0.0800 
 48 H       -8.3080    -5.4060    -1.8820 H     1 <1>   0.0800 
 49 H       -7.8420    -3.9560    -0.9790 H     1 <1>   0.0800 
 50 H       -2.7720    -8.8360    -0.0790 H     1 <1>   0.1500 
 51 H       -1.5610   -11.1270     1.3340 H     1 <1>   0.0800 
 52 H       -1.5300   -11.5640    -0.3630 H     1 <1>   0.0800 
 53 H       -2.2800   -12.6300     0.8030 H     1 <1>   0.0800 
@<TRIPOS>BOND
  1   1   2  2   
  2   1   3  2   
  3   1   4  am  
  4   1   5  1   
  5   4  29  1   
  6   4  30  1   
  7   5   6  ar  
  8   5   7  ar  
  9   6   8  ar  
 10   6   9  1   
 11   7  10  ar  
 12   7  31  1   
 13   8  11  ar  
 14   8  12  1   
 15   9  32  1   
 16   9  33  1   
 17   9  34  1   
 18  10  11  ar  
 19  10  13  1   
 20  11  35  1   
 21  12  36  1   
 22  12  37  1   
 23  12  38  1   
 24  13  14  2   
 25  13  15  am  
 26  15  16  1   
 27  15  17  1   
 28  16  18  1   
 29  16  39  1   
 30  16  40  1   
 31  17  19  1   
 32  17  41  1   
 33  17  42  1   
 34  18  19  1   
 35  18  20  1   
 36  18  43  1   
 37  19  21  1   
 38  19  44  1   
 39  20  22  1   
 40  21  23  1   
 41  21  45  1   
 42  21  46  1   
 43  22  47  1   
 44  22  48  1   
 45  22  49  1   
 46  23  24  1   
 47  23  25  2   
 48  24  26  1   
 49  25  27  1   
 50  25  50  1   
 51  26  27  2   
 52  27  28  1   
 53  28  51  1   
 54  28  52  1   
 55  28  53  1   
@<TRIPOS>SUBSTRUCTURE
  1 ****  15 GROUP 4 **** **** 0

# MOE 2024.06 (io_trps.svl 2023.06)
