@<TRIPOS>MOLECULE
NONAME
48 51 1 0 0 
SMALL
USER_CHARGES


@<TRIPOS>ATOM
  1 O       -3.6400    -0.2220    -1.7460 O.2   1 <1>  -0.5700 
  2 C       -2.8540    -0.8590    -1.0890 C.2   1 <1>   0.5690 
  3 N       -2.7160    -2.1980    -1.1110 N.am  1 <1>  -0.6600 
  4 C       -1.9080    -0.2420    -0.0970 C.3   1 <1>  -0.0990 
  5 C       -1.7180    -2.6980    -0.1540 C.3   1 <1>   0.1400 
  6 C       -3.4890    -3.1470    -1.9700 C.3   1 <1>   0.2010 
  7 C       -1.0400    -1.4240     0.3710 C.3   1 <1>  -0.1600 
  8 C       -4.3240    -4.1460    -1.1630 C.2   1 <1>   0.5690 
  9 O       -3.7950    -5.2030    -0.9000 O.2   1 <1>  -0.5700 
 10 N       -5.6100    -3.8670    -0.7580 N.am  1 <1>  -0.6600 
 11 C       -6.3320    -2.5700    -1.0010 C.3   1 <1>   0.1400 
 12 C       -6.4340    -4.8960    -0.0620 C.3   1 <1>   0.1400 
 13 C       -6.9110    -1.9820     0.3030 C.3   1 <1>   0.1430 
 14 C       -6.9580    -4.3420     1.2660 C.3   1 <1>  -0.1600 
 15 C       -7.7480    -0.7630    -0.0410 C.ar  1 <1>   0.1670 
 16 C       -7.7500    -3.0430     1.0490 C.3   1 <1>  -0.1600 
 17 C       -5.7940    -1.3880     1.2050 C.3   1 <1>  -0.1600 
 18 N       -8.9110    -0.7870    -0.6570 N.ar  1 <1>  -0.6200 
 19 C       -7.1490     0.3930     0.3590 C.ar  1 <1>  -0.1430 
 20 C       -5.8200     0.1420     1.0220 C.3   1 <1>  -0.0170 
 21 C       -9.4550     0.4060    -0.8480 C.ar  1 <1>   0.4770 
 22 C       -7.8020     1.5740     0.1070 C.ar  1 <1>   0.1600 
 23 N       -8.9710     1.5910    -0.4990 N.ar  1 <1>  -0.6200 
 24 C      -10.7940     0.4210    -1.5440 C.3   1 <1>  -0.0970 
 25 H       -2.4720     0.1720     0.7180 H     1 <1>   0.0800 
 26 H       -1.3200     0.5250    -0.5670 H     1 <1>   0.0800 
 27 H       -1.0130    -3.3490    -0.6430 H     1 <1>   0.0800 
 28 H       -2.2150    -3.2310     0.6410 H     1 <1>   0.0800 
 29 H       -2.7930    -3.7040    -2.5710 H     1 <1>   0.0800 
 30 H       -4.1210    -2.6000    -2.6440 H     1 <1>   0.0800 
 31 H       -0.9430    -1.4510     1.4420 H     1 <1>   0.0800 
 32 H       -0.0570    -1.3490    -0.0610 H     1 <1>   0.0800 
 33 H       -7.1410    -2.7540    -1.6870 H     1 <1>   0.0800 
 34 H       -5.6860    -1.8380    -1.4490 H     1 <1>   0.0800 
 35 H       -5.8580    -5.7870     0.1270 H     1 <1>   0.0800 
 36 H       -7.2610    -5.1670    -0.6960 H     1 <1>   0.0800 
 37 H       -6.1260    -4.1700     1.9250 H     1 <1>   0.0800 
 38 H       -7.5940    -5.0760     1.7270 H     1 <1>   0.0800 
 39 H       -8.6240    -3.2690     0.4630 H     1 <1>   0.0800 
 40 H       -8.0890    -2.6510     1.9920 H     1 <1>   0.0800 
 41 H       -4.8260    -1.7950     0.9700 H     1 <1>   0.0800 
 42 H       -6.0050    -1.6050     2.2370 H     1 <1>   0.0800 
 43 H       -5.0310     0.4670     0.3690 H     1 <1>   0.0800 
 44 H       -5.7470     0.6530     1.9650 H     1 <1>   0.0800 
 45 H       -7.3640     2.5120     0.4020 H     1 <1>   0.1500 
 46 H      -10.9030    -0.4550    -2.1560 H     1 <1>   0.0800 
 47 H      -10.8740     1.2930    -2.1660 H     1 <1>   0.0800 
 48 H      -11.5740     0.4390    -0.8080 H     1 <1>   0.0800 
@<TRIPOS>BOND
  1   1   2  2   
  2   2   3  am  
  3   2   4  1   
  4   3   5  1   
  5   3   6  1   
  6   4   7  1   
  7   4  25  1   
  8   4  26  1   
  9   5   7  1   
 10   5  27  1   
 11   5  28  1   
 12   6   8  1   
 13   6  29  1   
 14   6  30  1   
 15   7  31  1   
 16   7  32  1   
 17   8   9  2   
 18   8  10  am  
 19  10  11  1   
 20  10  12  1   
 21  11  13  1   
 22  11  33  1   
 23  11  34  1   
 24  12  14  1   
 25  12  35  1   
 26  12  36  1   
 27  13  15  1   
 28  13  16  1   
 29  13  17  1   
 30  14  16  1   
 31  14  37  1   
 32  14  38  1   
 33  15  18  ar  
 34  15  19  ar  
 35  16  39  1   
 36  16  40  1   
 37  17  20  1   
 38  17  41  1   
 39  17  42  1   
 40  18  21  ar  
 41  19  20  1   
 42  19  22  ar  
 43  20  43  1   
 44  20  44  1   
 45  21  23  ar  
 46  21  24  1   
 47  22  23  ar  
 48  22  45  1   
 49  24  46  1   
 50  24  47  1   
 51  24  48  1   
@<TRIPOS>SUBSTRUCTURE
  1 ****  11 GROUP 4 **** **** 0

# MOE 2024.06 (io_trps.svl 2023.06)
