@<TRIPOS>MOLECULE
NONAME
55 57 1 0 0 
SMALL
USER_CHARGES


@<TRIPOS>ATOM
  1 O        3.5300    -2.5190     2.5440 O.2   1 <1>  -0.5700 
  2 C        2.6360    -1.7510     2.2840 C.2   1 <1>   0.5690 
  3 N        2.8580    -0.6730     1.4540 N.am  1 <1>  -0.6600 
  4 C        1.2450    -2.1110     2.7920 C.3   1 <1>   0.0450 
  5 C        4.1570    -0.6330     0.6830 C.3   1 <1>   0.2200 
  6 C        1.8130     0.3340     1.0800 C.3   1 <1>   0.1400 
  7 C        0.3970    -2.6030     1.6210 C.ar  1 <1>  -0.1440 
  8 C        4.6740     0.7860     0.3910 C.3   1 <1>   0.1200 
  9 C        4.0150    -1.4500    -0.6250 C.3   1 <1>   0.3430 
 10 C        1.8140     0.7360    -0.4090 C.3   1 <1>  -0.0800 
 11 C        0.8610    -3.6430     0.8320 C.ar  1 <1>  -0.1500 
 12 C       -0.8130    -2.0070     1.3030 C.ar  1 <1>  -0.1500 
 13 O        4.1340     1.2770    -0.8000 O.3   1 <1>  -0.5600 
 14 N        2.5800    -1.6530    -1.0500 N.4   1 <1>  -0.9590 
 15 C        2.8620     1.8190    -0.7070 C.3   1 <1>   0.1200 
 16 C        1.8510    -0.4070    -1.4510 C.3   1 <1>   0.3430 
 17 C        0.1650    -4.0390    -0.2970 C.ar  1 <1>   0.0830 
 18 C       -1.5260    -2.4040     0.1820 C.ar  1 <1>   0.0830 
 19 C        2.4740    -2.7000    -2.1070 C.3   1 <1>   0.2630 
 20 O        0.7270    -5.0150    -1.0500 O.3   1 <1>  -0.3630 
 21 C       -1.0230    -3.4030    -0.6610 C.ar  1 <1>   0.0830 
 22 O       -2.7010    -1.7750    -0.0430 O.3   1 <1>  -0.3630 
 23 C        0.0480    -6.2540    -1.0770 C.3   1 <1>   0.0400 
 24 O       -1.6170    -3.7780    -1.8340 O.3   1 <1>  -0.3630 
 25 C       -3.8500    -2.4860     0.3630 C.3   1 <1>   0.0400 
 26 C       -2.1910    -2.8090    -2.6870 C.3   1 <1>   0.0400 
 27 H        1.3280    -2.8940     3.5240 H     1 <1>   0.0800 
 28 H        0.8010    -1.2600     3.2730 H     1 <1>   0.0800 
 29 H        4.9240    -1.0970     1.2780 H     1 <1>   0.0800 
 30 H        0.8360    -0.0340     1.3210 H     1 <1>   0.0800 
 31 H        1.9610     1.2130     1.6840 H     1 <1>   0.0800 
 32 H        5.7390     0.7450     0.2450 H     1 <1>   0.0800 
 33 H        4.4750     1.4640     1.2040 H     1 <1>   0.0800 
 34 H        4.4640    -2.4140    -0.4520 H     1 <1>   0.0800 
 35 H        4.5720    -0.9700    -1.4120 H     1 <1>   0.0800 
 36 H        0.8750     1.2360    -0.5670 H     1 <1>   0.0800 
 37 H        1.7770    -4.1550     1.0810 H     1 <1>   0.1500 
 38 H       -1.2210    -1.2240     1.9180 H     1 <1>   0.1500 
 39 H        2.1000    -2.0040    -0.2030 H     1 <1>   0.4500 
 40 H        2.8650     2.5920     0.0450 H     1 <1>   0.0800 
 41 H        2.6510     2.2820    -1.6560 H     1 <1>   0.0800 
 42 H        2.2830    -0.0230    -2.3620 H     1 <1>   0.0800 
 43 H        0.8320    -0.6800    -1.6710 H     1 <1>   0.0800 
 44 H        2.9890    -2.3880    -3.0000 H     1 <1>   0.0800 
 45 H        1.4390    -2.8850    -2.3470 H     1 <1>   0.0800 
 46 H        2.9050    -3.6250    -1.7600 H     1 <1>   0.0800 
 47 H        0.6600    -6.9630    -1.6050 H     1 <1>   0.0800 
 48 H       -0.8920    -6.1360    -1.5840 H     1 <1>   0.0800 
 49 H       -0.1120    -6.5870    -0.0660 H     1 <1>   0.0800 
 50 H       -4.7170    -1.8990     0.1170 H     1 <1>   0.0800 
 51 H       -3.8040    -2.6470     1.4250 H     1 <1>   0.0800 
 52 H       -3.8830    -3.4280    -0.1560 H     1 <1>   0.0800 
 53 H       -2.2110    -3.2110    -3.6840 H     1 <1>   0.0800 
 54 H       -1.5960    -1.9140    -2.6610 H     1 <1>   0.0800 
 55 H       -3.1950    -2.6060    -2.3630 H     1 <1>   0.0800 
@<TRIPOS>BOND
  1   1   2  2   
  2   2   3  am  
  3   2   4  1   
  4   3   5  1   
  5   3   6  1   
  6   4   7  1   
  7   4  27  1   
  8   4  28  1   
  9   5   8  1   
 10   5   9  1   
 11   5  29  1   
 12   6  10  1   
 13   6  30  1   
 14   6  31  1   
 15   7  11  ar  
 16   7  12  ar  
 17   8  13  1   
 18   8  32  1   
 19   8  33  1   
 20   9  14  1   
 21   9  34  1   
 22   9  35  1   
 23  10  15  1   
 24  10  16  1   
 25  10  36  1   
 26  11  17  ar  
 27  11  37  1   
 28  12  18  ar  
 29  12  38  1   
 30  13  15  1   
 31  14  16  1   
 32  14  19  1   
 33  14  39  1   
 34  15  40  1   
 35  15  41  1   
 36  16  42  1   
 37  16  43  1   
 38  17  20  1   
 39  17  21  ar  
 40  18  21  ar  
 41  18  22  1   
 42  19  44  1   
 43  19  45  1   
 44  19  46  1   
 45  20  23  1   
 46  21  24  1   
 47  22  25  1   
 48  23  47  1   
 49  23  48  1   
 50  23  49  1   
 51  24  26  1   
 52  25  50  1   
 53  25  51  1   
 54  25  52  1   
 55  26  53  1   
 56  26  54  1   
 57  26  55  1   
@<TRIPOS>SUBSTRUCTURE
  1 ****  14 GROUP 4 **** **** 0

# MOE 2024.06 (io_trps.svl 2023.06)
