@<TRIPOS>MOLECULE
NONAME
51 53 1 0 0 
SMALL
USER_CHARGES


@<TRIPOS>ATOM
  1 O        1.6510    -0.8730     2.5820 O.2   1 <1>  -0.5700 
  2 C        2.1790    -1.0330     1.5040 C.2   1 <1>   0.5690 
  3 N        2.8460     0.0040     0.8830 N.am  1 <1>  -0.6600 
  4 C        2.0950    -2.4260     0.8730 C.3   1 <1>   0.2370 
  5 C        3.4190    -0.0770    -0.5000 C.3   1 <1>   0.1400 
  6 C        2.9400     1.3420     1.5410 C.3   1 <1>   0.1400 
  7 N        0.9930    -2.4350    -0.1120 N.pl3 1 <1>   0.3140 
  8 C        1.9210    -3.5800     1.8830 C.3   1 <1>  -0.2400 
  9 C        4.8900    -0.5190    -0.4780 C.3   1 <1>   0.1400 
 10 C        4.3450     1.9640     1.4830 C.3   1 <1>  -0.1600 
 11 N        1.2040    -2.7790    -1.4010 N.2   1 <1>  -0.7070 
 12 C       -0.3040    -2.1250     0.0980 C.2   1 <1>  -0.3020 
 13 N        5.7960     0.5320     0.0880 N.am  1 <1>  -0.6600 
 14 C        5.4940     0.9490     1.4880 C.3   1 <1>   0.1400 
 15 C        0.0400    -2.6810    -1.9680 C.2   1 <1>   0.1390 
 16 C       -0.9460    -2.2740    -1.0790 C.2   1 <1>  -0.1500 
 17 C        6.8100     1.0610    -0.6740 C.2   1 <1>   0.5690 
 18 O        7.0120     0.6860    -1.8060 O.2   1 <1>  -0.5700 
 19 C        7.7130     2.1500    -0.1080 C.3   1 <1>  -0.0990 
 20 C        8.6960     2.7420    -1.1300 C.3   1 <1>  -0.0170 
 21 C        9.5440     3.8250    -0.4830 C.ar  1 <1>  -0.1440 
 22 C        9.1900     5.1580    -0.5310 C.ar  1 <1>  -0.1500 
 23 C       10.7120     3.5280     0.1900 C.ar  1 <1>  -0.1500 
 24 C        9.9970     6.1030     0.0800 C.ar  1 <1>   0.1600 
 25 C       11.4470     4.5500     0.7680 C.ar  1 <1>   0.1600 
 26 N       11.1170     5.8310     0.7310 N.ar  1 <1>  -0.6200 
 27 H        3.0040    -2.6070     0.3350 H     1 <1>   0.0800 
 28 H        3.3410     0.8790    -0.9890 H     1 <1>   0.0800 
 29 H        2.8560    -0.7720    -1.0940 H     1 <1>   0.0800 
 30 H        2.6640     1.2520     2.5780 H     1 <1>   0.0800 
 31 H        2.2310     2.0090     1.0820 H     1 <1>   0.0800 
 32 H        1.0050    -3.4630     2.4360 H     1 <1>   0.0800 
 33 H        2.7390    -3.5780     2.5810 H     1 <1>   0.0800 
 34 H        1.9090    -4.5240     1.3690 H     1 <1>   0.0800 
 35 H        5.1800    -0.7520    -1.4870 H     1 <1>   0.0800 
 36 H        4.9930    -1.4210     0.0970 H     1 <1>   0.0800 
 37 H        4.4470     2.6000     2.3430 H     1 <1>   0.0800 
 38 H        4.4250     2.5990     0.6190 H     1 <1>   0.0800 
 39 H       -0.6840    -1.8210     1.0580 H     1 <1>   0.1500 
 40 H        5.2370     0.0880     2.0840 H     1 <1>   0.0800 
 41 H        6.3620     1.3960     1.9390 H     1 <1>   0.0800 
 42 H       -0.1320    -2.8940    -3.0110 H     1 <1>   0.1500 
 43 H       -1.9850    -2.1200    -1.3080 H     1 <1>   0.1500 
 44 H        8.2750     1.7330     0.7070 H     1 <1>   0.0800 
 45 H        7.0980     2.9430     0.2720 H     1 <1>   0.0800 
 46 H        8.1500     3.1540    -1.9610 H     1 <1>   0.0800 
 47 H        9.3350     1.9650    -1.5140 H     1 <1>   0.0800 
 48 H        8.2960     5.4700    -1.0390 H     1 <1>   0.1500 
 49 H       11.0560     2.5130     0.2690 H     1 <1>   0.1500 
 50 H        9.7060     7.1380     0.0310 H     1 <1>   0.1500 
 51 H       12.3560     4.3000     1.2880 H     1 <1>   0.1500 
@<TRIPOS>BOND
  1   1   2  2   
  2   2   3  am  
  3   2   4  1   
  4   3   5  1   
  5   3   6  1   
  6   4   7  1   
  7   4   8  1   
  8   4  27  1   
  9   5   9  1   
 10   5  28  1   
 11   5  29  1   
 12   6  10  1   
 13   6  30  1   
 14   6  31  1   
 15   7  11  1   
 16   7  12  1   
 17   8  32  1   
 18   8  33  1   
 19   8  34  1   
 20   9  13  1   
 21   9  35  1   
 22   9  36  1   
 23  10  14  1   
 24  10  37  1   
 25  10  38  1   
 26  11  15  2   
 27  12  16  2   
 28  12  39  1   
 29  13  14  1   
 30  13  17  am  
 31  14  40  1   
 32  14  41  1   
 33  15  16  1   
 34  15  42  1   
 35  16  43  1   
 36  17  18  2   
 37  17  19  1   
 38  19  20  1   
 39  19  44  1   
 40  19  45  1   
 41  20  21  1   
 42  20  46  1   
 43  20  47  1   
 44  21  22  ar  
 45  21  23  ar  
 46  22  24  ar  
 47  22  48  1   
 48  23  25  ar  
 49  23  49  1   
 50  24  26  ar  
 51  24  50  1   
 52  25  26  ar  
 53  25  51  1   
@<TRIPOS>SUBSTRUCTURE
  1 ****  13 GROUP 4 **** **** 0

# MOE 2024.06 (io_trps.svl 2023.06)
