@<TRIPOS>MOLECULE
NONAME
58 60 1 0 0 
SMALL
USER_CHARGES


@<TRIPOS>ATOM
  1 O       -0.5200    -1.0450    -3.1690 O.2   1 <1>  -0.5700 
  2 C       -1.1300    -0.0780    -2.7740 C.2   1 <1>   0.5690 
  3 N       -2.1830    -0.2130    -1.9060 N.am  1 <1>  -0.6600 
  4 C       -0.6840     1.2890    -3.2810 C.3   1 <1>   0.0440 
  5 C       -2.9240     0.8700    -1.2220 C.3   1 <1>   0.1400 
  6 C       -2.5090    -1.5070    -1.2650 C.3   1 <1>   0.1400 
  7 C       -0.1610     2.2240    -2.1900 C.ar  1 <1>  -0.1440 
  8 C       -3.0700     0.3560     0.2110 C.3   1 <1>  -0.0800 
  9 C       -3.2560    -1.1630     0.0320 C.3   1 <1>  -0.0800 
 10 C       -0.4400     3.5810    -2.2530 C.ar  1 <1>  -0.1500 
 11 C        0.5670     1.7360    -1.1160 C.ar  1 <1>  -0.1500 
 12 C       -4.1420     1.0670     1.0870 C.3   1 <1>   0.2800 
 13 C       -4.7470    -1.5300    -0.0320 C.3   1 <1>  -0.1600 
 14 C       -0.0160     4.4500    -1.2600 C.ar  1 <1>   0.0830 
 15 C        0.9920     2.5860    -0.1090 C.ar  1 <1>   0.0830 
 16 O       -5.1290     1.6100     0.2850 O.3   1 <1>  -0.6800 
 17 C       -4.8330     0.0460     2.0100 C.3   1 <1>  -0.1600 
 18 C       -3.5530     2.2220     1.9280 C.3   1 <1>  -0.1600 
 19 C       -5.4920    -1.1290     1.2550 C.3   1 <1>  -0.1600 
 20 O       -0.3680     5.7540    -1.4330 O.3   1 <1>  -0.3630 
 21 C        0.7280     3.9570    -0.1820 C.ar  1 <1>   0.0830 
 22 O        1.6680     2.0310     0.9270 O.3   1 <1>  -0.3620 
 23 C       -2.8620     3.3440     1.1320 C.3   1 <1>  -0.2400 
 24 C       -0.7710     6.5270    -0.3230 C.3   1 <1>   0.0400 
 25 O        1.2100     4.7920     0.7790 O.3   1 <1>  -0.3630 
 26 C        0.9980     2.0150     2.1680 C.3   1 <1>   0.0400 
 27 C        2.5840     5.0880     0.6760 C.3   1 <1>   0.0400 
 28 H        0.0930     1.1470    -4.0100 H     1 <1>   0.0800 
 29 H       -1.5190     1.7400    -3.7830 H     1 <1>   0.0800 
 30 H       -2.4200     1.8150    -1.2500 H     1 <1>   0.0800 
 31 H       -3.8840     0.9710    -1.6980 H     1 <1>   0.0800 
 32 H       -3.1130    -2.1010    -1.9290 H     1 <1>   0.0800 
 33 H       -1.5990    -2.0400    -1.0460 H     1 <1>   0.0800 
 34 H       -2.1140     0.4850     0.6880 H     1 <1>   0.0800 
 35 H       -2.8060    -1.6950     0.8520 H     1 <1>   0.0800 
 36 H       -1.0010     3.9850    -3.0760 H     1 <1>   0.1500 
 37 H        0.8050     0.6890    -1.0420 H     1 <1>   0.1500 
 38 H       -5.1930    -1.0120    -0.8650 H     1 <1>   0.0800 
 39 H       -4.8660    -2.5850    -0.2050 H     1 <1>   0.0800 
 40 H       -5.8190     2.0040     0.8470 H     1 <1>   0.4000 
 41 H       -4.0850    -0.3600     2.6690 H     1 <1>   0.0800 
 42 H       -5.5640     0.5320     2.6320 H     1 <1>   0.0800 
 43 H       -4.3380     2.6560     2.5220 H     1 <1>   0.0800 
 44 H       -2.8350     1.8130     2.6170 H     1 <1>   0.0800 
 45 H       -5.5460    -1.9760     1.9170 H     1 <1>   0.0800 
 46 H       -6.5020    -0.8630     0.9910 H     1 <1>   0.0800 
 47 H       -3.5240     3.7480     0.3860 H     1 <1>   0.0800 
 48 H       -1.9750     2.9800     0.6470 H     1 <1>   0.0800 
 49 H       -2.5730     4.1390     1.7960 H     1 <1>   0.0800 
 50 H       -1.3740     7.3410    -0.6840 H     1 <1>   0.0800 
 51 H        0.1030     6.9140     0.1680 H     1 <1>   0.0800 
 52 H       -1.3440     5.9120     0.3470 H     1 <1>   0.0800 
 53 H        1.5980     1.4610     2.8660 H     1 <1>   0.0800 
 54 H        0.0420     1.5380     2.0400 H     1 <1>   0.0800 
 55 H        0.8690     3.0250     2.5150 H     1 <1>   0.0800 
 56 H        2.8410     5.7780     1.4590 H     1 <1>   0.0800 
 57 H        2.7700     5.5330    -0.2860 H     1 <1>   0.0800 
 58 H        3.1500     4.1790     0.7840 H     1 <1>   0.0800 
@<TRIPOS>BOND
  1   1   2  2   
  2   2   3  am  
  3   2   4  1   
  4   3   5  1   
  5   3   6  1   
  6   4   7  1   
  7   4  28  1   
  8   4  29  1   
  9   5   8  1   
 10   5  30  1   
 11   5  31  1   
 12   6   9  1   
 13   6  32  1   
 14   6  33  1   
 15   7  10  ar  
 16   7  11  ar  
 17   8   9  1   
 18   8  12  1   
 19   8  34  1   
 20   9  13  1   
 21   9  35  1   
 22  10  14  ar  
 23  10  36  1   
 24  11  15  ar  
 25  11  37  1   
 26  12  16  1   
 27  12  17  1   
 28  12  18  1   
 29  13  19  1   
 30  13  38  1   
 31  13  39  1   
 32  14  20  1   
 33  14  21  ar  
 34  15  21  ar  
 35  15  22  1   
 36  16  40  1   
 37  17  19  1   
 38  17  41  1   
 39  17  42  1   
 40  18  23  1   
 41  18  43  1   
 42  18  44  1   
 43  19  45  1   
 44  19  46  1   
 45  20  24  1   
 46  21  25  1   
 47  22  26  1   
 48  23  47  1   
 49  23  48  1   
 50  23  49  1   
 51  24  50  1   
 52  24  51  1   
 53  24  52  1   
 54  25  27  1   
 55  26  53  1   
 56  26  54  1   
 57  26  55  1   
 58  27  56  1   
 59  27  57  1   
 60  27  58  1   
@<TRIPOS>SUBSTRUCTURE
  1 ****   5 GROUP 4 **** **** 0

# MOE 2024.06 (io_trps.svl 2023.06)
