@<TRIPOS>MOLECULE
NONAME
48 50 1 0 0 
SMALL
USER_CHARGES


@<TRIPOS>ATOM
  1 O       -0.8500    -0.0320     0.5710 O.3   1 <1>  -0.2800 
  2 C       -1.7150    -0.1580     1.5600 C.2   1 <1>  -0.0400 
  3 C       -0.5430     1.2450     0.4620 C.2   1 <1>  -0.0400 
  4 C       -1.9850     1.0470     2.1080 C.2   1 <1>  -0.1500 
  5 C       -2.2380    -1.5430     1.8760 C.3   1 <1>   0.5230 
  6 C       -1.2150     1.9660     1.3870 C.2   1 <1>  -0.1500 
  7 C        0.4510     1.6540    -0.6130 C.3   1 <1>   0.0200 
  8 N       -2.5890    -2.1970     0.5820 N.4   1 <1>  -0.9590 
  9 C        0.7080     3.1670    -0.6340 C.3   1 <1>  -0.1600 
 10 C       -4.0220    -2.0410     0.2080 C.3   1 <1>   0.4230 
 11 C       -2.1220    -3.6160     0.5670 C.3   1 <1>   0.2630 
 12 C        1.7110     3.5530    -1.7270 C.3   1 <1>  -0.2400 
 13 C       -4.3220    -2.6540    -1.1580 C.3   1 <1>  -0.1600 
 14 C       -4.4350    -0.5790     0.0430 C.3   1 <1>  -0.1600 
 15 C       -5.5810    -1.9340    -1.6560 C.3   1 <1>  -0.0800 
 16 C       -5.6560    -0.6090    -0.8830 C.3   1 <1>  -0.0800 
 17 C       -6.8860    -2.6860    -1.3560 C.3   1 <1>  -0.1600 
 18 C       -7.0000    -0.6160    -0.1390 C.3   1 <1>  -0.1600 
 19 C       -7.8570    -1.6020    -0.9170 C.3   1 <1>   0.2000 
 20 O       -8.8350    -2.1320    -0.1070 O.3   1 <1>  -0.6800 
 21 H       -2.6410     1.3050     2.9220 H     1 <1>   0.1500 
 22 H       -3.0920    -1.4900     2.5310 H     1 <1>   0.0800 
 23 H       -1.4540    -2.0950     2.3670 H     1 <1>   0.0800 
 24 H       -1.1880     3.0270     1.5650 H     1 <1>   0.1500 
 25 H        1.3780     1.1370    -0.4370 H     1 <1>   0.0800 
 26 H        0.0730     1.3430    -1.5700 H     1 <1>   0.0800 
 27 H       -2.0350    -1.6560    -0.1040 H     1 <1>   0.4500 
 28 H       -0.2200     3.6860    -0.8080 H     1 <1>   0.0800 
 29 H        1.0920     3.4790     0.3220 H     1 <1>   0.0800 
 30 H       -4.6590    -2.5040     0.9440 H     1 <1>   0.0800 
 31 H       -2.6750    -4.2030     1.2820 H     1 <1>   0.0800 
 32 H       -1.0730    -3.6670     0.8130 H     1 <1>   0.0800 
 33 H       -2.2590    -4.0460    -0.4120 H     1 <1>   0.0800 
 34 H        1.3400     3.2720    -2.6980 H     1 <1>   0.0800 
 35 H        2.6560     3.0660    -1.5620 H     1 <1>   0.0800 
 36 H        1.8710     4.6170    -1.7190 H     1 <1>   0.0800 
 37 H       -3.5190    -2.4360    -1.8410 H     1 <1>   0.0800 
 38 H       -4.4690    -3.7190    -1.1070 H     1 <1>   0.0800 
 39 H       -4.6600    -0.1050     0.9810 H     1 <1>   0.0800 
 40 H       -3.6540    -0.0310    -0.4560 H     1 <1>   0.0800 
 41 H       -5.5150    -1.7400    -2.7160 H     1 <1>   0.0800 
 42 H       -5.6330     0.2230    -1.5700 H     1 <1>   0.0800 
 43 H       -6.7440    -3.3920    -0.5570 H     1 <1>   0.0800 
 44 H       -7.2530    -3.2000    -2.2280 H     1 <1>   0.0800 
 45 H       -7.4490     0.3620    -0.1310 H     1 <1>   0.0800 
 46 H       -6.8730    -0.9620     0.8710 H     1 <1>   0.0800 
 47 H       -8.3230    -1.1280    -1.7660 H     1 <1>   0.0800 
 48 H       -8.4460    -2.5660     0.6730 H     1 <1>   0.4000 
@<TRIPOS>BOND
  1   1   2  1   
  2   1   3  1   
  3   2   4  2   
  4   2   5  1   
  5   3   6  2   
  6   3   7  1   
  7   4   6  1   
  8   4  21  1   
  9   5   8  1   
 10   5  22  1   
 11   5  23  1   
 12   6  24  1   
 13   7   9  1   
 14   7  25  1   
 15   7  26  1   
 16   8  10  1   
 17   8  11  1   
 18   8  27  1   
 19   9  12  1   
 20   9  28  1   
 21   9  29  1   
 22  10  13  1   
 23  10  14  1   
 24  10  30  1   
 25  11  31  1   
 26  11  32  1   
 27  11  33  1   
 28  12  34  1   
 29  12  35  1   
 30  12  36  1   
 31  13  15  1   
 32  13  37  1   
 33  13  38  1   
 34  14  16  1   
 35  14  39  1   
 36  14  40  1   
 37  15  16  1   
 38  15  17  1   
 39  15  41  1   
 40  16  18  1   
 41  16  42  1   
 42  17  19  1   
 43  17  43  1   
 44  17  44  1   
 45  18  19  1   
 46  18  45  1   
 47  18  46  1   
 48  19  20  1   
 49  19  47  1   
 50  20  48  1   
@<TRIPOS>SUBSTRUCTURE
  1 ****  14 GROUP 4 **** **** 0

# MOE 2024.06 (io_trps.svl 2023.06)
