@<TRIPOS>MOLECULE
NONAME
39 41 1 0 0 
SMALL
USER_CHARGES


@<TRIPOS>ATOM
  1 CL      -1.0340    -1.2830     0.8590 Cl    1 <1>  -0.1770 
  2 C       -2.0540     0.1220     0.6500 C.ar  1 <1>   0.1770 
  3 C       -3.2040     0.0750    -0.1500 C.ar  1 <1>   0.0860 
  4 C       -1.6510     1.2730     1.3090 C.ar  1 <1>  -0.1500 
  5 C       -3.6650    -1.1140    -0.8420 C.2   1 <1>   0.5440 
  6 C       -3.9320     1.2610    -0.2720 C.ar  1 <1>  -0.1500 
  7 C       -2.3920     2.4350     1.1820 C.ar  1 <1>  -0.1500 
  8 O       -4.1870    -1.0160    -1.9340 O.2   1 <1>  -0.5700 
  9 N       -3.5790    -2.3540    -0.2830 N.am  1 <1>  -0.7300 
 10 C       -3.5220     2.4010     0.3880 C.ar  1 <1>   0.1900 
 11 C       -3.9980    -3.6170    -0.9320 C.3   1 <1>   0.2200 
 12 F       -4.2280     3.4910     0.2580 F     1 <1>  -0.1900 
 13 C       -5.2960    -4.0910    -0.3050 C.3   1 <1>  -0.0800 
 14 C       -3.0350    -4.7360    -0.5480 C.3   1 <1>   0.1200 
 15 C       -4.7960    -4.8300     0.9400 C.3   1 <1>   0.1200 
 16 C       -6.0810    -5.0120    -1.2570 C.3   1 <1>  -0.0160 
 17 O       -3.4880    -5.2470     0.6710 O.3   1 <1>  -0.5600 
 18 C       -7.3990    -5.4540    -0.6410 C.ar  1 <1>  -0.1430 
 19 C       -7.5880    -6.7280    -0.1440 C.ar  1 <1>  -0.1500 
 20 C       -8.4780    -4.5980    -0.5490 C.ar  1 <1>  -0.1500 
 21 C       -8.8100    -7.0720     0.4100 C.ar  1 <1>   0.1600 
 22 C       -9.6580    -5.0430     0.0230 C.ar  1 <1>   0.1600 
 23 N       -9.8500    -6.2600     0.5070 N.ar  1 <1>  -0.6200 
 24 H       -0.7610     1.2590     1.9130 H     1 <1>   0.1500 
 25 H       -4.8180     1.2890    -0.8830 H     1 <1>   0.1500 
 26 H       -2.1050     3.3440     1.6800 H     1 <1>   0.1500 
 27 H       -3.0990    -2.4820     0.6130 H     1 <1>   0.3700 
 28 H       -4.0630    -3.4870    -2.0000 H     1 <1>   0.0800 
 29 H       -5.9220    -3.2580    -0.0350 H     1 <1>   0.0800 
 30 H       -2.0200    -4.3930    -0.4430 H     1 <1>   0.0800 
 31 H       -3.0750    -5.5340    -1.2680 H     1 <1>   0.0800 
 32 H       -5.3930    -5.6870     1.1950 H     1 <1>   0.0800 
 33 H       -4.7540    -4.1620     1.7830 H     1 <1>   0.0800 
 34 H       -5.4920    -5.8770    -1.5100 H     1 <1>   0.0800 
 35 H       -6.2900    -4.4830    -2.1710 H     1 <1>   0.0800 
 36 H       -6.7980    -7.4550    -0.1800 H     1 <1>   0.1500 
 37 H       -8.4120    -3.5900    -0.9170 H     1 <1>   0.1500 
 38 H       -8.9380    -8.0700     0.7930 H     1 <1>   0.1500 
 39 H      -10.4890    -4.3610     0.0870 H     1 <1>   0.1500 
@<TRIPOS>BOND
  1   1   2  1   
  2   2   3  ar  
  3   2   4  ar  
  4   3   5  1   
  5   3   6  ar  
  6   4   7  ar  
  7   4  24  1   
  8   5   8  2   
  9   5   9  am  
 10   6  10  ar  
 11   6  25  1   
 12   7  10  ar  
 13   7  26  1   
 14   9  11  1   
 15   9  27  1   
 16  10  12  1   
 17  11  13  1   
 18  11  14  1   
 19  11  28  1   
 20  13  15  1   
 21  13  16  1   
 22  13  29  1   
 23  14  17  1   
 24  14  30  1   
 25  14  31  1   
 26  15  17  1   
 27  15  32  1   
 28  15  33  1   
 29  16  18  1   
 30  16  34  1   
 31  16  35  1   
 32  18  19  ar  
 33  18  20  ar  
 34  19  21  ar  
 35  19  36  1   
 36  20  22  ar  
 37  20  37  1   
 38  21  23  ar  
 39  21  38  1   
 40  22  23  ar  
 41  22  39  1   
@<TRIPOS>SUBSTRUCTURE
  1 ****   9 GROUP 4 **** **** 0

# MOE 2024.06 (io_trps.svl 2023.06)
