@<TRIPOS>MOLECULE
NONAME
51 53 1 0 0 
SMALL
USER_CHARGES


@<TRIPOS>ATOM
  1 O       -2.7710     2.3900     0.4470 O.2   1 <1>  -0.5700 
  2 C       -2.4660     1.2220     0.5300 C.2   1 <1>   0.5690 
  3 N       -3.0410     0.2930    -0.3080 N.am  1 <1>  -0.6600 
  4 C       -1.4350     0.8690     1.5980 C.3   1 <1>   0.0810 
  5 C       -2.8090    -1.1950    -0.2020 C.3   1 <1>   0.3640 
  6 C       -4.0550     0.7750    -1.2980 C.3   1 <1>   0.1400 
  7 C       -0.0180     1.1490     1.1290 C.2   1 <1>  -0.0400 
  8 C       -1.3410    -1.5050    -0.5050 C.ar  1 <1>  -0.1440 
  9 C       -3.7060    -2.1100    -1.0980 C.3   1 <1>   0.2000 
 10 C       -4.4000    -0.2660    -2.3610 C.3   1 <1>   0.1200 
 11 O        0.9960     0.7510     1.8500 O.3   1 <1>  -0.0190 
 12 C        0.4670     1.7760     0.0470 C.2   1 <1>  -0.1500 
 13 C       -0.6360    -2.3620     0.3300 C.ar  1 <1>  -0.1500 
 14 C       -0.6930    -0.9510    -1.6020 C.ar  1 <1>  -0.1500 
 15 O       -4.7670    -1.4440    -1.7260 O.3   1 <1>  -0.5600 
 16 C       -4.3380    -3.2640    -0.3050 C.3   1 <1>   0.1200 
 17 N        2.1340     1.0790     1.3080 N.2   1 <1>  -0.4100 
 18 C        1.8450     1.6970     0.2190 C.2   1 <1>   0.1080 
 19 C        0.6920    -2.6640     0.0850 C.ar  1 <1>   0.0830 
 20 C        0.6410    -1.2310    -1.8460 C.ar  1 <1>  -0.1500 
 21 O       -3.3670    -4.0250     0.3390 O.3   1 <1>  -0.6800 
 22 C        2.8670     2.2590    -0.7420 C.3   1 <1>  -0.0590 
 23 O        1.2830    -3.5480     0.9300 O.3   1 <1>  -0.3620 
 24 C        1.3460    -2.0660    -0.9980 C.ar  1 <1>   0.0830 
 25 C        1.8740    -4.6970     0.3630 C.3   1 <1>   0.0400 
 26 O        2.6620    -2.2570    -1.2570 O.3   1 <1>  -0.3630 
 27 C        3.5530    -1.6690    -0.3330 C.3   1 <1>   0.0400 
 28 H       -1.6280     1.4720     2.4650 H     1 <1>   0.0800 
 29 H       -1.5190    -0.1550     1.9000 H     1 <1>   0.0800 
 30 H       -3.0020    -1.4690     0.8200 H     1 <1>   0.0800 
 31 H       -4.9530     1.0440    -0.7700 H     1 <1>   0.0800 
 32 H       -3.6860     1.6620    -1.7850 H     1 <1>   0.0800 
 33 H       -3.1060    -2.5330    -1.8850 H     1 <1>   0.0800 
 34 H       -3.5680    -0.4530    -3.0180 H     1 <1>   0.0800 
 35 H       -5.2380     0.0690    -2.9470 H     1 <1>   0.0800 
 36 H       -0.0550     2.2400    -0.7690 H     1 <1>   0.1500 
 37 H       -1.1090    -2.8150     1.1830 H     1 <1>   0.1500 
 38 H       -1.2200    -0.2880    -2.2650 H     1 <1>   0.1500 
 39 H       -4.8930    -3.9130    -0.9610 H     1 <1>   0.0800 
 40 H       -4.9980    -2.8720     0.4490 H     1 <1>   0.0800 
 41 H        1.1450    -0.7920    -2.6870 H     1 <1>   0.1500 
 42 H       -2.8310    -4.5300    -0.3050 H     1 <1>   0.4000 
 43 H        2.6370     3.2850    -0.9600 H     1 <1>   0.0800 
 44 H        2.8560     1.6910    -1.6540 H     1 <1>   0.0800 
 45 H        3.8490     2.2060    -0.3080 H     1 <1>   0.0800 
 46 H        2.0370    -5.4120     1.1480 H     1 <1>   0.0800 
 47 H        2.8140    -4.4300    -0.0840 H     1 <1>   0.0800 
 48 H        1.2090    -5.1050    -0.3770 H     1 <1>   0.0800 
 49 H        4.5540    -1.9600    -0.5960 H     1 <1>   0.0800 
 50 H        3.3190    -2.0070     0.6610 H     1 <1>   0.0800 
 51 H        3.4530    -0.6020    -0.3900 H     1 <1>   0.0800 
@<TRIPOS>BOND
  1   1   2  2   
  2   2   3  am  
  3   2   4  1   
  4   3   5  1   
  5   3   6  1   
  6   4   7  1   
  7   4  28  1   
  8   4  29  1   
  9   5   8  1   
 10   5   9  1   
 11   5  30  1   
 12   6  10  1   
 13   6  31  1   
 14   6  32  1   
 15   7  11  1   
 16   7  12  2   
 17   8  13  ar  
 18   8  14  ar  
 19   9  15  1   
 20   9  16  1   
 21   9  33  1   
 22  10  15  1   
 23  10  34  1   
 24  10  35  1   
 25  11  17  1   
 26  12  18  1   
 27  12  36  1   
 28  13  19  ar  
 29  13  37  1   
 30  14  20  ar  
 31  14  38  1   
 32  16  21  1   
 33  16  39  1   
 34  16  40  1   
 35  17  18  2   
 36  18  22  1   
 37  19  23  1   
 38  19  24  ar  
 39  20  24  ar  
 40  20  41  1   
 41  21  42  1   
 42  22  43  1   
 43  22  44  1   
 44  22  45  1   
 45  23  25  1   
 46  24  26  1   
 47  25  46  1   
 48  25  47  1   
 49  25  48  1   
 50  26  27  1   
 51  27  49  1   
 52  27  50  1   
 53  27  51  1   
@<TRIPOS>SUBSTRUCTURE
  1 ****   8 GROUP 4 **** **** 0

# MOE 2024.06 (io_trps.svl 2023.06)
