@<TRIPOS>MOLECULE
NONAME
53 56 1 0 0 
SMALL
USER_CHARGES


@<TRIPOS>ATOM
  1 O       -4.4730     1.0070     0.8920 O.2   1 <1>  -0.5700 
  2 C       -3.3420     1.4240     0.7530 C.2   1 <1>   0.6900 
  3 N       -2.8190     1.8510    -0.4330 N.am  1 <1>  -0.4200 
  4 N       -2.4190     1.4060     1.7320 N.am  1 <1>  -0.7300 
  5 C       -1.4750     2.0190    -0.2900 C.2   1 <1>   0.5690 
  6 C       -3.5190     1.7790    -1.7470 C.3   1 <1>   0.2010 
  7 C       -1.0950     1.7030     1.1700 C.3   1 <1>   0.3610 
  8 O       -0.7090     2.3460    -1.1650 O.2   1 <1>  -0.5700 
  9 C       -3.6200     0.3430    -2.2540 C.2   1 <1>   0.5690 
 10 C       -0.2170     0.4560     1.3030 C.3   1 <1>  -0.2400 
 11 C       -0.5020     2.9010     1.9140 C.3   1 <1>  -0.2400 
 12 O       -3.2420     0.0690    -3.3660 O.2   1 <1>  -0.5700 
 13 N       -4.1040    -0.6060    -1.4170 N.am  1 <1>  -0.7300 
 14 C       -3.8840    -2.0580    -1.5640 C.3   1 <1>   0.2200 
 15 C       -4.7130    -2.8350    -0.5480 C.3   1 <1>  -0.0800 
 16 C       -2.4750    -2.3940    -1.0890 C.3   1 <1>   0.1200 
 17 C       -3.8410    -2.7760     0.7150 C.3   1 <1>   0.1200 
 18 C       -6.1510    -2.3150    -0.3330 C.3   1 <1>  -0.0170 
 19 O       -2.5490    -2.4330     0.3060 O.3   1 <1>  -0.5600 
 20 C       -7.0390    -3.1380     0.6080 C.ar  1 <1>  -0.1440 
 21 C       -8.2640    -2.5930     1.0700 C.ar  1 <1>   0.0000 
 22 C       -6.7230    -4.3980     1.0350 C.ar  1 <1>  -0.1500 
 23 C       -9.0480    -3.3750     1.9540 C.ar  1 <1>   0.3100 
 24 C       -8.7620    -1.3190     0.7050 C.ar  1 <1>  -0.1500 
 25 C       -7.5750    -5.0890     1.9040 C.ar  1 <1>   0.1600 
 26 N       -8.6900    -4.6180     2.3600 N.ar  1 <1>  -0.6200 
 27 C      -10.2590    -2.8540     2.4370 C.ar  1 <1>  -0.1500 
 28 C       -9.9480    -0.8410     1.1920 C.ar  1 <1>  -0.1500 
 29 C      -10.7080    -1.6150     2.0710 C.ar  1 <1>  -0.1500 
 30 H       -2.5250     0.7890     2.5360 H     1 <1>   0.3700 
 31 H       -4.5090     2.1840    -1.6440 H     1 <1>   0.0800 
 32 H       -2.9830     2.3670    -2.4700 H     1 <1>   0.0800 
 33 H        0.7340     0.6330     0.8330 H     1 <1>   0.0800 
 34 H       -0.6800    -0.3840     0.8150 H     1 <1>   0.0800 
 35 H       -0.0480     0.2170     2.3370 H     1 <1>   0.0800 
 36 H        0.4430     3.1680     1.4760 H     1 <1>   0.0800 
 37 H       -0.3450     2.6630     2.9510 H     1 <1>   0.0800 
 38 H       -1.1590     3.7490     1.8400 H     1 <1>   0.0800 
 39 H       -4.3500    -0.3150    -0.4600 H     1 <1>   0.3700 
 40 H       -4.0570    -2.3630    -2.5830 H     1 <1>   0.0800 
 41 H       -4.7530    -3.8530    -0.8890 H     1 <1>   0.0800 
 42 H       -1.7460    -1.6640    -1.3960 H     1 <1>   0.0800 
 43 H       -2.1800    -3.3700    -1.4320 H     1 <1>   0.0800 
 44 H       -3.8040    -3.7220     1.2260 H     1 <1>   0.0800 
 45 H       -4.1800    -2.0110     1.3930 H     1 <1>   0.0800 
 46 H       -6.6420    -2.2500    -1.2890 H     1 <1>   0.0800 
 47 H       -6.0870    -1.3200     0.0700 H     1 <1>   0.0800 
 48 H       -5.8310    -4.9100     0.7330 H     1 <1>   0.1500 
 49 H       -8.2030    -0.7020     0.0270 H     1 <1>   0.1500 
 50 H       -7.2820    -6.0780     2.2150 H     1 <1>   0.1500 
 51 H      -10.8260    -3.4690     3.1100 H     1 <1>   0.1500 
 52 H      -10.3100     0.1320     0.9060 H     1 <1>   0.1500 
 53 H      -11.6390    -1.2280     2.4490 H     1 <1>   0.1500 
@<TRIPOS>BOND
  1   1   2  2   
  2   2   3  am  
  3   2   4  am  
  4   3   5  am  
  5   3   6  1   
  6   4   7  1   
  7   4  30  1   
  8   5   7  1   
  9   5   8  2   
 10   6   9  1   
 11   6  31  1   
 12   6  32  1   
 13   7  10  1   
 14   7  11  1   
 15   9  12  2   
 16   9  13  am  
 17  10  33  1   
 18  10  34  1   
 19  10  35  1   
 20  11  36  1   
 21  11  37  1   
 22  11  38  1   
 23  13  14  1   
 24  13  39  1   
 25  14  15  1   
 26  14  16  1   
 27  14  40  1   
 28  15  17  1   
 29  15  18  1   
 30  15  41  1   
 31  16  19  1   
 32  16  42  1   
 33  16  43  1   
 34  17  19  1   
 35  17  44  1   
 36  17  45  1   
 37  18  20  1   
 38  18  46  1   
 39  18  47  1   
 40  20  21  ar  
 41  20  22  ar  
 42  21  23  ar  
 43  21  24  ar  
 44  22  25  ar  
 45  22  48  1   
 46  23  26  ar  
 47  23  27  ar  
 48  24  28  ar  
 49  24  49  1   
 50  25  26  ar  
 51  25  50  1   
 52  27  29  ar  
 53  27  51  1   
 54  28  29  ar  
 55  28  52  1   
 56  29  53  1   
@<TRIPOS>SUBSTRUCTURE
  1 ****  18 GROUP 4 **** **** 0

# MOE 2024.06 (io_trps.svl 2023.06)
