@<TRIPOS>MOLECULE
NONAME
60 62 1 0 0 
SMALL
USER_CHARGES


@<TRIPOS>ATOM
  1 O        1.6880    -0.0520     0.2560 O.2   1 <1>  -0.5700 
  2 C        1.8850    -1.2190     0.0440 C.2   1 <1>   0.5690 
  3 N        1.2340    -2.1580     0.7560 N.am  1 <1>  -0.7300 
  4 C        2.8970    -1.6220    -1.0060 C.3   1 <1>  -0.0990 
  5 C        1.0690    -3.5690     0.3720 C.3   1 <1>   0.1400 
  6 C        2.7700    -3.0690    -1.5440 C.3   1 <1>  -0.0800 
  7 C        2.2260    -4.0700    -0.5080 C.3   1 <1>  -0.0800 
  8 C        4.1600    -3.6280    -1.9240 C.3   1 <1>  -0.1600 
  9 C        3.4760    -4.5280     0.2400 C.3   1 <1>  -0.1600 
 10 C        4.4640    -4.7350    -0.9090 C.3   1 <1>   0.4230 
 11 N        5.9110    -4.8440    -0.5490 N.4   1 <1>  -0.9590 
 12 C        6.3900    -4.0890     0.6520 C.3   1 <1>   0.4860 
 13 C        6.2920    -6.2820    -0.4180 C.3   1 <1>   0.2630 
 14 C        6.5600    -2.6190     0.3280 C.ar  1 <1>  -0.1440 
 15 C        5.8930    -1.6720     1.0920 C.ar  1 <1>  -0.1500 
 16 C        7.3890    -2.1980    -0.7060 C.ar  1 <1>  -0.1500 
 17 C        6.0230    -0.3220     0.8210 C.ar  1 <1>   0.0820 
 18 C        7.5330    -0.8480    -0.9760 C.ar  1 <1>  -0.1500 
 19 O        5.2980     0.5260     1.5900 O.3   1 <1>  -0.3620 
 20 C        6.8670     0.0950    -0.2130 C.ar  1 <1>   0.0820 
 21 C        4.4460     1.4490     0.9380 C.3   1 <1>   0.0400 
 22 O        7.0830     1.3980    -0.5050 O.3   1 <1>  -0.3630 
 23 C        7.8320     2.1250     0.4430 C.3   1 <1>   0.2580 
 24 C        8.0870     3.5100    -0.1250 C.2   1 <1>  -0.2880 
 25 C        9.2550     4.1400    -0.3090 C.2   1 <1>  -0.2760 
 26 C        9.3180     5.5380    -0.9030 C.3   1 <1>  -0.1020 
 27 C       10.6360     3.5920     0.0240 C.3   1 <1>  -0.1020 
 28 H        0.5690    -1.7920     1.4440 H     1 <1>   0.3700 
 29 H        2.8310    -0.9310    -1.8270 H     1 <1>   0.0800 
 30 H        3.8540    -1.4730    -0.5520 H     1 <1>   0.0800 
 31 H        0.9890    -4.1760     1.2590 H     1 <1>   0.0800 
 32 H        0.1450    -3.6580    -0.1750 H     1 <1>   0.0800 
 33 H        2.1120    -3.0540    -2.3980 H     1 <1>   0.0800 
 34 H        1.8480    -4.9260    -1.0440 H     1 <1>   0.0800 
 35 H        4.9090    -2.8570    -1.9240 H     1 <1>   0.0800 
 36 H        4.1160    -4.0570    -2.9090 H     1 <1>   0.0800 
 37 H        3.2970    -5.4370     0.7870 H     1 <1>   0.0800 
 38 H        3.7760    -3.7410     0.9070 H     1 <1>   0.0800 
 39 H        4.1730    -5.6540    -1.3920 H     1 <1>   0.0800 
 40 H        6.4250    -4.4430    -1.3430 H     1 <1>   0.4500 
 41 H        5.7080    -4.2160     1.4760 H     1 <1>   0.0800 
 42 H        7.3490    -4.4720     0.9600 H     1 <1>   0.0800 
 43 H        5.7690    -6.7350     0.4100 H     1 <1>   0.0800 
 44 H        7.3530    -6.3780    -0.2480 H     1 <1>   0.0800 
 45 H        6.0420    -6.8200    -1.3180 H     1 <1>   0.0800 
 46 H        5.2520    -1.9570     1.9090 H     1 <1>   0.1500 
 47 H        7.9400    -2.9000    -1.3060 H     1 <1>   0.1500 
 48 H        8.1730    -0.5110    -1.7740 H     1 <1>   0.1500 
 49 H        3.6290     1.6780     1.5970 H     1 <1>   0.0800 
 50 H        4.0680     1.0110     0.0320 H     1 <1>   0.0800 
 51 H        4.9980     2.3430     0.7150 H     1 <1>   0.0800 
 52 H        7.2640     2.1930     1.3540 H     1 <1>   0.0800 
 53 H        8.7430     1.5890     0.6320 H     1 <1>   0.0800 
 54 H        7.1540     3.9740    -0.3910 H     1 <1>   0.1500 
 55 H        9.8940     5.5290    -1.8110 H     1 <1>   0.0800 
 56 H        9.7760     6.2180    -0.2070 H     1 <1>   0.0800 
 57 H        8.3320     5.9010    -1.1320 H     1 <1>   0.0800 
 58 H       11.1270     4.2390     0.7290 H     1 <1>   0.0800 
 59 H       11.2340     3.5400    -0.8680 H     1 <1>   0.0800 
 60 H       10.5910     2.6100     0.4520 H     1 <1>   0.0800 
@<TRIPOS>BOND
  1   1   2  2   
  2   2   3  am  
  3   2   4  1   
  4   3   5  1   
  5   3  28  1   
  6   4   6  1   
  7   4  29  1   
  8   4  30  1   
  9   5   7  1   
 10   5  31  1   
 11   5  32  1   
 12   6   7  1   
 13   6   8  1   
 14   6  33  1   
 15   7   9  1   
 16   7  34  1   
 17   8  10  1   
 18   8  35  1   
 19   8  36  1   
 20   9  10  1   
 21   9  37  1   
 22   9  38  1   
 23  10  11  1   
 24  10  39  1   
 25  11  12  1   
 26  11  13  1   
 27  11  40  1   
 28  12  14  1   
 29  12  41  1   
 30  12  42  1   
 31  13  43  1   
 32  13  44  1   
 33  13  45  1   
 34  14  15  ar  
 35  14  16  ar  
 36  15  17  ar  
 37  15  46  1   
 38  16  18  ar  
 39  16  47  1   
 40  17  19  1   
 41  17  20  ar  
 42  18  20  ar  
 43  18  48  1   
 44  19  21  1   
 45  20  22  1   
 46  21  49  1   
 47  21  50  1   
 48  21  51  1   
 49  22  23  1   
 50  23  24  1   
 51  23  52  1   
 52  23  53  1   
 53  24  25  2   
 54  24  54  1   
 55  25  26  1   
 56  25  27  1   
 57  26  55  1   
 58  26  56  1   
 59  26  57  1   
 60  27  58  1   
 61  27  59  1   
 62  27  60  1   
@<TRIPOS>SUBSTRUCTURE
  1 ****  17 GROUP 4 **** **** 0

# MOE 2024.06 (io_trps.svl 2023.06)
