@<TRIPOS>MOLECULE
NONAME
53 56 1 0 0 
SMALL
USER_CHARGES


@<TRIPOS>ATOM
  1 O       -0.6140     0.1470    -0.6760 O.2   1 <1>  -0.5700 
  2 C       -1.4960     0.6930    -0.0330 C.2   1 <1>   0.7160 
  3 N       -2.3350    -0.1410     0.6980 N.am  1 <1>  -0.6600 
  4 C       -1.6550     2.1470    -0.0810 C.2   1 <1>   0.2030 
  5 C       -3.2840     0.3220     1.7560 C.3   1 <1>   0.1400 
  6 C       -2.4470    -1.5980     0.3970 C.3   1 <1>   0.1400 
  7 N       -2.8050     2.8040     0.0100 N.2   1 <1>  -0.7070 
  8 C       -0.6030     3.0640    -0.2500 C.2   1 <1>  -0.1810 
  9 C       -4.7460    -0.0230     1.3910 C.3   1 <1>   0.4230 
 10 C       -3.8970    -1.9470     0.0150 C.3   1 <1>   0.3430 
 11 N       -2.4870     4.1060    -0.1020 N.pl3 1 <1>   0.3000 
 12 C       -1.1640     4.2830    -0.2460 C.2   1 <1>  -0.3320 
 13 C        0.8930     2.8350    -0.4050 C.3   1 <1>   0.0210 
 14 N       -4.9040    -1.5010     1.0560 N.4   1 <1>  -0.9590 
 15 C       -5.2730     0.8670     0.2420 C.3   1 <1>   0.1200 
 16 C       -0.4280     5.6010    -0.3930 C.3   1 <1>   0.0200 
 17 C        1.5860     4.1170    -0.9050 C.3   1 <1>  -0.1600 
 18 C       -6.3310    -1.7640     0.6560 C.3   1 <1>   0.4230 
 19 O       -6.5960     0.5280    -0.0710 O.3   1 <1>  -0.5600 
 20 C        1.0790     5.3760    -0.1740 C.3   1 <1>  -0.1600 
 21 C       -6.7910    -0.8000    -0.4650 C.3   1 <1>   0.1200 
 22 C       -6.5260    -3.2440     0.2890 C.3   1 <1>  -0.1600 
 23 C       -8.0090    -3.6450     0.2440 C.3   1 <1>  -0.1600 
 24 C       -8.1600    -5.1420    -0.0400 C.3   1 <1>  -0.2400 
 25 H       -3.0310    -0.1680     2.6800 H     1 <1>   0.0800 
 26 H       -3.1880     1.3760     1.9400 H     1 <1>   0.0800 
 27 H       -1.8000    -1.8730    -0.4190 H     1 <1>   0.0800 
 28 H       -2.1420    -2.1670     1.2580 H     1 <1>   0.0800 
 29 H       -5.3510     0.2030     2.2520 H     1 <1>   0.0800 
 30 H       -3.9670    -3.0110    -0.1320 H     1 <1>   0.0800 
 31 H       -4.1170    -1.4710    -0.9270 H     1 <1>   0.0800 
 32 H       -3.1880     4.8580    -0.0800 H     1 <1>   0.2700 
 33 H        1.3000     2.5500     0.5480 H     1 <1>   0.0800 
 34 H        1.0800     2.0390    -1.1040 H     1 <1>   0.0800 
 35 H       -4.7200    -2.0290     1.9150 H     1 <1>   0.4500 
 36 H       -4.6670     0.7750    -0.6430 H     1 <1>   0.0800 
 37 H       -5.2680     1.9000     0.5440 H     1 <1>   0.0800 
 38 H       -0.5960     5.9880    -1.3830 H     1 <1>   0.0800 
 39 H       -0.7930     6.3180     0.3220 H     1 <1>   0.0800 
 40 H        2.6500     4.0210    -0.7750 H     1 <1>   0.0800 
 41 H        1.3920     4.2270    -1.9580 H     1 <1>   0.0800 
 42 H       -6.9580    -1.5630     1.5090 H     1 <1>   0.0800 
 43 H        1.6220     6.2410    -0.5130 H     1 <1>   0.0800 
 44 H        1.2650     5.2620     0.8800 H     1 <1>   0.0800 
 45 H       -7.8420    -0.9210    -0.6560 H     1 <1>   0.0800 
 46 H       -6.2560    -0.9720    -1.3830 H     1 <1>   0.0800 
 47 H       -6.0880    -3.4530    -0.6710 H     1 <1>   0.0800 
 48 H       -6.0420    -3.8570     1.0300 H     1 <1>   0.0800 
 49 H       -8.4820    -3.4220     1.1870 H     1 <1>   0.0800 
 50 H       -8.5270    -3.0990    -0.5260 H     1 <1>   0.0800 
 51 H       -7.6890    -5.7290     0.7300 H     1 <1>   0.0800 
 52 H       -7.7220    -5.3980    -0.9890 H     1 <1>   0.0800 
 53 H       -9.2040    -5.4060    -0.0700 H     1 <1>   0.0800 
@<TRIPOS>BOND
  1   1   2  2   
  2   2   3  am  
  3   2   4  1   
  4   3   5  1   
  5   3   6  1   
  6   4   7  2   
  7   4   8  1   
  8   5   9  1   
  9   5  25  1   
 10   5  26  1   
 11   6  10  1   
 12   6  27  1   
 13   6  28  1   
 14   7  11  1   
 15   8  12  2   
 16   8  13  1   
 17   9  14  1   
 18   9  15  1   
 19   9  29  1   
 20  10  14  1   
 21  10  30  1   
 22  10  31  1   
 23  11  12  1   
 24  11  32  1   
 25  12  16  1   
 26  13  17  1   
 27  13  33  1   
 28  13  34  1   
 29  14  18  1   
 30  14  35  1   
 31  15  19  1   
 32  15  36  1   
 33  15  37  1   
 34  16  20  1   
 35  16  38  1   
 36  16  39  1   
 37  17  20  1   
 38  17  40  1   
 39  17  41  1   
 40  18  21  1   
 41  18  22  1   
 42  18  42  1   
 43  19  21  1   
 44  20  43  1   
 45  20  44  1   
 46  21  45  1   
 47  21  46  1   
 48  22  23  1   
 49  22  47  1   
 50  22  48  1   
 51  23  24  1   
 52  23  49  1   
 53  23  50  1   
 54  24  51  1   
 55  24  52  1   
 56  24  53  1   
@<TRIPOS>SUBSTRUCTURE
  1 ****   3 GROUP 4 **** **** 0

# MOE 2024.06 (io_trps.svl 2023.06)
