@<TRIPOS>MOLECULE
NONAME
48 51 1 0 0 
SMALL
USER_CHARGES


@<TRIPOS>ATOM
  1 F       -1.5460    -0.6480     0.6130 F     1 <1>  -0.1900 
  2 C       -2.0110     0.2860    -0.1790 C.ar  1 <1>   0.1900 
  3 C       -1.4760     1.5650    -0.0480 C.ar  1 <1>   0.0830 
  4 C       -3.0020    -0.0570    -1.1040 C.ar  1 <1>   0.0860 
  5 O       -0.5190     1.7530     0.9130 O.3   1 <1>  -0.3630 
  6 C       -1.9770     2.5410    -0.9130 C.ar  1 <1>   0.1900 
  7 C       -3.5600    -1.3930    -1.2280 C.2   1 <1>   0.5440 
  8 C       -3.4490     0.9650    -1.9480 C.ar  1 <1>  -0.1500 
  9 C        0.3120     2.8940     0.9610 C.3   1 <1>   0.0400 
 10 F       -1.5630     3.7800    -0.8720 F     1 <1>  -0.1900 
 11 C       -2.9470     2.2510    -1.8560 C.ar  1 <1>  -0.1500 
 12 O       -3.9490    -1.7920    -2.3080 O.2   1 <1>  -0.5700 
 13 N       -3.7610    -2.2380    -0.1600 N.am  1 <1>  -0.6600 
 14 C       -4.4260    -1.7840     1.0940 C.3   1 <1>   0.1400 
 15 C       -3.8050    -3.7140    -0.3690 C.3   1 <1>   0.1400 
 16 C       -5.8870    -2.2930     1.1590 C.3   1 <1>   0.4230 
 17 C       -5.2620    -4.2030    -0.3490 C.3   1 <1>   0.3430 
 18 N       -5.9870    -3.7910     0.9150 N.4   1 <1>  -0.9590 
 19 C       -6.7800    -1.5150     0.1630 C.3   1 <1>   0.1200 
 20 C       -7.4330    -4.2050     0.9140 C.3   1 <1>   0.5180 
 21 O       -8.1000    -1.9720     0.2370 O.3   1 <1>  -0.5600 
 22 C       -7.5310    -5.7230     0.6580 C.3   1 <1>  -0.1950 
 23 C       -8.2670    -3.3320    -0.0570 C.3   1 <1>   0.1200 
 24 C       -7.6100    -6.3610    -0.6990 C.3   1 <1>  -0.2000 
 25 C       -8.7990    -6.3930     0.2180 C.3   1 <1>  -0.2000 
 26 H       -4.1980     0.7440    -2.6910 H     1 <1>   0.1500 
 27 H        1.0740     2.7210     1.6990 H     1 <1>   0.0800 
 28 H       -0.2790     3.7470     1.2460 H     1 <1>   0.0800 
 29 H        0.7650     3.0420    -0.0030 H     1 <1>   0.0800 
 30 H       -3.3020     3.0280    -2.5110 H     1 <1>   0.1500 
 31 H       -3.8730    -2.1560     1.9390 H     1 <1>   0.0800 
 32 H       -4.4160    -0.7090     1.1520 H     1 <1>   0.0800 
 33 H       -3.3560    -3.9670    -1.3160 H     1 <1>   0.0800 
 34 H       -3.2360    -4.2050     0.4010 H     1 <1>   0.0800 
 35 H       -6.2620    -2.0740     2.1450 H     1 <1>   0.0800 
 36 H       -5.2670    -5.2760    -0.4460 H     1 <1>   0.0800 
 37 H       -5.7630    -3.7920    -1.2110 H     1 <1>   0.0800 
 38 H       -5.5350    -4.2710     1.6990 H     1 <1>   0.4500 
 39 H       -6.4320    -1.6230    -0.8510 H     1 <1>   0.0800 
 40 H       -6.7870    -0.4670     0.4090 H     1 <1>   0.0800 
 41 H       -7.8360    -4.0280     1.8980 H     1 <1>   0.0800 
 42 H       -6.9970    -6.2650     1.4200 H     1 <1>   0.1000 
 43 H       -9.3140    -3.5540     0.0520 H     1 <1>   0.0800 
 44 H       -7.9880    -3.4990    -1.0820 H     1 <1>   0.0800 
 45 H       -7.7020    -5.7750    -1.5980 H     1 <1>   0.1000 
 46 H       -7.0920    -7.2900    -0.8770 H     1 <1>   0.1000 
 47 H       -9.0710    -7.3360     0.6630 H     1 <1>   0.1000 
 48 H       -9.6680    -5.8260    -0.0720 H     1 <1>   0.1000 
@<TRIPOS>BOND
  1   1   2  1   
  2   2   3  ar  
  3   2   4  ar  
  4   3   5  1   
  5   3   6  ar  
  6   4   7  1   
  7   4   8  ar  
  8   5   9  1   
  9   6  10  1   
 10   6  11  ar  
 11   7  12  2   
 12   7  13  am  
 13   8  11  ar  
 14   8  26  1   
 15   9  27  1   
 16   9  28  1   
 17   9  29  1   
 18  11  30  1   
 19  13  14  1   
 20  13  15  1   
 21  14  16  1   
 22  14  31  1   
 23  14  32  1   
 24  15  17  1   
 25  15  33  1   
 26  15  34  1   
 27  16  18  1   
 28  16  19  1   
 29  16  35  1   
 30  17  18  1   
 31  17  36  1   
 32  17  37  1   
 33  18  20  1   
 34  18  38  1   
 35  19  21  1   
 36  19  39  1   
 37  19  40  1   
 38  20  22  1   
 39  20  23  1   
 40  20  41  1   
 41  21  23  1   
 42  22  24  1   
 43  22  25  1   
 44  22  42  1   
 45  23  43  1   
 46  23  44  1   
 47  24  25  1   
 48  24  45  1   
 49  24  46  1   
 50  25  47  1   
 51  25  48  1   
@<TRIPOS>SUBSTRUCTURE
  1 ****  13 GROUP 4 **** **** 0

# MOE 2024.06 (io_trps.svl 2023.06)
