@<TRIPOS>MOLECULE
NONAME
49 51 1 0 0 
SMALL
USER_CHARGES


@<TRIPOS>ATOM
  1 O       -0.6380    -2.0340     0.9850 O.2   1 <1>  -0.5700 
  2 C        0.5280    -2.1750     0.6870 C.2   1 <1>   0.6900 
  3 N        1.2660    -3.2460     1.1510 N.am  1 <1>  -0.4200 
  4 N        1.1100    -1.2770    -0.1610 N.am  1 <1>  -0.5390 
  5 C        2.5760    -3.4050     0.7260 C.2   1 <1>   0.6160 
  6 C        0.7380    -4.1140     2.2530 C.3   1 <1>   0.1400 
  7 C        2.4150    -1.3880    -0.5900 C.2   1 <1>  -0.0290 
  8 O        3.2110    -4.3750     1.0960 O.2   1 <1>  -0.5700 
  9 C        3.1420    -2.4390    -0.1560 C.2   1 <1>  -0.1360 
 10 C        0.6790    -5.6110     1.8770 C.3   1 <1>   0.3430 
 11 C        2.9310    -0.3090    -1.5210 C.3   1 <1>  -0.1020 
 12 N       -0.5070    -6.0760     1.0740 N.4   1 <1>  -0.9590 
 13 C       -0.2850    -7.4720     0.6080 C.3   1 <1>   0.4860 
 14 C       -0.9990    -5.1910    -0.0200 C.3   1 <1>   0.3430 
 15 C       -1.5150    -8.1290    -0.0120 C.ar  1 <1>  -0.1430 
 16 C       -2.3270    -4.5650     0.4240 C.3   1 <1>  -0.1600 
 17 C       -2.8350    -7.7770     0.2760 C.ar  1 <1>   0.0830 
 18 C       -1.2840    -9.1620    -0.9110 C.ar  1 <1>  -0.1500 
 19 C       -3.5060    -5.5460     0.5070 C.3   1 <1>   0.1200 
 20 O       -3.0930    -6.7490     1.1260 O.3   1 <1>  -0.3630 
 21 C       -3.9030    -8.4610    -0.3120 C.ar  1 <1>   0.0830 
 22 C       -2.3350    -9.8360    -1.5040 C.ar  1 <1>  -0.1500 
 23 O       -5.1690    -8.0770     0.0160 O.3   1 <1>  -0.3630 
 24 C       -3.6410    -9.4920    -1.2070 C.ar  1 <1>  -0.1500 
 25 C       -6.2950    -8.8310    -0.3800 C.3   1 <1>   0.0400 
 26 H        0.5160    -0.4920    -0.4390 H     1 <1>   0.3700 
 27 H       -0.2260    -3.7780     2.5930 H     1 <1>   0.0800 
 28 H        1.4140    -4.0120     3.0850 H     1 <1>   0.0800 
 29 H        4.1650    -2.5990    -0.4440 H     1 <1>   0.1500 
 30 H        0.6940    -6.1720     2.7970 H     1 <1>   0.0800 
 31 H        1.5840    -5.8630     1.3510 H     1 <1>   0.0800 
 32 H        2.3430    -0.2820    -2.4210 H     1 <1>   0.0800 
 33 H        3.9560    -0.4960    -1.7890 H     1 <1>   0.0800 
 34 H        2.8750     0.6520    -1.0410 H     1 <1>   0.0800 
 35 H       -1.3350    -6.1700     1.6910 H     1 <1>   0.4500 
 36 H        0.0260    -8.0790     1.4430 H     1 <1>   0.0800 
 37 H        0.5140    -7.4800    -0.1150 H     1 <1>   0.0800 
 38 H       -1.1650    -5.7610    -0.9200 H     1 <1>   0.0800 
 39 H       -0.2780    -4.4230    -0.2420 H     1 <1>   0.0800 
 40 H       -2.5900    -3.7940    -0.2790 H     1 <1>   0.0800 
 41 H       -2.2100    -4.0780     1.3740 H     1 <1>   0.0800 
 42 H       -0.2800    -9.4620    -1.1610 H     1 <1>   0.1500 
 43 H       -3.8900    -5.7670    -0.4760 H     1 <1>   0.0800 
 44 H       -4.3070    -5.1310     1.0950 H     1 <1>   0.0800 
 45 H       -2.1390   -10.6350    -2.2000 H     1 <1>   0.1500 
 46 H       -4.4350   -10.0370    -1.6840 H     1 <1>   0.1500 
 47 H       -7.1680    -8.3840     0.0610 H     1 <1>   0.0800 
 48 H       -6.1840    -9.8400    -0.0220 H     1 <1>   0.0800 
 49 H       -6.3760    -8.8070    -1.4520 H     1 <1>   0.0800 
@<TRIPOS>BOND
  1   1   2  2   
  2   2   3  am  
  3   2   4  am  
  4   3   5  am  
  5   3   6  1   
  6   4   7  1   
  7   4  26  1   
  8   5   8  2   
  9   5   9  1   
 10   6  10  1   
 11   6  27  1   
 12   6  28  1   
 13   7   9  2   
 14   7  11  1   
 15   9  29  1   
 16  10  12  1   
 17  10  30  1   
 18  10  31  1   
 19  11  32  1   
 20  11  33  1   
 21  11  34  1   
 22  12  13  1   
 23  12  14  1   
 24  12  35  1   
 25  13  15  1   
 26  13  36  1   
 27  13  37  1   
 28  14  16  1   
 29  14  38  1   
 30  14  39  1   
 31  15  17  ar  
 32  15  18  ar  
 33  16  19  1   
 34  16  40  1   
 35  16  41  1   
 36  17  20  1   
 37  17  21  ar  
 38  18  22  ar  
 39  18  42  1   
 40  19  20  1   
 41  19  43  1   
 42  19  44  1   
 43  21  23  1   
 44  21  24  ar  
 45  22  24  ar  
 46  22  45  1   
 47  23  25  1   
 48  24  46  1   
 49  25  47  1   
 50  25  48  1   
 51  25  49  1   
@<TRIPOS>SUBSTRUCTURE
  1 ****  14 GROUP 4 **** **** 0

# MOE 2024.06 (io_trps.svl 2023.06)
