@<TRIPOS>MOLECULE
NONAME
51 52 1 0 0 
SMALL
USER_CHARGES


@<TRIPOS>ATOM
  1 S        1.1370     1.0690     0.3240 S.o2  1 <1>   1.3330 
  2 O        1.0650     0.4390     1.6190 O.2   1 <1>  -0.6500 
  3 O        2.2070     2.0060     0.0530 O.2   1 <1>  -0.6500 
  4 N        1.0720    -0.0920    -0.9050 N.am  1 <1>  -0.8490 
  5 C       -0.3650     2.0200     0.0990 C.3   1 <1>  -0.0550 
  6 C        0.2970    -1.2850    -0.5380 C.3   1 <1>   0.1160 
  7 C        2.4060    -0.5000    -1.3640 C.3   1 <1>   0.1160 
  8 C       -0.7040     2.9610     1.2830 C.3   1 <1>  -0.0800 
  9 C       -1.5660     4.1250     0.8000 C.3   1 <1>   0.2000 
 10 C        0.5100     3.6720     1.9030 C.3   1 <1>   0.3430 
 11 O       -2.2980     4.6210     1.8700 O.3   1 <1>  -0.6800 
 12 C       -0.5470     5.1730     0.3310 C.3   1 <1>   0.3430 
 13 N        0.6950     4.9430     1.1410 N.4   1 <1>  -0.9590 
 14 C        1.9360     4.9270     0.3250 C.3   1 <1>   0.4810 
 15 C        2.2020     6.3530    -0.0900 C.2   1 <1>  -0.2880 
 16 C        3.1740     7.1310     0.4190 C.2   1 <1>  -0.1780 
 17 C        3.4850     8.4990     0.0690 C.ar  1 <1>   0.0280 
 18 C        3.0090     9.1010    -1.0950 C.ar  1 <1>  -0.1500 
 19 C        4.2900     9.2680     0.9080 C.ar  1 <1>  -0.1500 
 20 C        3.3160    10.4140    -1.4010 C.ar  1 <1>  -0.1500 
 21 C        4.6020    10.5820     0.6090 C.ar  1 <1>  -0.1500 
 22 C        4.1120    11.1670    -0.5550 C.ar  1 <1>   0.0820 
 23 O        4.3660    12.4440    -0.9250 O.3   1 <1>  -0.3620 
 24 C        5.1730    13.2930    -0.1410 C.3   1 <1>   0.0400 
 25 H       -0.2620     2.5820    -0.8090 H     1 <1>   0.0800 
 26 H       -1.1890     1.3460    -0.0410 H     1 <1>   0.0800 
 27 H        0.2220    -1.9520    -1.3800 H     1 <1>   0.0800 
 28 H       -0.6990    -1.0070    -0.2390 H     1 <1>   0.0800 
 29 H        0.7690    -1.8060     0.2790 H     1 <1>   0.0800 
 30 H        2.3220    -1.2170    -2.1630 H     1 <1>   0.0800 
 31 H        2.9650    -0.9390    -0.5540 H     1 <1>   0.0800 
 32 H        2.9470     0.3530    -1.7360 H     1 <1>   0.0800 
 33 H       -1.2080     2.3780     2.0360 H     1 <1>   0.0800 
 34 H       -2.2640     3.8550     0.0250 H     1 <1>   0.0800 
 35 H        1.4020     3.0670     1.9050 H     1 <1>   0.0800 
 36 H        0.2780     3.9100     2.9290 H     1 <1>   0.0800 
 37 H       -1.7580     4.8280     2.6570 H     1 <1>   0.4000 
 38 H       -0.9340     6.1710     0.4580 H     1 <1>   0.0800 
 39 H       -0.3330     5.0090    -0.7120 H     1 <1>   0.0800 
 40 H        0.8130     5.7260     1.8000 H     1 <1>   0.4500 
 41 H        2.7610     4.5650     0.9180 H     1 <1>   0.0800 
 42 H        1.8310     4.2870    -0.5370 H     1 <1>   0.0800 
 43 H        1.5280     6.6990    -0.8520 H     1 <1>   0.1500 
 44 H        3.8260     6.7370     1.1810 H     1 <1>   0.1500 
 45 H        2.3990     8.5450    -1.7800 H     1 <1>   0.1500 
 46 H        4.6790     8.8370     1.8120 H     1 <1>   0.1500 
 47 H        2.9440    10.8670    -2.3010 H     1 <1>   0.1500 
 48 H        5.2250    11.1340     1.2870 H     1 <1>   0.1500 
 49 H        5.2330    14.2460    -0.6340 H     1 <1>   0.0800 
 50 H        6.1560    12.8630    -0.0580 H     1 <1>   0.0800 
 51 H        4.7190    13.4100     0.8270 H     1 <1>   0.0800 
@<TRIPOS>BOND
  1   1   2  2   
  2   1   3  2   
  3   1   4  am  
  4   1   5  1   
  5   4   6  1   
  6   4   7  1   
  7   5   8  1   
  8   5  25  1   
  9   5  26  1   
 10   6  27  1   
 11   6  28  1   
 12   6  29  1   
 13   7  30  1   
 14   7  31  1   
 15   7  32  1   
 16   8   9  1   
 17   8  10  1   
 18   8  33  1   
 19   9  11  1   
 20   9  12  1   
 21   9  34  1   
 22  10  13  1   
 23  10  35  1   
 24  10  36  1   
 25  11  37  1   
 26  12  13  1   
 27  12  38  1   
 28  12  39  1   
 29  13  14  1   
 30  13  40  1   
 31  14  15  1   
 32  14  41  1   
 33  14  42  1   
 34  15  16  2   
 35  15  43  1   
 36  16  17  1   
 37  16  44  1   
 38  17  18  ar  
 39  17  19  ar  
 40  18  20  ar  
 41  18  45  1   
 42  19  21  ar  
 43  19  46  1   
 44  20  22  ar  
 45  20  47  1   
 46  21  22  ar  
 47  21  48  1   
 48  22  23  1   
 49  23  24  1   
 50  24  49  1   
 51  24  50  1   
 52  24  51  1   
@<TRIPOS>SUBSTRUCTURE
  1 ****  14 GROUP 4 **** **** 0

# MOE 2024.06 (io_trps.svl 2023.06)
