@<TRIPOS>MOLECULE
NONAME
38 39 1 0 0 
SMALL
USER_CHARGES


@<TRIPOS>ATOM
  1 S       -2.2820     2.4930     0.3310 S.3   1 <1>  -0.0800 
  2 C       -2.3060     0.7490     0.1940 C.2   1 <1>   0.1980 
  3 C       -0.5670     2.4660     0.0470 C.2   1 <1>  -0.1100 
  4 N       -1.1630     0.2270    -0.0340 N.2   1 <1>  -0.5650 
  5 C       -3.6730     0.0830     0.3670 C.3   1 <1>   0.5230 
  6 C       -0.1750     1.1940    -0.1190 C.2   1 <1>   0.0460 
  7 N       -3.6680    -1.4030     0.1350 N.4   1 <1>  -0.9590 
  8 C        1.2380     0.7220    -0.3890 C.3   1 <1>  -0.0590 
  9 C       -2.7710    -2.1110     1.0960 C.3   1 <1>   0.4860 
 10 C       -3.3020    -1.7480    -1.2780 C.3   1 <1>   0.2630 
 11 C       -3.0770    -3.5830     0.9610 C.ar  1 <1>  -0.1430 
 12 C       -2.1960    -4.4190     0.2900 C.ar  1 <1>  -0.1500 
 13 C       -4.2740    -4.0890     1.4460 C.ar  1 <1>  -0.1500 
 14 C       -2.5400    -5.7370     0.0530 C.ar  1 <1>  -0.1500 
 15 C       -4.6120    -5.4060     1.2030 C.ar  1 <1>  -0.1500 
 16 C       -3.7570    -6.2270     0.4910 C.ar  1 <1>  -0.1430 
 17 C       -4.2000    -7.6450     0.1540 C.3   1 <1>  -0.1230 
 18 C       -5.2980    -7.6400    -0.8880 C.2   1 <1>   0.9060 
 19 O       -6.4670    -7.4840    -0.5160 O.co2 1 <1>  -0.9000 
 20 O       -4.9910    -7.7880    -2.0760 O.co2 1 <1>  -0.9000 
 21 H       -0.0380     3.4030     0.0350 H     1 <1>   0.1500 
 22 H       -4.3600     0.5460    -0.3210 H     1 <1>   0.0800 
 23 H       -4.0220     0.2880     1.3640 H     1 <1>   0.0800 
 24 H       -4.6070    -1.7900     0.3010 H     1 <1>   0.4500 
 25 H        1.9120     1.5580    -0.4340 H     1 <1>   0.0800 
 26 H        1.2740     0.1960    -1.3250 H     1 <1>   0.0800 
 27 H        1.5570     0.0600     0.3960 H     1 <1>   0.0800 
 28 H       -2.9650    -1.7930     2.1070 H     1 <1>   0.0800 
 29 H       -1.7350    -1.9240     0.8630 H     1 <1>   0.0800 
 30 H       -2.2860    -1.4520    -1.4870 H     1 <1>   0.0800 
 31 H       -3.9580    -1.2480    -1.9720 H     1 <1>   0.0800 
 32 H       -3.3880    -2.8120    -1.4380 H     1 <1>   0.0800 
 33 H       -1.2510    -4.0550    -0.0750 H     1 <1>   0.1500 
 34 H       -4.9680    -3.4770     1.9950 H     1 <1>   0.1500 
 35 H       -1.8740    -6.3820    -0.4940 H     1 <1>   0.1500 
 36 H       -5.5580    -5.8020     1.5390 H     1 <1>   0.1500 
 37 H       -4.5770    -8.1320     1.0320 H     1 <1>   0.0800 
 38 H       -3.3810    -8.2210    -0.2280 H     1 <1>   0.0800 
@<TRIPOS>BOND
  1   1   2  1   
  2   1   3  1   
  3   2   4  2   
  4   2   5  1   
  5   3   6  2   
  6   3  21  1   
  7   4   6  1   
  8   5   7  1   
  9   5  22  1   
 10   5  23  1   
 11   6   8  1   
 12   7   9  1   
 13   7  10  1   
 14   7  24  1   
 15   8  25  1   
 16   8  26  1   
 17   8  27  1   
 18   9  11  1   
 19   9  28  1   
 20   9  29  1   
 21  10  30  1   
 22  10  31  1   
 23  10  32  1   
 24  11  12  ar  
 25  11  13  ar  
 26  12  14  ar  
 27  12  33  1   
 28  13  15  ar  
 29  13  34  1   
 30  14  16  ar  
 31  14  35  1   
 32  15  16  ar  
 33  15  36  1   
 34  16  17  1   
 35  17  18  1   
 36  17  37  1   
 37  17  38  1   
 38  18  19  ar  
 39  18  20  ar  
@<TRIPOS>SUBSTRUCTURE
  1 ****  11 GROUP 4 **** **** 0

# MOE 2024.06 (io_trps.svl 2023.06)
