@<TRIPOS>MOLECULE
NONAME
44 45 1 0 0 
SMALL
USER_CHARGES


@<TRIPOS>ATOM
  1 S       -0.1400     0.1930     0.2560 S.o2  1 <1>   1.0900 
  2 O       -0.3970    -1.2250     0.2270 O.2   1 <1>  -0.6500 
  3 O       -0.0650     0.8870     1.5170 O.2   1 <1>  -0.6500 
  4 C       -1.5120     0.9310    -0.5930 C.3   1 <1>  -0.0550 
  5 C        1.2960     0.5700    -0.7310 C.3   1 <1>  -0.1350 
  6 C       -2.7460     0.5890     0.2320 C.3   1 <1>   0.3430 
  7 N       -4.0010     1.1340    -0.3690 N.4   1 <1>  -0.9590 
  8 C       -5.1980     0.5330     0.2960 C.3   1 <1>   0.3430 
  9 C       -4.0710     2.6330    -0.3050 C.3   1 <1>   0.3430 
 10 C       -6.4630     0.7810    -0.5470 C.3   1 <1>   0.0000 
 11 C       -5.4990     3.1570    -0.5220 C.3   1 <1>  -0.1600 
 12 C       -7.6930     0.6280     0.3620 C.3   1 <1>   0.2000 
 13 C       -6.4030     2.1630    -1.2690 C.3   1 <1>  -0.1600 
 14 C       -6.7240    -0.3260    -1.5830 C.3   1 <1>  -0.1600 
 15 O       -7.8720     1.7750     1.1310 O.3   1 <1>  -0.5600 
 16 C       -8.8640     0.3470    -0.5830 C.3   1 <1>  -0.1600 
 17 C       -8.2370    -0.2830    -1.8360 C.3   1 <1>  -0.1600 
 18 C       -8.8690     1.6900     2.1040 C.3   1 <1>   0.0400 
 19 H       -1.3790     1.9930    -0.6490 H     1 <1>   0.0800 
 20 H       -1.6030     0.5160    -1.5780 H     1 <1>   0.0800 
 21 H        1.2040     0.1530    -1.7150 H     1 <1>   0.0800 
 22 H        2.1720     0.1510    -0.2720 H     1 <1>   0.0800 
 23 H        1.4370     1.6300    -0.8120 H     1 <1>   0.0800 
 24 H       -2.6220     0.9730     1.2340 H     1 <1>   0.0800 
 25 H       -2.8180    -0.4860     0.3040 H     1 <1>   0.0800 
 26 H       -4.0690     0.8580    -1.3570 H     1 <1>   0.4500 
 27 H       -5.0640    -0.5270     0.4390 H     1 <1>   0.0800 
 28 H       -5.3330     0.9890     1.2650 H     1 <1>   0.0800 
 29 H       -3.7210     2.9790     0.6550 H     1 <1>   0.0800 
 30 H       -3.4270     3.0510    -1.0610 H     1 <1>   0.0800 
 31 H       -5.9340     3.3760     0.4380 H     1 <1>   0.0800 
 32 H       -5.4560     4.0890    -1.0580 H     1 <1>   0.0800 
 33 H       -7.5580    -0.2130     1.0230 H     1 <1>   0.0800 
 34 H       -6.0150     2.0490    -2.2660 H     1 <1>   0.0800 
 35 H       -7.3890     2.5850    -1.3680 H     1 <1>   0.0800 
 36 H       -6.1660    -0.2050    -2.4950 H     1 <1>   0.0800 
 37 H       -6.4790    -1.2870    -1.1620 H     1 <1>   0.0800 
 38 H       -9.5690    -0.3270    -0.1270 H     1 <1>   0.0800 
 39 H       -9.3630     1.2630    -0.8490 H     1 <1>   0.0800 
 40 H       -8.6270    -1.2710    -2.0190 H     1 <1>   0.0800 
 41 H       -8.4510     0.3340    -2.6930 H     1 <1>   0.0800 
 42 H       -8.8720     2.6110     2.6610 H     1 <1>   0.0800 
 43 H       -8.6580     0.8680     2.7660 H     1 <1>   0.0800 
 44 H       -9.8260     1.5580     1.6300 H     1 <1>   0.0800 
@<TRIPOS>BOND
  1   1   2  2   
  2   1   3  2   
  3   1   4  1   
  4   1   5  1   
  5   4   6  1   
  6   4  19  1   
  7   4  20  1   
  8   5  21  1   
  9   5  22  1   
 10   5  23  1   
 11   6   7  1   
 12   6  24  1   
 13   6  25  1   
 14   7   8  1   
 15   7   9  1   
 16   7  26  1   
 17   8  10  1   
 18   8  27  1   
 19   8  28  1   
 20   9  11  1   
 21   9  29  1   
 22   9  30  1   
 23  10  12  1   
 24  10  13  1   
 25  10  14  1   
 26  11  13  1   
 27  11  31  1   
 28  11  32  1   
 29  12  15  1   
 30  12  16  1   
 31  12  33  1   
 32  13  34  1   
 33  13  35  1   
 34  14  17  1   
 35  14  36  1   
 36  14  37  1   
 37  15  18  1   
 38  16  17  1   
 39  16  38  1   
 40  16  39  1   
 41  17  40  1   
 42  17  41  1   
 43  18  42  1   
 44  18  43  1   
 45  18  44  1   
@<TRIPOS>SUBSTRUCTURE
  1 ****   7 GROUP 4 **** **** 0

# MOE 2024.06 (io_trps.svl 2023.06)
