@<TRIPOS>MOLECULE
NONAME
45 48 1 0 0 
SMALL
USER_CHARGES


@<TRIPOS>ATOM
  1 S       -0.5630    -0.2480    -1.7240 S.3   1 <1>  -0.0800 
  2 C       -1.3060     0.8740    -0.5940 C.2   1 <1>  -0.1400 
  3 C       -2.0070    -1.2520    -1.7260 C.2   1 <1>  -0.1100 
  4 C       -2.5500     0.4820    -0.2860 C.2   1 <1>  -0.1810 
  5 C       -0.5900     2.1140    -0.0670 C.3   1 <1>   0.4600 
  6 C       -2.9560    -0.7340    -0.9220 C.2   1 <1>  -0.1500 
  7 C       -3.3830     1.3150     0.6620 C.3   1 <1>   0.0210 
  8 O       -1.3940     2.6950     0.9440 O.3   1 <1>  -0.5600 
  9 C       -0.3550     3.1430    -1.1810 C.3   1 <1>  -0.1600 
 10 C        0.7340     1.7350     0.6030 C.3   1 <1>  -0.1600 
 11 C       -2.7870     2.7340     0.7440 C.3   1 <1>   0.1200 
 12 C        0.4120     4.3590    -0.6650 C.3   1 <1>   0.2090 
 13 C        1.4770     2.9740     1.0990 C.3   1 <1>   0.2090 
 14 N        1.6830     3.8990    -0.0450 N.pl3 1 <1>  -0.8380 
 15 C        2.7860     4.7290    -0.0480 C.ar  1 <1>   0.4100 
 16 N        2.5850     6.0280    -0.1200 N.ar  1 <1>  -0.6200 
 17 C        4.0590     4.2120     0.0220 C.ar  1 <1>  -0.1500 
 18 C        3.6680     6.7810    -0.1090 C.ar  1 <1>   0.7030 
 19 C        5.1060     5.0900     0.0270 C.ar  1 <1>   0.3930 
 20 O        3.4180     8.1020    -0.1830 O.3   1 <1>  -0.3630 
 21 N        4.9360     6.3960    -0.0360 N.ar  1 <1>  -0.6200 
 22 O        6.3550     4.5870     0.0990 O.3   1 <1>  -0.3630 
 23 C        4.4550     9.0640    -0.1790 C.3   1 <1>   0.0400 
 24 C        7.4860     5.4370     0.0980 C.3   1 <1>   0.0400 
 25 H       -1.9920    -2.1370    -2.3360 H     1 <1>   0.1500 
 26 H       -3.9300    -1.1570    -0.7480 H     1 <1>   0.1500 
 27 H       -3.3850     0.8620     1.6370 H     1 <1>   0.0800 
 28 H       -4.3970     1.3740     0.3100 H     1 <1>   0.0800 
 29 H       -1.2870     3.4480    -1.6130 H     1 <1>   0.0800 
 30 H        0.2260     2.6880    -1.9630 H     1 <1>   0.0800 
 31 H        1.3630     1.2200    -0.0990 H     1 <1>   0.0800 
 32 H        0.5400     1.0690     1.4230 H     1 <1>   0.0800 
 33 H       -3.2210     3.2710     1.5680 H     1 <1>   0.0800 
 34 H       -2.9870     3.2770    -0.1630 H     1 <1>   0.0800 
 35 H       -0.1720     4.8900     0.0690 H     1 <1>   0.0800 
 36 H        0.6220     5.0270    -1.4820 H     1 <1>   0.0800 
 37 H        2.4210     2.6870     1.5280 H     1 <1>   0.0800 
 38 H        0.8990     3.4730     1.8590 H     1 <1>   0.0800 
 39 H        4.2230     3.1560     0.0630 H     1 <1>   0.1500 
 40 H        4.0090    10.0390    -0.2450 H     1 <1>   0.0800 
 41 H        5.0930     8.8900    -1.0280 H     1 <1>   0.0800 
 42 H        5.0120     8.9720     0.7370 H     1 <1>   0.0800 
 43 H        8.3680     4.8260     0.1600 H     1 <1>   0.0800 
 44 H        7.4290     6.0920     0.9490 H     1 <1>   0.0800 
 45 H        7.4920     6.0050    -0.8150 H     1 <1>   0.0800 
@<TRIPOS>BOND
  1   1   2  1   
  2   1   3  1   
  3   2   4  2   
  4   2   5  1   
  5   3   6  2   
  6   3  25  1   
  7   4   6  1   
  8   4   7  1   
  9   5   8  1   
 10   5   9  1   
 11   5  10  1   
 12   6  26  1   
 13   7  11  1   
 14   7  27  1   
 15   7  28  1   
 16   8  11  1   
 17   9  12  1   
 18   9  29  1   
 19   9  30  1   
 20  10  13  1   
 21  10  31  1   
 22  10  32  1   
 23  11  33  1   
 24  11  34  1   
 25  12  14  1   
 26  12  35  1   
 27  12  36  1   
 28  13  14  1   
 29  13  37  1   
 30  13  38  1   
 31  14  15  1   
 32  15  16  ar  
 33  15  17  ar  
 34  16  18  ar  
 35  17  19  ar  
 36  17  39  1   
 37  18  20  1   
 38  18  21  ar  
 39  19  21  ar  
 40  19  22  1   
 41  20  23  1   
 42  22  24  1   
 43  23  40  1   
 44  23  41  1   
 45  23  42  1   
 46  24  43  1   
 47  24  44  1   
 48  24  45  1   
@<TRIPOS>SUBSTRUCTURE
  1 ****  14 GROUP 4 **** **** 0

# MOE 2024.06 (io_trps.svl 2023.06)
