@<TRIPOS>MOLECULE
NONAME
44 47 1 0 0 
SMALL
USER_CHARGES


@<TRIPOS>ATOM
  1 O       -0.8380    -0.4400     0.7270 O.2   1 <1>  -0.5700 
  2 C       -0.9050    -1.5960     0.4370 C.2   1 <1>   0.4640 
  3 C       -1.8980    -2.7170     0.7440 C.3   1 <1>   0.0530 
  4 C       -0.0010    -2.5610    -0.3300 C.3   1 <1>   0.0530 
  5 C       -0.7290    -3.7000     0.4430 C.3   1 <1>   0.0530 
  6 C       -1.1190    -4.9010    -0.4050 C.2   1 <1>   0.5770 
  7 O       -1.6890    -4.7320    -1.4560 O.2   1 <1>  -0.5700 
  8 N       -0.8330    -6.1460     0.0490 N.am  1 <1>  -0.7300 
  9 C       -1.1990    -7.3920    -0.6590 C.3   1 <1>   0.2200 
 10 C       -2.5620    -7.8540    -0.1730 C.3   1 <1>  -0.0800 
 11 C       -0.3030    -8.5350    -0.2000 C.3   1 <1>   0.1200 
 12 C       -2.2150    -8.6860     1.0680 C.3   1 <1>   0.1200 
 13 C       -3.2940    -8.6790    -1.2490 C.3   1 <1>  -0.0170 
 14 O       -0.8480    -8.9760     1.0050 O.3   1 <1>  -0.5600 
 15 C       -4.7170    -9.0170    -0.8170 C.ar  1 <1>  -0.1440 
 16 C       -5.7590    -8.0590    -0.8350 C.ar  1 <1>   0.0000 
 17 C       -5.0250   -10.2760    -0.3920 C.ar  1 <1>  -0.1500 
 18 C       -7.0390    -8.4730    -0.3920 C.ar  1 <1>   0.3100 
 19 C       -5.6090    -6.7200    -1.2680 C.ar  1 <1>  -0.1500 
 20 C       -6.3280   -10.5830     0.0190 C.ar  1 <1>   0.1600 
 21 N       -7.3060    -9.7350     0.0300 N.ar  1 <1>  -0.6200 
 22 C       -8.0900    -7.5420    -0.3880 C.ar  1 <1>  -0.1500 
 23 C       -6.6560    -5.8390    -1.2530 C.ar  1 <1>  -0.1500 
 24 C       -7.9130    -6.2520    -0.8060 C.ar  1 <1>  -0.1500 
 25 H       -2.2220    -2.7380     1.7700 H     1 <1>   0.0000 
 26 H       -2.7040    -2.7520     0.0310 H     1 <1>   0.0000 
 27 H       -0.1970    -2.5440    -1.3880 H     1 <1>   0.0000 
 28 H        1.0400    -2.4690    -0.0760 H     1 <1>   0.0000 
 29 H       -0.1980    -3.9660     1.3420 H     1 <1>   0.0000 
 30 H       -0.4310    -6.2950     0.9780 H     1 <1>   0.3700 
 31 H       -1.1540    -7.2390    -1.7250 H     1 <1>   0.0800 
 32 H       -3.1770    -7.0150     0.1000 H     1 <1>   0.0800 
 33 H        0.7180    -8.2320    -0.0490 H     1 <1>   0.0800 
 34 H       -0.3410    -9.3540    -0.8970 H     1 <1>   0.0800 
 35 H       -2.7630    -9.6110     1.1170 H     1 <1>   0.0800 
 36 H       -2.3870    -8.1220     1.9680 H     1 <1>   0.0800 
 37 H       -2.7490    -9.5870    -1.4450 H     1 <1>   0.0800 
 38 H       -3.3300    -8.1310    -2.1750 H     1 <1>   0.0800 
 39 H       -4.2880   -11.0580    -0.3580 H     1 <1>   0.1500 
 40 H       -4.6540    -6.3770    -1.6210 H     1 <1>   0.1500 
 41 H       -6.5270   -11.5890     0.3470 H     1 <1>   0.1500 
 42 H       -9.0490    -7.8830    -0.0420 H     1 <1>   0.1500 
 43 H       -6.5250    -4.8220    -1.5840 H     1 <1>   0.1500 
 44 H       -8.7290    -5.5490    -0.7980 H     1 <1>   0.1500 
@<TRIPOS>BOND
  1   1   2  2   
  2   2   3  1   
  3   2   4  1   
  4   3   5  1   
  5   3  25  1   
  6   3  26  1   
  7   4   5  1   
  8   4  27  1   
  9   4  28  1   
 10   5   6  1   
 11   5  29  1   
 12   6   7  2   
 13   6   8  am  
 14   8   9  1   
 15   8  30  1   
 16   9  10  1   
 17   9  11  1   
 18   9  31  1   
 19  10  12  1   
 20  10  13  1   
 21  10  32  1   
 22  11  14  1   
 23  11  33  1   
 24  11  34  1   
 25  12  14  1   
 26  12  35  1   
 27  12  36  1   
 28  13  15  1   
 29  13  37  1   
 30  13  38  1   
 31  15  16  ar  
 32  15  17  ar  
 33  16  18  ar  
 34  16  19  ar  
 35  17  20  ar  
 36  17  39  1   
 37  18  21  ar  
 38  18  22  ar  
 39  19  23  ar  
 40  19  40  1   
 41  20  21  ar  
 42  20  41  1   
 43  22  24  ar  
 44  22  42  1   
 45  23  24  ar  
 46  23  43  1   
 47  24  44  1   
@<TRIPOS>SUBSTRUCTURE
  1 ****  10 GROUP 4 **** **** 0

# MOE 2024.06 (io_trps.svl 2023.06)
