@<TRIPOS>MOLECULE
NONAME
42 44 1 0 0 
SMALL
USER_CHARGES


@<TRIPOS>ATOM
  1 CL      -0.2470    -0.2450    -1.2970 Cl    1 <1>  -0.1400 
  2 C       -1.5630    -0.9420    -0.3760 C.2   1 <1>   0.1540 
  3 C       -2.4900    -0.0620     0.2650 C.2   1 <1>   0.6160 
  4 C       -1.6820    -2.2930    -0.2840 C.2   1 <1>  -0.1500 
  5 O       -2.4580     1.1580     0.2240 O.2   1 <1>  -0.5700 
  6 N       -3.4990    -0.6500     0.9820 N.am  1 <1>  -0.5390 
  7 C       -2.7550    -2.8750     0.4610 C.2   1 <1>   0.0140 
  8 C       -3.6260    -2.0140     1.0860 C.2   1 <1>  -0.0410 
  9 C       -2.8730    -4.3130     0.5480 C.2   1 <1>   0.6160 
 10 O       -1.8680    -4.9980     0.6050 O.2   1 <1>  -0.5700 
 11 N       -4.1010    -4.9370     0.5490 N.am  1 <1>  -0.6600 
 12 C       -5.2620    -4.4620    -0.2520 C.3   1 <1>   0.1400 
 13 C       -4.2670    -6.3830     0.8400 C.3   1 <1>   0.1400 
 14 C       -6.1860    -5.6770    -0.4260 C.3   1 <1>   0.2000 
 15 C       -5.2630    -6.8790    -0.2080 C.3   1 <1>  -0.0800 
 16 O       -7.1600    -5.6690     0.5790 O.3   1 <1>  -0.5600 
 17 C       -5.9830    -8.1790     0.1920 C.3   1 <1>   0.0200 
 18 C       -8.3290    -4.9790     0.2670 C.3   1 <1>   0.0400 
 19 C       -5.0600    -9.3860     0.2320 C.2   1 <1>  -0.0400 
 20 O       -5.5370   -10.5280     0.6510 O.3   1 <1>  -0.0190 
 21 C       -3.7690    -9.5780    -0.0880 C.2   1 <1>  -0.1500 
 22 N       -4.6390   -11.4700     0.6310 N.2   1 <1>  -0.4100 
 23 C       -3.5620   -10.9250     0.1910 C.2   1 <1>   0.1080 
 24 C       -2.2520   -11.6570     0.0040 C.3   1 <1>  -0.0590 
 25 H       -0.9760    -2.9500    -0.7640 H     1 <1>   0.1500 
 26 H       -4.1270     0.0110     1.4460 H     1 <1>   0.3700 
 27 H       -4.4370    -2.3930     1.6900 H     1 <1>   0.1500 
 28 H       -5.7730    -3.6570     0.2440 H     1 <1>   0.0800 
 29 H       -4.9110    -4.1310    -1.2140 H     1 <1>   0.0800 
 30 H       -3.3330    -6.9150     0.7860 H     1 <1>   0.0800 
 31 H       -4.6790    -6.4900     1.8290 H     1 <1>   0.0800 
 32 H       -6.6640    -5.7060    -1.3900 H     1 <1>   0.0800 
 33 H       -4.7220    -7.0480    -1.1230 H     1 <1>   0.0800 
 34 H       -6.7710    -8.3810    -0.5110 H     1 <1>   0.0800 
 35 H       -6.4360    -8.0630     1.1620 H     1 <1>   0.0800 
 36 H       -8.9810    -5.0240     1.1230 H     1 <1>   0.0800 
 37 H       -8.8070    -5.4510    -0.5730 H     1 <1>   0.0800 
 38 H       -8.0960    -3.9520     0.0450 H     1 <1>   0.0800 
 39 H       -3.0350    -8.8940    -0.4710 H     1 <1>   0.1500 
 40 H       -1.4800   -11.1720     0.5720 H     1 <1>   0.0800 
 41 H       -1.9820   -11.6590    -1.0350 H     1 <1>   0.0800 
 42 H       -2.3490   -12.6730     0.3420 H     1 <1>   0.0800 
@<TRIPOS>BOND
  1   1   2  1   
  2   2   3  1   
  3   2   4  2   
  4   3   5  2   
  5   3   6  am  
  6   4   7  1   
  7   4  25  1   
  8   6   8  1   
  9   6  26  1   
 10   7   8  2   
 11   7   9  1   
 12   8  27  1   
 13   9  10  2   
 14   9  11  am  
 15  11  12  1   
 16  11  13  1   
 17  12  14  1   
 18  12  28  1   
 19  12  29  1   
 20  13  15  1   
 21  13  30  1   
 22  13  31  1   
 23  14  15  1   
 24  14  16  1   
 25  14  32  1   
 26  15  17  1   
 27  15  33  1   
 28  16  18  1   
 29  17  19  1   
 30  17  34  1   
 31  17  35  1   
 32  18  36  1   
 33  18  37  1   
 34  18  38  1   
 35  19  20  1   
 36  19  21  2   
 37  20  22  1   
 38  21  23  1   
 39  21  39  1   
 40  22  23  2   
 41  23  24  1   
 42  24  40  1   
 43  24  41  1   
 44  24  42  1   
@<TRIPOS>SUBSTRUCTURE
  1 ****  11 GROUP 4 **** **** 0

# MOE 2024.06 (io_trps.svl 2023.06)
