@<TRIPOS>MOLECULE
NONAME
43 45 1 0 0 
SMALL
USER_CHARGES


@<TRIPOS>ATOM
  1 O        0.4490     0.4610     0.4060 O.3   1 <1>  -0.0190 
  2 N        1.4380     1.2150     0.7880 N.2   1 <1>  -0.4100 
  3 C        0.8660    -0.6580    -0.1220 C.2   1 <1>  -0.0400 
  4 C        2.5160     0.5670     0.5010 C.2   1 <1>   0.1080 
  5 C        2.2070    -0.6560    -0.0920 C.2   1 <1>  -0.1500 
  6 C       -0.1360    -1.6720    -0.6310 C.3   1 <1>  -0.0600 
  7 C        3.9280     1.0740     0.7690 C.3   1 <1>   0.3900 
  8 N        3.9510     2.5510     0.6490 N.pl3 1 <1>  -0.8690 
  9 C        5.0050     3.3350     0.3600 C.ar  1 <1>   0.4100 
 10 N        6.1810     2.7500     0.2800 N.ar  1 <1>  -0.6200 
 11 C        4.8320     4.7250     0.1680 C.ar  1 <1>  -0.1430 
 12 C        7.2360     3.5070     0.0160 C.ar  1 <1>   0.7710 
 13 C        5.9370     5.4760    -0.0790 C.ar  1 <1>   0.2180 
 14 C        3.4360     5.3500     0.2490 C.3   1 <1>  -0.0170 
 15 N        7.1260     4.8350    -0.1520 N.ar  1 <1>  -0.1790 
 16 N        8.4690     2.9330    -0.0820 N.pl3 1 <1>  -0.8380 
 17 C        5.9090     6.9880    -0.2840 C.3   1 <1>  -0.0170 
 18 C        3.3940     6.7760    -0.3170 C.3   1 <1>  -0.1600 
 19 C        8.6810     1.4880     0.2660 C.3   1 <1>   0.1290 
 20 C        9.7240     3.5760    -0.5880 C.3   1 <1>   0.1290 
 21 C        4.5830     7.6060     0.1800 C.3   1 <1>  -0.1600 
 22 H        2.8990    -1.4020    -0.4360 H     1 <1>   0.1500 
 23 H       -0.7400    -1.2300    -1.4030 H     1 <1>   0.0800 
 24 H       -0.7750    -1.9870     0.1740 H     1 <1>   0.0800 
 25 H        0.3720    -2.5300    -1.0320 H     1 <1>   0.0800 
 26 H        4.6140     0.6370     0.0640 H     1 <1>   0.0800 
 27 H        4.2240     0.7940     1.7650 H     1 <1>   0.0800 
 28 H        3.0000     2.9290     0.7380 H     1 <1>   0.4000 
 29 H        3.1270     5.3680     1.2810 H     1 <1>   0.0800 
 30 H        2.7270     4.7490    -0.2950 H     1 <1>   0.0800 
 31 H        7.9960     5.3220    -0.3130 H     1 <1>   0.4570 
 32 H        6.0450     7.1980    -1.3310 H     1 <1>   0.0800 
 33 H        6.7120     7.4550     0.2600 H     1 <1>   0.0800 
 34 H        2.4710     7.2480    -0.0250 H     1 <1>   0.0800 
 35 H        3.4110     6.7340    -1.3940 H     1 <1>   0.0800 
 36 H        7.9330     1.1360     0.9570 H     1 <1>   0.0800 
 37 H        9.6440     1.3540     0.7300 H     1 <1>   0.0800 
 38 H        8.6360     0.8880    -0.6260 H     1 <1>   0.0800 
 39 H        9.5190     4.4600    -1.1650 H     1 <1>   0.0800 
 40 H       10.2520     2.8870    -1.2270 H     1 <1>   0.0800 
 41 H       10.3660     3.8280     0.2400 H     1 <1>   0.0800 
 42 H        4.5030     8.6150    -0.1880 H     1 <1>   0.0800 
 43 H        4.5580     7.6470     1.2570 H     1 <1>   0.0800 
@<TRIPOS>BOND
  1   1   2  1   
  2   1   3  1   
  3   2   4  2   
  4   3   5  2   
  5   3   6  1   
  6   4   5  1   
  7   4   7  1   
  8   5  22  1   
  9   6  23  1   
 10   6  24  1   
 11   6  25  1   
 12   7   8  1   
 13   7  26  1   
 14   7  27  1   
 15   8   9  1   
 16   8  28  1   
 17   9  10  ar  
 18   9  11  ar  
 19  10  12  ar  
 20  11  13  ar  
 21  11  14  1   
 22  12  15  ar  
 23  12  16  1   
 24  13  15  ar  
 25  13  17  1   
 26  14  18  1   
 27  14  29  1   
 28  14  30  1   
 29  15  31  1   
 30  16  19  1   
 31  16  20  1   
 32  17  21  1   
 33  17  32  1   
 34  17  33  1   
 35  18  21  1   
 36  18  34  1   
 37  18  35  1   
 38  19  36  1   
 39  19  37  1   
 40  19  38  1   
 41  20  39  1   
 42  20  40  1   
 43  20  41  1   
 44  21  42  1   
 45  21  43  1   
@<TRIPOS>SUBSTRUCTURE
  1 ****   9 GROUP 4 **** **** 0

# MOE 2024.06 (io_trps.svl 2023.06)
