@<TRIPOS>MOLECULE
NONAME
38 39 1 0 0 
SMALL
USER_CHARGES


@<TRIPOS>ATOM
  1 O       -0.9130    -1.0880    -0.2320 O.2   1 <1>  -0.5700 
  2 C        0.1260    -1.3580     0.3290 C.2   1 <1>   0.6900 
  3 N        0.9500    -2.3190    -0.1240 N.am  1 <1>  -0.7300 
  4 N        0.4660    -0.6940     1.4320 N.am  1 <1>  -0.8000 
  5 C        0.6770    -3.1730    -1.3200 C.3   1 <1>   0.2010 
  6 C        0.4820    -4.6510    -0.9730 C.2   1 <1>   0.5690 
  7 O        1.4420    -5.3820    -1.0520 O.2   1 <1>  -0.5700 
  8 N       -0.7400    -5.1310    -0.5830 N.am  1 <1>  -0.6600 
  9 C       -1.9500    -4.3280    -0.2610 C.3   1 <1>   0.1400 
 10 C       -0.9900    -6.5680    -0.3160 C.3   1 <1>   0.1400 
 11 C       -2.7850    -5.2480     0.6290 C.3   1 <1>   0.2000 
 12 C       -2.4620    -6.6500     0.1020 C.3   1 <1>  -0.0800 
 13 O       -2.3190    -5.1270     1.9300 O.3   1 <1>  -0.6800 
 14 C       -2.7710    -7.8070     1.0700 C.3   1 <1>  -0.0170 
 15 C       -2.4810    -9.1510     0.4200 C.ar  1 <1>  -0.1440 
 16 C       -3.3940    -9.7670    -0.4120 C.ar  1 <1>  -0.1500 
 17 C       -1.2920    -9.8220     0.6230 C.ar  1 <1>  -0.1500 
 18 C       -3.0810   -10.9880    -0.9870 C.ar  1 <1>   0.1600 
 19 C       -1.0780   -11.0400    -0.0010 C.ar  1 <1>   0.1600 
 20 N       -1.9440   -11.6380    -0.8020 N.ar  1 <1>  -0.6200 
 21 H        1.7260    -2.6210     0.4620 H     1 <1>   0.3700 
 22 H       -0.1290     0.0840     1.7150 H     1 <1>   0.3700 
 23 H        1.4090    -0.7080     1.8080 H     1 <1>   0.3700 
 24 H       -0.1950    -2.8170    -1.8380 H     1 <1>   0.0800 
 25 H        1.5090    -3.0930    -1.9960 H     1 <1>   0.0800 
 26 H       -1.7110    -3.4110     0.2470 H     1 <1>   0.0800 
 27 H       -2.4820    -4.1100    -1.1700 H     1 <1>   0.0800 
 28 H       -0.7940    -7.1600    -1.1950 H     1 <1>   0.0800 
 29 H       -0.3420    -6.8930     0.4810 H     1 <1>   0.0800 
 30 H       -3.8350    -5.0130     0.6170 H     1 <1>   0.0800 
 31 H       -3.0390    -6.8000    -0.7940 H     1 <1>   0.0800 
 32 H       -1.3410    -5.1280     1.9120 H     1 <1>   0.4000 
 33 H       -3.8070    -7.7650     1.3580 H     1 <1>   0.0800 
 34 H       -2.1860    -7.7120     1.9680 H     1 <1>   0.0800 
 35 H       -4.3440    -9.3100    -0.6190 H     1 <1>   0.1500 
 36 H       -0.5300    -9.4110     1.2600 H     1 <1>   0.1500 
 37 H       -3.8050   -11.4540    -1.6330 H     1 <1>   0.1500 
 38 H       -0.1440   -11.5480     0.1690 H     1 <1>   0.1500 
@<TRIPOS>BOND
  1   1   2  2   
  2   2   3  am  
  3   2   4  am  
  4   3   5  1   
  5   3  21  1   
  6   4  22  1   
  7   4  23  1   
  8   5   6  1   
  9   5  24  1   
 10   5  25  1   
 11   6   7  2   
 12   6   8  am  
 13   8   9  1   
 14   8  10  1   
 15   9  11  1   
 16   9  26  1   
 17   9  27  1   
 18  10  12  1   
 19  10  28  1   
 20  10  29  1   
 21  11  12  1   
 22  11  13  1   
 23  11  30  1   
 24  12  14  1   
 25  12  31  1   
 26  13  32  1   
 27  14  15  1   
 28  14  33  1   
 29  14  34  1   
 30  15  16  ar  
 31  15  17  ar  
 32  16  18  ar  
 33  16  35  1   
 34  17  19  ar  
 35  17  36  1   
 36  18  20  ar  
 37  18  37  1   
 38  19  20  ar  
 39  19  38  1   
@<TRIPOS>SUBSTRUCTURE
  1 ****  10 GROUP 4 **** **** 0

# MOE 2024.06 (io_trps.svl 2023.06)
