@<TRIPOS>MOLECULE
NONAME
51 55 1 0 0 
SMALL
USER_CHARGES


@<TRIPOS>ATOM
  1 O       -0.9430     0.7380     2.2900 O.2   1 <1>  -0.5700 
  2 C       -1.8460     1.2190     1.6310 C.2   1 <1>   0.5440 
  3 N       -3.0730     0.5860     1.5980 N.am  1 <1>  -0.6600 
  4 C       -1.5970     2.4400     0.8920 C.ar  1 <1>   0.0860 
  5 C       -4.1450     0.8930     0.6120 C.3   1 <1>   0.1400 
  6 C       -3.3590    -0.6210     2.4250 C.3   1 <1>   0.1400 
  7 C       -0.6150     2.4780    -0.1020 C.ar  1 <1>  -0.1500 
  8 C       -2.3270     3.6100     1.1550 C.ar  1 <1>  -0.1500 
  9 C       -4.3130    -0.2970    -0.3350 C.3   1 <1>  -0.1600 
 10 C       -3.5220    -1.8360     1.5080 C.3   1 <1>  -0.1600 
 11 C       -0.4090     3.6520    -0.7950 C.ar  1 <1>   0.0830 
 12 C       -2.1080     4.7850     0.4500 C.ar  1 <1>  -0.1500 
 13 C       -4.5930    -1.6090     0.4260 C.3   1 <1>   0.4240 
 14 O        0.4670     3.8940    -1.7760 O.3   1 <1>  -0.3630 
 15 C       -1.1360     4.7760    -0.5290 C.ar  1 <1>   0.0830 
 16 O       -5.7790    -1.4020     1.1660 O.3   1 <1>  -0.5600 
 17 C       -4.7150    -2.8370    -0.5230 C.ar  1 <1>  -0.1430 
 18 C        0.2950     5.2600    -2.1510 C.3   1 <1>   0.4000 
 19 O       -0.7510     5.7710    -1.3280 O.3   1 <1>  -0.3630 
 20 C       -6.9930    -1.6100     0.5220 C.3   1 <1>   0.1200 
 21 C       -3.6480    -3.2740    -1.3190 C.ar  1 <1>   0.0830 
 22 C       -5.9190    -3.5380    -0.6000 C.ar  1 <1>  -0.1430 
 23 C       -7.1150    -3.0950     0.2170 C.3   1 <1>  -0.0170 
 24 O       -2.4730    -2.5930    -1.2790 O.3   1 <1>  -0.3630 
 25 C       -3.7960    -4.3880    -2.1440 C.ar  1 <1>  -0.1500 
 26 C       -6.0540    -4.6450    -1.4200 C.ar  1 <1>  -0.1500 
 27 C       -1.2910    -3.0670    -1.8850 C.3   1 <1>   0.0400 
 28 C       -4.9930    -5.0720    -2.1920 C.ar  1 <1>  -0.1500 
 29 H       -3.9080     1.7700     0.0370 H     1 <1>   0.0800 
 30 H       -5.0660     1.0770     1.1400 H     1 <1>   0.0800 
 31 H       -4.2630    -0.4570     2.9850 H     1 <1>   0.0800 
 32 H       -2.5640    -0.8010     3.1280 H     1 <1>   0.0800 
 33 H       -0.0280     1.6040    -0.3190 H     1 <1>   0.1500 
 34 H       -3.0740     3.5860     1.9300 H     1 <1>   0.1500 
 35 H       -3.4090    -0.3840    -0.9040 H     1 <1>   0.0800 
 36 H       -5.1020    -0.1040    -1.0360 H     1 <1>   0.0800 
 37 H       -3.7890    -2.6980     2.0900 H     1 <1>   0.0800 
 38 H       -2.5660    -2.0340     1.0680 H     1 <1>   0.0800 
 39 H       -2.6670     5.6810     0.6500 H     1 <1>   0.1500 
 40 H        0.0050     5.3180    -3.1850 H     1 <1>   0.0800 
 41 H        1.2030     5.8030    -1.9590 H     1 <1>   0.0800 
 42 H       -7.0290    -1.0220    -0.3770 H     1 <1>   0.0800 
 43 H       -7.7780    -1.2950     1.1870 H     1 <1>   0.0800 
 44 H       -8.0250    -3.2690    -0.3280 H     1 <1>   0.0800 
 45 H       -7.1560    -3.6500     1.1360 H     1 <1>   0.0800 
 46 H       -2.9930    -4.7390    -2.7620 H     1 <1>   0.1500 
 47 H       -6.9860    -5.1810    -1.4620 H     1 <1>   0.1500 
 48 H       -0.4930    -2.3940    -1.6280 H     1 <1>   0.0800 
 49 H       -1.4270    -3.0810    -2.9520 H     1 <1>   0.0800 
 50 H       -1.0760    -4.0510    -1.5070 H     1 <1>   0.0800 
 51 H       -5.1010    -5.9330    -2.8290 H     1 <1>   0.1500 
@<TRIPOS>BOND
  1   1   2  2   
  2   2   3  am  
  3   2   4  1   
  4   3   5  1   
  5   3   6  1   
  6   4   7  ar  
  7   4   8  ar  
  8   5   9  1   
  9   5  29  1   
 10   5  30  1   
 11   6  10  1   
 12   6  31  1   
 13   6  32  1   
 14   7  11  ar  
 15   7  33  1   
 16   8  12  ar  
 17   8  34  1   
 18   9  13  1   
 19   9  35  1   
 20   9  36  1   
 21  10  13  1   
 22  10  37  1   
 23  10  38  1   
 24  11  14  1   
 25  11  15  ar  
 26  12  15  ar  
 27  12  39  1   
 28  13  16  1   
 29  13  17  1   
 30  14  18  1   
 31  15  19  1   
 32  16  20  1   
 33  17  21  ar  
 34  17  22  ar  
 35  18  19  1   
 36  18  40  1   
 37  18  41  1   
 38  20  23  1   
 39  20  42  1   
 40  20  43  1   
 41  21  24  1   
 42  21  25  ar  
 43  22  23  1   
 44  22  26  ar  
 45  23  44  1   
 46  23  45  1   
 47  24  27  1   
 48  25  28  ar  
 49  25  46  1   
 50  26  28  ar  
 51  26  47  1   
 52  27  48  1   
 53  27  49  1   
 54  27  50  1   
 55  28  51  1   
@<TRIPOS>SUBSTRUCTURE
  1 ****   9 GROUP 4 **** **** 0

# MOE 2024.06 (io_trps.svl 2023.06)
