@<TRIPOS>MOLECULE
NONAME
39 40 1 0 0 
SMALL
USER_CHARGES


@<TRIPOS>ATOM
  1 CL       0.2000    -0.2420     1.6540 Cl    1 <1>  -0.1230 
  2 C        1.7120    -0.4610     0.7850 C.2   1 <1>   0.1230 
  3 C        2.5890     0.5440     0.3650 C.2   1 <1>   0.2030 
  4 C        2.2330    -1.6400     0.4010 C.2   1 <1>  -0.3320 
  5 N        3.6200    -0.0130    -0.2590 N.2   1 <1>  -0.7070 
  6 C        2.4390     1.9710     0.5580 C.2   1 <1>   0.7160 
  7 N        3.3900    -1.3370    -0.2290 N.pl3 1 <1>   0.3140 
  8 C        1.6890    -3.0470     0.6020 C.3   1 <1>  -0.0600 
  9 O        1.4920     2.4720     1.1300 O.2   1 <1>  -0.5700 
 10 N        3.4400     2.7570     0.0520 N.am  1 <1>  -0.4940 
 11 C        4.3320    -2.2910    -0.8330 C.3   1 <1>   0.0160 
 12 C        3.6160     4.1200     0.0550 C.2   1 <1>   0.4420 
 13 S        5.0510     4.7180    -0.7120 S.3   1 <1>  -0.0800 
 14 N        2.8930     5.0670     0.5350 N.2   1 <1>  -0.3380 
 15 C        4.5240     6.3120    -0.2920 C.2   1 <1>   0.1980 
 16 N        3.4170     6.3140     0.3320 N.2   1 <1>  -0.3380 
 17 C        5.3900     7.4890    -0.6950 C.3   1 <1>   0.0200 
 18 C        6.6670     7.5710     0.1540 C.3   1 <1>  -0.1600 
 19 C        7.5240     8.7840    -0.2330 C.3   1 <1>  -0.1600 
 20 C        8.7950     8.8550     0.6210 C.3   1 <1>  -0.1600 
 21 C        9.6490    10.0660     0.2360 C.3   1 <1>  -0.2400 
 22 H        0.7540    -3.0150     1.1330 H     1 <1>   0.0800 
 23 H        2.3830    -3.6370     1.1740 H     1 <1>   0.0800 
 24 H        1.5230    -3.5220    -0.3480 H     1 <1>   0.0800 
 25 H        4.1630     2.1960    -0.3990 H     1 <1>   0.3700 
 26 H        3.8290    -2.8460    -1.6020 H     1 <1>   0.0800 
 27 H        4.6930    -2.9600    -0.0740 H     1 <1>   0.0800 
 28 H        5.1580    -1.7530    -1.2600 H     1 <1>   0.0800 
 29 H        4.8180     8.3910    -0.5680 H     1 <1>   0.0800 
 30 H        5.6420     7.3990    -1.7360 H     1 <1>   0.0800 
 31 H        7.2430     6.6710     0.0230 H     1 <1>   0.0800 
 32 H        6.3920     7.6410     1.1930 H     1 <1>   0.0800 
 33 H        6.9530     9.6860    -0.0950 H     1 <1>   0.0800 
 34 H        7.7980     8.7160    -1.2730 H     1 <1>   0.0800 
 35 H        9.3740     7.9570     0.4870 H     1 <1>   0.0800 
 36 H        8.5290     8.9280     1.6620 H     1 <1>   0.0800 
 37 H        9.9470    10.0040    -0.7960 H     1 <1>   0.0800 
 38 H       10.5350    10.0990     0.8450 H     1 <1>   0.0800 
 39 H        9.0990    10.9780     0.3840 H     1 <1>   0.0800 
@<TRIPOS>BOND
  1   1   2  1   
  2   2   3  1   
  3   2   4  2   
  4   3   5  2   
  5   3   6  1   
  6   4   7  1   
  7   4   8  1   
  8   5   7  1   
  9   6   9  2   
 10   6  10  am  
 11   7  11  1   
 12   8  22  1   
 13   8  23  1   
 14   8  24  1   
 15  10  12  1   
 16  10  25  1   
 17  11  26  1   
 18  11  27  1   
 19  11  28  1   
 20  12  13  1   
 21  12  14  2   
 22  13  15  1   
 23  14  16  1   
 24  15  16  2   
 25  15  17  1   
 26  17  18  1   
 27  17  29  1   
 28  17  30  1   
 29  18  19  1   
 30  18  31  1   
 31  18  32  1   
 32  19  20  1   
 33  19  33  1   
 34  19  34  1   
 35  20  21  1   
 36  20  35  1   
 37  20  36  1   
 38  21  37  1   
 39  21  38  1   
 40  21  39  1   
@<TRIPOS>SUBSTRUCTURE
  1 ****  10 GROUP 4 **** **** 0

# MOE 2024.06 (io_trps.svl 2023.06)
