@<TRIPOS>MOLECULE
NONAME
52 55 1 0 0 
SMALL
USER_CHARGES


@<TRIPOS>ATOM
  1 O        0.0310     1.5440    -1.5790 O.2   1 <1>  -0.5700 
  2 C       -0.3320     2.6640    -1.3020 C.2   1 <1>   0.5690 
  3 N       -1.1180     2.9650    -0.2240 N.am  1 <1>  -0.5090 
  4 C        0.1160     3.8160    -2.1920 C.3   1 <1>   0.1810 
  5 C       -1.5310     4.3820     0.0410 C.3   1 <1>   0.3640 
  6 C       -1.4270     1.9730     0.8340 C.3   1 <1>   0.0490 
  7 O        0.4460     4.9350    -1.4120 O.3   1 <1>  -0.5600 
  8 C       -2.9820     4.6160    -0.3960 C.ar  1 <1>  -0.1440 
  9 C       -0.6250     5.4580    -0.6310 C.3   1 <1>   0.2610 
 10 C       -2.1600     0.7250     0.4520 C.3   1 <1>  -0.2000 
 11 C       -2.8390     1.7590     1.2890 C.3   1 <1>  -0.2000 
 12 C       -3.7550     5.5250     0.3140 C.ar  1 <1>  -0.1500 
 13 C       -3.5500     3.9620    -1.4840 C.ar  1 <1>  -0.1500 
 14 C       -0.0850     6.4060     0.4460 C.2   1 <1>   0.5690 
 15 C       -5.0660     5.7800    -0.0500 C.ar  1 <1>  -0.1500 
 16 C       -4.8600     4.2150    -1.8500 C.ar  1 <1>  -0.1500 
 17 O       -0.8660     6.9850     1.1650 O.2   1 <1>  -0.5700 
 18 N        1.2580     6.5700     0.5730 N.am  1 <1>  -0.7300 
 19 C       -5.6270     5.1230    -1.1400 C.ar  1 <1>   0.0830 
 20 C        1.9470     7.4730     1.5220 C.3   1 <1>   0.1400 
 21 O       -6.9010     5.3140    -1.5650 O.3   1 <1>  -0.3630 
 22 C        2.8780     8.4180     0.7580 C.3   1 <1>   0.0000 
 23 C       -7.7630     6.2180    -0.9110 C.3   1 <1>   0.0400 
 24 C        4.0990     7.7430     0.0790 C.3   1 <1>   0.0000 
 25 C        3.8910     9.1830     1.6500 C.3   1 <1>   0.0000 
 26 C        4.9230     8.9850     0.5090 C.3   1 <1>   0.0000 
 27 H       -0.6630     4.0850    -2.8820 H     1 <1>   0.0800 
 28 H        0.9930     3.5260    -2.7420 H     1 <1>   0.0800 
 29 H       -1.4910     4.5250     1.1070 H     1 <1>   0.0800 
 30 H       -0.6330     1.8850     1.5580 H     1 <1>   0.1000 
 31 H       -1.2260     6.0530    -1.2940 H     1 <1>   0.0800 
 32 H       -2.4570     0.6030    -0.5750 H     1 <1>   0.1000 
 33 H       -1.8670    -0.2020     0.9110 H     1 <1>   0.1000 
 34 H       -3.0210     1.5280     2.3240 H     1 <1>   0.1000 
 35 H       -3.6520     2.3020     0.8420 H     1 <1>   0.1000 
 36 H       -3.3400     6.0480     1.1600 H     1 <1>   0.1500 
 37 H       -2.9900     3.2440    -2.0550 H     1 <1>   0.1500 
 38 H       -5.6290     6.4900     0.5240 H     1 <1>   0.1500 
 39 H       -5.2990     3.7070    -2.6890 H     1 <1>   0.1500 
 40 H        1.8510     6.0620    -0.0930 H     1 <1>   0.3700 
 41 H        1.2220     8.0490     2.0730 H     1 <1>   0.0800 
 42 H        2.5110     6.8810     2.2230 H     1 <1>   0.0800 
 43 H        2.3540     9.0860     0.0950 H     1 <1>   0.0000 
 44 H       -8.7100     6.2030    -1.4200 H     1 <1>   0.0800 
 45 H       -7.3370     7.2040    -0.9610 H     1 <1>   0.0800 
 46 H       -7.8920     5.9030     0.1090 H     1 <1>   0.0800 
 47 H        4.4200     6.8440     0.5770 H     1 <1>   0.0000 
 48 H        3.9990     7.6340    -0.9870 H     1 <1>   0.0000 
 49 H        3.6290    10.2110     1.8260 H     1 <1>   0.0000 
 50 H        4.1610     8.6470     2.5450 H     1 <1>   0.0000 
 51 H        4.8920     9.7770    -0.2210 H     1 <1>   0.0000 
 52 H        5.9150     8.7520     0.8530 H     1 <1>   0.0000 
@<TRIPOS>BOND
  1   1   2  2   
  2   2   3  am  
  3   2   4  1   
  4   3   5  1   
  5   3   6  1   
  6   4   7  1   
  7   4  27  1   
  8   4  28  1   
  9   5   8  1   
 10   5   9  1   
 11   5  29  1   
 12   6  10  1   
 13   6  11  1   
 14   6  30  1   
 15   7   9  1   
 16   8  12  ar  
 17   8  13  ar  
 18   9  14  1   
 19   9  31  1   
 20  10  11  1   
 21  10  32  1   
 22  10  33  1   
 23  11  34  1   
 24  11  35  1   
 25  12  15  ar  
 26  12  36  1   
 27  13  16  ar  
 28  13  37  1   
 29  14  17  2   
 30  14  18  am  
 31  15  19  ar  
 32  15  38  1   
 33  16  19  ar  
 34  16  39  1   
 35  18  20  1   
 36  18  40  1   
 37  19  21  1   
 38  20  22  1   
 39  20  41  1   
 40  20  42  1   
 41  21  23  1   
 42  22  24  1   
 43  22  25  1   
 44  22  43  1   
 45  23  44  1   
 46  23  45  1   
 47  23  46  1   
 48  24  26  1   
 49  24  47  1   
 50  24  48  1   
 51  25  26  1   
 52  25  49  1   
 53  25  50  1   
 54  26  51  1   
 55  26  52  1   
@<TRIPOS>SUBSTRUCTURE
  1 ****   5 GROUP 4 **** **** 0

# MOE 2024.06 (io_trps.svl 2023.06)
