@<TRIPOS>MOLECULE
NONAME
47 49 1 0 0 
SMALL
USER_CHARGES


@<TRIPOS>ATOM
  1 O        1.8370    -2.9310    -1.4490 O.3   1 <1>  -0.0190 
  2 N        1.2890    -3.8990    -0.7760 N.2   1 <1>  -0.4100 
  3 C        1.9430    -1.8380    -0.7400 C.2   1 <1>  -0.0400 
  4 C        1.0330    -3.4220     0.3920 C.2   1 <1>   0.1080 
  5 C        1.4330    -2.0900     0.4770 C.2   1 <1>  -0.1500 
  6 C        2.5640    -0.5970    -1.3680 C.3   1 <1>   0.1000 
  7 C        0.3730    -4.2270     1.5030 C.3   1 <1>   0.5240 
  8 C        4.0460    -0.8450    -1.6710 C.3   1 <1>  -0.2400 
  9 C        2.4130     0.6290    -0.4610 C.3   1 <1>  -0.2400 
 10 N       -0.8110    -4.9510     0.9640 N.4   1 <1>  -0.9590 
 11 C       -1.9490    -4.1020     0.5100 C.3   1 <1>   0.3430 
 12 C       -1.3690    -6.0690     1.7550 C.3   1 <1>   0.3430 
 13 C       -3.1970    -4.9930     0.6060 C.3   1 <1>   0.2000 
 14 C       -2.7200    -6.3680     1.0970 C.3   1 <1>  -0.0800 
 15 O       -4.0710    -4.4590     1.5460 O.3   1 <1>  -0.6800 
 16 C       -2.6060    -7.4060    -0.0480 C.3   1 <1>   0.0210 
 17 C       -1.3960    -7.2240    -0.9520 C.2   1 <1>   0.1080 
 18 N       -1.1570    -6.1310    -1.6090 N.2   1 <1>  -0.7070 
 19 C       -0.4060    -8.1780    -1.1530 C.2   1 <1>  -0.1500 
 20 N       -0.0020    -6.3670    -2.2700 N.pl3 1 <1>   0.3000 
 21 C        0.4750    -7.5970    -1.9940 C.2   1 <1>  -0.3320 
 22 C        1.7650    -8.1510    -2.5720 C.3   1 <1>  -0.0600 
 23 H        1.3500    -1.4340     1.3250 H     1 <1>   0.1500 
 24 H        2.0520    -0.3990    -2.2950 H     1 <1>   0.0800 
 25 H        0.0780    -3.5730     2.3050 H     1 <1>   0.0800 
 26 H        1.0910    -4.9360     1.8800 H     1 <1>   0.0800 
 27 H        4.5840    -1.0630    -0.7660 H     1 <1>   0.0800 
 28 H        4.4840     0.0200    -2.1350 H     1 <1>   0.0800 
 29 H        4.1530    -1.6790    -2.3410 H     1 <1>   0.0800 
 30 H        2.9290     0.4790     0.4710 H     1 <1>   0.0800 
 31 H        1.3740     0.8160    -0.2580 H     1 <1>   0.0800 
 32 H        2.8240     1.4990    -0.9420 H     1 <1>   0.0800 
 33 H       -0.4930    -5.3790     0.0620 H     1 <1>   0.4500 
 34 H       -2.0670    -3.2340     1.1350 H     1 <1>   0.0800 
 35 H       -1.7880    -3.7970    -0.5120 H     1 <1>   0.0800 
 36 H       -0.7200    -6.9300     1.7340 H     1 <1>   0.0800 
 37 H       -1.5230    -5.7560     2.7740 H     1 <1>   0.0800 
 38 H       -3.7160    -5.0380    -0.3370 H     1 <1>   0.0800 
 39 H       -3.4070    -6.7690     1.8220 H     1 <1>   0.0800 
 40 H       -3.7520    -4.5460     2.4640 H     1 <1>   0.4000 
 41 H       -3.4950    -7.3810    -0.6530 H     1 <1>   0.0800 
 42 H       -2.5510    -8.3900     0.3840 H     1 <1>   0.0800 
 43 H       -0.3670    -9.1660    -0.7250 H     1 <1>   0.1500 
 44 H        0.4460    -5.6670    -2.8790 H     1 <1>   0.2700 
 45 H        1.9400    -9.1470    -2.2060 H     1 <1>   0.0800 
 46 H        2.5980    -7.5310    -2.2910 H     1 <1>   0.0800 
 47 H        1.7050    -8.1890    -3.6460 H     1 <1>   0.0800 
@<TRIPOS>BOND
  1   1   2  1   
  2   1   3  1   
  3   2   4  2   
  4   3   5  2   
  5   3   6  1   
  6   4   5  1   
  7   4   7  1   
  8   5  23  1   
  9   6   8  1   
 10   6   9  1   
 11   6  24  1   
 12   7  10  1   
 13   7  25  1   
 14   7  26  1   
 15   8  27  1   
 16   8  28  1   
 17   8  29  1   
 18   9  30  1   
 19   9  31  1   
 20   9  32  1   
 21  10  11  1   
 22  10  12  1   
 23  10  33  1   
 24  11  13  1   
 25  11  34  1   
 26  11  35  1   
 27  12  14  1   
 28  12  36  1   
 29  12  37  1   
 30  13  14  1   
 31  13  15  1   
 32  13  38  1   
 33  14  16  1   
 34  14  39  1   
 35  15  40  1   
 36  16  17  1   
 37  16  41  1   
 38  16  42  1   
 39  17  18  2   
 40  17  19  1   
 41  18  20  1   
 42  19  21  2   
 43  19  43  1   
 44  20  21  1   
 45  20  44  1   
 46  21  22  1   
 47  22  45  1   
 48  22  46  1   
 49  22  47  1   
@<TRIPOS>SUBSTRUCTURE
  1 ****   2 GROUP 4 **** **** 0

# MOE 2024.06 (io_trps.svl 2023.06)
