@<TRIPOS>MOLECULE
NONAME
55 57 1 0 0 
SMALL
USER_CHARGES


@<TRIPOS>ATOM
  1 O       -0.4410     0.8250     0.7810 O.3   1 <1>  -0.3630 
  2 C        0.8720     1.0180     0.4890 C.ar  1 <1>   0.0830 
  3 C       -1.4590     1.4750     0.0640 C.3   1 <1>   0.1200 
  4 C        1.8100     0.3550     1.2750 C.ar  1 <1>  -0.1440 
  5 C        1.3050     1.8420    -0.5480 C.ar  1 <1>  -0.1500 
  6 C       -2.7920     1.0310     0.6730 C.3   1 <1>   0.3430 
  7 C        3.1610     0.5230     1.0170 C.ar  1 <1>  -0.1500 
  8 C        1.3720    -0.5540     2.4150 C.3   1 <1>  -0.0960 
  9 C        2.6570     2.0000    -0.7940 C.ar  1 <1>  -0.1500 
 10 N       -3.9780     1.6180    -0.0290 N.4   1 <1>  -0.9590 
 11 C        3.5910     1.3420    -0.0130 C.ar  1 <1>  -0.1430 
 12 C       -5.2250     0.9350     0.4490 C.3   1 <1>   0.3430 
 13 C       -4.0840     3.0960     0.1620 C.3   1 <1>   0.3430 
 14 C        5.0780     1.5070    -0.2730 C.3   1 <1>  -0.0970 
 15 C       -6.4740     1.4140    -0.3220 C.3   1 <1>   0.0000 
 16 C       -5.2770     3.6400    -0.6270 C.3   1 <1>  -0.1600 
 17 C       -7.7170     0.7130     0.2500 C.3   1 <1>   0.2000 
 18 C       -6.5890     2.9490    -0.2240 C.3   1 <1>  -0.1600 
 19 C       -6.4500     0.9130    -1.7760 C.3   1 <1>  -0.1600 
 20 O       -7.5700     0.5400     1.6270 O.3   1 <1>  -0.5600 
 21 C       -7.8110    -0.6400    -0.4670 C.3   1 <1>  -0.1600 
 22 C       -6.9030    -0.5460    -1.7010 C.3   1 <1>  -0.1600 
 23 C       -8.7500     0.2360     2.3060 C.3   1 <1>   0.0400 
 24 H       -1.3120     2.5350     0.1710 H     1 <1>   0.0800 
 25 H       -1.3870     1.1730    -0.9660 H     1 <1>   0.0800 
 26 H        0.6170     2.3690    -1.1780 H     1 <1>   0.1500 
 27 H       -2.8120     1.3140     1.7130 H     1 <1>   0.0800 
 28 H       -2.8410    -0.0440     0.6150 H     1 <1>   0.0800 
 29 H        3.8900     0.0130     1.6210 H     1 <1>   0.1500 
 30 H        2.2200    -0.9950     2.9070 H     1 <1>   0.0800 
 31 H        0.7500    -1.3440     2.0340 H     1 <1>   0.0800 
 32 H        0.8140     0.0120     3.1380 H     1 <1>   0.0800 
 33 H        2.9810     2.6390    -1.5970 H     1 <1>   0.1500 
 34 H       -3.9070     1.4270    -1.0360 H     1 <1>   0.4500 
 35 H       -5.1330    -0.1320     0.3360 H     1 <1>   0.0800 
 36 H       -5.3650     1.1420     1.4980 H     1 <1>   0.0800 
 37 H       -4.2180     3.3170     1.2090 H     1 <1>   0.0800 
 38 H       -3.1830     3.5830    -0.1750 H     1 <1>   0.0800 
 39 H        5.2540     2.1690    -1.1020 H     1 <1>   0.0800 
 40 H        5.5180     0.5520    -0.4970 H     1 <1>   0.0800 
 41 H        5.5580     1.9150     0.5990 H     1 <1>   0.0800 
 42 H       -5.3650     4.6960    -0.4400 H     1 <1>   0.0800 
 43 H       -5.1000     3.5170    -1.6810 H     1 <1>   0.0800 
 44 H       -8.5970     1.3050     0.0520 H     1 <1>   0.0800 
 45 H       -7.3960     3.3060    -0.8430 H     1 <1>   0.0800 
 46 H       -6.8260     3.2150     0.7940 H     1 <1>   0.0800 
 47 H       -7.1730     1.4620    -2.3570 H     1 <1>   0.0800 
 48 H       -5.4920     1.0080    -2.2550 H     1 <1>   0.0800 
 49 H       -7.4830    -1.4430     0.1710 H     1 <1>   0.0800 
 50 H       -8.8280    -0.8200    -0.7670 H     1 <1>   0.0800 
 51 H       -6.0530    -1.1940    -1.5730 H     1 <1>   0.0800 
 52 H       -7.4250    -0.8390    -2.5970 H     1 <1>   0.0800 
 53 H       -8.5190     0.1290     3.3520 H     1 <1>   0.0800 
 54 H       -9.1560    -0.6890     1.9320 H     1 <1>   0.0800 
 55 H       -9.4560     1.0380     2.1750 H     1 <1>   0.0800 
@<TRIPOS>BOND
  1   1   2  1   
  2   1   3  1   
  3   2   4  ar  
  4   2   5  ar  
  5   3   6  1   
  6   3  24  1   
  7   3  25  1   
  8   4   7  ar  
  9   4   8  1   
 10   5   9  ar  
 11   5  26  1   
 12   6  10  1   
 13   6  27  1   
 14   6  28  1   
 15   7  11  ar  
 16   7  29  1   
 17   8  30  1   
 18   8  31  1   
 19   8  32  1   
 20   9  11  ar  
 21   9  33  1   
 22  10  12  1   
 23  10  13  1   
 24  10  34  1   
 25  11  14  1   
 26  12  15  1   
 27  12  35  1   
 28  12  36  1   
 29  13  16  1   
 30  13  37  1   
 31  13  38  1   
 32  14  39  1   
 33  14  40  1   
 34  14  41  1   
 35  15  17  1   
 36  15  18  1   
 37  15  19  1   
 38  16  18  1   
 39  16  42  1   
 40  16  43  1   
 41  17  20  1   
 42  17  21  1   
 43  17  44  1   
 44  18  45  1   
 45  18  46  1   
 46  19  22  1   
 47  19  47  1   
 48  19  48  1   
 49  20  23  1   
 50  21  22  1   
 51  21  49  1   
 52  21  50  1   
 53  22  51  1   
 54  22  52  1   
 55  23  53  1   
 56  23  54  1   
 57  23  55  1   
@<TRIPOS>SUBSTRUCTURE
  1 ****   6 GROUP 4 **** **** 0

# MOE 2024.06 (io_trps.svl 2023.06)
