@<TRIPOS>MOLECULE
NONAME
20 21 1 0 0 
SMALL
USER_CHARGES


@<TRIPOS>ATOM
  1 O       -0.9260     1.1670    -1.2210 O.3   1 <1>  -0.0190 
  2 N       -0.0720     2.1270    -0.9420 N.2   1 <1>  -0.4100 
  3 C       -1.5750     0.7720    -0.1530 C.2   1 <1>   0.0550 
  4 C       -0.1860     2.3350     0.3180 C.2   1 <1>   0.3720 
  5 C       -1.1400     1.4960     0.8860 C.2   1 <1>  -0.1500 
  6 C       -2.6130    -0.3330    -0.2590 C.3   1 <1>  -0.0100 
  7 N        0.5480     3.2910     0.9840 N.pl3 1 <1>  -0.8830 
  8 C       -2.8520    -1.2200     0.9200 C.3   1 <1>  -0.2000 
  9 C       -2.1390    -1.7470    -0.3000 C.3   1 <1>  -0.2000 
 10 C       -3.8070     0.0720    -1.1270 C.3   1 <1>  -0.1450 
 11 H       -1.4210     1.4680     1.9200 H     1 <1>   0.1500 
 12 H       -0.0530     3.9470     1.4820 H     1 <1>   0.4000 
 13 H        1.1150     3.8010     0.3020 H     1 <1>   0.4000 
 14 H       -3.8500    -1.5670     1.1220 H     1 <1>   0.1000 
 15 H       -2.2780    -1.0710     1.8170 H     1 <1>   0.1000 
 16 H       -1.0790    -1.9310    -0.2450 H     1 <1>   0.1000 
 17 H       -2.6460    -2.4500    -0.9370 H     1 <1>   0.1000 
 18 H       -4.2840     0.9410    -0.7110 H     1 <1>   0.0800 
 19 H       -4.5280    -0.7240    -1.1840 H     1 <1>   0.0800 
 20 H       -3.4730     0.3040    -2.1230 H     1 <1>   0.0800 
@<TRIPOS>BOND
  1   1   2  1   
  2   1   3  1   
  3   2   4  2   
  4   3   5  2   
  5   3   6  1   
  6   4   5  1   
  7   4   7  1   
  8   5  11  1   
  9   6   8  1   
 10   6   9  1   
 11   6  10  1   
 12   7  12  1   
 13   7  13  1   
 14   8   9  1   
 15   8  14  1   
 16   8  15  1   
 17   9  16  1   
 18   9  17  1   
 19  10  18  1   
 20  10  19  1   
 21  10  20  1   
@<TRIPOS>SUBSTRUCTURE
  1 ****   3 GROUP 4 **** **** 0

# MOE 2024.06 (io_trps.svl 2023.06)
