@<TRIPOS>MOLECULE
NONAME
47 50 1 0 0 
SMALL
USER_CHARGES


@<TRIPOS>ATOM
  1 S        0.0520     1.2560    -0.9470 S.3   1 <1>  -0.0800 
  2 C        1.5450     1.6590    -0.1250 C.ar  1 <1>   0.0400 
  3 C       -0.2630     0.0260     0.2710 C.2   1 <1>   0.2280 
  4 C        1.6600     0.8340     0.9770 C.ar  1 <1>   0.2270 
  5 C        2.4800     2.6160    -0.4660 C.ar  1 <1>  -0.1500 
  6 N        0.6260    -0.0750     1.1750 N.2   1 <1>  -0.5650 
  7 C        2.7830     0.9800     1.7770 C.ar  1 <1>  -0.1500 
  8 C        3.6100     2.7780     0.3390 C.ar  1 <1>   0.0860 
  9 C        3.7350     1.9340     1.4570 C.ar  1 <1>  -0.1500 
 10 C        4.6240     3.7750     0.0360 C.2   1 <1>   0.5440 
 11 O        5.7510     3.6960     0.4930 O.2   1 <1>  -0.5700 
 12 N        4.3530     4.8890    -0.7220 N.am  1 <1>  -0.6600 
 13 C        5.3280     5.3730    -1.7550 C.3   1 <1>   0.1400 
 14 C        3.3740     5.8970    -0.2440 C.3   1 <1>   0.1400 
 15 C        6.5570     6.0940    -1.1590 C.3   1 <1>   0.3430 
 16 C        3.9830     6.7300     0.8930 C.3   1 <1>  -0.1600 
 17 N        6.3760     6.4390     0.2860 N.4   1 <1>  -0.9590 
 18 C        5.3020     7.4330     0.5550 C.3   1 <1>   0.3430 
 19 C        7.6710     6.7680     0.9500 C.3   1 <1>   0.5230 
 20 C        8.3060     8.0560     0.4410 C.2   1 <1>  -0.0400 
 21 O        9.4740     8.3670     0.9650 O.3   1 <1>  -0.2800 
 22 C        7.9380     8.9980    -0.4600 C.2   1 <1>  -0.1500 
 23 C        9.8790     9.4960     0.4230 C.2   1 <1>  -0.0400 
 24 C        8.9730     9.9420    -0.4690 C.2   1 <1>  -0.1500 
 25 C       11.2070    10.0770     0.8580 C.3   1 <1>  -0.0600 
 26 H       -1.1710    -0.5400     0.1620 H     1 <1>   0.1500 
 27 H        2.3300     3.2170    -1.3440 H     1 <1>   0.1500 
 28 H        2.8930     0.3420     2.6360 H     1 <1>   0.1500 
 29 H        4.6050     2.0310     2.0850 H     1 <1>   0.1500 
 30 H        4.8260     6.0340    -2.4400 H     1 <1>   0.0800 
 31 H        5.6730     4.5310    -2.3310 H     1 <1>   0.0800 
 32 H        2.4890     5.3980     0.1160 H     1 <1>   0.0800 
 33 H        3.0790     6.5350    -1.0600 H     1 <1>   0.0800 
 34 H        6.7790     6.9760    -1.7360 H     1 <1>   0.0800 
 35 H        7.4000     5.4290    -1.2530 H     1 <1>   0.0800 
 36 H        4.1170     6.1120     1.7630 H     1 <1>   0.0800 
 37 H        3.2670     7.4860     1.1630 H     1 <1>   0.0800 
 38 H        6.0570     5.5310     0.6870 H     1 <1>   0.4500 
 39 H        5.5860     8.0500     1.3930 H     1 <1>   0.0800 
 40 H        5.1700     8.0770    -0.2990 H     1 <1>   0.0800 
 41 H        8.3680     5.9610     0.7940 H     1 <1>   0.0800 
 42 H        7.5180     6.8610     2.0120 H     1 <1>   0.0800 
 43 H        7.0610     9.0780    -1.0740 H     1 <1>   0.1500 
 44 H        9.0100    10.8310    -1.0750 H     1 <1>   0.1500 
 45 H       11.9970     9.3790     0.6480 H     1 <1>   0.0800 
 46 H       11.1900    10.2750     1.9150 H     1 <1>   0.0800 
 47 H       11.4030    10.9950     0.3340 H     1 <1>   0.0800 
@<TRIPOS>BOND
  1   1   2  1   
  2   1   3  1   
  3   2   4  ar  
  4   2   5  ar  
  5   3   6  2   
  6   3  26  1   
  7   4   6  1   
  8   4   7  ar  
  9   5   8  ar  
 10   5  27  1   
 11   7   9  ar  
 12   7  28  1   
 13   8   9  ar  
 14   8  10  1   
 15   9  29  1   
 16  10  11  2   
 17  10  12  am  
 18  12  13  1   
 19  12  14  1   
 20  13  15  1   
 21  13  30  1   
 22  13  31  1   
 23  14  16  1   
 24  14  32  1   
 25  14  33  1   
 26  15  17  1   
 27  15  34  1   
 28  15  35  1   
 29  16  18  1   
 30  16  36  1   
 31  16  37  1   
 32  17  18  1   
 33  17  19  1   
 34  17  38  1   
 35  18  39  1   
 36  18  40  1   
 37  19  20  1   
 38  19  41  1   
 39  19  42  1   
 40  20  21  1   
 41  20  22  2   
 42  21  23  1   
 43  22  24  1   
 44  22  43  1   
 45  23  24  2   
 46  23  25  1   
 47  24  44  1   
 48  25  45  1   
 49  25  46  1   
 50  25  47  1   
@<TRIPOS>SUBSTRUCTURE
  1 ****  12 GROUP 4 **** **** 0

# MOE 2024.06 (io_trps.svl 2023.06)
