@<TRIPOS>MOLECULE
NONAME
62 65 1 0 0 
SMALL
USER_CHARGES


@<TRIPOS>ATOM
  1 O       -2.5100    -0.1640     2.5470 O.2   1 <1>  -0.5700 
  2 C       -2.2340     0.4300     1.5220 C.2   1 <1>   0.7160 
  3 N       -2.4650    -0.1720     0.3110 N.am  1 <1>  -0.6600 
  4 C       -1.6710     1.7540     1.5870 C.2   1 <1>  -0.0860 
  5 C       -2.5890    -1.6580     0.1900 C.3   1 <1>   0.3640 
  6 C       -2.7670     0.6280    -0.9110 C.3   1 <1>   0.1400 
  7 C       -0.5080     2.2640     1.0880 C.2   1 <1>  -0.3320 
  8 C       -2.2530     2.8440     2.2380 C.2   1 <1>   0.1390 
  9 C       -1.2010    -2.2450    -0.1260 C.ar  1 <1>  -0.1440 
 10 C       -3.7070    -2.0360    -0.8240 C.3   1 <1>   0.2000 
 11 C       -2.7880    -0.2400    -2.1760 C.3   1 <1>   0.1200 
 12 N       -0.4630     3.5610     1.4350 N.pl3 1 <1>   0.3000 
 13 C        0.5900     1.5390     0.3230 C.3   1 <1>   0.1000 
 14 N       -1.5480     3.9270     2.1390 N.2   1 <1>  -0.7070 
 15 C       -0.2210    -2.1730     0.8580 C.ar  1 <1>  -0.1500 
 16 C       -0.8740    -2.8520    -1.3360 C.ar  1 <1>  -0.1500 
 17 O       -3.6580    -1.3360    -2.0560 O.3   1 <1>  -0.5600 
 18 C       -5.1070    -1.8120    -0.2330 C.3   1 <1>   0.1200 
 19 C        1.8490     1.4170     1.1930 C.3   1 <1>  -0.1600 
 20 C        0.9110     2.2380    -1.0080 C.3   1 <1>  -0.1600 
 21 C        1.0510    -2.6740     0.6460 C.ar  1 <1>   0.0830 
 22 C        0.3980    -3.3490    -1.5610 C.ar  1 <1>  -0.1500 
 23 O       -5.3740    -2.7620     0.7480 O.3   1 <1>  -0.6800 
 24 C        2.9760     0.6950     0.4440 C.3   1 <1>  -0.1600 
 25 C        2.0260     1.5000    -1.7620 C.3   1 <1>  -0.1600 
 26 O        1.9400    -2.5830     1.6650 O.3   1 <1>  -0.3630 
 27 C        1.3730    -3.2510    -0.5860 C.ar  1 <1>   0.0830 
 28 C        3.2870     1.3750    -0.8960 C.3   1 <1>  -0.1600 
 29 C        2.2860    -3.7990     2.2890 C.3   1 <1>   0.0400 
 30 O        2.6050    -3.7330    -0.8840 O.3   1 <1>  -0.3630 
 31 C        3.6670    -2.8060    -0.9030 C.3   1 <1>   0.0400 
 32 H       -2.8810    -2.0670     1.1430 H     1 <1>   0.0800 
 33 H       -3.7270     1.1000    -0.7940 H     1 <1>   0.0800 
 34 H       -2.0330     1.4030    -1.0330 H     1 <1>   0.0800 
 35 H       -3.1900     2.7880     2.7660 H     1 <1>   0.1500 
 36 H       -3.6230    -3.0800    -1.0660 H     1 <1>   0.0800 
 37 H       -1.7990    -0.6050    -2.3880 H     1 <1>   0.0800 
 38 H       -3.1160     0.3430    -3.0180 H     1 <1>   0.0800 
 39 H        0.2970     4.2190     1.2220 H     1 <1>   0.2700 
 40 H        0.2520     0.5410     0.0990 H     1 <1>   0.0800 
 41 H       -0.4390    -1.7250     1.8120 H     1 <1>   0.1500 
 42 H       -1.5960    -2.9470    -2.1270 H     1 <1>   0.1500 
 43 H       -5.8590    -1.9040    -0.9960 H     1 <1>   0.0800 
 44 H       -5.1720    -0.8400     0.2240 H     1 <1>   0.0800 
 45 H        2.1880     2.3950     1.4850 H     1 <1>   0.0800 
 46 H        1.6080     0.8680     2.0870 H     1 <1>   0.0800 
 47 H        0.0280     2.2720    -1.6210 H     1 <1>   0.0800 
 48 H        1.2250     3.2490    -0.8230 H     1 <1>   0.0800 
 49 H        0.6430    -3.8130    -2.5000 H     1 <1>   0.1500 
 50 H       -5.5710    -3.6330     0.3500 H     1 <1>   0.4000 
 51 H        3.8610     0.6710     1.0560 H     1 <1>   0.0800 
 52 H        2.6750    -0.3220     0.2640 H     1 <1>   0.0800 
 53 H        1.6830     0.5160    -2.0340 H     1 <1>   0.0800 
 54 H        2.2630     2.0300    -2.6690 H     1 <1>   0.0800 
 55 H        4.0320     0.8060    -1.4240 H     1 <1>   0.0800 
 56 H        3.6920     2.3550    -0.7110 H     1 <1>   0.0800 
 57 H        2.9450    -3.5810     3.1080 H     1 <1>   0.0800 
 58 H        2.7810    -4.4350     1.5770 H     1 <1>   0.0800 
 59 H        1.3890    -4.2700     2.6510 H     1 <1>   0.0800 
 60 H        4.5300    -3.2920    -1.3200 H     1 <1>   0.0800 
 61 H        3.8800    -2.4870     0.1010 H     1 <1>   0.0800 
 62 H        3.3850    -1.9660    -1.5130 H     1 <1>   0.0800 
@<TRIPOS>BOND
  1   1   2  2   
  2   2   3  am  
  3   2   4  1   
  4   3   5  1   
  5   3   6  1   
  6   4   7  2   
  7   4   8  1   
  8   5   9  1   
  9   5  10  1   
 10   5  32  1   
 11   6  11  1   
 12   6  33  1   
 13   6  34  1   
 14   7  12  1   
 15   7  13  1   
 16   8  14  2   
 17   8  35  1   
 18   9  15  ar  
 19   9  16  ar  
 20  10  17  1   
 21  10  18  1   
 22  10  36  1   
 23  11  17  1   
 24  11  37  1   
 25  11  38  1   
 26  12  14  1   
 27  12  39  1   
 28  13  19  1   
 29  13  20  1   
 30  13  40  1   
 31  15  21  ar  
 32  15  41  1   
 33  16  22  ar  
 34  16  42  1   
 35  18  23  1   
 36  18  43  1   
 37  18  44  1   
 38  19  24  1   
 39  19  45  1   
 40  19  46  1   
 41  20  25  1   
 42  20  47  1   
 43  20  48  1   
 44  21  26  1   
 45  21  27  ar  
 46  22  27  ar  
 47  22  49  1   
 48  23  50  1   
 49  24  28  1   
 50  24  51  1   
 51  24  52  1   
 52  25  28  1   
 53  25  53  1   
 54  25  54  1   
 55  26  29  1   
 56  27  30  1   
 57  28  55  1   
 58  28  56  1   
 59  29  57  1   
 60  29  58  1   
 61  29  59  1   
 62  30  31  1   
 63  31  60  1   
 64  31  61  1   
 65  31  62  1   
@<TRIPOS>SUBSTRUCTURE
  1 ****  15 GROUP 4 **** **** 0

# MOE 2024.06 (io_trps.svl 2023.06)
