@<TRIPOS>MOLECULE
NONAME
44 46 1 0 0 
SMALL
USER_CHARGES


@<TRIPOS>ATOM
  1 O       -0.6530     0.9520     1.7340 O.3   1 <1>  -0.5600 
  2 C        0.0280     1.1550     0.5420 C.3   1 <1>   0.1200 
  3 C       -2.0280     0.9730     1.4840 C.3   1 <1>   0.1200 
  4 C       -0.7920     2.2520    -0.1290 C.3   1 <1>   0.4230 
  5 C       -2.2090     1.7730     0.1790 C.3   1 <1>  -0.0800 
  6 N       -0.5620     3.5290     0.6000 N.4   1 <1>  -0.9060 
  7 C       -2.7760     0.9030    -0.9600 C.3   1 <1>  -0.0170 
  8 C        0.7160     4.2050     0.3110 C.3   1 <1>   0.4230 
  9 C       -4.1880     0.4400    -0.6410 C.ar  1 <1>  -0.1430 
 10 C        0.9320     5.2880     1.3710 C.3   1 <1>  -0.1600 
 11 C        0.6830     4.8080    -1.1000 C.3   1 <1>  -0.1600 
 12 C       -5.2750     1.2830    -0.7570 C.ar  1 <1>  -0.1500 
 13 C       -4.4600    -0.8480    -0.2220 C.ar  1 <1>  -0.1500 
 14 C        2.2120     6.0890     1.0910 C.3   1 <1>  -0.1600 
 15 C        1.9600     5.6110    -1.3870 C.3   1 <1>  -0.1600 
 16 C       -6.5420     0.8160    -0.4460 C.ar  1 <1>   0.1600 
 17 C       -5.7640    -1.2150     0.0650 C.ar  1 <1>   0.1600 
 18 C        2.1920     6.6890    -0.3210 C.3   1 <1>  -0.1600 
 19 N       -6.8090    -0.4110    -0.0330 N.ar  1 <1>  -0.6200 
 20 H        1.0470     1.4310     0.7480 H     1 <1>   0.0800 
 21 H        0.0060     0.2380    -0.0220 H     1 <1>   0.0800 
 22 H       -2.3680    -0.0460     1.3970 H     1 <1>   0.0800 
 23 H       -2.5200     1.4400     2.3200 H     1 <1>   0.0800 
 24 H       -0.5980     2.3490    -1.1840 H     1 <1>   0.0800 
 25 H       -2.8820     2.5970     0.3360 H     1 <1>   0.0800 
 26 H       -1.3310     4.1850     0.4460 H     1 <1>   0.4500 
 27 H       -0.5720     3.2690     1.5990 H     1 <1>   0.4500 
 28 H       -2.1500     0.0430    -1.1320 H     1 <1>   0.0800 
 29 H       -2.8030     1.4690    -1.8760 H     1 <1>   0.0800 
 30 H        1.5310     3.5000     0.3740 H     1 <1>   0.0800 
 31 H        0.0990     5.9710     1.3780 H     1 <1>   0.0800 
 32 H        1.0160     4.8380     2.3450 H     1 <1>   0.0800 
 33 H        0.6010     4.0330    -1.8400 H     1 <1>   0.0800 
 34 H       -0.1620     5.4680    -1.1970 H     1 <1>   0.0800 
 35 H       -5.1600     2.2980    -1.0880 H     1 <1>   0.1500 
 36 H       -3.6770    -1.5770    -0.1150 H     1 <1>   0.1500 
 37 H        2.3100     6.8810     1.8140 H     1 <1>   0.0800 
 38 H        3.0730     5.4480     1.1930 H     1 <1>   0.0800 
 39 H        2.8100     4.9480    -1.4110 H     1 <1>   0.0800 
 40 H        1.8870     6.0780    -2.3550 H     1 <1>   0.0800 
 41 H       -7.3800     1.4860    -0.5410 H     1 <1>   0.1500 
 42 H       -5.9590    -2.2230     0.3910 H     1 <1>   0.1500 
 43 H        3.1280     7.1880    -0.5120 H     1 <1>   0.0800 
 44 H        1.4140     7.4310    -0.3840 H     1 <1>   0.0800 
@<TRIPOS>BOND
  1   1   2  1   
  2   1   3  1   
  3   2   4  1   
  4   2  20  1   
  5   2  21  1   
  6   3   5  1   
  7   3  22  1   
  8   3  23  1   
  9   4   5  1   
 10   4   6  1   
 11   4  24  1   
 12   5   7  1   
 13   5  25  1   
 14   6   8  1   
 15   6  26  1   
 16   6  27  1   
 17   7   9  1   
 18   7  28  1   
 19   7  29  1   
 20   8  10  1   
 21   8  11  1   
 22   8  30  1   
 23   9  12  ar  
 24   9  13  ar  
 25  10  14  1   
 26  10  31  1   
 27  10  32  1   
 28  11  15  1   
 29  11  33  1   
 30  11  34  1   
 31  12  16  ar  
 32  12  35  1   
 33  13  17  ar  
 34  13  36  1   
 35  14  18  1   
 36  14  37  1   
 37  14  38  1   
 38  15  18  1   
 39  15  39  1   
 40  15  40  1   
 41  16  19  ar  
 42  16  41  1   
 43  17  19  ar  
 44  17  42  1   
 45  18  43  1   
 46  18  44  1   
@<TRIPOS>SUBSTRUCTURE
  1 ****   5 GROUP 4 **** **** 0

# MOE 2024.06 (io_trps.svl 2023.06)
