@<TRIPOS>MOLECULE
NONAME
52 55 1 0 0 
SMALL
USER_CHARGES


@<TRIPOS>ATOM
  1 O       -1.4290     0.3000     0.2350 O.2   1 <1>  -0.5700 
  2 C       -2.2380     1.1630     0.5220 C.2   1 <1>   0.7150 
  3 N       -3.5030     0.7720     0.8870 N.am  1 <1>  -0.6600 
  4 C       -1.8780     2.5550     0.4740 C.2   1 <1>  -0.2370 
  5 C       -3.7240    -0.6150     1.3940 C.3   1 <1>   0.1400 
  6 C       -4.7060     1.3620     0.2330 C.3   1 <1>   0.1400 
  7 N       -2.5290     3.5160     1.2090 N.pl3 1 <1>   0.0330 
  8 C       -0.8850     3.1760    -0.2290 C.2   1 <1>  -0.1500 
  9 C       -4.1050    -1.5330     0.2080 C.3   1 <1>   0.4230 
 10 C       -5.1490     0.4500    -0.9210 C.3   1 <1>  -0.1600 
 11 C       -1.9620     4.7370     0.9590 C.ar  1 <1>  -0.1520 
 12 C       -0.9220     4.5530     0.0560 C.ar  1 <1>   0.0000 
 13 N       -4.2500    -2.9850     0.5700 N.4   1 <1>  -0.9590 
 14 C       -5.3990    -1.0140    -0.4560 C.3   1 <1>  -0.1060 
 15 C       -2.2720     6.0070     1.4510 C.ar  1 <1>  -0.1500 
 16 C       -0.1680     5.6520    -0.3700 C.ar  1 <1>  -0.1500 
 17 C       -4.5020    -3.8310    -0.6230 C.3   1 <1>   0.3430 
 18 C       -3.1690    -3.5330     1.4320 C.3   1 <1>   0.2630 
 19 C       -6.5370    -1.0710     0.5820 C.2   1 <1>   0.9060 
 20 C       -5.7350    -1.8780    -1.6950 C.3   1 <1>  -0.1600 
 21 C       -1.5250     7.0800     1.0240 C.ar  1 <1>  -0.1500 
 22 C       -0.4710     6.9110     0.1150 C.ar  1 <1>   0.0830 
 23 C       -5.7710    -3.3740    -1.3460 C.3   1 <1>  -0.1600 
 24 O       -6.5340    -1.9840     1.4230 O.co2 1 <1>  -0.9000 
 25 O       -7.4030    -0.1980     0.5830 O.co2 1 <1>  -0.9000 
 26 O        0.1970     8.0450    -0.2350 O.3   1 <1>  -0.3630 
 27 C        1.2830     7.9860    -1.1330 C.3   1 <1>   0.0400 
 28 H       -2.8180    -0.9590     1.8580 H     1 <1>   0.0800 
 29 H       -4.5010    -0.6000     2.1390 H     1 <1>   0.0800 
 30 H       -5.4990     1.4610     0.9570 H     1 <1>   0.0800 
 31 H       -4.4890     2.3410    -0.1590 H     1 <1>   0.0800 
 32 H       -3.3070     3.3380     1.8540 H     1 <1>   0.2700 
 33 H       -0.1780     2.7120    -0.8930 H     1 <1>   0.1500 
 34 H       -3.3060    -1.4520    -0.5100 H     1 <1>   0.0800 
 35 H       -6.0550     0.8510    -1.3450 H     1 <1>   0.0800 
 36 H       -4.3960     0.4780    -1.6890 H     1 <1>   0.0800 
 37 H       -5.1570    -2.9630     1.1110 H     1 <1>   0.4500 
 38 H       -3.0790     6.1360     2.1490 H     1 <1>   0.1500 
 39 H        0.6280     5.4740    -1.0650 H     1 <1>   0.1500 
 40 H       -3.6620    -3.7660    -1.2950 H     1 <1>   0.0800 
 41 H       -4.6200    -4.8590    -0.3220 H     1 <1>   0.0800 
 42 H       -2.2170    -3.4480     0.9350 H     1 <1>   0.0800 
 43 H       -3.3620    -4.5700     1.6510 H     1 <1>   0.0800 
 44 H       -3.1270    -2.9930     2.3640 H     1 <1>   0.0800 
 45 H       -6.6940    -1.5790    -2.0880 H     1 <1>   0.0800 
 46 H       -4.9990    -1.7160    -2.4630 H     1 <1>   0.0800 
 47 H       -1.7330     8.0720     1.3810 H     1 <1>   0.1500 
 48 H       -5.8910    -3.9480    -2.2470 H     1 <1>   0.0800 
 49 H       -6.6240    -3.5820    -0.7210 H     1 <1>   0.0800 
 50 H        1.6630     8.9830    -1.2630 H     1 <1>   0.0800 
 51 H        0.9360     7.6010    -2.0750 H     1 <1>   0.0800 
 52 H        2.0470     7.3540    -0.7150 H     1 <1>   0.0800 
@<TRIPOS>BOND
  1   1   2  2   
  2   2   3  am  
  3   2   4  1   
  4   3   5  1   
  5   3   6  1   
  6   4   7  1   
  7   4   8  2   
  8   5   9  1   
  9   5  28  1   
 10   5  29  1   
 11   6  10  1   
 12   6  30  1   
 13   6  31  1   
 14   7  11  1   
 15   7  32  1   
 16   8  12  1   
 17   8  33  1   
 18   9  13  1   
 19   9  14  1   
 20   9  34  1   
 21  10  14  1   
 22  10  35  1   
 23  10  36  1   
 24  11  12  ar  
 25  11  15  ar  
 26  12  16  ar  
 27  13  17  1   
 28  13  18  1   
 29  13  37  1   
 30  14  19  1   
 31  14  20  1   
 32  15  21  ar  
 33  15  38  1   
 34  16  22  ar  
 35  16  39  1   
 36  17  23  1   
 37  17  40  1   
 38  17  41  1   
 39  18  42  1   
 40  18  43  1   
 41  18  44  1   
 42  19  24  ar  
 43  19  25  ar  
 44  20  23  1   
 45  20  45  1   
 46  20  46  1   
 47  21  22  ar  
 48  21  47  1   
 49  22  26  1   
 50  23  48  1   
 51  23  49  1   
 52  26  27  1   
 53  27  50  1   
 54  27  51  1   
 55  27  52  1   
@<TRIPOS>SUBSTRUCTURE
  1 ****   2 GROUP 4 **** **** 0

# MOE 2024.06 (io_trps.svl 2023.06)
