@<TRIPOS>MOLECULE
NONAME
55 57 1 0 0 
SMALL
USER_CHARGES


@<TRIPOS>ATOM
  1 O       -0.6740     0.5500     0.8620 O.2   1 <1>  -0.5700 
  2 C       -1.4990     1.4170     0.6420 C.2   1 <1>   0.5440 
  3 N       -2.8430     1.1050     0.7400 N.am  1 <1>  -0.6600 
  4 C       -1.0480     2.7450     0.2780 C.ar  1 <1>   0.0860 
  5 C       -3.8930     1.9590     0.1070 C.3   1 <1>   0.2200 
  6 C       -3.2460    -0.2010     1.3490 C.3   1 <1>   0.0600 
  7 C       -0.3320     2.9610    -0.8970 C.ar  1 <1>  -0.1500 
  8 C       -1.3270     3.8480     1.0850 C.ar  1 <1>  -0.1500 
  9 C       -4.8240     2.6080     1.1290 C.3   1 <1>  -0.1600 
 10 C       -4.8250     1.2030    -0.8400 C.3   1 <1>  -0.1600 
 11 C        0.0740     4.2280    -1.2750 C.ar  1 <1>  -0.1430 
 12 C       -0.9310     5.1270     0.7340 C.ar  1 <1>  -0.1430 
 13 C       -6.0800     2.9710     0.3240 C.3   1 <1>  -0.0800 
 14 C       -6.0730     2.0920    -0.9320 C.3   1 <1>  -0.0800 
 15 C       -0.2320     5.3100    -0.4560 C.ar  1 <1>   0.0830 
 16 C        0.8500     4.4230    -2.5700 C.3   1 <1>  -0.0970 
 17 C       -1.2630     6.2940     1.6550 C.3   1 <1>  -0.0970 
 18 C       -7.4170     2.6870     1.0260 C.3   1 <1>  -0.1600 
 19 C       -7.4150     1.3430    -0.9290 C.3   1 <1>  -0.1600 
 20 O        0.1580     6.5410    -0.8160 O.3   1 <1>  -0.5320 
 21 C       -8.3610     2.1990    -0.0790 C.3   1 <1>   0.4230 
 22 N       -8.8970     3.3510    -0.8740 N.4   1 <1>  -0.9590 
 23 C       -9.7130     4.2970    -0.0470 C.3   1 <1>   0.2630 
 24 C       -9.7270     2.9110    -2.0420 C.3   1 <1>   0.2630 
 25 H       -3.4310     2.7450    -0.4660 H     1 <1>   0.0800 
 26 H       -4.2220    -0.1360     1.7910 H     1 <1>   0.0800 
 27 H       -2.5440    -0.4810     2.1170 H     1 <1>   0.0800 
 28 H       -3.2440    -0.9650     0.5920 H     1 <1>   0.0800 
 29 H       -0.0990     2.1100    -1.5120 H     1 <1>   0.1500 
 30 H       -1.8600     3.6780     2.0030 H     1 <1>   0.1500 
 31 H       -5.0580     1.9080     1.9090 H     1 <1>   0.0800 
 32 H       -4.3710     3.4810     1.5630 H     1 <1>   0.0800 
 33 H       -4.3650     1.0660    -1.8030 H     1 <1>   0.0800 
 34 H       -5.0830     0.2440    -0.4340 H     1 <1>   0.0800 
 35 H       -6.0270     4.0050     0.0260 H     1 <1>   0.0800 
 36 H       -5.9980     2.7260    -1.8010 H     1 <1>   0.0800 
 37 H        0.9960     3.4890    -3.0820 H     1 <1>   0.0800 
 38 H        1.8130     4.8500    -2.3540 H     1 <1>   0.0800 
 39 H        0.3150     5.0920    -3.2190 H     1 <1>   0.0800 
 40 H       -1.8140     5.9590     2.5160 H     1 <1>   0.0800 
 41 H       -1.8620     7.0190     1.1330 H     1 <1>   0.0800 
 42 H       -0.3570     6.7600     1.9990 H     1 <1>   0.0800 
 43 H       -7.7710     3.5280     1.5890 H     1 <1>   0.0800 
 44 H       -7.2900     1.8710     1.7170 H     1 <1>   0.0800 
 45 H       -7.3000     0.4010    -0.4210 H     1 <1>   0.0800 
 46 H       -7.7640     1.1270    -1.9210 H     1 <1>   0.0800 
 47 H       -0.0660     7.2160    -0.1540 H     1 <1>   0.4500 
 48 H       -9.1700     1.6110     0.3250 H     1 <1>   0.0800 
 49 H       -8.0730     3.8570    -1.2310 H     1 <1>   0.4500 
 50 H      -10.5340     3.7760     0.4190 H     1 <1>   0.0800 
 51 H      -10.1140     5.0840    -0.6660 H     1 <1>   0.0800 
 52 H       -9.1110     4.7520     0.7220 H     1 <1>   0.0800 
 53 H      -10.5490     2.2990    -1.7080 H     1 <1>   0.0800 
 54 H       -9.1350     2.3440    -2.7420 H     1 <1>   0.0800 
 55 H      -10.1250     3.7690    -2.5610 H     1 <1>   0.0800 
@<TRIPOS>BOND
  1   1   2  2   
  2   2   3  am  
  3   2   4  1   
  4   3   5  1   
  5   3   6  1   
  6   4   7  ar  
  7   4   8  ar  
  8   5   9  1   
  9   5  10  1   
 10   5  25  1   
 11   6  26  1   
 12   6  27  1   
 13   6  28  1   
 14   7  11  ar  
 15   7  29  1   
 16   8  12  ar  
 17   8  30  1   
 18   9  13  1   
 19   9  31  1   
 20   9  32  1   
 21  10  14  1   
 22  10  33  1   
 23  10  34  1   
 24  11  15  ar  
 25  11  16  1   
 26  12  15  ar  
 27  12  17  1   
 28  13  14  1   
 29  13  18  1   
 30  13  35  1   
 31  14  19  1   
 32  14  36  1   
 33  15  20  1   
 34  16  37  1   
 35  16  38  1   
 36  16  39  1   
 37  17  40  1   
 38  17  41  1   
 39  17  42  1   
 40  18  21  1   
 41  18  43  1   
 42  18  44  1   
 43  19  21  1   
 44  19  45  1   
 45  19  46  1   
 46  20  47  1   
 47  21  22  1   
 48  21  48  1   
 49  22  23  1   
 50  22  24  1   
 51  22  49  1   
 52  23  50  1   
 53  23  51  1   
 54  23  52  1   
 55  24  53  1   
 56  24  54  1   
 57  24  55  1   
@<TRIPOS>SUBSTRUCTURE
  1 ****   5 GROUP 4 **** **** 0

# MOE 2024.06 (io_trps.svl 2023.06)
