@<TRIPOS>MOLECULE
NONAME
43 44 1 0 0 
SMALL
USER_CHARGES


@<TRIPOS>ATOM
  1 O       -0.4480    -0.3370     0.9710 O.2   1 <1>  -0.5700 
  2 C       -0.9430    -1.1300     0.1930 C.2   1 <1>   0.7800 
  3 O       -0.2110    -2.1140    -0.3370 O.3   1 <1>  -0.4300 
  4 N       -2.2620    -1.0600    -0.1770 N.am  1 <1>  -0.6600 
  5 C        1.1500    -2.3980    -0.0970 C.3   1 <1>   0.2800 
  6 C       -3.1740    -0.0260     0.3700 C.3   1 <1>   0.1400 
  7 C       -2.9010    -2.0150    -1.1180 C.3   1 <1>   0.1400 
  8 C        1.3670    -2.7480     1.3800 C.3   1 <1>  -0.2400 
  9 C        1.4570    -3.6260    -0.9540 C.3   1 <1>  -0.2400 
 10 C        2.0270    -1.2280    -0.5580 C.3   1 <1>  -0.2400 
 11 C       -4.3680    -0.7000     1.0560 C.3   1 <1>  -0.1600 
 12 C       -4.0660    -2.7180    -0.4150 C.3   1 <1>  -0.1600 
 13 C       -5.1070    -1.7270     0.1600 C.3   1 <1>   0.0000 
 14 C       -6.2130    -2.4190     0.9870 C.3   1 <1>   0.2000 
 15 C       -5.9090    -1.0100    -0.9460 C.3   1 <1>  -0.1600 
 16 O       -6.6470    -3.5710     0.3530 O.3   1 <1>  -0.6800 
 17 C       -7.3850    -1.4410     0.9780 C.3   1 <1>  -0.1600 
 18 C       -7.2740    -0.6560    -0.3370 C.3   1 <1>  -0.1600 
 19 H       -3.5060     0.6080    -0.4330 H     1 <1>   0.0800 
 20 H       -2.6580     0.5950     1.0840 H     1 <1>   0.0800 
 21 H       -2.1960    -2.7520    -1.4610 H     1 <1>   0.0800 
 22 H       -3.2590    -1.4740    -1.9770 H     1 <1>   0.0800 
 23 H        0.6840    -3.5200     1.6850 H     1 <1>   0.0800 
 24 H        1.2280    -1.8860     2.0070 H     1 <1>   0.0800 
 25 H        2.3710    -3.1000     1.5310 H     1 <1>   0.0800 
 26 H        0.8310    -4.4500    -0.6620 H     1 <1>   0.0800 
 27 H        2.4840    -3.9200    -0.8340 H     1 <1>   0.0800 
 28 H        1.2860    -3.4070    -1.9930 H     1 <1>   0.0800 
 29 H        1.8890    -0.3680     0.0700 H     1 <1>   0.0800 
 30 H        1.7950    -0.9650    -1.5740 H     1 <1>   0.0800 
 31 H        3.0650    -1.5040    -0.5050 H     1 <1>   0.0800 
 32 H       -5.0430     0.0680     1.3900 H     1 <1>   0.0800 
 33 H       -3.9970    -1.1990     1.9340 H     1 <1>   0.0800 
 34 H       -3.6670    -3.3180     0.3840 H     1 <1>   0.0800 
 35 H       -4.5300    -3.3900    -1.1140 H     1 <1>   0.0800 
 36 H       -5.8950    -2.6860     1.9810 H     1 <1>   0.0800 
 37 H       -6.0690    -1.6840    -1.7700 H     1 <1>   0.0800 
 38 H       -5.4120    -0.1370    -1.3280 H     1 <1>   0.0800 
 39 H       -6.9970    -3.3300    -0.5240 H     1 <1>   0.4000 
 40 H       -7.2720    -0.7600     1.8030 H     1 <1>   0.0800 
 41 H       -8.3330    -1.9410     1.0840 H     1 <1>   0.0800 
 42 H       -8.0660    -0.9290    -1.0130 H     1 <1>   0.0800 
 43 H       -7.3380     0.4010    -0.1410 H     1 <1>   0.0800 
@<TRIPOS>BOND
  1   1   2  2   
  2   2   3  1   
  3   2   4  am  
  4   3   5  1   
  5   4   6  1   
  6   4   7  1   
  7   5   8  1   
  8   5   9  1   
  9   5  10  1   
 10   6  11  1   
 11   6  19  1   
 12   6  20  1   
 13   7  12  1   
 14   7  21  1   
 15   7  22  1   
 16   8  23  1   
 17   8  24  1   
 18   8  25  1   
 19   9  26  1   
 20   9  27  1   
 21   9  28  1   
 22  10  29  1   
 23  10  30  1   
 24  10  31  1   
 25  11  13  1   
 26  11  32  1   
 27  11  33  1   
 28  12  13  1   
 29  12  34  1   
 30  12  35  1   
 31  13  14  1   
 32  13  15  1   
 33  14  16  1   
 34  14  17  1   
 35  14  36  1   
 36  15  18  1   
 37  15  37  1   
 38  15  38  1   
 39  16  39  1   
 40  17  18  1   
 41  17  40  1   
 42  17  41  1   
 43  18  42  1   
 44  18  43  1   
@<TRIPOS>SUBSTRUCTURE
  1 ****   4 GROUP 4 **** **** 0

# MOE 2024.06 (io_trps.svl 2023.06)
