@<TRIPOS>MOLECULE
Untitled Document
56 59 1 0 0 
SMALL
USER_CHARGES


@<TRIPOS>ATOM
  1 F       -1.6930     0.5970     2.1820 F     1 <1>  -0.1900 
  2 C       -2.6300    -0.2290     1.8080 C.ar  1 <1>   0.1900 
  3 C       -3.7350     0.2470     1.1020 C.ar  1 <1>   0.3100 
  4 C       -2.4960    -1.5560     2.1340 C.ar  1 <1>  -0.1500 
  5 N       -4.7320    -0.5580     0.7210 N.ar  1 <1>  -0.6200 
  6 C       -3.8260     1.6440     0.7590 C.ar  1 <1>   0.0000 
  7 C       -3.5170    -2.3800     1.7160 C.ar  1 <1>  -0.1500 
  8 C       -4.6130    -1.8720     1.0110 C.ar  1 <1>   0.3960 
  9 C       -4.5650     2.5600     1.5020 C.ar  1 <1>   0.1900 
 10 C       -3.1660     2.1760    -0.3450 C.ar  1 <1>   0.1900 
 11 C       -5.6700    -2.7790     0.5730 C.2   1 <1>   0.5440 
 12 F       -5.2600     2.1300     2.5240 F     1 <1>  -0.1900 
 13 C       -4.6310     3.9100     1.2010 C.ar  1 <1>  -0.1500 
 14 F       -2.4670     1.3760    -1.1030 F     1 <1>  -0.1900 
 15 C       -3.2130     3.5150    -0.6880 C.ar  1 <1>  -0.1500 
 16 O       -5.8340    -3.8650     1.0940 O.2   1 <1>  -0.5700 
 17 N       -6.5220    -2.3760    -0.4270 N.am  1 <1>  -0.5470 
 18 C       -3.9490     4.3910     0.0940 C.ar  1 <1>  -0.1500 
 19 C       -7.7510    -2.9140    -0.8390 C.ar  1 <1>   0.1170 
 20 C       -8.8570    -2.0920    -1.0620 C.ar  1 <1>  -0.1430 
 21 C       -7.8950    -4.2870    -1.0530 C.ar  1 <1>   0.1600 
 22 C      -10.0030    -2.7250    -1.5100 C.ar  1 <1>  -0.1500 
 23 C       -8.8990    -0.5750    -0.8300 C.3   1 <1>   0.0630 
 24 N       -8.9910    -4.8930    -1.4780 N.ar  1 <1>  -0.6200 
 25 C      -10.0190    -4.0960    -1.7010 C.ar  1 <1>   0.1600 
 26 C       -8.6050    -0.2120     0.6400 C.3   1 <1>  -0.1600 
 27 C       -7.9990     0.1920    -1.8150 C.3   1 <1>  -0.1600 
 28 C       -8.6240     1.2980     0.8660 C.3   1 <1>   0.4230 
 29 C       -8.0470     1.7080    -1.5690 C.3   1 <1>  -0.0800 
 30 N       -8.1690     1.5710     2.2370 N.4   1 <1>  -0.8530 
 31 C       -7.6940     2.0240    -0.1090 C.3   1 <1>  -0.1600 
 32 C       -7.0770     2.4290    -2.5130 C.3   1 <1>  -0.2400 
 33 H       -1.6410    -1.9190     2.6790 H     1 <1>   0.1500 
 34 H       -3.4740    -3.4340     1.9330 H     1 <1>   0.1500 
 35 H       -5.2020     4.5810     1.8190 H     1 <1>   0.1500 
 36 H       -2.6760     3.8660    -1.5530 H     1 <1>   0.1500 
 37 H       -6.2880    -1.4590    -0.8090 H     1 <1>   0.3700 
 38 H       -3.9850     5.4390    -0.1570 H     1 <1>   0.1500 
 39 H       -7.0430    -4.9170    -0.8630 H     1 <1>   0.1500 
 40 H      -10.9010    -2.1720    -1.7170 H     1 <1>   0.1500 
 41 H       -9.9060    -0.2480    -1.0290 H     1 <1>   0.0800 
 42 H      -10.9250    -4.5610    -2.0520 H     1 <1>   0.1500 
 43 H       -7.6430    -0.5880     0.9260 H     1 <1>   0.0800 
 44 H       -9.3460    -0.6860     1.2590 H     1 <1>   0.0800 
 45 H       -6.9810    -0.1390    -1.7380 H     1 <1>   0.0800 
 46 H       -8.3260    -0.0170    -2.8200 H     1 <1>   0.0800 
 47 H       -9.6310     1.6620     0.7310 H     1 <1>   0.0800 
 48 H       -9.0440     2.0640    -1.7780 H     1 <1>   0.0800 
 49 H       -7.1750     1.3250     2.3350 H     1 <1>   0.4500 
 50 H       -8.7020     1.0210     2.9180 H     1 <1>   0.4500 
 51 H       -8.2670     2.5640     2.4670 H     1 <1>   0.4500 
 52 H       -7.7600     3.0870     0.0450 H     1 <1>   0.0800 
 53 H       -6.6800     1.7100     0.0600 H     1 <1>   0.0800 
 54 H       -6.0630     2.1100    -2.3440 H     1 <1>   0.0800 
 55 H       -7.1290     3.4940    -2.3680 H     1 <1>   0.0800 
 56 H       -7.3310     2.2200    -3.5380 H     1 <1>   0.0800 
@<TRIPOS>BOND
  1   1   2  1   
  2   2   3  ar  
  3   2   4  ar  
  4   3   5  ar  
  5   3   6  1   
  6   4   7  ar  
  7   4  33  1   
  8   5   8  ar  
  9   6   9  ar  
 10   6  10  ar  
 11   7   8  ar  
 12   7  34  1   
 13   8  11  1   
 14   9  12  1   
 15   9  13  ar  
 16  10  14  1   
 17  10  15  ar  
 18  11  16  2   
 19  11  17  am  
 20  13  18  ar  
 21  13  35  1   
 22  15  18  ar  
 23  15  36  1   
 24  17  19  1   
 25  17  37  1   
 26  18  38  1   
 27  19  20  ar  
 28  19  21  ar  
 29  20  22  ar  
 30  20  23  1   
 31  21  24  ar  
 32  21  39  1   
 33  22  25  ar  
 34  22  40  1   
 35  23  26  1   
 36  23  27  1   
 37  23  41  1   
 38  24  25  ar  
 39  25  42  1   
 40  26  28  1   
 41  26  43  1   
 42  26  44  1   
 43  27  29  1   
 44  27  45  1   
 45  27  46  1   
 46  28  30  1   
 47  28  31  1   
 48  28  47  1   
 49  29  31  1   
 50  29  32  1   
 51  29  48  1   
 52  30  49  1   
 53  30  50  1   
 54  30  51  1   
 55  31  52  1   
 56  31  53  1   
 57  32  54  1   
 58  32  55  1   
 59  32  56  1   
@<TRIPOS>SUBSTRUCTURE
  1 ****   5 GROUP 4 **** **** 0

# MOE 2024.06 (io_trps.svl 2023.06)
