@<TRIPOS>MOLECULE
NONAME
44 45 1 0 0 
SMALL
USER_CHARGES


@<TRIPOS>ATOM
  1 CL      -1.9810    -3.2400     0.4860 Cl    1 <1>  -0.1770 
  2 C       -0.2550    -3.0820     0.7110 C.ar  1 <1>   0.1770 
  3 C        0.6150    -3.2690    -0.3560 C.ar  1 <1>  -0.1440 
  4 C        0.2080    -2.7830     1.9790 C.ar  1 <1>  -0.1500 
  5 C        1.9780    -3.1490    -0.1230 C.ar  1 <1>  -0.1500 
  6 C        0.1090    -3.6130    -1.7580 C.3   1 <1>   0.0450 
  7 C        1.5700    -2.6670     2.1960 C.ar  1 <1>  -0.1500 
  8 C        2.4510    -2.8510     1.1440 C.ar  1 <1>  -0.1500 
  9 C       -0.2230    -5.0850    -1.9410 C.2   1 <1>   0.5690 
 10 O       -0.5560    -5.4730    -3.0340 O.2   1 <1>  -0.5700 
 11 N       -0.1580    -5.9320    -0.8840 N.am  1 <1>  -0.7300 
 12 C       -0.4350    -7.3850    -0.9150 C.3   1 <1>   0.2200 
 13 C       -1.8310    -7.6810    -0.3890 C.3   1 <1>  -0.0800 
 14 C        0.4100    -8.0640     0.1530 C.3   1 <1>   0.1200 
 15 C       -1.6260    -7.6560     1.1300 C.3   1 <1>   0.1200 
 16 C       -2.9390    -6.7460    -0.9210 C.3   1 <1>  -0.0550 
 17 O       -0.2540    -7.8120     1.3550 O.3   1 <1>  -0.5600 
 18 S       -4.6000    -7.2330    -0.4470 S.o2  1 <1>   1.3330 
 19 O       -5.5570    -6.3390    -1.0570 O.2   1 <1>  -0.6500 
 20 O       -4.7240    -8.6590    -0.6550 O.2   1 <1>  -0.6500 
 21 N       -4.6470    -6.9510     1.2280 N.am  1 <1>  -0.8490 
 22 C       -4.8820    -5.5430     1.5710 C.3   1 <1>   0.1160 
 23 C       -5.6370    -7.7950     1.9020 C.3   1 <1>   0.1160 
 24 H       -0.4890    -2.6440     2.7860 H     1 <1>   0.1500 
 25 H        2.6830    -3.2900    -0.9260 H     1 <1>   0.1500 
 26 H        0.8520    -3.3500    -2.4870 H     1 <1>   0.0800 
 27 H       -0.7690    -3.0370    -1.9840 H     1 <1>   0.0800 
 28 H        1.9430    -2.4340     3.1790 H     1 <1>   0.1500 
 29 H        3.5110    -2.7600     1.3130 H     1 <1>   0.1500 
 30 H        0.1030    -5.5750     0.0410 H     1 <1>   0.3700 
 31 H       -0.2620    -7.7870    -1.9000 H     1 <1>   0.0800 
 32 H       -2.0780    -8.6910    -0.6670 H     1 <1>   0.0800 
 33 H        1.4130    -7.6780     0.2030 H     1 <1>   0.0800 
 34 H        0.4310    -9.1300     0.0050 H     1 <1>   0.0800 
 35 H       -2.1580    -8.4540     1.6200 H     1 <1>   0.0800 
 36 H       -1.9180    -6.7110     1.5550 H     1 <1>   0.0800 
 37 H       -2.8840    -6.7450    -1.9930 H     1 <1>   0.0800 
 38 H       -2.7590    -5.7430    -0.5930 H     1 <1>   0.0800 
 39 H       -4.8060    -5.4040     2.6360 H     1 <1>   0.0800 
 40 H       -5.8620    -5.2340     1.2450 H     1 <1>   0.0800 
 41 H       -4.1490    -4.9170     1.0950 H     1 <1>   0.0800 
 42 H       -5.6350    -7.6010     2.9610 H     1 <1>   0.0800 
 43 H       -5.4000    -8.8350     1.7510 H     1 <1>   0.0800 
 44 H       -6.6220    -7.6040     1.5070 H     1 <1>   0.0800 
@<TRIPOS>BOND
  1   1   2  1   
  2   2   3  ar  
  3   2   4  ar  
  4   3   5  ar  
  5   3   6  1   
  6   4   7  ar  
  7   4  24  1   
  8   5   8  ar  
  9   5  25  1   
 10   6   9  1   
 11   6  26  1   
 12   6  27  1   
 13   7   8  ar  
 14   7  28  1   
 15   8  29  1   
 16   9  10  2   
 17   9  11  am  
 18  11  12  1   
 19  11  30  1   
 20  12  13  1   
 21  12  14  1   
 22  12  31  1   
 23  13  15  1   
 24  13  16  1   
 25  13  32  1   
 26  14  17  1   
 27  14  33  1   
 28  14  34  1   
 29  15  17  1   
 30  15  35  1   
 31  15  36  1   
 32  16  18  1   
 33  16  37  1   
 34  16  38  1   
 35  18  19  2   
 36  18  20  2   
 37  18  21  am  
 38  21  22  1   
 39  21  23  1   
 40  22  39  1   
 41  22  40  1   
 42  22  41  1   
 43  23  42  1   
 44  23  43  1   
 45  23  44  1   
@<TRIPOS>SUBSTRUCTURE
  1 ****  11 GROUP 4 **** **** 0

# MOE 2024.06 (io_trps.svl 2023.06)
