@<TRIPOS>MOLECULE
NONAME
40 41 1 0 0 
SMALL
USER_CHARGES


@<TRIPOS>ATOM
  1 O        0.3770     0.7310     1.2860 O.co2 1 <1>  -0.9000 
  2 C       -0.5800     1.4720     1.5940 C.2   1 <1>   0.9790 
  3 O       -1.4280     1.0020     2.3850 O.co2 1 <1>  -0.9000 
  4 C       -0.7450     2.8420     1.0720 C.ar  1 <1>   0.1310 
  5 N        0.1540     3.4430     0.2840 N.ar  1 <1>  -0.6200 
  6 C       -1.8830     3.5560     1.4120 C.ar  1 <1>  -0.1500 
  7 C       -0.0860     4.6850    -0.1160 C.ar  1 <1>   0.7200 
  8 C       -2.0480     4.8350     0.9460 C.ar  1 <1>   0.1660 
  9 N       -1.1590     5.4160     0.1860 N.ar  1 <1>  -0.6200 
 10 N        0.8800     5.2840    -0.9050 N.pl3 1 <1>  -0.8380 
 11 C       -3.2790     5.6400     1.2980 C.3   1 <1>  -0.0970 
 12 C        1.0500     6.7590    -0.9180 C.3   1 <1>   0.2090 
 13 C        2.0430     4.4950    -1.4000 C.3   1 <1>   0.1290 
 14 C        1.8010     7.1950     0.3410 C.3   1 <1>  -0.1600 
 15 C        1.8190     8.7160     0.4810 C.3   1 <1>   0.2000 
 16 O        2.4180     9.2530    -0.6590 O.3   1 <1>  -0.5600 
 17 C        2.6050     9.1660     1.7220 C.3   1 <1>  -0.1600 
 18 C        2.4030    10.6460    -0.7270 C.3   1 <1>   0.1200 
 19 C        2.7070    10.6950     1.7790 C.3   1 <1>  -0.1600 
 20 C        3.2190    11.2250     0.4350 C.3   1 <1>  -0.1600 
 21 H       -2.6240     3.0960     2.0400 H     1 <1>   0.1500 
 22 H       -3.9460     5.0700     1.9180 H     1 <1>   0.0800 
 23 H       -3.7920     5.9200     0.3960 H     1 <1>   0.0800 
 24 H       -2.9860     6.5300     1.8240 H     1 <1>   0.0800 
 25 H        0.0870     7.2390    -0.9580 H     1 <1>   0.0800 
 26 H        1.5960     7.0570    -1.7970 H     1 <1>   0.0800 
 27 H        1.7110     3.5310    -1.7500 H     1 <1>   0.0800 
 28 H        2.7450     4.3460    -0.5970 H     1 <1>   0.0800 
 29 H        2.5270     5.0070    -2.2110 H     1 <1>   0.0800 
 30 H        2.8070     6.8220     0.3100 H     1 <1>   0.0800 
 31 H        1.3090     6.7790     1.2010 H     1 <1>   0.0800 
 32 H        0.8060     9.0810     0.5310 H     1 <1>   0.0800 
 33 H        3.5910     8.7380     1.6860 H     1 <1>   0.0800 
 34 H        2.1180     8.8000     2.6090 H     1 <1>   0.0800 
 35 H        1.3810    10.9810    -0.6930 H     1 <1>   0.0800 
 36 H        2.8350    10.9330    -1.6710 H     1 <1>   0.0800 
 37 H        3.3700    10.9930     2.5740 H     1 <1>   0.0800 
 38 H        1.7340    11.1090     1.9780 H     1 <1>   0.0800 
 39 H        3.1610    12.2990     0.4170 H     1 <1>   0.0800 
 40 H        4.2510    10.9480     0.3020 H     1 <1>   0.0800 
@<TRIPOS>BOND
  1   1   2  ar  
  2   2   3  ar  
  3   2   4  1   
  4   4   5  ar  
  5   4   6  ar  
  6   5   7  ar  
  7   6   8  ar  
  8   6  21  1   
  9   7   9  ar  
 10   7  10  1   
 11   8   9  ar  
 12   8  11  1   
 13  10  12  1   
 14  10  13  1   
 15  11  22  1   
 16  11  23  1   
 17  11  24  1   
 18  12  14  1   
 19  12  25  1   
 20  12  26  1   
 21  13  27  1   
 22  13  28  1   
 23  13  29  1   
 24  14  15  1   
 25  14  30  1   
 26  14  31  1   
 27  15  16  1   
 28  15  17  1   
 29  15  32  1   
 30  16  18  1   
 31  17  19  1   
 32  17  33  1   
 33  17  34  1   
 34  18  20  1   
 35  18  35  1   
 36  18  36  1   
 37  19  20  1   
 38  19  37  1   
 39  19  38  1   
 40  20  39  1   
 41  20  40  1   
@<TRIPOS>SUBSTRUCTURE
  1 ****   7 GROUP 4 **** **** 0

# MOE 2024.06 (io_trps.svl 2023.06)
