@<TRIPOS>MOLECULE
NONAME
57 60 1 0 0 
SMALL
USER_CHARGES


@<TRIPOS>ATOM
  1 O       -2.4630    -0.4910    -1.4730 O.2   1 <1>  -0.5700 
  2 C       -1.7940     0.1090    -0.6530 C.2   1 <1>   0.7160 
  3 N       -0.9210    -0.6070     0.1150 N.am  1 <1>  -0.7300 
  4 C       -1.9220     1.5120    -0.4390 C.2   1 <1>  -0.0860 
  5 C       -0.5360    -2.0190    -0.0970 C.3   1 <1>   0.1400 
  6 C       -3.1000     2.2160    -0.1710 C.2   1 <1>   0.3720 
  7 C       -0.9580     2.4640    -0.3590 C.2   1 <1>   0.0870 
  8 C       -1.4120    -2.9580     0.7400 C.3   1 <1>  -0.1600 
  9 N       -2.8500     3.4580     0.0570 N.2   1 <1>  -0.4100 
 10 N       -4.3860     1.6560    -0.1230 N.pl3 1 <1>  -0.8210 
 11 O       -1.5560     3.5890    -0.0640 O.3   1 <1>  -0.0190 
 12 C        0.4710     2.4030    -0.5200 C.ar  1 <1>   0.0530 
 13 C       -2.8340    -3.0990     0.1660 C.3   1 <1>   0.4230 
 14 C       -5.3640     2.3510     0.7870 C.3   1 <1>   0.2090 
 15 C       -4.9800     1.4290    -1.4860 C.3   1 <1>   0.2090 
 16 C        1.3140     3.1770     0.2760 C.ar  1 <1>  -0.1500 
 17 C        1.0630     1.5640    -1.4650 C.ar  1 <1>  -0.1500 
 18 N       -3.8830    -2.6670     1.1180 N.4   1 <1>  -0.9590 
 19 C       -3.2270    -4.5400    -0.1410 C.3   1 <1>  -0.1600 
 20 C       -6.0950     3.5240     0.1050 C.3   1 <1>   0.1200 
 21 C       -5.7150     2.6700    -2.0250 C.3   1 <1>   0.1200 
 22 C        2.6890     3.1070     0.1470 C.ar  1 <1>  -0.1500 
 23 C        2.4370     1.4890    -1.5970 C.ar  1 <1>  -0.1500 
 24 C       -5.1520    -3.2600     0.6270 C.3   1 <1>   0.3430 
 25 C       -3.9890    -1.1830     1.2460 C.3   1 <1>   0.2630 
 26 C       -4.7530    -4.5620    -0.0560 C.3   1 <1>  -0.1600 
 27 O       -6.6650     3.1140    -1.1030 O.3   1 <1>  -0.5600 
 28 C        3.2530     2.2590    -0.7890 C.ar  1 <1>  -0.1500 
 29 H       -0.2830    -0.0680     0.7090 H     1 <1>   0.3700 
 30 H        0.4960    -2.1380     0.1910 H     1 <1>   0.0800 
 31 H       -0.6140    -2.2670    -1.1440 H     1 <1>   0.0800 
 32 H       -1.4250    -2.6310     1.7640 H     1 <1>   0.0800 
 33 H       -0.9300    -3.9190     0.7210 H     1 <1>   0.0800 
 34 H       -2.9250    -2.5260    -0.7420 H     1 <1>   0.0800 
 35 H       -4.8520     2.7190     1.6600 H     1 <1>   0.0800 
 36 H       -6.0990     1.6400     1.1200 H     1 <1>   0.0800 
 37 H       -5.6740     0.6080    -1.4380 H     1 <1>   0.0800 
 38 H       -4.2080     1.1600    -2.1860 H     1 <1>   0.0800 
 39 H        0.8870     3.8440     1.0060 H     1 <1>   0.1500 
 40 H        0.4440     0.9700    -2.1140 H     1 <1>   0.1500 
 41 H       -3.6620    -3.0860     2.0290 H     1 <1>   0.4500 
 42 H       -2.8170    -5.2080     0.5970 H     1 <1>   0.0800 
 43 H       -2.8720    -4.8380    -1.1120 H     1 <1>   0.0800 
 44 H       -5.4160     4.3360    -0.0890 H     1 <1>   0.0800 
 45 H       -6.8870     3.8850     0.7370 H     1 <1>   0.0800 
 46 H       -6.2290     2.4300    -2.9380 H     1 <1>   0.0800 
 47 H       -5.0180     3.4680    -2.2190 H     1 <1>   0.0800 
 48 H        3.3220     3.7130     0.7730 H     1 <1>   0.1500 
 49 H        2.8750     0.8350    -2.3320 H     1 <1>   0.1500 
 50 H       -5.6060    -2.6020    -0.0980 H     1 <1>   0.0800 
 51 H       -5.8460    -3.4310     1.4350 H     1 <1>   0.0800 
 52 H       -4.2050    -0.7420     0.2870 H     1 <1>   0.0800 
 53 H       -3.0630    -0.7700     1.6090 H     1 <1>   0.0800 
 54 H       -4.7770    -0.9160     1.9310 H     1 <1>   0.0800 
 55 H       -5.0980    -5.4110     0.5090 H     1 <1>   0.0800 
 56 H       -5.1960    -4.6020    -1.0370 H     1 <1>   0.0800 
 57 H        4.3240     2.2030    -0.8910 H     1 <1>   0.1500 
@<TRIPOS>BOND
  1   1   2  2   
  2   2   3  am  
  3   2   4  1   
  4   3   5  1   
  5   3  29  1   
  6   4   6  1   
  7   4   7  2   
  8   5   8  1   
  9   5  30  1   
 10   5  31  1   
 11   6   9  2   
 12   6  10  1   
 13   7  11  1   
 14   7  12  1   
 15   8  13  1   
 16   8  32  1   
 17   8  33  1   
 18   9  11  1   
 19  10  14  1   
 20  10  15  1   
 21  12  16  ar  
 22  12  17  ar  
 23  13  18  1   
 24  13  19  1   
 25  13  34  1   
 26  14  20  1   
 27  14  35  1   
 28  14  36  1   
 29  15  21  1   
 30  15  37  1   
 31  15  38  1   
 32  16  22  ar  
 33  16  39  1   
 34  17  23  ar  
 35  17  40  1   
 36  18  24  1   
 37  18  25  1   
 38  18  41  1   
 39  19  26  1   
 40  19  42  1   
 41  19  43  1   
 42  20  27  1   
 43  20  44  1   
 44  20  45  1   
 45  21  27  1   
 46  21  46  1   
 47  21  47  1   
 48  22  28  ar  
 49  22  48  1   
 50  23  28  ar  
 51  23  49  1   
 52  24  26  1   
 53  24  50  1   
 54  24  51  1   
 55  25  52  1   
 56  25  53  1   
 57  25  54  1   
 58  26  55  1   
 59  26  56  1   
 60  28  57  1   
@<TRIPOS>SUBSTRUCTURE
  1 ****   2 GROUP 4 **** **** 0

# MOE 2024.06 (io_trps.svl 2023.06)
