@<TRIPOS>MOLECULE
NONAME
48 51 1 0 0 
SMALL
USER_CHARGES


@<TRIPOS>ATOM
  1 O        0.8860    -0.5890     1.1590 O.3   1 <1>  -0.5600 
  2 C        1.9450    -0.9800     0.3090 C.3   1 <1>   0.4240 
  3 C       -0.4130    -0.8190     0.7260 C.3   1 <1>   0.1200 
  4 C        1.6460    -2.3470    -0.3760 C.ar  1 <1>  -0.1440 
  5 C        2.1510     0.1600    -0.7080 C.3   1 <1>  -0.1600 
  6 C        3.1570    -1.0700     1.2530 C.3   1 <1>  -0.1600 
  7 C       -0.6390    -2.3220     0.7010 C.3   1 <1>  -0.0160 
  8 C        2.5730    -2.9810    -1.2140 C.ar  1 <1>   0.0820 
  9 C        0.4170    -2.9740    -0.1680 C.ar  1 <1>  -0.1440 
 10 C        2.4700     1.4850    -0.0180 C.3   1 <1>   0.2090 
 11 C        3.4770     0.2740     1.9100 C.3   1 <1>   0.2090 
 12 O        3.7640    -2.3740    -1.4550 O.3   1 <1>  -0.3630 
 13 C        2.2700    -4.2120    -1.7940 C.ar  1 <1>  -0.1500 
 14 C        0.1270    -4.1980    -0.7490 C.ar  1 <1>  -0.1500 
 15 N        3.6660     1.3060     0.8510 N.pl3 1 <1>  -0.8380 
 16 C        4.7260    -2.8900    -2.3470 C.3   1 <1>   0.0400 
 17 C        1.0530    -4.8190    -1.5600 C.ar  1 <1>  -0.1500 
 18 C        4.8460     2.0020     0.6680 C.ar  1 <1>   0.7200 
 19 N        4.9860     2.6690    -0.4720 N.ar  1 <1>  -0.6200 
 20 N        5.7410     1.9470     1.6540 N.ar  1 <1>  -0.6200 
 21 C        6.1060     3.3240    -0.6330 C.ar  1 <1>   0.3930 
 22 C        6.8550     2.6120     1.4700 C.ar  1 <1>   0.1600 
 23 O        6.2160     3.9890    -1.8000 O.3   1 <1>  -0.3620 
 24 C        7.0950     3.3290     0.3300 C.ar  1 <1>  -0.1500 
 25 C        7.3460     4.7620    -2.1400 C.3   1 <1>   0.0400 
 26 H       -0.5490    -0.3850    -0.2490 H     1 <1>   0.0800 
 27 H       -1.0830    -0.3470     1.4230 H     1 <1>   0.0800 
 28 H        1.2830     0.2650    -1.3280 H     1 <1>   0.0800 
 29 H        2.9730    -0.0650    -1.3580 H     1 <1>   0.0800 
 30 H        4.0340    -1.3810     0.7230 H     1 <1>   0.0800 
 31 H        2.9600    -1.8070     2.0080 H     1 <1>   0.0800 
 32 H       -1.6210    -2.5240     0.3130 H     1 <1>   0.0800 
 33 H       -0.5800    -2.7110     1.7010 H     1 <1>   0.0800 
 34 H        1.6390     1.7930     0.5920 H     1 <1>   0.0800 
 35 H        2.6280     2.2490    -0.7600 H     1 <1>   0.0800 
 36 H        4.3570     0.1650     2.5190 H     1 <1>   0.0800 
 37 H        2.6680     0.5750     2.5530 H     1 <1>   0.0800 
 38 H        2.9680    -4.7180    -2.4310 H     1 <1>   0.1500 
 39 H       -0.8220    -4.6730    -0.5710 H     1 <1>   0.1500 
 40 H        5.5500    -2.1990    -2.3800 H     1 <1>   0.0800 
 41 H        4.2850    -2.9790    -3.3240 H     1 <1>   0.0800 
 42 H        5.0640    -3.8440    -1.9830 H     1 <1>   0.0800 
 43 H        0.8260    -5.7710    -2.0080 H     1 <1>   0.1500 
 44 H        7.5910     2.5810     2.2550 H     1 <1>   0.1500 
 45 H        8.0160     3.8620     0.2100 H     1 <1>   0.1500 
 46 H        7.1760     5.1860    -3.1140 H     1 <1>   0.0800 
 47 H        8.2120     4.1240    -2.1660 H     1 <1>   0.0800 
 48 H        7.4630     5.5480    -1.4160 H     1 <1>   0.0800 
@<TRIPOS>BOND
  1   1   2  1   
  2   1   3  1   
  3   2   4  1   
  4   2   5  1   
  5   2   6  1   
  6   3   7  1   
  7   3  26  1   
  8   3  27  1   
  9   4   8  ar  
 10   4   9  ar  
 11   5  10  1   
 12   5  28  1   
 13   5  29  1   
 14   6  11  1   
 15   6  30  1   
 16   6  31  1   
 17   7   9  1   
 18   7  32  1   
 19   7  33  1   
 20   8  12  1   
 21   8  13  ar  
 22   9  14  ar  
 23  10  15  1   
 24  10  34  1   
 25  10  35  1   
 26  11  15  1   
 27  11  36  1   
 28  11  37  1   
 29  12  16  1   
 30  13  17  ar  
 31  13  38  1   
 32  14  17  ar  
 33  14  39  1   
 34  15  18  1   
 35  16  40  1   
 36  16  41  1   
 37  16  42  1   
 38  17  43  1   
 39  18  19  ar  
 40  18  20  ar  
 41  19  21  ar  
 42  20  22  ar  
 43  21  23  1   
 44  21  24  ar  
 45  22  24  ar  
 46  22  44  1   
 47  23  25  1   
 48  24  45  1   
 49  25  46  1   
 50  25  47  1   
 51  25  48  1   
@<TRIPOS>SUBSTRUCTURE
  1 ****   5 GROUP 4 **** **** 0

# MOE 2024.06 (io_trps.svl 2023.06)
