@<TRIPOS>MOLECULE
NONAME
48 51 1 0 0 
SMALL
USER_CHARGES


@<TRIPOS>ATOM
  1 S        0.1940    -0.9950    -1.0580 S.o2  1 <1>   1.3330 
  2 O        0.3490    -2.4080    -0.7900 O.2   1 <1>  -0.6500 
  3 O       -0.0870    -0.5790    -2.4150 O.2   1 <1>  -0.6500 
  4 N       -1.0430    -0.4040    -0.0530 N.am  1 <1>  -0.8490 
  5 C        1.6980    -0.1970    -0.4690 C.3   1 <1>   0.0890 
  6 C       -1.7180     0.7780    -0.6390 C.3   1 <1>   0.1960 
  7 C       -2.0280    -1.4400     0.2840 C.3   1 <1>   0.1960 
  8 C        1.6710     1.3300    -0.4260 C.ar  1 <1>  -0.1440 
  9 C       -2.7380     1.4130     0.3270 C.3   1 <1>   0.1440 
 10 C       -3.0540    -0.9070     1.2920 C.3   1 <1>  -0.1600 
 11 C        1.7650     1.9880     0.7950 C.ar  1 <1>  -0.1500 
 12 C        1.5610     2.0640    -1.6010 C.ar  1 <1>  -0.1500 
 13 C       -3.3970     2.5880    -0.3710 C.ar  1 <1>   0.1660 
 14 C       -3.7640     0.3480     0.7640 C.3   1 <1>  -0.1600 
 15 C       -2.0390     2.0860     1.5400 C.3   1 <1>  -0.1600 
 16 C        1.7490     3.3710     0.8470 C.ar  1 <1>  -0.1500 
 17 C        1.5350     3.4480    -1.5610 C.ar  1 <1>  -0.1500 
 18 N       -4.2590     2.5010    -1.3610 N.ar  1 <1>  -0.6200 
 19 C       -2.9770     3.7790     0.1390 C.ar  1 <1>  -0.1440 
 20 C       -1.9760     3.5970     1.2500 C.3   1 <1>  -0.0170 
 21 C        1.6300     4.0760    -0.3350 C.ar  1 <1>   0.1900 
 22 C       -4.6930     3.6680    -1.8140 C.ar  1 <1>   0.4770 
 23 C       -3.4900     4.9290    -0.4090 C.ar  1 <1>   0.1600 
 24 F        1.6000     5.3800    -0.2890 F     1 <1>  -0.1900 
 25 N       -4.3600     4.8830    -1.3970 N.ar  1 <1>  -0.6200 
 26 C       -5.6830     3.6070    -2.9510 C.3   1 <1>  -0.0970 
 27 H        2.5140    -0.5010    -1.0960 H     1 <1>   0.0800 
 28 H        1.9080    -0.5660     0.5150 H     1 <1>   0.0800 
 29 H       -2.2310     0.4890    -1.5430 H     1 <1>   0.0800 
 30 H       -0.9910     1.5230    -0.9060 H     1 <1>   0.0800 
 31 H       -1.5310    -2.2880     0.7270 H     1 <1>   0.0800 
 32 H       -2.5260    -1.7740    -0.6120 H     1 <1>   0.0800 
 33 H       -2.5510    -0.6880     2.2170 H     1 <1>   0.0800 
 34 H       -3.7830    -1.6730     1.4900 H     1 <1>   0.0800 
 35 H        1.8530     1.4290     1.7120 H     1 <1>   0.1500 
 36 H        1.4890     1.5640    -2.5550 H     1 <1>   0.1500 
 37 H       -4.3630     0.0720    -0.0880 H     1 <1>   0.0800 
 38 H       -4.4290     0.7490     1.5080 H     1 <1>   0.0800 
 39 H       -1.0600     1.6780     1.7210 H     1 <1>   0.0800 
 40 H       -2.6310     1.9400     2.4250 H     1 <1>   0.0800 
 41 H        1.8260     3.8970     1.7820 H     1 <1>   0.1500 
 42 H        1.4420     4.0290    -2.4610 H     1 <1>   0.1500 
 43 H       -1.0000     3.8800     0.9000 H     1 <1>   0.0800 
 44 H       -2.2360     4.1770     2.1180 H     1 <1>   0.0800 
 45 H       -3.1860     5.8930    -0.0400 H     1 <1>   0.1500 
 46 H       -6.2910     2.7260    -2.8630 H     1 <1>   0.0800 
 47 H       -5.1500     3.5770    -3.8820 H     1 <1>   0.0800 
 48 H       -6.3190     4.4730    -2.9360 H     1 <1>   0.0800 
@<TRIPOS>BOND
  1   1   2  2   
  2   1   3  2   
  3   1   4  am  
  4   1   5  1   
  5   4   6  1   
  6   4   7  1   
  7   5   8  1   
  8   5  27  1   
  9   5  28  1   
 10   6   9  1   
 11   6  29  1   
 12   6  30  1   
 13   7  10  1   
 14   7  31  1   
 15   7  32  1   
 16   8  11  ar  
 17   8  12  ar  
 18   9  13  1   
 19   9  14  1   
 20   9  15  1   
 21  10  14  1   
 22  10  33  1   
 23  10  34  1   
 24  11  16  ar  
 25  11  35  1   
 26  12  17  ar  
 27  12  36  1   
 28  13  18  ar  
 29  13  19  ar  
 30  14  37  1   
 31  14  38  1   
 32  15  20  1   
 33  15  39  1   
 34  15  40  1   
 35  16  21  ar  
 36  16  41  1   
 37  17  21  ar  
 38  17  42  1   
 39  18  22  ar  
 40  19  20  1   
 41  19  23  ar  
 42  20  43  1   
 43  20  44  1   
 44  21  24  1   
 45  22  25  ar  
 46  22  26  1   
 47  23  25  ar  
 48  23  45  1   
 49  26  46  1   
 50  26  47  1   
 51  26  48  1   
@<TRIPOS>SUBSTRUCTURE
  1 ****   6 GROUP 4 **** **** 0

# MOE 2024.06 (io_trps.svl 2023.06)
