@<TRIPOS>MOLECULE
NONAME
49 52 1 0 0 
SMALL
USER_CHARGES


@<TRIPOS>ATOM
  1 O        0.0920    -0.3430    -0.9590 O.2   1 <1>  -0.5700 
  2 C        0.9810    -0.7900    -0.2550 C.2   1 <1>   0.5440 
  3 N        1.8640     0.0490     0.3670 N.am  1 <1>  -0.4930 
  4 C        1.1170    -2.2230    -0.0740 C.ar  1 <1>   0.0860 
  5 C        2.1540     1.4170     0.1460 C.2   1 <1>   0.0630 
  6 C       -0.0010    -3.0590    -0.1140 C.ar  1 <1>  -0.1500 
  7 C        2.3600    -2.8260     0.1470 C.ar  1 <1>  -0.1500 
  8 C        3.4650     1.9030     0.1140 C.2   1 <1>   0.3720 
  9 C        1.3750     2.5030    -0.0520 C.2   1 <1>  -0.3320 
 10 C        0.0980    -4.4270     0.0690 C.ar  1 <1>  -0.1440 
 11 C        2.4740    -4.1900     0.3320 C.ar  1 <1>  -0.1500 
 12 N        3.5190     3.1780    -0.1100 N.2   1 <1>  -0.7070 
 13 N        4.6050     1.0910     0.2920 N.pl3 1 <1>  -0.8210 
 14 N        2.2230     3.5490    -0.2210 N.pl3 1 <1>   0.3140 
 15 C       -0.1420     2.6180    -0.0820 C.3   1 <1>  -0.0600 
 16 C        1.3490    -4.9950     0.2930 C.ar  1 <1>   0.0830 
 17 C       -1.1470    -5.2970     0.0260 C.3   1 <1>  -0.0170 
 18 C        5.3200     0.8890    -0.9970 C.3   1 <1>   0.2090 
 19 C        5.5720     1.6640     1.2700 C.3   1 <1>   0.2090 
 20 C        1.8630     4.9460    -0.4920 C.3   1 <1>   0.0160 
 21 O        1.5100    -6.3230     0.4840 O.3   1 <1>  -0.3630 
 22 C       -0.8750    -6.6450     0.6970 C.3   1 <1>  -0.1600 
 23 C        6.8030     0.9990    -0.6770 C.3   1 <1>  -0.1600 
 24 C        6.8450     1.9670     0.4930 C.3   1 <1>  -0.1600 
 25 C        0.4530    -7.2170     0.1950 C.3   1 <1>   0.1200 
 26 H        2.6490    -0.4020     0.8350 H     1 <1>   0.3700 
 27 H       -0.9640    -2.6130    -0.2940 H     1 <1>   0.1500 
 28 H        3.2530    -2.2260     0.1660 H     1 <1>   0.1500 
 29 H        3.4330    -4.6450     0.5040 H     1 <1>   0.1500 
 30 H       -0.5910     1.7350     0.3340 H     1 <1>   0.0800 
 31 H       -0.4820     2.7270    -1.0970 H     1 <1>   0.0800 
 32 H       -0.4710     3.4620     0.4970 H     1 <1>   0.0800 
 33 H       -1.4190    -5.4540    -1.0030 H     1 <1>   0.0800 
 34 H       -1.9640    -4.8030     0.5210 H     1 <1>   0.0800 
 35 H        5.0410     1.6570    -1.7010 H     1 <1>   0.0800 
 36 H        5.0790    -0.0740    -1.4130 H     1 <1>   0.0800 
 37 H        5.7700     0.9230     2.0260 H     1 <1>   0.0800 
 38 H        5.1890     2.5510     1.7480 H     1 <1>   0.0800 
 39 H        1.1850     4.9800    -1.3230 H     1 <1>   0.0800 
 40 H        2.7530     5.4990    -0.7280 H     1 <1>   0.0800 
 41 H        1.3990     5.3640     0.3810 H     1 <1>   0.0800 
 42 H       -1.6750    -7.3300     0.4800 H     1 <1>   0.0800 
 43 H       -0.8200    -6.5200     1.7650 H     1 <1>   0.0800 
 44 H        7.3680     1.3480    -1.5220 H     1 <1>   0.0800 
 45 H        7.1700     0.0340    -0.3740 H     1 <1>   0.0800 
 46 H        7.7250     1.8510     1.0990 H     1 <1>   0.0800 
 47 H        6.7920     2.9800     0.1320 H     1 <1>   0.0800 
 48 H        0.6760    -8.1530     0.6760 H     1 <1>   0.0800 
 49 H        0.4290    -7.3630    -0.8710 H     1 <1>   0.0800 
@<TRIPOS>BOND
  1   1   2  2   
  2   2   3  am  
  3   2   4  1   
  4   3   5  1   
  5   3  26  1   
  6   4   6  ar  
  7   4   7  ar  
  8   5   8  1   
  9   5   9  2   
 10   6  10  ar  
 11   6  27  1   
 12   7  11  ar  
 13   7  28  1   
 14   8  12  2   
 15   8  13  1   
 16   9  14  1   
 17   9  15  1   
 18  10  16  ar  
 19  10  17  1   
 20  11  16  ar  
 21  11  29  1   
 22  12  14  1   
 23  13  18  1   
 24  13  19  1   
 25  14  20  1   
 26  15  30  1   
 27  15  31  1   
 28  15  32  1   
 29  16  21  1   
 30  17  22  1   
 31  17  33  1   
 32  17  34  1   
 33  18  23  1   
 34  18  35  1   
 35  18  36  1   
 36  19  24  1   
 37  19  37  1   
 38  19  38  1   
 39  20  39  1   
 40  20  40  1   
 41  20  41  1   
 42  21  25  1   
 43  22  25  1   
 44  22  42  1   
 45  22  43  1   
 46  23  24  1   
 47  23  44  1   
 48  23  45  1   
 49  24  46  1   
 50  24  47  1   
 51  25  48  1   
 52  25  49  1   
@<TRIPOS>SUBSTRUCTURE
  1 ****   3 GROUP 4 **** **** 0

# MOE 2024.06 (io_trps.svl 2023.06)
