@<TRIPOS>MOLECULE
NONAME
49 52 1 0 0 
SMALL
USER_CHARGES


@<TRIPOS>ATOM
  1 O       -1.1920     0.7790    -1.4550 O.2   1 <1>  -0.5700 
  2 C       -0.8020     1.7400    -0.8320 C.2   1 <1>   0.5690 
  3 N       -1.6000     2.8210    -0.5550 N.am  1 <1>  -0.5090 
  4 C        0.6610     1.7370    -0.3800 C.3   1 <1>   0.1810 
  5 C       -1.0410     4.0530     0.0870 C.3   1 <1>   0.3640 
  6 C       -3.0570     2.8310    -0.8330 C.3   1 <1>   0.0490 
  7 O        0.9670     2.7490     0.5500 O.3   1 <1>  -0.5600 
  8 C       -1.4820     5.3030    -0.6760 C.ar  1 <1>  -0.1440 
  9 C        0.5030     4.0280     0.1710 C.3   1 <1>   0.2610 
 10 C       -4.0070     3.0740     0.2990 C.3   1 <1>  -0.2000 
 11 C       -3.9140     1.7170    -0.3190 C.3   1 <1>  -0.2000 
 12 C       -2.0190     6.3790     0.0190 C.ar  1 <1>   0.1600 
 13 C       -1.3490     5.4030    -2.0490 C.ar  1 <1>  -0.1500 
 14 C        1.0220     5.1220     1.1180 C.2   1 <1>   0.5690 
 15 N       -2.4200     7.5150    -0.5310 N.ar  1 <1>  -0.6200 
 16 C       -1.7620     6.5790    -2.6370 C.ar  1 <1>  -0.1500 
 17 O        0.2960     5.5160     2.0060 O.2   1 <1>  -0.5700 
 18 N        2.2580     5.6850     0.9210 N.am  1 <1>  -0.6600 
 19 C       -2.2830     7.5870    -1.8440 C.ar  1 <1>   0.1600 
 20 C        2.5690     7.0220     1.5110 C.3   1 <1>   0.2840 
 21 C        3.2820     5.1820    -0.0360 C.3   1 <1>   0.0600 
 22 C        2.2240     8.1240     0.5150 C.ar  1 <1>   0.1670 
 23 N        3.2110     8.5960    -0.2380 N.ar  1 <1>  -0.6200 
 24 C        0.9110     8.5640     0.4340 C.ar  1 <1>  -0.1500 
 25 C        2.8700     9.5430    -1.0980 C.ar  1 <1>   0.1600 
 26 C        0.5710     9.5460    -0.4700 C.ar  1 <1>  -0.1500 
 27 C        1.5890    10.0450    -1.2530 C.ar  1 <1>  -0.1500 
 28 H        1.2990     1.8590    -1.2360 H     1 <1>   0.0800 
 29 H        0.8850     0.7930     0.0830 H     1 <1>   0.0800 
 30 H       -1.4340     4.0930     1.0870 H     1 <1>   0.0800 
 31 H       -3.2920     3.2440    -1.8010 H     1 <1>   0.1000 
 32 H        0.8940     4.2350    -0.8070 H     1 <1>   0.0800 
 33 H       -3.6360     3.1910     1.3020 H     1 <1>   0.1000 
 34 H       -4.8920     3.6570     0.1140 H     1 <1>   0.1000 
 35 H       -4.7270     1.3720    -0.9330 H     1 <1>   0.1000 
 36 H       -3.4420     0.9180     0.2270 H     1 <1>   0.1000 
 37 H       -2.1200     6.3070     1.0900 H     1 <1>   0.1500 
 38 H       -0.9460     4.6010    -2.6430 H     1 <1>   0.1500 
 39 H       -1.6850     6.7160    -3.7000 H     1 <1>   0.1500 
 40 H       -2.6040     8.5000    -2.3160 H     1 <1>   0.1500 
 41 H        2.0090     7.1710     2.4170 H     1 <1>   0.0800 
 42 H        3.6130     7.0760     1.7630 H     1 <1>   0.0800 
 43 H        4.2660     5.3230     0.3770 H     1 <1>   0.0800 
 44 H        3.2150     5.7320    -0.9600 H     1 <1>   0.0800 
 45 H        3.1470     4.1330    -0.2290 H     1 <1>   0.0800 
 46 H        0.1540     8.1360     1.0670 H     1 <1>   0.1500 
 47 H        3.6560     9.9430    -1.7160 H     1 <1>   0.1500 
 48 H       -0.4430     9.8980    -0.5530 H     1 <1>   0.1500 
 49 H        1.3930    10.8140    -1.9770 H     1 <1>   0.1500 
@<TRIPOS>BOND
  1   1   2  2   
  2   2   3  am  
  3   2   4  1   
  4   3   5  1   
  5   3   6  1   
  6   4   7  1   
  7   4  28  1   
  8   4  29  1   
  9   5   8  1   
 10   5   9  1   
 11   5  30  1   
 12   6  10  1   
 13   6  11  1   
 14   6  31  1   
 15   7   9  1   
 16   8  12  ar  
 17   8  13  ar  
 18   9  14  1   
 19   9  32  1   
 20  10  11  1   
 21  10  33  1   
 22  10  34  1   
 23  11  35  1   
 24  11  36  1   
 25  12  15  ar  
 26  12  37  1   
 27  13  16  ar  
 28  13  38  1   
 29  14  17  2   
 30  14  18  am  
 31  15  19  ar  
 32  16  19  ar  
 33  16  39  1   
 34  18  20  1   
 35  18  21  1   
 36  19  40  1   
 37  20  22  1   
 38  20  41  1   
 39  20  42  1   
 40  21  43  1   
 41  21  44  1   
 42  21  45  1   
 43  22  23  ar  
 44  22  24  ar  
 45  23  25  ar  
 46  24  26  ar  
 47  24  46  1   
 48  25  27  ar  
 49  25  47  1   
 50  26  27  ar  
 51  26  48  1   
 52  27  49  1   
@<TRIPOS>SUBSTRUCTURE
  1 ****   8 GROUP 4 **** **** 0

# MOE 2024.06 (io_trps.svl 2023.06)
