@<TRIPOS>MOLECULE
NONAME
51 53 1 0 0 
SMALL
USER_CHARGES


@<TRIPOS>ATOM
  1 O       -1.4140     0.2510     2.3150 O.2   1 <1>  -0.5700 
  2 C       -2.1050     1.0850     1.7540 C.2   1 <1>   0.5440 
  3 N       -3.4180     0.7710     1.4750 N.am  1 <1>  -0.6600 
  4 C       -1.5380     2.3640     1.3960 C.ar  1 <1>   0.0860 
  5 C       -3.9880    -0.5610     1.8220 C.3   1 <1>   0.1400 
  6 C       -4.2370     1.5080     0.4690 C.3   1 <1>   0.1400 
  7 C       -0.9310     2.5810     0.1540 C.ar  1 <1>   0.0830 
  8 C       -1.6010     3.4330     2.2880 C.ar  1 <1>  -0.1500 
  9 C       -3.9760    -1.4210     0.5400 C.3   1 <1>   0.4230 
 10 C       -4.3400     0.6590    -0.8100 C.3   1 <1>  -0.1600 
 11 O       -0.8380     1.5670    -0.7320 O.3   1 <1>  -0.3630 
 12 C       -0.4380     3.8350    -0.1970 C.ar  1 <1>  -0.1430 
 13 C       -1.0970     4.6740     1.9540 C.ar  1 <1>  -0.1500 
 14 N       -4.3580    -2.8610     0.7310 N.4   1 <1>  -0.9590 
 15 C       -4.8770    -0.7790    -0.5420 C.3   1 <1>  -0.1060 
 16 C        0.2730     0.7090    -0.5930 C.3   1 <1>   0.0400 
 17 C       -0.5200     4.8760     0.7120 C.ar  1 <1>  -0.1500 
 18 C        0.1880     4.0800    -1.5640 C.3   1 <1>  -0.0970 
 19 C       -4.2450    -3.6880    -0.5070 C.3   1 <1>   0.3430 
 20 C       -3.7800    -3.5270     1.9280 C.3   1 <1>   0.2630 
 21 C       -6.3170    -0.7470     0.0050 C.2   1 <1>   0.9060 
 22 C       -4.8420    -1.6060    -1.8610 C.3   1 <1>  -0.1600 
 23 C       -3.9440    -2.8510    -1.7590 C.3   1 <1>  -0.1600 
 24 O       -6.7380    -1.7480     0.6080 O.co2 1 <1>  -0.9000 
 25 O       -7.0150     0.2530    -0.1460 O.co2 1 <1>  -0.9000 
 26 H       -3.3940    -1.0160     2.5920 H     1 <1>   0.0800 
 27 H       -4.9890    -0.4340     2.1980 H     1 <1>   0.0800 
 28 H       -5.2190     1.6910     0.8750 H     1 <1>   0.0800 
 29 H       -3.8010     2.4630     0.2360 H     1 <1>   0.0800 
 30 H       -2.0550     3.2780     3.2510 H     1 <1>   0.1500 
 31 H       -2.9610    -1.3990     0.1820 H     1 <1>   0.0800 
 32 H       -4.9960     1.1640    -1.5000 H     1 <1>   0.0800 
 33 H       -3.3670     0.6140    -1.2670 H     1 <1>   0.0800 
 34 H       -1.1530     5.4880     2.6570 H     1 <1>   0.1500 
 35 H       -5.3980    -2.7500     0.8780 H     1 <1>   0.4500 
 36 H        0.2430    -0.0150    -1.3870 H     1 <1>   0.0800 
 37 H        0.2210     0.2130     0.3600 H     1 <1>   0.0800 
 38 H        1.1740     1.2920    -0.6580 H     1 <1>   0.0800 
 39 H       -0.1360     5.8500     0.4620 H     1 <1>   0.1500 
 40 H        0.3120     5.1310    -1.7500 H     1 <1>   0.0800 
 41 H       -0.4420     3.6720    -2.3350 H     1 <1>   0.0800 
 42 H        1.1510     3.6050    -1.6150 H     1 <1>   0.0800 
 43 H       -3.4690    -4.4250    -0.3870 H     1 <1>   0.0800 
 44 H       -5.1780    -4.2080    -0.6540 H     1 <1>   0.0800 
 45 H       -2.7040    -3.5480     1.8590 H     1 <1>   0.0800 
 46 H       -4.1480    -4.5370     2.0030 H     1 <1>   0.0800 
 47 H       -4.0630    -2.9960     2.8220 H     1 <1>   0.0800 
 48 H       -5.8430    -1.9250    -2.1030 H     1 <1>   0.0800 
 49 H       -4.5100    -0.9980    -2.6860 H     1 <1>   0.0800 
 50 H       -2.9110    -2.5530    -1.7450 H     1 <1>   0.0800 
 51 H       -4.0840    -3.4640    -2.6320 H     1 <1>   0.0800 
@<TRIPOS>BOND
  1   1   2  2   
  2   2   3  am  
  3   2   4  1   
  4   3   5  1   
  5   3   6  1   
  6   4   7  ar  
  7   4   8  ar  
  8   5   9  1   
  9   5  26  1   
 10   5  27  1   
 11   6  10  1   
 12   6  28  1   
 13   6  29  1   
 14   7  11  1   
 15   7  12  ar  
 16   8  13  ar  
 17   8  30  1   
 18   9  14  1   
 19   9  15  1   
 20   9  31  1   
 21  10  15  1   
 22  10  32  1   
 23  10  33  1   
 24  11  16  1   
 25  12  17  ar  
 26  12  18  1   
 27  13  17  ar  
 28  13  34  1   
 29  14  19  1   
 30  14  20  1   
 31  14  35  1   
 32  15  21  1   
 33  15  22  1   
 34  16  36  1   
 35  16  37  1   
 36  16  38  1   
 37  17  39  1   
 38  18  40  1   
 39  18  41  1   
 40  18  42  1   
 41  19  23  1   
 42  19  43  1   
 43  19  44  1   
 44  20  45  1   
 45  20  46  1   
 46  20  47  1   
 47  21  24  ar  
 48  21  25  ar  
 49  22  23  1   
 50  22  48  1   
 51  22  49  1   
 52  23  50  1   
 53  23  51  1   
@<TRIPOS>SUBSTRUCTURE
  1 ****   3 GROUP 4 **** **** 0

# MOE 2024.06 (io_trps.svl 2023.06)
