@<TRIPOS>MOLECULE
NONAME
50 52 1 0 0 
SMALL
USER_CHARGES


@<TRIPOS>ATOM
  1 O       -2.8380     1.1940    -1.9680 O.2   1 <1>  -0.5700 
  2 C       -2.3330     1.0500    -0.8830 C.2   1 <1>   0.5690 
  3 N       -2.0290    -0.1730    -0.3910 N.am  1 <1>  -0.7300 
  4 C       -2.0340     2.2770    -0.0500 C.3   1 <1>  -0.0990 
  5 C       -2.2250    -1.4500    -1.1190 C.3   1 <1>   0.2200 
  6 C       -0.8970     3.0990    -0.6730 C.3   1 <1>  -0.0220 
  7 C       -3.4210    -2.2220    -0.5760 C.3   1 <1>  -0.0800 
  8 C       -1.0940    -2.3990    -0.7530 C.3   1 <1>   0.1200 
  9 C       -0.6750     4.4040     0.1000 C.2   1 <1>  -0.1240 
 10 C       -2.8300    -2.9840     0.6170 C.3   1 <1>   0.1200 
 11 C       -4.6690    -1.3840    -0.2400 C.3   1 <1>  -0.0160 
 12 O       -1.4390    -2.8950     0.5040 O.3   1 <1>  -0.5600 
 13 C       -1.3880     5.5300    -0.1850 C.2   1 <1>  -0.0290 
 14 C        0.2940     4.4740     1.1520 C.2   1 <1>   0.3750 
 15 C       -5.8230    -2.2780     0.1830 C.ar  1 <1>  -0.1440 
 16 N       -1.1080     6.6440     0.5480 N.am  1 <1>  -0.5390 
 17 C       -2.4790     5.7050    -1.2330 C.3   1 <1>  -0.1020 
 18 N        0.5340     5.5380     1.8310 N.2   1 <1>  -0.6610 
 19 C        1.1190     3.2570     1.5320 C.3   1 <1>  -0.1790 
 20 C       -6.6220    -2.9160    -0.7440 C.ar  1 <1>  -0.1500 
 21 C       -6.1340    -2.5010     1.5100 C.ar  1 <1>  -0.1500 
 22 C       -0.1730     6.6650     1.5330 C.2   1 <1>   0.8410 
 23 C       -7.6590    -3.7270    -0.3130 C.ar  1 <1>   0.1600 
 24 C       -7.1930    -3.3320     1.8350 C.ar  1 <1>   0.1600 
 25 O        0.0150     7.7010     2.1380 O.2   1 <1>  -0.5700 
 26 N       -7.9620    -3.9520     0.9550 N.ar  1 <1>  -0.6200 
 27 H       -1.6360    -0.2940     0.5450 H     1 <1>   0.3700 
 28 H       -2.9270     2.8720    -0.0040 H     1 <1>   0.0800 
 29 H       -1.7780     1.9870     0.9520 H     1 <1>   0.0800 
 30 H       -2.2890    -1.2770    -2.1810 H     1 <1>   0.0800 
 31 H       -1.1380     3.3220    -1.6970 H     1 <1>   0.0800 
 32 H        0.0000     2.5090    -0.7120 H     1 <1>   0.0800 
 33 H       -3.7000    -2.9520    -1.3150 H     1 <1>   0.0800 
 34 H       -0.1360    -1.9130    -0.7040 H     1 <1>   0.0800 
 35 H       -1.0520    -3.2290    -1.4370 H     1 <1>   0.0800 
 36 H       -3.1170    -4.0220     0.6060 H     1 <1>   0.0800 
 37 H       -3.1100    -2.5400     1.5560 H     1 <1>   0.0800 
 38 H       -4.9580    -0.8130    -1.1060 H     1 <1>   0.0800 
 39 H       -4.4530    -0.6860     0.5490 H     1 <1>   0.0800 
 40 H       -1.5750     7.5380     0.4100 H     1 <1>   0.3700 
 41 H       -3.3470     6.1510    -0.7820 H     1 <1>   0.0800 
 42 H       -2.7830     4.7750    -1.6730 H     1 <1>   0.0800 
 43 H       -2.1280     6.3530    -2.0160 H     1 <1>   0.0800 
 44 H        0.4810     2.4240     1.7580 H     1 <1>   0.0800 
 45 H        1.7130     3.4680     2.4030 H     1 <1>   0.0800 
 46 H        1.7850     2.9990     0.7290 H     1 <1>   0.0800 
 47 H       -6.4490    -2.7900    -1.7970 H     1 <1>   0.1500 
 48 H       -5.5650    -2.0380     2.2940 H     1 <1>   0.1500 
 49 H       -8.2710    -4.2160    -1.0510 H     1 <1>   0.1500 
 50 H       -7.4210    -3.4940     2.8740 H     1 <1>   0.1500 
@<TRIPOS>BOND
  1   1   2  2   
  2   2   3  am  
  3   2   4  1   
  4   3   5  1   
  5   3  27  1   
  6   4   6  1   
  7   4  28  1   
  8   4  29  1   
  9   5   7  1   
 10   5   8  1   
 11   5  30  1   
 12   6   9  1   
 13   6  31  1   
 14   6  32  1   
 15   7  10  1   
 16   7  11  1   
 17   7  33  1   
 18   8  12  1   
 19   8  34  1   
 20   8  35  1   
 21   9  13  2   
 22   9  14  1   
 23  10  12  1   
 24  10  36  1   
 25  10  37  1   
 26  11  15  1   
 27  11  38  1   
 28  11  39  1   
 29  13  16  1   
 30  13  17  1   
 31  14  18  2   
 32  14  19  1   
 33  15  20  ar  
 34  15  21  ar  
 35  16  22  am  
 36  16  40  1   
 37  17  41  1   
 38  17  42  1   
 39  17  43  1   
 40  18  22  1   
 41  19  44  1   
 42  19  45  1   
 43  19  46  1   
 44  20  23  ar  
 45  20  47  1   
 46  21  24  ar  
 47  21  48  1   
 48  22  25  2   
 49  23  26  ar  
 50  23  49  1   
 51  24  26  ar  
 52  24  50  1   
@<TRIPOS>SUBSTRUCTURE
  1 ****   2 GROUP 4 **** **** 0

# MOE 2024.06 (io_trps.svl 2023.06)
