@<TRIPOS>MOLECULE
NONAME
45 47 1 0 0 
SMALL
USER_CHARGES


@<TRIPOS>ATOM
  1 CL      -0.7020    -0.8090    -2.6380 Cl    1 <1>  -0.1770 
  2 C       -0.6120    -2.1270    -1.4980 C.ar  1 <1>   0.1770 
  3 C       -1.6730    -3.0040    -1.3960 C.ar  1 <1>  -0.1500 
  4 C        0.5200    -2.2680    -0.7180 C.ar  1 <1>  -0.1500 
  5 C       -1.6190    -4.0590    -0.4940 C.ar  1 <1>   0.1170 
  6 C        0.5830    -3.3140     0.1860 C.ar  1 <1>  -0.1500 
  7 N       -2.7170    -4.9250    -0.4040 N.am  1 <1>  -0.5470 
  8 C       -0.4780    -4.1970     0.2950 C.ar  1 <1>  -0.1500 
  9 C       -2.8260    -6.2120     0.0390 C.2   1 <1>   0.6900 
 10 O       -1.8490    -6.8640     0.3560 O.2   1 <1>  -0.5700 
 11 N       -4.0710    -6.7710     0.0960 N.am  1 <1>  -0.6600 
 12 C       -5.3590    -6.0470     0.0210 C.3   1 <1>   0.1400 
 13 C       -4.2820    -8.1910     0.4450 C.3   1 <1>   0.1400 
 14 C       -6.3890    -6.9860     0.6670 C.3   1 <1>  -0.0800 
 15 C       -5.8000    -8.3950     0.4640 C.3   1 <1>  -0.0800 
 16 C       -7.8670    -6.8130     0.1980 C.3   1 <1>   0.2800 
 17 C       -6.3260    -9.0250    -0.8360 C.3   1 <1>  -0.1600 
 18 O       -7.9070    -6.2850    -1.0790 O.3   1 <1>  -0.6800 
 19 C       -8.5650    -8.1840     0.1250 C.3   1 <1>  -0.1600 
 20 C       -8.6730    -5.8580     1.1050 C.3   1 <1>  -0.1600 
 21 C       -7.8570    -9.1910    -0.8070 C.3   1 <1>  -0.1600 
 22 C       -8.1360    -4.4190     1.2010 C.3   1 <1>  -0.2400 
 23 H       -2.5340    -2.8630    -2.0220 H     1 <1>   0.1500 
 24 H        1.3330    -1.5710    -0.8180 H     1 <1>   0.1500 
 25 H        1.4550    -3.4440     0.8050 H     1 <1>   0.1500 
 26 H       -3.5750    -4.6010    -0.8350 H     1 <1>   0.3700 
 27 H       -0.4170    -5.0030     1.0050 H     1 <1>   0.1500 
 28 H       -5.3060    -5.1090     0.5440 H     1 <1>   0.0800 
 29 H       -5.5770    -5.8700    -1.0170 H     1 <1>   0.0800 
 30 H       -3.7960    -8.8300    -0.2720 H     1 <1>   0.0800 
 31 H       -3.8660    -8.3740     1.4210 H     1 <1>   0.0800 
 32 H       -6.3550    -6.8050     1.7270 H     1 <1>   0.0800 
 33 H       -6.0600    -9.0390     1.2860 H     1 <1>   0.0800 
 34 H       -6.0590    -8.3870    -1.6610 H     1 <1>   0.0800 
 35 H       -5.8620    -9.9820    -1.0030 H     1 <1>   0.0800 
 36 H       -8.8280    -6.2850    -1.3960 H     1 <1>   0.4000 
 37 H       -8.5800    -8.6000     1.1170 H     1 <1>   0.0800 
 38 H       -9.5910    -8.0720    -0.1780 H     1 <1>   0.0800 
 39 H       -9.6900    -5.8200     0.7540 H     1 <1>   0.0800 
 40 H       -8.7050    -6.2720     2.0980 H     1 <1>   0.0800 
 41 H       -8.1050   -10.1880    -0.4880 H     1 <1>   0.0800 
 42 H       -8.2280    -9.0730    -1.8110 H     1 <1>   0.0800 
 43 H       -8.0430    -3.9800     0.2230 H     1 <1>   0.0800 
 44 H       -7.1780    -4.3980     1.6870 H     1 <1>   0.0800 
 45 H       -8.8140    -3.8160     1.7790 H     1 <1>   0.0800 
@<TRIPOS>BOND
  1   1   2  1   
  2   2   3  ar  
  3   2   4  ar  
  4   3   5  ar  
  5   3  23  1   
  6   4   6  ar  
  7   4  24  1   
  8   5   7  1   
  9   5   8  ar  
 10   6   8  ar  
 11   6  25  1   
 12   7   9  am  
 13   7  26  1   
 14   8  27  1   
 15   9  10  2   
 16   9  11  am  
 17  11  12  1   
 18  11  13  1   
 19  12  14  1   
 20  12  28  1   
 21  12  29  1   
 22  13  15  1   
 23  13  30  1   
 24  13  31  1   
 25  14  15  1   
 26  14  16  1   
 27  14  32  1   
 28  15  17  1   
 29  15  33  1   
 30  16  18  1   
 31  16  19  1   
 32  16  20  1   
 33  17  21  1   
 34  17  34  1   
 35  17  35  1   
 36  18  36  1   
 37  19  21  1   
 38  19  37  1   
 39  19  38  1   
 40  20  22  1   
 41  20  39  1   
 42  20  40  1   
 43  21  41  1   
 44  21  42  1   
 45  22  43  1   
 46  22  44  1   
 47  22  45  1   
@<TRIPOS>SUBSTRUCTURE
  1 ****  11 GROUP 4 **** **** 0

# MOE 2024.06 (io_trps.svl 2023.06)
