@<TRIPOS>MOLECULE
NONAME
50 52 1 0 0 
SMALL
USER_CHARGES


@<TRIPOS>ATOM
  1 O        1.9310    -0.6390     2.3260 O.2   1 <1>  -0.5700 
  2 C        1.9070    -0.9970     1.1700 C.2   1 <1>   0.5690 
  3 N        1.8370    -0.0890     0.1570 N.am  1 <1>  -0.7300 
  4 C        1.9520    -2.5070     0.8040 C.3   1 <1>   0.2510 
  5 C        1.7360     1.3690     0.3270 C.3   1 <1>   0.2200 
  6 N        0.6320    -3.2120     0.7470 N.3   1 <1>  -0.8100 
  7 C        2.8530    -3.2790     1.7810 C.3   1 <1>  -0.2400 
  8 C        0.3790     1.8260    -0.1900 C.3   1 <1>  -0.1600 
  9 C        2.7180     2.0400    -0.6260 C.3   1 <1>  -0.1600 
 10 C        0.6520    -4.3690    -0.1640 C.3   1 <1>   0.2900 
 11 C       -0.5070    -2.3220     0.4410 C.3   1 <1>   0.0300 
 12 C        0.5210     1.9110    -1.7140 C.3   1 <1>  -0.1600 
 13 C        2.0220     2.0700    -1.9930 C.3   1 <1>  -0.1600 
 14 C       -0.4760    -5.3050     0.2070 C.2   1 <1>  -0.3320 
 15 N       -0.8500    -5.4860     1.4840 N.pl3 1 <1>   0.3000 
 16 C       -1.2840    -6.0830    -0.5410 C.2   1 <1>  -0.1500 
 17 N       -1.8680    -6.3570     1.5910 N.2   1 <1>  -0.7070 
 18 C       -2.1360    -6.7300     0.3630 C.2   1 <1>   0.2350 
 19 C       -3.1800    -7.6750     0.0090 C.ar  1 <1>   0.0540 
 20 C       -3.1510    -8.3960    -1.1870 C.ar  1 <1>  -0.1500 
 21 C       -4.2600    -7.8990     0.8620 C.ar  1 <1>  -0.1500 
 22 C       -4.1570    -9.2860    -1.5180 C.ar  1 <1>  -0.1500 
 23 C       -5.2690    -8.7890     0.5390 C.ar  1 <1>  -0.1500 
 24 C       -5.2200    -9.4840    -0.6550 C.ar  1 <1>  -0.1500 
 25 H        1.7720    -0.3970    -0.8110 H     1 <1>   0.3700 
 26 H        2.4050    -2.5600    -0.1700 H     1 <1>   0.0800 
 27 H        1.9020     1.6500     1.3550 H     1 <1>   0.0800 
 28 H        2.4050    -3.2860     2.7590 H     1 <1>   0.0800 
 29 H        3.8070    -2.7900     1.8550 H     1 <1>   0.0800 
 30 H        3.0180    -4.2890     1.4580 H     1 <1>   0.0800 
 31 H        0.1830     2.8110     0.1980 H     1 <1>   0.0800 
 32 H       -0.4170     1.1730     0.1210 H     1 <1>   0.0800 
 33 H        3.6700     1.5390    -0.6510 H     1 <1>   0.0800 
 34 H        2.8730     3.0510    -0.2920 H     1 <1>   0.0800 
 35 H        1.5780    -4.9080    -0.0640 H     1 <1>   0.0800 
 36 H        0.5570    -4.0480    -1.1880 H     1 <1>   0.0800 
 37 H       -0.6110    -1.5740     1.2100 H     1 <1>   0.0800 
 38 H       -1.4270    -2.8830     0.4110 H     1 <1>   0.0800 
 39 H       -0.3680    -1.8380    -0.5090 H     1 <1>   0.0800 
 40 H       -0.0420     2.7400    -2.1070 H     1 <1>   0.0800 
 41 H        0.1620     1.0030    -2.1660 H     1 <1>   0.0800 
 42 H        2.3690     1.2530    -2.6020 H     1 <1>   0.0800 
 43 H        2.2300     2.9940    -2.5040 H     1 <1>   0.0800 
 44 H       -0.4350    -4.9820     2.2800 H     1 <1>   0.2700 
 45 H       -1.2970    -6.2000    -1.6080 H     1 <1>   0.1500 
 46 H       -2.3300    -8.2650    -1.8660 H     1 <1>   0.1500 
 47 H       -4.3010    -7.3630     1.7940 H     1 <1>   0.1500 
 48 H       -4.1120    -9.8280    -2.4460 H     1 <1>   0.1500 
 49 H       -6.0900    -8.9390     1.2180 H     1 <1>   0.1500 
 50 H       -6.0030   -10.1770    -0.9100 H     1 <1>   0.1500 
@<TRIPOS>BOND
  1   1   2  2   
  2   2   3  am  
  3   2   4  1   
  4   3   5  1   
  5   3  25  1   
  6   4   6  1   
  7   4   7  1   
  8   4  26  1   
  9   5   8  1   
 10   5   9  1   
 11   5  27  1   
 12   6  10  1   
 13   6  11  1   
 14   7  28  1   
 15   7  29  1   
 16   7  30  1   
 17   8  12  1   
 18   8  31  1   
 19   8  32  1   
 20   9  13  1   
 21   9  33  1   
 22   9  34  1   
 23  10  14  1   
 24  10  35  1   
 25  10  36  1   
 26  11  37  1   
 27  11  38  1   
 28  11  39  1   
 29  12  13  1   
 30  12  40  1   
 31  12  41  1   
 32  13  42  1   
 33  13  43  1   
 34  14  15  1   
 35  14  16  2   
 36  15  17  1   
 37  15  44  1   
 38  16  18  1   
 39  16  45  1   
 40  17  18  2   
 41  18  19  1   
 42  19  20  ar  
 43  19  21  ar  
 44  20  22  ar  
 45  20  46  1   
 46  21  23  ar  
 47  21  47  1   
 48  22  24  ar  
 49  22  48  1   
 50  23  24  ar  
 51  23  49  1   
 52  24  50  1   
@<TRIPOS>SUBSTRUCTURE
  1 ****  10 GROUP 4 **** **** 0

# MOE 2024.06 (io_trps.svl 2023.06)
