@<TRIPOS>MOLECULE
NONAME
38 40 1 0 0 
SMALL
USER_CHARGES


@<TRIPOS>ATOM
  1 O       -0.4360     0.3290    -0.0290 O.2   1 <1>  -0.5700 
  2 C       -1.4850     0.9300     0.0910 C.2   1 <1>   0.7150 
  3 N       -2.6580     0.2160     0.1830 N.am  1 <1>  -0.6600 
  4 C       -1.4880     2.3660     0.1410 C.2   1 <1>  -0.2370 
  5 C       -3.9840     0.7540    -0.2220 C.3   1 <1>   0.1400 
  6 C       -2.6810    -1.2720     0.1050 C.3   1 <1>   0.1400 
  7 N       -2.1970     3.0870     1.0620 N.pl3 1 <1>   0.0330 
  8 C       -0.8100     3.2620    -0.6450 C.2   1 <1>  -0.1500 
  9 C       -4.9450    -0.4180    -0.0380 C.3   1 <1>   0.2000 
 10 C       -4.0860    -1.6340    -0.3890 C.3   1 <1>  -0.0800 
 11 C       -1.9800     4.4050     0.8400 C.2   1 <1>  -0.3020 
 12 C       -1.1260     4.5460    -0.2080 C.2   1 <1>  -0.1500 
 13 O       -5.3000    -0.4690     1.3020 O.3   1 <1>  -0.6800 
 14 C       -4.6020    -2.9880     0.1340 C.3   1 <1>   0.0210 
 15 C       -3.6590    -4.1100    -0.2520 C.2   1 <1>   0.1080 
 16 N       -3.3620    -4.3880    -1.4830 N.2   1 <1>  -0.7070 
 17 C       -3.0060    -4.9470     0.6480 C.2   1 <1>  -0.1500 
 18 N       -2.5010    -5.4200    -1.4020 N.pl3 1 <1>   0.3000 
 19 C       -2.2690    -5.7760    -0.1210 C.2   1 <1>  -0.3320 
 20 C       -1.3430    -6.9030     0.2960 C.3   1 <1>  -0.0600 
 21 H       -4.2850     1.6000     0.3700 H     1 <1>   0.0800 
 22 H       -3.9440     1.0370    -1.2600 H     1 <1>   0.0800 
 23 H       -1.9300    -1.6410    -0.5740 H     1 <1>   0.0800 
 24 H       -2.4980    -1.6780     1.0850 H     1 <1>   0.0800 
 25 H       -2.7760     2.6800     1.8040 H     1 <1>   0.2700 
 26 H       -0.1440     3.0240    -1.4580 H     1 <1>   0.1500 
 27 H       -5.8390    -0.3350    -0.6320 H     1 <1>   0.0800 
 28 H       -4.0340    -1.6970    -1.4620 H     1 <1>   0.0800 
 29 H       -2.4330     5.1780     1.4370 H     1 <1>   0.1500 
 30 H       -0.7490     5.4610    -0.6340 H     1 <1>   0.1500 
 31 H       -4.4820    -0.4670     1.8390 H     1 <1>   0.4000 
 32 H       -5.5690    -3.1910    -0.2880 H     1 <1>   0.0800 
 33 H       -4.7030    -2.9700     1.2040 H     1 <1>   0.0800 
 34 H       -3.0880    -4.9160     1.7190 H     1 <1>   0.1500 
 35 H       -2.0910    -5.8560    -2.2360 H     1 <1>   0.2700 
 36 H       -1.3260    -6.9910     1.3680 H     1 <1>   0.0800 
 37 H       -0.3420    -6.7090    -0.0470 H     1 <1>   0.0800 
 38 H       -1.6820    -7.8360    -0.1190 H     1 <1>   0.0800 
@<TRIPOS>BOND
  1   1   2  2   
  2   2   3  am  
  3   2   4  1   
  4   3   5  1   
  5   3   6  1   
  6   4   7  1   
  7   4   8  2   
  8   5   9  1   
  9   5  21  1   
 10   5  22  1   
 11   6  10  1   
 12   6  23  1   
 13   6  24  1   
 14   7  11  1   
 15   7  25  1   
 16   8  12  1   
 17   8  26  1   
 18   9  10  1   
 19   9  13  1   
 20   9  27  1   
 21  10  14  1   
 22  10  28  1   
 23  11  12  2   
 24  11  29  1   
 25  12  30  1   
 26  13  31  1   
 27  14  15  1   
 28  14  32  1   
 29  14  33  1   
 30  15  16  2   
 31  15  17  1   
 32  16  18  1   
 33  17  19  2   
 34  17  34  1   
 35  18  19  1   
 36  18  35  1   
 37  19  20  1   
 38  20  36  1   
 39  20  37  1   
 40  20  38  1   
@<TRIPOS>SUBSTRUCTURE
  1 ****   6 GROUP 4 **** **** 0

# MOE 2024.06 (io_trps.svl 2023.06)
