@<TRIPOS>MOLECULE
NONAME
59 61 1 0 0 
SMALL
USER_CHARGES


@<TRIPOS>ATOM
  1 O       -0.4120     0.5730    -1.3320 O.2   1 <1>  -0.5700 
  2 C       -1.4140     0.9470    -0.7450 C.2   1 <1>   0.5440 
  3 N       -2.5060     0.0930    -0.7520 N.am  1 <1>  -0.6600 
  4 C       -1.4080     2.2580    -0.0900 C.ar  1 <1>   0.3960 
  5 C       -2.2820    -1.3820    -0.9250 C.3   1 <1>   0.1400 
  6 C       -3.9090     0.5670    -0.6010 C.3   1 <1>   0.1400 
  7 N       -2.0810     2.4610     1.0400 N.ar  1 <1>  -0.6200 
  8 C       -0.6790     3.2950    -0.6470 C.ar  1 <1>  -0.1500 
  9 C       -3.4250    -2.2800    -0.3650 C.3   1 <1>   0.0000 
 10 C       -4.6340    -0.1710     0.5350 C.3   1 <1>  -0.1600 
 11 C       -2.0170     3.6750     1.5370 C.ar  1 <1>   0.7200 
 12 C       -0.6800     4.5180    -0.0240 C.ar  1 <1>   0.1660 
 13 C       -4.0630    -1.5630     0.8610 C.3   1 <1>   0.2000 
 14 C       -4.5510    -2.4830    -1.4200 C.3   1 <1>   0.1200 
 15 C       -2.9190    -3.7110     0.0200 C.3   1 <1>  -0.0170 
 16 N       -1.3580     4.7200     1.0780 N.ar  1 <1>  -0.6200 
 17 N       -2.6950     3.8730     2.6660 N.pl3 1 <1>  -0.9000 
 18 C        0.1070     5.6890    -0.5970 C.3   1 <1>  -0.0170 
 19 O       -3.1210    -1.3670     1.8490 O.3   1 <1>  -0.6800 
 20 O       -4.0610    -2.9930    -2.6160 O.3   1 <1>  -0.6800 
 21 C       -1.5200    -3.8440     0.6200 C.ar  1 <1>  -0.1430 
 22 C        1.3940     5.9860     0.1970 C.3   1 <1>  -0.0800 
 23 C       -0.4260    -4.0420    -0.2110 C.ar  1 <1>  -0.1500 
 24 C       -1.3210    -3.7940     1.9910 C.ar  1 <1>  -0.1500 
 25 C        2.0810     7.2410    -0.3560 C.3   1 <1>  -0.2400 
 26 C        2.3730     4.8040     0.1640 C.3   1 <1>  -0.2400 
 27 C        0.8460    -4.1740     0.3180 C.ar  1 <1>  -0.1500 
 28 C       -0.0500    -3.9260     2.5240 C.ar  1 <1>  -0.1500 
 29 C        1.0350    -4.1150     1.6870 C.ar  1 <1>  -0.1500 
 30 H       -2.0910    -1.5930    -1.9610 H     1 <1>   0.0800 
 31 H       -1.3710    -1.6050    -0.4010 H     1 <1>   0.0800 
 32 H       -3.9490     1.6270    -0.4250 H     1 <1>   0.0800 
 33 H       -4.4170     0.3980    -1.5330 H     1 <1>   0.0800 
 34 H       -0.1210     3.1320    -1.5500 H     1 <1>   0.1500 
 35 H       -5.6660    -0.2730     0.2510 H     1 <1>   0.0800 
 36 H       -4.6270     0.4430     1.4190 H     1 <1>   0.0800 
 37 H       -4.8360    -2.1760     1.2930 H     1 <1>   0.0800 
 38 H       -5.0700    -1.5760    -1.6580 H     1 <1>   0.0800 
 39 H       -5.2760    -3.1870    -1.0470 H     1 <1>   0.0800 
 40 H       -3.6220    -4.1580     0.6990 H     1 <1>   0.0800 
 41 H       -2.9240    -4.3410    -0.8520 H     1 <1>   0.0800 
 42 H       -2.8920     3.0370     3.2090 H     1 <1>   0.4000 
 43 H       -2.4190     4.6990     3.1900 H     1 <1>   0.4000 
 44 H        0.3560     5.4920    -1.6240 H     1 <1>   0.0800 
 45 H       -0.5290     6.5560    -0.5800 H     1 <1>   0.0800 
 46 H       -2.4040    -0.8040     1.4870 H     1 <1>   0.4000 
 47 H       -3.5110    -2.3310    -3.0790 H     1 <1>   0.4000 
 48 H        1.1220     6.1750     1.2230 H     1 <1>   0.0800 
 49 H       -0.5600    -4.0950    -1.2780 H     1 <1>   0.1500 
 50 H       -2.1570    -3.6480     2.6520 H     1 <1>   0.1500 
 51 H        2.3750     7.0950    -1.3800 H     1 <1>   0.0800 
 52 H        2.9590     7.4700     0.2230 H     1 <1>   0.0800 
 53 H        1.4170     8.0850    -0.3040 H     1 <1>   0.0800 
 54 H        2.6410     4.5580    -0.8480 H     1 <1>   0.0800 
 55 H        1.9370     3.9370     0.6270 H     1 <1>   0.0800 
 56 H        3.2700     5.0500     0.7060 H     1 <1>   0.0800 
 57 H        1.6870    -4.3220    -0.3350 H     1 <1>   0.1500 
 58 H        0.0900    -3.8800     3.5890 H     1 <1>   0.1500 
 59 H        2.0230    -4.2170     2.1000 H     1 <1>   0.1500 
@<TRIPOS>BOND
  1   1   2  2   
  2   2   3  am  
  3   2   4  1   
  4   3   5  1   
  5   3   6  1   
  6   4   7  ar  
  7   4   8  ar  
  8   5   9  1   
  9   5  30  1   
 10   5  31  1   
 11   6  10  1   
 12   6  32  1   
 13   6  33  1   
 14   7  11  ar  
 15   8  12  ar  
 16   8  34  1   
 17   9  13  1   
 18   9  14  1   
 19   9  15  1   
 20  10  13  1   
 21  10  35  1   
 22  10  36  1   
 23  11  16  ar  
 24  11  17  1   
 25  12  16  ar  
 26  12  18  1   
 27  13  19  1   
 28  13  37  1   
 29  14  20  1   
 30  14  38  1   
 31  14  39  1   
 32  15  21  1   
 33  15  40  1   
 34  15  41  1   
 35  17  42  1   
 36  17  43  1   
 37  18  22  1   
 38  18  44  1   
 39  18  45  1   
 40  19  46  1   
 41  20  47  1   
 42  21  23  ar  
 43  21  24  ar  
 44  22  25  1   
 45  22  26  1   
 46  22  48  1   
 47  23  27  ar  
 48  23  49  1   
 49  24  28  ar  
 50  24  50  1   
 51  25  51  1   
 52  25  52  1   
 53  25  53  1   
 54  26  54  1   
 55  26  55  1   
 56  26  56  1   
 57  27  29  ar  
 58  27  57  1   
 59  28  29  ar  
 60  28  58  1   
 61  29  59  1   
@<TRIPOS>SUBSTRUCTURE
  1 ****   2 GROUP 4 **** **** 0

# MOE 2024.06 (io_trps.svl 2023.06)
