@<TRIPOS>MOLECULE
NONAME
52 55 1 0 0 
SMALL
USER_CHARGES


@<TRIPOS>ATOM
  1 O       -3.0680     0.6690    -1.8500 O.2   1 <1>  -0.5700 
  2 C       -2.4250     0.6880    -0.8280 C.2   1 <1>   0.5690 
  3 N       -2.0650    -0.4600    -0.2030 N.am  1 <1>  -0.7300 
  4 C       -2.0330     2.0220    -0.1960 C.3   1 <1>  -0.0190 
  5 C       -2.4620    -1.8070    -0.6630 C.3   1 <1>   0.2200 
  6 C       -3.2670     2.7270     0.4020 C.3   1 <1>  -0.1600 
  7 C       -1.3130     2.9410    -1.2060 C.3   1 <1>  -0.1600 
  8 C       -3.8060    -2.1580    -0.0480 C.3   1 <1>  -0.0800 
  9 C       -1.5520    -2.8620    -0.0470 C.3   1 <1>   0.1200 
 10 C       -2.9000     4.0820     1.0280 C.3   1 <1>  -0.1600 
 11 C       -0.9450     4.2950    -0.5780 C.3   1 <1>  -0.1600 
 12 C       -3.4140    -2.7800     1.2980 C.3   1 <1>   0.1200 
 13 C       -4.5960    -3.1330    -0.9420 C.3   1 <1>  -0.0170 
 14 O       -2.0500    -3.0820     1.2370 O.3   1 <1>  -0.5600 
 15 C       -2.1830     4.9750     0.0120 C.3   1 <1>   0.2000 
 16 C       -6.0070    -3.3560    -0.4060 C.ar  1 <1>  -0.1440 
 17 O       -1.7820     6.1250     0.6540 O.3   1 <1>  -0.6800 
 18 C       -7.0250    -2.3820    -0.5380 C.ar  1 <1>   0.0000 
 19 C       -6.3260    -4.5220     0.2270 C.ar  1 <1>  -0.1500 
 20 C       -8.2950    -2.6820     0.0140 C.ar  1 <1>   0.3100 
 21 C       -6.8620    -1.1330    -1.1830 C.ar  1 <1>  -0.1500 
 22 C       -7.6170    -4.7200     0.7300 C.ar  1 <1>   0.1600 
 23 N       -8.5740    -3.8520     0.6430 N.ar  1 <1>  -0.6200 
 24 C       -9.3230    -1.7310    -0.0900 C.ar  1 <1>  -0.1500 
 25 C       -7.8860    -0.2290    -1.2680 C.ar  1 <1>  -0.1500 
 26 C       -9.1330    -0.5280    -0.7140 C.ar  1 <1>  -0.1500 
 27 H       -1.6170    -0.4440     0.7150 H     1 <1>   0.3700 
 28 H       -1.3460     1.8180     0.6060 H     1 <1>   0.0800 
 29 H       -2.4610    -1.8430    -1.7400 H     1 <1>   0.0800 
 30 H       -3.9950     2.8830    -0.3770 H     1 <1>   0.0800 
 31 H       -3.7180     2.0960     1.1480 H     1 <1>   0.0800 
 32 H       -0.4230     2.4550    -1.5650 H     1 <1>   0.0800 
 33 H       -1.9570     3.1100    -2.0530 H     1 <1>   0.0800 
 34 H       -4.3970    -1.2740     0.1100 H     1 <1>   0.0800 
 35 H       -0.5250    -2.5460     0.0090 H     1 <1>   0.0800 
 36 H       -1.6210    -3.7880    -0.5890 H     1 <1>   0.0800 
 37 H       -2.2620     3.9130     1.8780 H     1 <1>   0.0800 
 38 H       -3.7960     4.5730     1.3630 H     1 <1>   0.0800 
 39 H       -0.5160     4.9310    -1.3330 H     1 <1>   0.0800 
 40 H       -0.2130     4.1350     0.1940 H     1 <1>   0.0800 
 41 H       -3.9590    -3.6820     1.5150 H     1 <1>   0.0800 
 42 H       -3.5570    -2.0770     2.1010 H     1 <1>   0.0800 
 43 H       -4.0760    -4.0730    -1.0040 H     1 <1>   0.0800 
 44 H       -4.6620    -2.7450    -1.9430 H     1 <1>   0.0800 
 45 H       -2.8620     5.2580    -0.7760 H     1 <1>   0.0800 
 46 H       -1.1540     5.9070     1.3660 H     1 <1>   0.4000 
 47 H       -5.6060    -5.3100     0.3580 H     1 <1>   0.1500 
 48 H       -5.9140    -0.8780    -1.6220 H     1 <1>   0.1500 
 49 H       -7.8270    -5.6540     1.2230 H     1 <1>   0.1500 
 50 H      -10.2740    -1.9840     0.3410 H     1 <1>   0.1500 
 51 H       -7.7440     0.7180    -1.7610 H     1 <1>   0.1500 
 52 H       -9.9300     0.1910    -0.7870 H     1 <1>   0.1500 
@<TRIPOS>BOND
  1   1   2  2   
  2   2   3  am  
  3   2   4  1   
  4   3   5  1   
  5   3  27  1   
  6   4   6  1   
  7   4   7  1   
  8   4  28  1   
  9   5   8  1   
 10   5   9  1   
 11   5  29  1   
 12   6  10  1   
 13   6  30  1   
 14   6  31  1   
 15   7  11  1   
 16   7  32  1   
 17   7  33  1   
 18   8  12  1   
 19   8  13  1   
 20   8  34  1   
 21   9  14  1   
 22   9  35  1   
 23   9  36  1   
 24  10  15  1   
 25  10  37  1   
 26  10  38  1   
 27  11  15  1   
 28  11  39  1   
 29  11  40  1   
 30  12  14  1   
 31  12  41  1   
 32  12  42  1   
 33  13  16  1   
 34  13  43  1   
 35  13  44  1   
 36  15  17  1   
 37  15  45  1   
 38  16  18  ar  
 39  16  19  ar  
 40  17  46  1   
 41  18  20  ar  
 42  18  21  ar  
 43  19  22  ar  
 44  19  47  1   
 45  20  23  ar  
 46  20  24  ar  
 47  21  25  ar  
 48  21  48  1   
 49  22  23  ar  
 50  22  49  1   
 51  24  26  ar  
 52  24  50  1   
 53  25  26  ar  
 54  25  51  1   
 55  26  52  1   
@<TRIPOS>SUBSTRUCTURE
  1 ****   8 GROUP 4 **** **** 0

# MOE 2024.06 (io_trps.svl 2023.06)
