@<TRIPOS>MOLECULE
NONAME
54 56 1 0 0 
SMALL
USER_CHARGES


@<TRIPOS>ATOM
  1 O        0.2680     0.5170    -0.6630 O.2   1 <1>  -0.5700 
  2 C        0.1420     1.6910    -0.4040 C.2   1 <1>   0.5690 
  3 N       -1.0400     2.2200     0.0440 N.am  1 <1>  -0.6600 
  4 C        1.3490     2.6040    -0.6210 C.3   1 <1>   0.1810 
  5 C       -1.1750     3.6840     0.3550 C.3   1 <1>   0.3640 
  6 C       -2.2240     1.3670     0.3560 C.3   1 <1>   0.0600 
  7 O        1.2680     3.8100     0.0950 O.3   1 <1>  -0.5600 
  8 C       -2.4500     4.2190    -0.3220 C.ar  1 <1>  -0.1430 
  9 C        0.0570     4.5180    -0.0950 C.3   1 <1>   0.2610 
 10 C       -3.5080     4.7870     0.3900 C.ar  1 <1>  -0.1430 
 11 C       -2.5510     4.1210    -1.7070 C.ar  1 <1>  -0.1500 
 12 C        0.1240     5.8880     0.6010 C.2   1 <1>   0.5690 
 13 C       -4.6140     5.2670    -0.2950 C.ar  1 <1>  -0.1500 
 14 C       -3.5160     4.9030     1.9100 C.3   1 <1>  -0.0960 
 15 C       -3.6590     4.5980    -2.3800 C.ar  1 <1>  -0.1500 
 16 O       -0.3960     6.0090     1.6890 O.2   1 <1>  -0.5700 
 17 N        0.7620     6.9580     0.0060 N.am  1 <1>  -0.6600 
 18 C       -4.6920     5.1780    -1.6720 C.ar  1 <1>  -0.1500 
 19 C        0.7430     8.3100     0.6350 C.3   1 <1>   0.1400 
 20 C        1.6310     6.8630    -1.2030 C.3   1 <1>   0.1400 
 21 C        2.1660     8.7340     1.0050 C.3   1 <1>  -0.1600 
 22 C        3.0580     7.2780    -0.8440 C.3   1 <1>  -0.1600 
 23 C        3.0860     8.6720    -0.2180 C.3   1 <1>   0.2000 
 24 O        4.3990     8.9190     0.1670 O.3   1 <1>  -0.5600 
 25 C        4.7510    10.2580     0.2860 C.3   1 <1>   0.1200 
 26 C        6.2250    10.3080     0.6690 C.3   1 <1>  -0.2400 
 27 H        1.4420     2.8320    -1.6670 H     1 <1>   0.0800 
 28 H        2.2390     2.0940    -0.2980 H     1 <1>   0.0800 
 29 H       -1.2550     3.7680     1.4220 H     1 <1>   0.0800 
 30 H       -2.5720     1.5750     1.3520 H     1 <1>   0.0800 
 31 H       -1.9690     0.3230     0.2920 H     1 <1>   0.0800 
 32 H       -3.0150     1.5700    -0.3440 H     1 <1>   0.0800 
 33 H       -0.0380     4.6990    -1.1480 H     1 <1>   0.0800 
 34 H       -1.7640     3.6580    -2.2760 H     1 <1>   0.1500 
 35 H       -5.4310     5.7170     0.2420 H     1 <1>   0.1500 
 36 H       -4.4940     5.1660     2.2690 H     1 <1>   0.0800 
 37 H       -2.8300     5.6660     2.2290 H     1 <1>   0.0800 
 38 H       -3.2440     3.9680     2.3650 H     1 <1>   0.0800 
 39 H       -3.7200     4.5160    -3.4510 H     1 <1>   0.1500 
 40 H       -5.5570     5.5560    -2.1890 H     1 <1>   0.1500 
 41 H        0.3200     9.0130    -0.0630 H     1 <1>   0.0800 
 42 H        0.1270     8.3150     1.5180 H     1 <1>   0.0800 
 43 H        1.6560     5.8640    -1.5960 H     1 <1>   0.0800 
 44 H        1.2420     7.5150    -1.9670 H     1 <1>   0.0800 
 45 H        2.5340     8.0740     1.7710 H     1 <1>   0.0800 
 46 H        2.1350     9.7320     1.3990 H     1 <1>   0.0800 
 47 H        3.6660     7.2730    -1.7300 H     1 <1>   0.0800 
 48 H        3.4630     6.5620    -0.1490 H     1 <1>   0.0800 
 49 H        2.7910     9.4000    -0.9560 H     1 <1>   0.0800 
 50 H        4.5900    10.7480    -0.6590 H     1 <1>   0.0800 
 51 H        4.1490    10.7170     1.0510 H     1 <1>   0.0800 
 52 H        6.8190     9.8360    -0.0920 H     1 <1>   0.0800 
 53 H        6.3780     9.8040     1.6070 H     1 <1>   0.0800 
 54 H        6.5420    11.3300     0.7710 H     1 <1>   0.0800 
@<TRIPOS>BOND
  1   1   2  2   
  2   2   3  am  
  3   2   4  1   
  4   3   5  1   
  5   3   6  1   
  6   4   7  1   
  7   4  27  1   
  8   4  28  1   
  9   5   8  1   
 10   5   9  1   
 11   5  29  1   
 12   6  30  1   
 13   6  31  1   
 14   6  32  1   
 15   7   9  1   
 16   8  10  ar  
 17   8  11  ar  
 18   9  12  1   
 19   9  33  1   
 20  10  13  ar  
 21  10  14  1   
 22  11  15  ar  
 23  11  34  1   
 24  12  16  2   
 25  12  17  am  
 26  13  18  ar  
 27  13  35  1   
 28  14  36  1   
 29  14  37  1   
 30  14  38  1   
 31  15  18  ar  
 32  15  39  1   
 33  17  19  1   
 34  17  20  1   
 35  18  40  1   
 36  19  21  1   
 37  19  41  1   
 38  19  42  1   
 39  20  22  1   
 40  20  43  1   
 41  20  44  1   
 42  21  23  1   
 43  21  45  1   
 44  21  46  1   
 45  22  23  1   
 46  22  47  1   
 47  22  48  1   
 48  23  24  1   
 49  23  49  1   
 50  24  25  1   
 51  25  26  1   
 52  25  50  1   
 53  25  51  1   
 54  26  52  1   
 55  26  53  1   
 56  26  54  1   
@<TRIPOS>SUBSTRUCTURE
  1 ****  12 GROUP 4 **** **** 0

# MOE 2024.06 (io_trps.svl 2023.06)
