@<TRIPOS>MOLECULE
NONAME
47 49 1 0 0 
SMALL
USER_CHARGES


@<TRIPOS>ATOM
  1 S        1.0580     0.1690     1.1490 S.o2  1 <1>   1.3330 
  2 O        0.8030     0.7170     2.4620 O.2   1 <1>  -0.6500 
  3 O        1.6110    -1.1600     1.0160 O.2   1 <1>  -0.6500 
  4 N        2.0970     1.2350     0.3390 N.am  1 <1>  -0.8490 
  5 C       -0.4580     0.2870     0.1870 C.3   1 <1>  -0.0550 
  6 C        3.1010     1.8150     1.2560 C.3   1 <1>   0.1960 
  7 C        2.7890     0.6000    -0.8040 C.3   1 <1>   0.1960 
  8 C       -1.6100    -0.5930     0.7040 C.3   1 <1>  -0.2400 
  9 C        4.0330     2.8230     0.5550 C.3   1 <1>   0.2090 
 10 C        3.6930     1.5880    -1.5660 C.3   1 <1>   0.2090 
 11 N        4.6880     2.2240    -0.6510 N.pl3 1 <1>  -0.8380 
 12 C        5.7860     2.8550    -1.2160 C.ar  1 <1>   0.4100 
 13 N        5.8870     4.1600    -1.0300 N.ar  1 <1>  -0.6200 
 14 C        6.7330     2.1260    -1.9520 C.ar  1 <1>   0.1600 
 15 C        6.9590     4.7210    -1.6160 C.ar  1 <1>   0.3960 
 16 N        7.7900     2.6380    -2.5460 N.ar  1 <1>  -0.6200 
 17 C        7.2240     6.1610    -1.5160 C.2   1 <1>   0.5440 
 18 C        7.8630     3.9480    -2.3540 C.ar  1 <1>   0.1600 
 19 O        7.8800     6.7000    -2.3940 O.2   1 <1>  -0.5700 
 20 N        6.8040     6.9680    -0.4700 N.am  1 <1>  -0.6600 
 21 C        6.0760     6.5280     0.7430 C.3   1 <1>   0.1400 
 22 C        7.1840     8.3940    -0.3610 C.3   1 <1>   0.1400 
 23 C        5.9110     7.7850     1.5920 C.3   1 <1>  -0.1600 
 24 C        7.0080     8.7310     1.1130 C.3   1 <1>  -0.1600 
 25 H       -0.2500     0.0120    -0.8280 H     1 <1>   0.0800 
 26 H       -0.7840     1.3100     0.1860 H     1 <1>   0.0800 
 27 H        3.6960     1.0280     1.6890 H     1 <1>   0.0800 
 28 H        2.6020     2.3280     2.0600 H     1 <1>   0.0800 
 29 H        2.0610     0.1990    -1.4870 H     1 <1>   0.0800 
 30 H        3.3990    -0.2180    -0.4550 H     1 <1>   0.0800 
 31 H       -1.3180    -1.6290     0.6940 H     1 <1>   0.0800 
 32 H       -2.4810    -0.4710     0.0860 H     1 <1>   0.0800 
 33 H       -1.8600    -0.3180     1.7150 H     1 <1>   0.0800 
 34 H        4.7900     3.1470     1.2490 H     1 <1>   0.0800 
 35 H        3.4610     3.6860     0.2590 H     1 <1>   0.0800 
 36 H        3.0820     2.3540    -2.0120 H     1 <1>   0.0800 
 37 H        4.2020     1.0650    -2.3560 H     1 <1>   0.0800 
 38 H        6.5840     1.0650    -2.0330 H     1 <1>   0.1500 
 39 H        8.6990     4.4490    -2.8110 H     1 <1>   0.1500 
 40 H        6.6630     5.7910     1.2630 H     1 <1>   0.0800 
 41 H        5.1160     6.1150     0.4830 H     1 <1>   0.0800 
 42 H        6.5140     8.9800    -0.9680 H     1 <1>   0.0800 
 43 H        8.1980     8.5550    -0.6860 H     1 <1>   0.0800 
 44 H        5.9840     7.5690     2.6430 H     1 <1>   0.0800 
 45 H        4.9460     8.2160     1.3900 H     1 <1>   0.0800 
 46 H        6.7530     9.7650     1.2590 H     1 <1>   0.0800 
 47 H        7.9270     8.5180     1.6310 H     1 <1>   0.0800 
@<TRIPOS>BOND
  1   1   2  2   
  2   1   3  2   
  3   1   4  am  
  4   1   5  1   
  5   4   6  1   
  6   4   7  1   
  7   5   8  1   
  8   5  25  1   
  9   5  26  1   
 10   6   9  1   
 11   6  27  1   
 12   6  28  1   
 13   7  10  1   
 14   7  29  1   
 15   7  30  1   
 16   8  31  1   
 17   8  32  1   
 18   8  33  1   
 19   9  11  1   
 20   9  34  1   
 21   9  35  1   
 22  10  11  1   
 23  10  36  1   
 24  10  37  1   
 25  11  12  1   
 26  12  13  ar  
 27  12  14  ar  
 28  13  15  ar  
 29  14  16  ar  
 30  14  38  1   
 31  15  17  1   
 32  15  18  ar  
 33  16  18  ar  
 34  17  19  2   
 35  17  20  am  
 36  18  39  1   
 37  20  21  1   
 38  20  22  1   
 39  21  23  1   
 40  21  40  1   
 41  21  41  1   
 42  22  24  1   
 43  22  42  1   
 44  22  43  1   
 45  23  24  1   
 46  23  44  1   
 47  23  45  1   
 48  24  46  1   
 49  24  47  1   
@<TRIPOS>SUBSTRUCTURE
  1 ****   9 GROUP 4 **** **** 0

# MOE 2024.06 (io_trps.svl 2023.06)
