@<TRIPOS>MOLECULE
NONAME
55 57 1 0 0 
SMALL
USER_CHARGES


@<TRIPOS>ATOM
  1 CL      -0.6840    -2.0250     1.8730 Cl    1 <1>  -0.1770 
  2 C       -2.0570    -2.8500     1.1580 C.ar  1 <1>   0.1770 
  3 C       -2.1830    -2.8780    -0.2260 C.ar  1 <1>  -0.1440 
  4 C       -2.9880    -3.4600     1.9900 C.ar  1 <1>  -0.1440 
  5 C       -3.2730    -3.5280    -0.7810 C.ar  1 <1>  -0.1500 
  6 C       -1.1500    -2.2170    -1.1270 C.3   1 <1>  -0.0960 
  7 C       -4.0710    -4.1060     1.4150 C.ar  1 <1>  -0.1500 
  8 C       -2.8310    -3.4310     3.5040 C.3   1 <1>  -0.0960 
  9 C       -4.2220    -4.1230     0.0370 C.ar  1 <1>   0.0820 
 10 O       -5.2750    -4.7670    -0.5180 O.3   1 <1>  -0.3630 
 11 C       -6.5210    -4.1050    -0.7800 C.3   1 <1>   0.3410 
 12 C       -7.4660    -5.1240    -1.4750 C.2   1 <1>   0.5690 
 13 C       -6.2770    -2.9050    -1.7110 C.3   1 <1>  -0.2400 
 14 C       -7.1260    -3.6310     0.5540 C.3   1 <1>  -0.2400 
 15 O       -8.6340    -4.8520    -1.6390 O.2   1 <1>  -0.5700 
 16 N       -6.9750    -6.3220    -1.8930 N.am  1 <1>  -0.7300 
 17 C       -7.7460    -7.3960    -2.5560 C.3   1 <1>   0.2200 
 18 C       -7.9870    -8.5640    -1.6110 C.3   1 <1>  -0.0800 
 19 C       -6.8710    -8.0610    -3.6090 C.3   1 <1>   0.1200 
 20 C       -6.7000    -9.3850    -1.7420 C.3   1 <1>   0.1200 
 21 C       -8.3540    -8.1920    -0.1620 C.3   1 <1>  -0.0170 
 22 O       -6.0570    -8.9500    -2.9060 O.3   1 <1>  -0.5600 
 23 C       -8.6650    -9.4360     0.6560 C.ar  1 <1>  -0.1430 
 24 C       -9.9050   -10.0390     0.6150 C.ar  1 <1>  -0.1500 
 25 C       -7.7260   -10.0270     1.4780 C.ar  1 <1>  -0.1500 
 26 C      -10.1400   -11.1750     1.3720 C.ar  1 <1>   0.1600 
 27 C       -8.0630   -11.1640     2.1940 C.ar  1 <1>   0.1600 
 28 N       -9.2470   -11.7530     2.1590 N.ar  1 <1>  -0.6200 
 29 H       -3.3960    -3.5810    -1.8470 H     1 <1>   0.1500 
 30 H       -1.4060    -2.3380    -2.1640 H     1 <1>   0.0800 
 31 H       -0.1830    -2.6580    -0.9610 H     1 <1>   0.0800 
 32 H       -1.0930    -1.1650    -0.9100 H     1 <1>   0.0800 
 33 H       -4.8020    -4.6000     2.0280 H     1 <1>   0.1500 
 34 H       -3.6400    -3.9480     3.9870 H     1 <1>   0.0800 
 35 H       -2.8190    -2.4140     3.8520 H     1 <1>   0.0800 
 36 H       -1.9080    -3.9050     3.7860 H     1 <1>   0.0800 
 37 H       -7.2180    -2.4540    -1.9700 H     1 <1>   0.0800 
 38 H       -5.8010    -3.2310    -2.6180 H     1 <1>   0.0800 
 39 H       -5.6730    -2.1560    -1.2310 H     1 <1>   0.0800 
 40 H       -8.0950    -3.2000     0.3800 H     1 <1>   0.0800 
 41 H       -6.5110    -2.8800     1.0150 H     1 <1>   0.0800 
 42 H       -7.2460    -4.4650     1.2220 H     1 <1>   0.0800 
 43 H       -5.9870    -6.5380    -1.7180 H     1 <1>   0.3700 
 44 H       -8.6590    -7.0040    -2.9740 H     1 <1>   0.0800 
 45 H       -8.7880    -9.1560    -2.0180 H     1 <1>   0.0800 
 46 H       -6.2610    -7.3590    -4.1500 H     1 <1>   0.0800 
 47 H       -7.4690    -8.6350    -4.2960 H     1 <1>   0.0800 
 48 H       -6.9040   -10.4390    -1.8260 H     1 <1>   0.0800 
 49 H       -6.0300    -9.2090    -0.9190 H     1 <1>   0.0800 
 50 H       -9.2130    -7.5440    -0.1670 H     1 <1>   0.0800 
 51 H       -7.5480    -7.6530     0.3050 H     1 <1>   0.0800 
 52 H      -10.6910    -9.6370     0.0020 H     1 <1>   0.1500 
 53 H       -6.7380    -9.6170     1.5690 H     1 <1>   0.1500 
 54 H      -11.1130   -11.6320     1.3280 H     1 <1>   0.1500 
 55 H       -7.3190   -11.6120     2.8300 H     1 <1>   0.1500 
@<TRIPOS>BOND
  1   1   2  1   
  2   2   3  ar  
  3   2   4  ar  
  4   3   5  ar  
  5   3   6  1   
  6   4   7  ar  
  7   4   8  1   
  8   5   9  ar  
  9   5  29  1   
 10   6  30  1   
 11   6  31  1   
 12   6  32  1   
 13   7   9  ar  
 14   7  33  1   
 15   8  34  1   
 16   8  35  1   
 17   8  36  1   
 18   9  10  1   
 19  10  11  1   
 20  11  12  1   
 21  11  13  1   
 22  11  14  1   
 23  12  15  2   
 24  12  16  am  
 25  13  37  1   
 26  13  38  1   
 27  13  39  1   
 28  14  40  1   
 29  14  41  1   
 30  14  42  1   
 31  16  17  1   
 32  16  43  1   
 33  17  18  1   
 34  17  19  1   
 35  17  44  1   
 36  18  20  1   
 37  18  21  1   
 38  18  45  1   
 39  19  22  1   
 40  19  46  1   
 41  19  47  1   
 42  20  22  1   
 43  20  48  1   
 44  20  49  1   
 45  21  23  1   
 46  21  50  1   
 47  21  51  1   
 48  23  24  ar  
 49  23  25  ar  
 50  24  26  ar  
 51  24  52  1   
 52  25  27  ar  
 53  25  53  1   
 54  26  28  ar  
 55  26  54  1   
 56  27  28  ar  
 57  27  55  1   
@<TRIPOS>SUBSTRUCTURE
  1 ****  10 GROUP 4 **** **** 0

# MOE 2024.06 (io_trps.svl 2023.06)
