@<TRIPOS>MOLECULE
NONAME
43 44 1 0 0 
SMALL
USER_CHARGES


@<TRIPOS>ATOM
  1 S       -0.6570     0.1450     0.0690 S.o2  1 <1>   1.3330 
  2 O        0.7680     0.2560     0.2440 O.2   1 <1>  -0.6500 
  3 O       -1.2860     0.4670    -1.1880 O.2   1 <1>  -0.6500 
  4 N       -0.9990    -1.4570     0.3920 N.am  1 <1>  -0.9140 
  5 C       -1.4980     0.9990     1.3840 C.3   1 <1>  -0.1350 
  6 C       -0.7210    -2.3110    -0.7790 C.3   1 <1>   0.2570 
  7 C       -0.9090    -3.8090    -0.5080 C.2   1 <1>   0.5690 
  8 O        0.0780    -4.4750    -0.2910 O.2   1 <1>  -0.5700 
  9 N       -2.1600    -4.3650    -0.5100 N.am  1 <1>  -0.6600 
 10 C       -3.4440    -3.6220    -0.5740 C.3   1 <1>   0.1400 
 11 C       -2.4060    -5.7850    -0.1790 C.3   1 <1>   0.1400 
 12 C       -4.5070    -4.5890    -0.0340 C.3   1 <1>   0.2000 
 13 C       -3.9180    -5.9730    -0.3250 C.3   1 <1>  -0.0800 
 14 O       -4.6380    -4.4340     1.3520 O.3   1 <1>  -0.5600 
 15 C       -4.4730    -7.1130     0.5470 C.3   1 <1>   0.0200 
 16 C       -5.5090    -3.4260     1.7580 C.3   1 <1>   0.0400 
 17 C       -3.8650    -8.4440     0.1500 C.2   1 <1>  -0.0400 
 18 O       -4.1000    -8.9440    -1.0340 O.3   1 <1>  -0.0190 
 19 C       -3.0620    -9.2930     0.8060 C.2   1 <1>  -0.1500 
 20 N       -3.4930   -10.0830    -1.2060 N.2   1 <1>  -0.4100 
 21 C       -2.8600   -10.3190    -0.1130 C.2   1 <1>   0.1080 
 22 C       -2.0110   -11.5460     0.1310 C.3   1 <1>  -0.0590 
 23 H       -0.3050    -1.7330     1.0880 H     1 <1>   0.4200 
 24 H       -1.1230     0.6800     2.3360 H     1 <1>   0.0800 
 25 H       -2.5500     0.7990     1.3390 H     1 <1>   0.0800 
 26 H       -1.3450     2.0560     1.2900 H     1 <1>   0.0800 
 27 H       -1.3660    -2.0320    -1.5930 H     1 <1>   0.0800 
 28 H        0.2950    -2.1570    -1.1010 H     1 <1>   0.0800 
 29 H       -3.4020    -2.7160     0.0040 H     1 <1>   0.0800 
 30 H       -3.6560    -3.3880    -1.6020 H     1 <1>   0.0800 
 31 H       -1.8580    -6.4360    -0.8390 H     1 <1>   0.0800 
 32 H       -2.0960    -5.9610     0.8370 H     1 <1>   0.0800 
 33 H       -5.4680    -4.4560    -0.5000 H     1 <1>   0.0800 
 34 H       -4.1140    -6.2040    -1.3570 H     1 <1>   0.0800 
 35 H       -5.5410    -7.1680     0.4380 H     1 <1>   0.0800 
 36 H       -4.2540    -6.9260     1.5840 H     1 <1>   0.0800 
 37 H       -5.5180    -3.4080     2.8330 H     1 <1>   0.0800 
 38 H       -6.4980    -3.6430     1.3930 H     1 <1>   0.0800 
 39 H       -5.1660    -2.4780     1.3850 H     1 <1>   0.0800 
 40 H       -2.6520    -9.2280     1.7970 H     1 <1>   0.1500 
 41 H       -2.3930   -12.0920     0.9730 H     1 <1>   0.0800 
 42 H       -0.9960   -11.2530     0.3270 H     1 <1>   0.0800 
 43 H       -2.0290   -12.1820    -0.7360 H     1 <1>   0.0800 
@<TRIPOS>BOND
  1   1   2  2   
  2   1   3  2   
  3   1   4  am  
  4   1   5  1   
  5   4   6  1   
  6   4  23  1   
  7   5  24  1   
  8   5  25  1   
  9   5  26  1   
 10   6   7  1   
 11   6  27  1   
 12   6  28  1   
 13   7   8  2   
 14   7   9  am  
 15   9  10  1   
 16   9  11  1   
 17  10  12  1   
 18  10  29  1   
 19  10  30  1   
 20  11  13  1   
 21  11  31  1   
 22  11  32  1   
 23  12  13  1   
 24  12  14  1   
 25  12  33  1   
 26  13  15  1   
 27  13  34  1   
 28  14  16  1   
 29  15  17  1   
 30  15  35  1   
 31  15  36  1   
 32  16  37  1   
 33  16  38  1   
 34  16  39  1   
 35  17  18  1   
 36  17  19  2   
 37  18  20  1   
 38  19  21  1   
 39  19  40  1   
 40  20  21  2   
 41  21  22  1   
 42  22  41  1   
 43  22  42  1   
 44  22  43  1   
@<TRIPOS>SUBSTRUCTURE
  1 ****   9 GROUP 4 **** **** 0

# MOE 2024.06 (io_trps.svl 2023.06)
