@<TRIPOS>MOLECULE
NONAME
33 35 1 0 0 
SMALL
USER_CHARGES


@<TRIPOS>ATOM
  1 O        0.8400     0.1380     1.1410 O.3   1 <1>  -0.6800 
  2 C        1.3220     0.8260     0.0400 C.3   1 <1>   0.2000 
  3 C        2.6920     0.2550    -0.3930 C.3   1 <1>  -0.0800 
  4 C        1.3660     2.3130     0.4250 C.3   1 <1>  -0.1600 
  5 C        3.8280     1.0080     0.3080 C.3   1 <1>   0.2090 
  6 C        2.7980    -1.2640    -0.1840 C.3   1 <1>   0.1200 
  7 C        2.4580     3.0670    -0.3340 C.3   1 <1>   0.2090 
  8 N        3.7910     2.4610    -0.0620 N.pl3 1 <1>  -0.8380 
  9 O        3.9720    -1.7390    -0.7530 O.3   1 <1>  -0.6800 
 10 C        4.8810     3.2590     0.2280 C.ar  1 <1>   0.4100 
 11 N        5.6690     2.8960     1.2130 N.ar  1 <1>  -0.6200 
 12 C        5.1550     4.4320    -0.4930 C.ar  1 <1>   0.0000 
 13 C        6.6990     3.7060     1.4970 C.ar  1 <1>   0.4700 
 14 C        6.2310     5.1720    -0.0990 C.ar  1 <1>   0.1050 
 15 C        4.6390     5.1410    -1.5900 C.2   1 <1>   0.1390 
 16 N        7.0360     4.8300     0.9150 N.ar  1 <1>  -0.5670 
 17 N        6.2900     6.2440    -0.9250 N.pl3 1 <1>   0.3000 
 18 N        5.2970     6.2240    -1.8530 N.2   1 <1>  -0.7070 
 19 H        0.0200     0.5520     1.4690 H     1 <1>   0.4000 
 20 H        0.6180     0.6760    -0.7610 H     1 <1>   0.0800 
 21 H        2.7950     0.4430    -1.4460 H     1 <1>   0.0800 
 22 H        0.4150     2.7680     0.2200 H     1 <1>   0.0800 
 23 H        1.5750     2.4230     1.4760 H     1 <1>   0.0800 
 24 H        4.7800     0.5960     0.0210 H     1 <1>   0.0800 
 25 H        3.7290     0.9070     1.3760 H     1 <1>   0.0800 
 26 H        1.9700    -1.7750    -0.6440 H     1 <1>   0.0800 
 27 H        2.8190    -1.5060     0.8660 H     1 <1>   0.0800 
 28 H        2.4560     4.0990    -0.0250 H     1 <1>   0.0800 
 29 H        2.2620     3.0260    -1.3920 H     1 <1>   0.0800 
 30 H        3.9810    -1.5750    -1.7160 H     1 <1>   0.4000 
 31 H        7.3210     3.3810     2.3140 H     1 <1>   0.1500 
 32 H        3.7860     4.8110    -2.1570 H     1 <1>   0.1500 
 33 H        7.0010     6.9800    -0.8680 H     1 <1>   0.2700 
@<TRIPOS>BOND
  1   1   2  1   
  2   1  19  1   
  3   2   3  1   
  4   2   4  1   
  5   2  20  1   
  6   3   5  1   
  7   3   6  1   
  8   3  21  1   
  9   4   7  1   
 10   4  22  1   
 11   4  23  1   
 12   5   8  1   
 13   5  24  1   
 14   5  25  1   
 15   6   9  1   
 16   6  26  1   
 17   6  27  1   
 18   7   8  1   
 19   7  28  1   
 20   7  29  1   
 21   8  10  1   
 22   9  30  1   
 23  10  11  ar  
 24  10  12  ar  
 25  11  13  ar  
 26  12  14  ar  
 27  12  15  1   
 28  13  16  ar  
 29  13  31  1   
 30  14  16  ar  
 31  14  17  1   
 32  15  18  2   
 33  15  32  1   
 34  17  18  1   
 35  17  33  1   
@<TRIPOS>SUBSTRUCTURE
  1 ****   8 GROUP 4 **** **** 0

# MOE 2024.06 (io_trps.svl 2023.06)
