@<TRIPOS>MOLECULE
NONAME
40 42 1 0 0 
SMALL
USER_CHARGES


@<TRIPOS>ATOM
  1 S        0.2720    -0.5730    -0.1610 S.3   1 <1>  -0.0800 
  2 C       -1.3950    -0.9710    -0.4190 C.2   1 <1>   0.4420 
  3 C       -0.1430     1.0820    -0.4590 C.2   1 <1>   0.1980 
  4 N       -2.1010     0.0650    -0.6880 N.2   1 <1>  -0.3380 
  5 N       -1.7350    -2.2990    -0.3060 N.am  1 <1>  -0.4940 
  6 N       -1.3830     1.2290    -0.7120 N.2   1 <1>  -0.3380 
  7 C        0.9980     2.1030    -0.3830 C.3   1 <1>   0.3800 
  8 C       -2.9480    -2.9220    -0.4320 C.2   1 <1>   0.7150 
  9 O        0.5490     3.3980    -0.1040 O.3   1 <1>  -0.5600 
 10 C        1.7540     2.1870    -1.7070 C.3   1 <1>  -0.2400 
 11 O       -3.9500    -2.2790    -0.6690 O.2   1 <1>  -0.5700 
 12 C       -2.9820    -4.3600    -0.2700 C.2   1 <1>   0.0550 
 13 C       -0.0120     3.5840     1.1600 C.3   1 <1>   0.0400 
 14 O       -1.8280    -4.9960    -0.0010 O.3   1 <1>  -0.2800 
 15 C       -3.9910    -5.2740    -0.3340 C.2   1 <1>  -0.1810 
 16 C       -2.0820    -6.2970     0.1080 C.ar  1 <1>   0.1400 
 17 C       -3.4260    -6.5390    -0.0900 C.ar  1 <1>   0.0000 
 18 C       -5.4740    -5.0820    -0.6060 C.3   1 <1>  -0.0590 
 19 C       -1.1800    -7.3170     0.3800 C.ar  1 <1>  -0.1500 
 20 C       -3.8980    -7.8510    -0.0160 C.ar  1 <1>  -0.1500 
 21 C       -1.6490    -8.6140     0.4520 C.ar  1 <1>  -0.1440 
 22 C       -3.0100    -8.8720     0.2530 C.ar  1 <1>  -0.1500 
 23 C       -0.7100    -9.7700     0.7460 C.3   1 <1>  -0.0970 
 24 H       -0.9790    -2.9450    -0.0990 H     1 <1>   0.3700 
 25 H        1.6820     1.8210     0.3990 H     1 <1>   0.0800 
 26 H        1.0810     2.4840    -2.4920 H     1 <1>   0.0800 
 27 H        2.1730     1.2290    -1.9570 H     1 <1>   0.0800 
 28 H        2.5520     2.9030    -1.6300 H     1 <1>   0.0800 
 29 H       -0.2490     4.6280     1.2670 H     1 <1>   0.0800 
 30 H        0.6960     3.2940     1.9160 H     1 <1>   0.0800 
 31 H       -0.9170     3.0070     1.2440 H     1 <1>   0.0800 
 32 H       -5.7140    -4.0480    -0.7710 H     1 <1>   0.0800 
 33 H       -6.0470    -5.4330     0.2320 H     1 <1>   0.0800 
 34 H       -5.7590    -5.6390    -1.4800 H     1 <1>   0.0800 
 35 H       -0.1430    -7.0780     0.5270 H     1 <1>   0.1500 
 36 H       -4.9430    -8.0490    -0.1690 H     1 <1>   0.1500 
 37 H       -3.3670    -9.8860     0.3120 H     1 <1>   0.1500 
 38 H        0.2990    -9.4220     0.8760 H     1 <1>   0.0800 
 39 H       -0.7280   -10.4720    -0.0680 H     1 <1>   0.0800 
 40 H       -1.0170   -10.2720     1.6460 H     1 <1>   0.0800 
@<TRIPOS>BOND
  1   1   2  1   
  2   1   3  1   
  3   2   4  2   
  4   2   5  1   
  5   3   6  2   
  6   3   7  1   
  7   4   6  1   
  8   5   8  am  
  9   5  24  1   
 10   7   9  1   
 11   7  10  1   
 12   7  25  1   
 13   8  11  2   
 14   8  12  1   
 15   9  13  1   
 16  10  26  1   
 17  10  27  1   
 18  10  28  1   
 19  12  14  1   
 20  12  15  2   
 21  13  29  1   
 22  13  30  1   
 23  13  31  1   
 24  14  16  1   
 25  15  17  1   
 26  15  18  1   
 27  16  17  ar  
 28  16  19  ar  
 29  17  20  ar  
 30  18  32  1   
 31  18  33  1   
 32  18  34  1   
 33  19  21  ar  
 34  19  35  1   
 35  20  22  ar  
 36  20  36  1   
 37  21  22  ar  
 38  21  23  1   
 39  22  37  1   
 40  23  38  1   
 41  23  39  1   
 42  23  40  1   
@<TRIPOS>SUBSTRUCTURE
  1 ****   5 GROUP 4 **** **** 0

# MOE 2024.06 (io_trps.svl 2023.06)
