@<TRIPOS>MOLECULE
NONAME
57 59 1 0 0 
SMALL
USER_CHARGES


@<TRIPOS>ATOM
  1 O        0.4240    -0.1090    -0.8950 O.3   1 <1>  -0.5600 
  2 C        1.6240    -0.8180    -1.0870 C.3   1 <1>   0.2000 
  3 C        0.5080     1.2730    -1.0740 C.3   1 <1>   0.1200 
  4 C        2.7560    -0.2680    -0.1740 C.3   1 <1>   0.5660 
  5 C        1.3680    -2.3040    -0.7840 C.3   1 <1>   0.1200 
  6 C        1.5020     1.8740    -0.0660 C.3   1 <1>   0.3430 
  7 N        2.8520     1.2280    -0.1680 N.4   1 <1>  -0.9590 
  8 C        4.1210    -0.8130    -0.5730 C.ar  1 <1>  -0.1430 
  9 O        1.2770    -2.5050     0.5920 O.3   1 <1>  -0.6800 
 10 C        3.7790     1.6930     0.8990 C.3   1 <1>   0.4870 
 11 C        4.8770    -1.4830     0.3790 C.ar  1 <1>  -0.1500 
 12 C        4.6380    -0.6470    -1.8540 C.ar  1 <1>  -0.1500 
 13 C        4.0230     3.1810     0.7280 C.ar  1 <1>  -0.1430 
 14 C        6.1370    -1.9660     0.0730 C.ar  1 <1>   0.0820 
 15 C        5.9020    -1.1190    -2.1630 C.ar  1 <1>  -0.1500 
 16 C        4.9740     3.6740    -0.1640 C.ar  1 <1>  -0.1430 
 17 C        3.2730     4.0650     1.4940 C.ar  1 <1>  -0.1500 
 18 O        6.7960    -2.6250     1.0550 O.3   1 <1>  -0.3620 
 19 C        6.6670    -1.7600    -1.2050 C.ar  1 <1>   0.0820 
 20 C        5.1400     5.0460    -0.2820 C.ar  1 <1>  -0.1500 
 21 C        5.8690     2.7760    -1.0160 C.3   1 <1>  -0.0170 
 22 C        3.4470     5.4300     1.3630 C.ar  1 <1>  -0.1500 
 23 C        7.0620    -3.9940     0.8320 C.3   1 <1>   0.0400 
 24 O        7.9090    -2.1610    -1.5700 O.3   1 <1>  -0.3630 
 25 C        4.3800     5.9210     0.4720 C.ar  1 <1>  -0.1500 
 26 C        7.0620     2.2530    -0.2120 C.3   1 <1>  -0.2400 
 27 C        9.0010    -1.5730    -0.8960 C.3   1 <1>   0.0400 
 28 H        1.8890    -0.7200    -2.1240 H     1 <1>   0.0800 
 29 H        0.8030     1.4800    -2.0890 H     1 <1>   0.0800 
 30 H       -0.4740     1.6820    -0.9120 H     1 <1>   0.0800 
 31 H        2.5380    -0.5990     0.8280 H     1 <1>   0.0800 
 32 H        2.1780    -2.9110    -1.1520 H     1 <1>   0.0800 
 33 H        0.4490    -2.6240    -1.2450 H     1 <1>   0.0800 
 34 H        1.1030     1.7340     0.9250 H     1 <1>   0.0800 
 35 H        1.5890     2.9350    -0.2410 H     1 <1>   0.0800 
 36 H        3.2790     1.5120    -1.0530 H     1 <1>   0.4500 
 37 H        0.8880    -3.3840     0.7870 H     1 <1>   0.4000 
 38 H        3.3570     1.5000     1.8720 H     1 <1>   0.0800 
 39 H        4.7190     1.1710     0.8320 H     1 <1>   0.0800 
 40 H        4.5000    -1.6520     1.3730 H     1 <1>   0.1500 
 41 H        4.0790    -0.1500    -2.6280 H     1 <1>   0.1500 
 42 H        6.3100    -0.9910    -3.1510 H     1 <1>   0.1500 
 43 H        2.5490     3.7070     2.2050 H     1 <1>   0.1500 
 44 H        5.8710     5.4510    -0.9620 H     1 <1>   0.1500 
 45 H        5.3130     1.9530    -1.4180 H     1 <1>   0.0800 
 46 H        6.2430     3.3350    -1.8570 H     1 <1>   0.0800 
 47 H        2.8630     6.1140     1.9580 H     1 <1>   0.1500 
 48 H        7.4980    -4.4020     1.7260 H     1 <1>   0.0800 
 49 H        7.7490    -4.0990     0.0120 H     1 <1>   0.0800 
 50 H        6.1370    -4.4970     0.6110 H     1 <1>   0.0800 
 51 H        4.5200     6.9840     0.3680 H     1 <1>   0.1500 
 52 H        6.7440     1.6490     0.6170 H     1 <1>   0.0800 
 53 H        7.6380     3.0780     0.1690 H     1 <1>   0.0800 
 54 H        7.6970     1.6580    -0.8440 H     1 <1>   0.0800 
 55 H        9.9070    -1.9200    -1.3600 H     1 <1>   0.0800 
 56 H        8.9870    -1.8660     0.1380 H     1 <1>   0.0800 
 57 H        8.9300    -0.5040    -0.9840 H     1 <1>   0.0800 
@<TRIPOS>BOND
  1   1   2  1   
  2   1   3  1   
  3   2   4  1   
  4   2   5  1   
  5   2  28  1   
  6   3   6  1   
  7   3  29  1   
  8   3  30  1   
  9   4   7  1   
 10   4   8  1   
 11   4  31  1   
 12   5   9  1   
 13   5  32  1   
 14   5  33  1   
 15   6   7  1   
 16   6  34  1   
 17   6  35  1   
 18   7  10  1   
 19   7  36  1   
 20   8  11  ar  
 21   8  12  ar  
 22   9  37  1   
 23  10  13  1   
 24  10  38  1   
 25  10  39  1   
 26  11  14  ar  
 27  11  40  1   
 28  12  15  ar  
 29  12  41  1   
 30  13  16  ar  
 31  13  17  ar  
 32  14  18  1   
 33  14  19  ar  
 34  15  19  ar  
 35  15  42  1   
 36  16  20  ar  
 37  16  21  1   
 38  17  22  ar  
 39  17  43  1   
 40  18  23  1   
 41  19  24  1   
 42  20  25  ar  
 43  20  44  1   
 44  21  26  1   
 45  21  45  1   
 46  21  46  1   
 47  22  25  ar  
 48  22  47  1   
 49  23  48  1   
 50  23  49  1   
 51  23  50  1   
 52  24  27  1   
 53  25  51  1   
 54  26  52  1   
 55  26  53  1   
 56  26  54  1   
 57  27  55  1   
 58  27  56  1   
 59  27  57  1   
@<TRIPOS>SUBSTRUCTURE
  1 ****   8 GROUP 4 **** **** 0

# MOE 2024.06 (io_trps.svl 2023.06)
