@<TRIPOS>MOLECULE
NONAME
52 55 1 0 0 
SMALL
USER_CHARGES


@<TRIPOS>ATOM
  1 O        0.9510     0.3390     1.1330 O.2   1 <1>  -0.5700 
  2 C        1.4220    -0.0760     0.1030 C.2   1 <1>   0.6300 
  3 N        2.2040     0.7240    -0.6930 N.am  1 <1>  -0.6600 
  4 C        1.1630    -1.5250    -0.2820 C.3   1 <1>  -0.1000 
  5 C        2.9620     0.2540    -1.8900 C.3   1 <1>   0.1400 
  6 C        2.3630     2.1670    -0.3770 C.3   1 <1>   0.1400 
  7 C        0.9710    -2.5790     0.7690 C.3   1 <1>  -0.0680 
  8 C        2.2060    -2.5880    -0.0780 C.3   1 <1>  -0.2000 
  9 C        4.4550     0.0190    -1.5750 C.3   1 <1>   0.3430 
 10 C        3.5150     2.3700     0.6120 C.3   1 <1>  -0.1600 
 11 C       -0.1110    -3.6240     0.5690 C.ar  1 <1>  -0.0320 
 12 N        5.1330     1.1670    -0.8750 N.4   1 <1>  -0.9590 
 13 C        4.6410     1.3360     0.5300 C.3   1 <1>   0.3430 
 14 C        0.2060    -4.9720     0.5170 C.ar  1 <1>  -0.1500 
 15 C       -1.4330    -3.2290     0.4410 C.ar  1 <1>  -0.1500 
 16 C        6.6140     0.9760    -0.8750 C.3   1 <1>   0.5230 
 17 C       -0.7880    -5.9160     0.3270 C.ar  1 <1>  -0.1500 
 18 C       -2.4290    -4.1720     0.2510 C.ar  1 <1>  -0.1500 
 19 C        7.3280     2.2430    -0.4420 C.2   1 <1>  -0.0400 
 20 C       -2.1060    -5.5160     0.1920 C.ar  1 <1>  -0.1500 
 21 O        8.5560     2.1060     0.0110 O.3   1 <1>  -0.2800 
 22 C        6.9630     3.5470    -0.4180 C.2   1 <1>  -0.1500 
 23 C        9.0050     3.3000     0.3350 C.2   1 <1>  -0.0400 
 24 C        8.0670     4.2380     0.0940 C.2   1 <1>  -0.1500 
 25 C       10.4090     3.4260     0.8870 C.3   1 <1>  -0.0600 
 26 H        0.5190    -1.5960    -1.1400 H     1 <1>   0.1000 
 27 H        2.5380    -0.6610    -2.2660 H     1 <1>   0.0800 
 28 H        2.8710     0.9810    -2.6780 H     1 <1>   0.0800 
 29 H        2.5470     2.7180    -1.2830 H     1 <1>   0.0800 
 30 H        1.4490     2.5510     0.0490 H     1 <1>   0.0800 
 31 H        1.0640    -2.2770     1.7990 H     1 <1>   0.1000 
 32 H        2.3090    -3.3640    -0.8160 H     1 <1>   0.1000 
 33 H        3.1310    -2.3580     0.4180 H     1 <1>   0.1000 
 34 H        4.9610    -0.1840    -2.5050 H     1 <1>   0.0800 
 35 H        4.5370    -0.8670    -0.9660 H     1 <1>   0.0800 
 36 H        3.1040     2.3170     1.6050 H     1 <1>   0.0800 
 37 H        3.9120     3.3630     0.5020 H     1 <1>   0.0800 
 38 H        4.9480     2.0390    -1.3810 H     1 <1>   0.4500 
 39 H        4.2800     0.3920     0.9050 H     1 <1>   0.0800 
 40 H        5.4450     1.6600     1.1720 H     1 <1>   0.0800 
 41 H        1.2270    -5.2890     0.6260 H     1 <1>   0.1500 
 42 H       -1.6880    -2.1850     0.4920 H     1 <1>   0.1500 
 43 H        6.8780     0.1810    -0.1980 H     1 <1>   0.0800 
 44 H        6.9610     0.7090    -1.8590 H     1 <1>   0.0800 
 45 H       -0.5370    -6.9620     0.2850 H     1 <1>   0.1500 
 46 H       -3.4540    -3.8580     0.1510 H     1 <1>   0.1500 
 47 H       -2.8800    -6.2490     0.0440 H     1 <1>   0.1500 
 48 H        6.0470     4.0240    -0.7160 H     1 <1>   0.1500 
 49 H        8.1270     5.3020     0.2500 H     1 <1>   0.1500 
 50 H       10.6340     4.4550     1.1030 H     1 <1>   0.0800 
 51 H       11.1180     3.0580     0.1680 H     1 <1>   0.0800 
 52 H       10.4990     2.8520     1.7910 H     1 <1>   0.0800 
@<TRIPOS>BOND
  1   1   2  2   
  2   2   3  am  
  3   2   4  1   
  4   3   5  1   
  5   3   6  1   
  6   4   7  1   
  7   4   8  1   
  8   4  26  1   
  9   5   9  1   
 10   5  27  1   
 11   5  28  1   
 12   6  10  1   
 13   6  29  1   
 14   6  30  1   
 15   7   8  1   
 16   7  11  1   
 17   7  31  1   
 18   8  32  1   
 19   8  33  1   
 20   9  12  1   
 21   9  34  1   
 22   9  35  1   
 23  10  13  1   
 24  10  36  1   
 25  10  37  1   
 26  11  14  ar  
 27  11  15  ar  
 28  12  13  1   
 29  12  16  1   
 30  12  38  1   
 31  13  39  1   
 32  13  40  1   
 33  14  17  ar  
 34  14  41  1   
 35  15  18  ar  
 36  15  42  1   
 37  16  19  1   
 38  16  43  1   
 39  16  44  1   
 40  17  20  ar  
 41  17  45  1   
 42  18  20  ar  
 43  18  46  1   
 44  19  21  1   
 45  19  22  2   
 46  20  47  1   
 47  21  23  1   
 48  22  24  1   
 49  22  48  1   
 50  23  24  2   
 51  23  25  1   
 52  24  49  1   
 53  25  50  1   
 54  25  51  1   
 55  25  52  1   
@<TRIPOS>SUBSTRUCTURE
  1 ****   3 GROUP 4 **** **** 0

# MOE 2024.06 (io_trps.svl 2023.06)
