@<TRIPOS>MOLECULE
NONAME
45 48 1 0 0 
SMALL
USER_CHARGES


@<TRIPOS>ATOM
  1 S       -0.3500    -1.2960     0.5380 S.3   1 <1>  -0.2820 
  2 C       -1.8870    -1.7670    -0.1340 C.2   1 <1>   0.6510 
  3 C       -0.7290     0.3950     0.2130 C.2   1 <1>   0.5300 
  4 N       -2.2820    -3.0000    -0.2030 N.2   1 <1>  -0.6210 
  5 N       -2.5460    -0.6370    -0.5340 N.am  1 <1>  -0.0580 
  6 N       -1.8640     0.5730    -0.3240 N.2   1 <1>  -0.5120 
  7 C        0.3350     1.4050     0.6140 C.3   1 <1>  -0.0990 
  8 C       -3.5180    -3.1890    -0.7660 C.2   1 <1>   0.0330 
  9 C       -3.8070    -0.8100    -1.0870 C.2   1 <1>   0.6160 
 10 C       -0.0520     2.8610     0.3090 C.3   1 <1>  -0.2400 
 11 C       -4.2740    -2.1450    -1.1970 C.2   1 <1>  -0.1360 
 12 C       -3.9890    -4.6380    -0.8720 C.3   1 <1>   0.4810 
 13 O       -4.4950     0.1280    -1.4590 O.2   1 <1>  -0.5700 
 14 N       -3.6440    -5.3360     0.3980 N.4   1 <1>  -0.9590 
 15 C       -3.5030    -6.8130     0.1690 C.3   1 <1>   0.5240 
 16 C       -4.6380    -5.0250     1.4680 C.3   1 <1>   0.2630 
 17 C       -4.8370    -7.4840    -0.1760 C.2   1 <1>   0.1080 
 18 N       -5.6790    -7.0370    -1.0660 N.2   1 <1>  -0.7070 
 19 C       -5.2940    -8.6500     0.4310 C.2   1 <1>  -0.1500 
 20 N       -6.6960    -7.9290    -1.0530 N.pl3 1 <1>   0.3000 
 21 C       -6.4840    -8.9060    -0.1510 C.2   1 <1>  -0.2370 
 22 C       -7.4590   -10.0410     0.0870 C.3   1 <1>  -0.0150 
 23 C       -6.9590   -11.3940     0.4780 C.3   1 <1>  -0.2000 
 24 C       -7.5260   -11.1670    -0.8930 C.3   1 <1>  -0.2000 
 25 H        1.2440     1.1660     0.0920 H     1 <1>   0.0800 
 26 H        0.5210     1.3040     1.6680 H     1 <1>   0.0800 
 27 H       -0.2240     2.9910    -0.7460 H     1 <1>   0.0800 
 28 H        0.7350     3.5280     0.6130 H     1 <1>   0.0800 
 29 H       -0.9520     3.1280     0.8360 H     1 <1>   0.0800 
 30 H       -5.2470    -2.2640    -1.6390 H     1 <1>   0.1500 
 31 H       -3.4760    -5.1070    -1.6960 H     1 <1>   0.0800 
 32 H       -5.0490    -4.6880    -1.0620 H     1 <1>   0.0800 
 33 H       -2.7280    -4.9290     0.6520 H     1 <1>   0.4500 
 34 H       -3.1040    -7.2770     1.0550 H     1 <1>   0.0800 
 35 H       -2.8120    -6.9900    -0.6380 H     1 <1>   0.0800 
 36 H       -5.6150    -5.3830     1.1830 H     1 <1>   0.0800 
 37 H       -4.6930    -3.9600     1.6280 H     1 <1>   0.0800 
 38 H       -4.3540    -5.4970     2.3940 H     1 <1>   0.0800 
 39 H       -4.8020    -9.2260     1.1960 H     1 <1>   0.1500 
 40 H       -7.5170    -7.8590    -1.6690 H     1 <1>   0.2700 
 41 H       -8.3830    -9.7140     0.5340 H     1 <1>   0.1000 
 42 H       -7.5310   -11.9720     1.1840 H     1 <1>   0.1000 
 43 H       -5.9010   -11.5630     0.5690 H     1 <1>   0.1000 
 44 H       -6.8490   -11.1770    -1.7300 H     1 <1>   0.1000 
 45 H       -8.4850   -11.5950    -1.1300 H     1 <1>   0.1000 
@<TRIPOS>BOND
  1   1   2  1   
  2   1   3  1   
  3   2   4  2   
  4   2   5  1   
  5   3   6  2   
  6   3   7  1   
  7   4   8  1   
  8   5   6  1   
  9   5   9  am  
 10   7  10  1   
 11   7  25  1   
 12   7  26  1   
 13   8  11  2   
 14   8  12  1   
 15   9  11  1   
 16   9  13  2   
 17  10  27  1   
 18  10  28  1   
 19  10  29  1   
 20  11  30  1   
 21  12  14  1   
 22  12  31  1   
 23  12  32  1   
 24  14  15  1   
 25  14  16  1   
 26  14  33  1   
 27  15  17  1   
 28  15  34  1   
 29  15  35  1   
 30  16  36  1   
 31  16  37  1   
 32  16  38  1   
 33  17  18  2   
 34  17  19  1   
 35  18  20  1   
 36  19  21  2   
 37  19  39  1   
 38  20  21  1   
 39  20  40  1   
 40  21  22  1   
 41  22  23  1   
 42  22  24  1   
 43  22  41  1   
 44  23  24  1   
 45  23  42  1   
 46  23  43  1   
 47  24  44  1   
 48  24  45  1   
@<TRIPOS>SUBSTRUCTURE
  1 ****  12 GROUP 4 **** **** 0

# MOE 2024.06 (io_trps.svl 2023.06)
