@<TRIPOS>MOLECULE
NONAME
47 49 1 0 0 
SMALL
USER_CHARGES


@<TRIPOS>ATOM
  1 N        0.0310    -0.3990     0.8160 N.ar  1 <1>  -0.1790 
  2 C        1.0300     0.3690     0.2410 C.ar  1 <1>   0.3610 
  3 C       -0.0670    -1.7260     0.7190 C.ar  1 <1>   0.4610 
  4 C        2.0240    -0.2910    -0.5060 C.ar  1 <1>   0.0000 
  5 C        1.0490     1.7680     0.4020 C.ar  1 <1>  -0.1440 
  6 N       -1.0880    -2.3560     1.3240 N.pl3 1 <1>  -0.8690 
  7 C        0.9330    -2.3900    -0.0340 C.ar  1 <1>  -0.1500 
  8 C        1.9510    -1.7130    -0.6330 C.ar  1 <1>  -0.1430 
  9 C        3.0310     0.4930    -1.0850 C.ar  1 <1>  -0.1500 
 10 C        2.0610     2.5070    -0.1860 C.ar  1 <1>  -0.1430 
 11 C       -0.0550     2.4440     1.2280 C.3   1 <1>  -0.0970 
 12 C       -1.2960    -3.8330     1.4150 C.3   1 <1>   0.2090 
 13 C        3.0040    -2.4710    -1.4320 C.3   1 <1>  -0.0970 
 14 C        3.0450     1.8540    -0.9260 C.ar  1 <1>  -0.1500 
 15 C        2.1720     4.0240    -0.0720 C.3   1 <1>  -0.0970 
 16 C       -2.1790    -4.3300     0.2640 C.3   1 <1>   0.0200 
 17 C       -2.3150    -5.8450     0.2870 C.2   1 <1>   0.0060 
 18 N       -1.6240    -6.6200     1.0510 N.2   1 <1>  -0.3380 
 19 N       -3.1570    -6.5450    -0.4850 N.pl3 1 <1>   0.0480 
 20 N       -2.0060    -7.8700     0.7950 N.2   1 <1>  -0.3380 
 21 C       -2.9130    -7.8020    -0.1150 C.2   1 <1>   0.0360 
 22 C       -4.1250    -6.0880    -1.5050 C.3   1 <1>   0.0960 
 23 C       -5.4980    -5.8380    -0.8740 C.3   1 <1>  -0.2400 
 24 H       -0.6670     0.0940     1.3580 H     1 <1>   0.4570 
 25 H       -1.8180    -1.8550     1.8430 H     1 <1>   0.4000 
 26 H        0.8700    -3.4580    -0.1280 H     1 <1>   0.1500 
 27 H        3.8100     0.0320    -1.6650 H     1 <1>   0.1500 
 28 H       -0.0470     2.0760     2.2380 H     1 <1>   0.0800 
 29 H       -1.0180     2.2620     0.7860 H     1 <1>   0.0800 
 30 H        0.0650     3.5100     1.2850 H     1 <1>   0.0800 
 31 H       -1.7650    -4.0750     2.3550 H     1 <1>   0.0800 
 32 H       -0.3480    -4.3450     1.3970 H     1 <1>   0.0800 
 33 H        3.0110    -2.1350    -2.4540 H     1 <1>   0.0800 
 34 H        2.8090    -3.5290    -1.4310 H     1 <1>   0.0800 
 35 H        3.9800    -2.3130    -1.0070 H     1 <1>   0.0800 
 36 H        3.8350     2.4260    -1.3860 H     1 <1>   0.1500 
 37 H        1.2980     4.4940    -0.4870 H     1 <1>   0.0800 
 38 H        3.0290     4.3960    -0.6050 H     1 <1>   0.0800 
 39 H        2.2740     4.3140     0.9580 H     1 <1>   0.0800 
 40 H       -1.7420    -4.0410    -0.6740 H     1 <1>   0.0800 
 41 H       -3.1540    -3.8870     0.3510 H     1 <1>   0.0800 
 42 H       -3.4210    -8.6510    -0.5350 H     1 <1>   0.1500 
 43 H       -4.2040    -6.8450    -2.2670 H     1 <1>   0.0800 
 44 H       -3.7560    -5.1880    -1.9630 H     1 <1>   0.0800 
 45 H       -5.8800    -6.7440    -0.4360 H     1 <1>   0.0800 
 46 H       -6.1910    -5.5100    -1.6280 H     1 <1>   0.0800 
 47 H       -5.4360    -5.0780    -0.1160 H     1 <1>   0.0800 
@<TRIPOS>BOND
  1   1   2  ar  
  2   1   3  ar  
  3   1  24  1   
  4   2   4  ar  
  5   2   5  ar  
  6   3   6  1   
  7   3   7  ar  
  8   4   8  ar  
  9   4   9  ar  
 10   5  10  ar  
 11   5  11  1   
 12   6  12  1   
 13   6  25  1   
 14   7   8  ar  
 15   7  26  1   
 16   8  13  1   
 17   9  14  ar  
 18   9  27  1   
 19  10  14  ar  
 20  10  15  1   
 21  11  28  1   
 22  11  29  1   
 23  11  30  1   
 24  12  16  1   
 25  12  31  1   
 26  12  32  1   
 27  13  33  1   
 28  13  34  1   
 29  13  35  1   
 30  14  36  1   
 31  15  37  1   
 32  15  38  1   
 33  15  39  1   
 34  16  17  1   
 35  16  40  1   
 36  16  41  1   
 37  17  18  2   
 38  17  19  1   
 39  18  20  1   
 40  19  21  1   
 41  19  22  1   
 42  20  21  2   
 43  21  42  1   
 44  22  23  1   
 45  22  43  1   
 46  22  44  1   
 47  23  45  1   
 48  23  46  1   
 49  23  47  1   
@<TRIPOS>SUBSTRUCTURE
  1 ****   3 GROUP 4 **** **** 0

# MOE 2024.06 (io_trps.svl 2023.06)
