@<TRIPOS>MOLECULE
NONAME
53 55 1 0 0 
SMALL
USER_CHARGES


@<TRIPOS>ATOM
  1 S        1.4630     2.7150    -1.0330 S.o2  1 <1>   1.3330 
  2 O        2.1240     1.7020    -1.8140 O.2   1 <1>  -0.6500 
  3 O        1.1420     4.0030    -1.6050 O.2   1 <1>  -0.6500 
  4 N        2.4440     3.0500     0.3150 N.am  1 <1>  -0.8490 
  5 C       -0.0560     2.0350    -0.3320 C.3   1 <1>  -0.0550 
  6 C        3.5950     3.8880    -0.0830 C.3   1 <1>   0.1160 
  7 C        3.0010     1.8280     0.9240 C.3   1 <1>   0.1160 
  8 C       -0.9430     2.9420     0.5690 C.3   1 <1>  -0.0800 
  9 C       -1.4690     4.1910    -0.1520 C.3   1 <1>   0.2000 
 10 C       -0.2280     3.5120     1.7970 C.3   1 <1>   0.3430 
 11 O       -2.7700     4.4320     0.2700 O.3   1 <1>  -0.6800 
 12 C       -0.5670     5.3550     0.2900 C.3   1 <1>   0.3430 
 13 N        0.3450     4.7950     1.3370 N.4   1 <1>  -0.9590 
 14 C        0.7490     5.7620     2.3780 C.3   1 <1>   0.5240 
 15 C        2.0200     6.3950     1.8690 C.2   1 <1>  -0.1810 
 16 C        3.2680     6.2790     2.4680 C.2   1 <1>   0.1390 
 17 C        2.2460     7.1380     0.7620 C.2   1 <1>  -0.3020 
 18 N        4.1900     6.8720     1.7840 N.2   1 <1>  -0.7070 
 19 N        3.5720     7.4250     0.7090 N.pl3 1 <1>   0.5930 
 20 C        4.2580     8.0980    -0.3390 C.ar  1 <1>  -0.0230 
 21 C        3.8740     7.9340    -1.6690 C.ar  1 <1>  -0.1500 
 22 C        5.3350     8.9320    -0.0560 C.ar  1 <1>  -0.1500 
 23 C        4.5390     8.5920    -2.6900 C.ar  1 <1>  -0.1440 
 24 C        6.0020     9.5920    -1.0710 C.ar  1 <1>  -0.1500 
 25 C        5.6030     9.4240    -2.3850 C.ar  1 <1>  -0.1500 
 26 C        4.1150     8.4080    -4.1360 C.3   1 <1>  -0.0970 
 27 H       -0.6680     1.7070    -1.1520 H     1 <1>   0.0800 
 28 H        0.1920     1.1490     0.2200 H     1 <1>   0.0800 
 29 H        4.2110     4.1200     0.7700 H     1 <1>   0.0800 
 30 H        3.2590     4.8150    -0.5150 H     1 <1>   0.0800 
 31 H        4.1990     3.3770    -0.8170 H     1 <1>   0.0800 
 32 H        3.6020     2.0800     1.7810 H     1 <1>   0.0800 
 33 H        3.6210     1.2980     0.2170 H     1 <1>   0.0800 
 34 H        2.2140     1.1690     1.2470 H     1 <1>   0.0800 
 35 H       -1.7670     2.3300     0.8950 H     1 <1>   0.0800 
 36 H       -1.4910     4.0900    -1.2250 H     1 <1>   0.0800 
 37 H        0.5380     2.8450     2.1610 H     1 <1>   0.0800 
 38 H       -0.9470     3.6930     2.5790 H     1 <1>   0.0800 
 39 H       -2.8810     4.4260     1.2400 H     1 <1>   0.4000 
 40 H       -1.1710     6.1570     0.6790 H     1 <1>   0.0800 
 41 H        0.0110     5.7170    -0.5450 H     1 <1>   0.0800 
 42 H        1.2360     4.5450     0.8560 H     1 <1>   0.4500 
 43 H       -0.0160     6.5050     2.5360 H     1 <1>   0.0800 
 44 H        0.9490     5.2540     3.3080 H     1 <1>   0.0800 
 45 H        3.4730     5.7540     3.3880 H     1 <1>   0.1500 
 46 H        1.5720     7.4820     0.0000 H     1 <1>   0.1500 
 47 H        3.0530     7.2850    -1.9150 H     1 <1>   0.1500 
 48 H        5.6550     9.0620     0.9650 H     1 <1>   0.1500 
 49 H        6.8330    10.2350    -0.8390 H     1 <1>   0.1500 
 50 H        6.1270     9.9420    -3.1690 H     1 <1>   0.1500 
 51 H        4.9800     8.2900    -4.7630 H     1 <1>   0.0800 
 52 H        3.5630     9.2700    -4.4660 H     1 <1>   0.0800 
 53 H        3.4950     7.5370    -4.2480 H     1 <1>   0.0800 
@<TRIPOS>BOND
  1   1   2  2   
  2   1   3  2   
  3   1   4  am  
  4   1   5  1   
  5   4   6  1   
  6   4   7  1   
  7   5   8  1   
  8   5  27  1   
  9   5  28  1   
 10   6  29  1   
 11   6  30  1   
 12   6  31  1   
 13   7  32  1   
 14   7  33  1   
 15   7  34  1   
 16   8   9  1   
 17   8  10  1   
 18   8  35  1   
 19   9  11  1   
 20   9  12  1   
 21   9  36  1   
 22  10  13  1   
 23  10  37  1   
 24  10  38  1   
 25  11  39  1   
 26  12  13  1   
 27  12  40  1   
 28  12  41  1   
 29  13  14  1   
 30  13  42  1   
 31  14  15  1   
 32  14  43  1   
 33  14  44  1   
 34  15  16  1   
 35  15  17  2   
 36  16  18  2   
 37  16  45  1   
 38  17  19  1   
 39  17  46  1   
 40  18  19  1   
 41  19  20  1   
 42  20  21  ar  
 43  20  22  ar  
 44  21  23  ar  
 45  21  47  1   
 46  22  24  ar  
 47  22  48  1   
 48  23  25  ar  
 49  23  26  1   
 50  24  25  ar  
 51  24  49  1   
 52  25  50  1   
 53  26  51  1   
 54  26  52  1   
 55  26  53  1   
@<TRIPOS>SUBSTRUCTURE
  1 ****  17 GROUP 4 **** **** 0

# MOE 2024.06 (io_trps.svl 2023.06)
