@<TRIPOS>MOLECULE
NONAME
49 51 1 0 0 
SMALL
USER_CHARGES


@<TRIPOS>ATOM
  1 O       -0.2580    -0.3110    -0.3060 O.2   1 <1>  -0.5700 
  2 C       -1.0660     0.3030     0.3660 C.2   1 <1>   0.7160 
  3 N       -2.0400    -0.4030     0.9970 N.am  1 <1>  -0.7300 
  4 C       -1.0550     1.7300     0.4650 C.2   1 <1>  -0.0860 
  5 C       -2.4060    -1.8150     0.6810 C.3   1 <1>   0.2810 
  6 C       -2.1700     2.5230     0.7730 C.2   1 <1>   0.3720 
  7 C       -0.0520     2.6420     0.3330 C.2   1 <1>   0.0870 
  8 C       -3.0650    -1.9210    -0.7100 C.2   1 <1>   0.5690 
  9 C       -3.3000    -2.3610     1.8080 C.3   1 <1>   0.1200 
 10 N       -1.8540     3.7690     0.8260 N.2   1 <1>  -0.4100 
 11 N       -3.4720     2.0330     0.9770 N.pl3 1 <1>  -0.8210 
 12 O       -0.5760     3.8190     0.5610 O.3   1 <1>  -0.0190 
 13 C        1.3540     2.5450     0.0400 C.ar  1 <1>   0.0530 
 14 O       -4.2480    -2.1360    -0.8300 O.2   1 <1>  -0.5700 
 15 N       -2.3090    -1.7420    -1.8130 N.am  1 <1>  -0.8000 
 16 O       -3.6900    -3.6690     1.5440 O.3   1 <1>  -0.6800 
 17 C       -4.2480     1.8380    -0.2830 C.3   1 <1>   0.2090 
 18 C       -4.3260     2.7780     1.9470 C.3   1 <1>   0.2090 
 19 C        2.2840     3.2350     0.8180 C.ar  1 <1>  -0.1500 
 20 C        1.8450     1.7860    -1.0220 C.ar  1 <1>  -0.1500 
 21 C       -5.5690     2.5700    -0.0870 C.3   1 <1>  -0.1600 
 22 C       -5.7450     2.6380     1.4220 C.3   1 <1>  -0.1600 
 23 C        3.6390     3.1610     0.5560 C.ar  1 <1>  -0.1500 
 24 C        3.1990     1.7040    -1.2900 C.ar  1 <1>  -0.1500 
 25 C        4.1110     2.3940    -0.4970 C.ar  1 <1>   0.0830 
 26 O        5.4510     2.3690    -0.6870 O.3   1 <1>  -0.3620 
 27 C        6.0350     1.5940    -1.7100 C.3   1 <1>   0.0400 
 28 H       -2.8160     0.1910     1.3260 H     1 <1>   0.3700 
 29 H       -1.5030    -2.3990     0.6660 H     1 <1>   0.0800 
 30 H       -4.1920    -1.7670     1.9060 H     1 <1>   0.0800 
 31 H       -2.7620    -2.3630     2.7400 H     1 <1>   0.0800 
 32 H       -2.7170    -1.8040    -2.7460 H     1 <1>   0.3700 
 33 H       -1.3270    -1.4450    -1.7460 H     1 <1>   0.3700 
 34 H       -4.2660    -3.6820     0.7440 H     1 <1>   0.4000 
 35 H       -3.7180     2.2230    -1.1390 H     1 <1>   0.0800 
 36 H       -4.4290     0.7850    -0.4250 H     1 <1>   0.0800 
 37 H       -4.2300     2.3610     2.9350 H     1 <1>   0.0800 
 38 H       -4.0550     3.8210     1.9760 H     1 <1>   0.0800 
 39 H        1.9370     3.8370     1.6390 H     1 <1>   0.1500 
 40 H        1.1540     1.2540    -1.6500 H     1 <1>   0.1500 
 41 H       -5.4780     3.5630    -0.4910 H     1 <1>   0.0800 
 42 H       -6.3820     2.0640    -0.5760 H     1 <1>   0.0800 
 43 H       -6.1680     1.7180     1.7870 H     1 <1>   0.0800 
 44 H       -6.3680     3.4600     1.7270 H     1 <1>   0.0800 
 45 H        4.3430     3.6970     1.1660 H     1 <1>   0.1500 
 46 H        3.5250     1.1020    -2.1160 H     1 <1>   0.1500 
 47 H        7.1010     1.7240    -1.6600 H     1 <1>   0.0800 
 48 H        5.6680     1.9390    -2.6610 H     1 <1>   0.0800 
 49 H        5.7840     0.5600    -1.5520 H     1 <1>   0.0800 
@<TRIPOS>BOND
  1   1   2  2   
  2   2   3  am  
  3   2   4  1   
  4   3   5  1   
  5   3  28  1   
  6   4   6  1   
  7   4   7  2   
  8   5   8  1   
  9   5   9  1   
 10   5  29  1   
 11   6  10  2   
 12   6  11  1   
 13   7  12  1   
 14   7  13  1   
 15   8  14  2   
 16   8  15  am  
 17   9  16  1   
 18   9  30  1   
 19   9  31  1   
 20  10  12  1   
 21  11  17  1   
 22  11  18  1   
 23  13  19  ar  
 24  13  20  ar  
 25  15  32  1   
 26  15  33  1   
 27  16  34  1   
 28  17  21  1   
 29  17  35  1   
 30  17  36  1   
 31  18  22  1   
 32  18  37  1   
 33  18  38  1   
 34  19  23  ar  
 35  19  39  1   
 36  20  24  ar  
 37  20  40  1   
 38  21  22  1   
 39  21  41  1   
 40  21  42  1   
 41  22  43  1   
 42  22  44  1   
 43  23  25  ar  
 44  23  45  1   
 45  24  25  ar  
 46  24  46  1   
 47  25  26  1   
 48  26  27  1   
 49  27  47  1   
 50  27  48  1   
 51  27  49  1   
@<TRIPOS>SUBSTRUCTURE
  1 ****   4 GROUP 4 **** **** 0

# MOE 2024.06 (io_trps.svl 2023.06)
