@<TRIPOS>MOLECULE
NONAME
53 56 1 0 0 
SMALL
USER_CHARGES


@<TRIPOS>ATOM
  1 O       -1.1150     0.4310     2.1430 O.2   1 <1>  -0.5700 
  2 C       -1.2130     1.1620     1.1730 C.2   1 <1>   0.5440 
  3 N       -2.1300     0.8290     0.1940 N.am  1 <1>  -0.6600 
  4 C       -0.4270     2.3750     1.1440 C.ar  1 <1>   0.0860 
  5 C       -2.7520    -0.5280     0.1870 C.3   1 <1>   0.1400 
  6 C       -2.5270     1.7580    -0.9020 C.3   1 <1>   0.1400 
  7 C        0.5380     2.6100     0.1310 C.ar  1 <1>   0.3100 
  8 C       -0.6110     3.3190     2.1360 C.ar  1 <1>  -0.1500 
  9 C       -4.0390    -0.5420     1.0240 C.3   1 <1>   0.1400 
 10 C       -4.0410     1.7880    -1.1640 C.3   1 <1>  -0.1600 
 11 N        0.7500     1.6900    -0.8550 N.ar  1 <1>  -0.6200 
 12 C        1.2800     3.8220     0.1620 C.ar  1 <1>   0.3100 
 13 C        0.1160     4.5070     2.1620 C.ar  1 <1>  -0.1500 
 14 N       -5.1650     0.1730     0.3400 N.am  1 <1>  -0.6600 
 15 C       -4.9150     1.6230     0.0860 C.3   1 <1>   0.1400 
 16 C        1.6640     2.0120    -1.7150 C.ar  1 <1>   0.1600 
 17 N        2.2220     4.1290    -0.7690 N.ar  1 <1>  -0.6200 
 18 C        1.0440     4.7490     1.1860 C.ar  1 <1>  -0.1500 
 19 C       -6.3640    -0.3970    -0.0190 C.2   1 <1>   0.5690 
 20 C        2.3900     3.2170    -1.6730 C.ar  1 <1>   0.1600 
 21 O       -7.2520     0.2600    -0.5100 O.2   1 <1>  -0.5700 
 22 C       -6.6080    -1.8820     0.1990 C.3   1 <1>  -0.0990 
 23 C       -7.8840    -2.4210    -0.4740 C.3   1 <1>   0.1760 
 24 N       -8.1690    -3.7840     0.0520 N.pl3 1 <1>   0.3140 
 25 C       -7.7850    -2.4460    -2.0120 C.3   1 <1>  -0.2400 
 26 N       -9.1240    -3.9990     0.9790 N.2   1 <1>  -0.7070 
 27 C       -7.5370    -4.9370    -0.2620 C.2   1 <1>  -0.3020 
 28 C       -9.0820    -5.2730     1.2190 C.2   1 <1>   0.1390 
 29 C       -8.1050    -5.9170     0.4720 C.2   1 <1>  -0.1500 
 30 H       -2.0560    -1.2320     0.6090 H     1 <1>   0.0800 
 31 H       -2.9580    -0.8420    -0.8210 H     1 <1>   0.0800 
 32 H       -2.0090     1.4770    -1.8030 H     1 <1>   0.0800 
 33 H       -2.2160     2.7560    -0.6490 H     1 <1>   0.0800 
 34 H       -1.3320     3.1320     2.9150 H     1 <1>   0.1500 
 35 H       -3.8430    -0.0760     1.9750 H     1 <1>   0.0800 
 36 H       -4.3000    -1.5630     1.2250 H     1 <1>   0.0800 
 37 H       -4.3050     1.0380    -1.8880 H     1 <1>   0.0800 
 38 H       -4.2700     2.7370    -1.6130 H     1 <1>   0.0800 
 39 H       -0.0560     5.2200     2.9510 H     1 <1>   0.1500 
 40 H       -5.8510     2.1310    -0.0720 H     1 <1>   0.0800 
 41 H       -4.4460     2.0740     0.9440 H     1 <1>   0.0800 
 42 H        1.8860     1.3240    -2.5110 H     1 <1>   0.1500 
 43 H        1.6200     5.6570     1.1830 H     1 <1>   0.1500 
 44 H        3.1250     3.3850    -2.4400 H     1 <1>   0.1500 
 45 H       -6.6870    -2.0390     1.2590 H     1 <1>   0.0800 
 46 H       -5.7660    -2.4340    -0.1740 H     1 <1>   0.0800 
 47 H       -8.7150    -1.7990    -0.1910 H     1 <1>   0.0800 
 48 H       -6.9330    -3.0140    -2.3380 H     1 <1>   0.0800 
 49 H       -7.6920    -1.4460    -2.3960 H     1 <1>   0.0800 
 50 H       -8.6800    -2.8750    -2.4270 H     1 <1>   0.0800 
 51 H       -6.7360    -4.9970    -0.9740 H     1 <1>   0.1500 
 52 H       -9.7350    -5.7640     1.9220 H     1 <1>   0.1500 
 53 H       -7.8770    -6.9670     0.4960 H     1 <1>   0.1500 
@<TRIPOS>BOND
  1   1   2  2   
  2   2   3  am  
  3   2   4  1   
  4   3   5  1   
  5   3   6  1   
  6   4   7  ar  
  7   4   8  ar  
  8   5   9  1   
  9   5  30  1   
 10   5  31  1   
 11   6  10  1   
 12   6  32  1   
 13   6  33  1   
 14   7  11  ar  
 15   7  12  ar  
 16   8  13  ar  
 17   8  34  1   
 18   9  14  1   
 19   9  35  1   
 20   9  36  1   
 21  10  15  1   
 22  10  37  1   
 23  10  38  1   
 24  11  16  ar  
 25  12  17  ar  
 26  12  18  ar  
 27  13  18  ar  
 28  13  39  1   
 29  14  15  1   
 30  14  19  am  
 31  15  40  1   
 32  15  41  1   
 33  16  20  ar  
 34  16  42  1   
 35  17  20  ar  
 36  18  43  1   
 37  19  21  2   
 38  19  22  1   
 39  20  44  1   
 40  22  23  1   
 41  22  45  1   
 42  22  46  1   
 43  23  24  1   
 44  23  25  1   
 45  23  47  1   
 46  24  26  1   
 47  24  27  1   
 48  25  48  1   
 49  25  49  1   
 50  25  50  1   
 51  26  28  2   
 52  27  29  2   
 53  27  51  1   
 54  28  29  1   
 55  28  52  1   
 56  29  53  1   
@<TRIPOS>SUBSTRUCTURE
  1 ****   5 GROUP 4 **** **** 0

# MOE 2024.06 (io_trps.svl 2023.06)
