@<TRIPOS>MOLECULE
NONAME
58 62 1 0 0 
SMALL
USER_CHARGES


@<TRIPOS>ATOM
  1 S        0.2030     0.0200     1.5960 S.3   1 <1>  -0.0800 
  2 C       -0.9520     0.8400     0.5570 C.2   1 <1>  -0.1400 
  3 C       -0.9090    -1.3230     1.8230 C.2   1 <1>  -0.1100 
  4 C       -2.0750     0.1220     0.4350 C.2   1 <1>  -0.1810 
  5 C       -0.6640     2.1850    -0.0930 C.3   1 <1>   0.4600 
  6 C       -2.0570    -1.1180     1.1490 C.2   1 <1>  -0.1500 
  7 C       -3.2120     0.6540    -0.4070 C.3   1 <1>   0.0210 
  8 O       -1.7210     2.5070    -0.9740 O.3   1 <1>  -0.5600 
  9 C       -0.5320     3.3020     0.9510 C.3   1 <1>  -0.1600 
 10 C        0.5960     2.0990    -0.9610 C.3   1 <1>  -0.1600 
 11 C       -3.0370     2.1760    -0.5850 C.3   1 <1>   0.1200 
 12 C       -0.1660     4.6370     0.3040 C.3   1 <1>   0.2090 
 13 C        0.9270     3.4510    -1.5860 C.3   1 <1>   0.2090 
 14 N        1.0870     4.4570    -0.4910 N.pl3 1 <1>  -0.8380 
 15 C        2.2020     5.2170    -0.2900 C.ar  1 <1>   0.4610 
 16 N        3.4020     4.6340    -0.4160 N.ar  1 <1>  -0.1790 
 17 C        2.2060     6.5450     0.0570 C.ar  1 <1>  -0.1500 
 18 C        4.5440     5.3150    -0.2120 C.ar  1 <1>   0.7710 
 19 C        3.4120     7.2060     0.2440 C.ar  1 <1>   0.4100 
 20 N        4.5810     6.5830     0.1050 N.ar  1 <1>  -0.6200 
 21 N        5.7180     4.6860    -0.3330 N.pl3 1 <1>  -0.9000 
 22 N        3.4610     8.5300     0.5750 N.pl3 1 <1>  -0.8380 
 23 C        4.5570     9.0990     1.4320 C.3   1 <1>   0.2090 
 24 C        2.5690     9.5630    -0.0450 C.3   1 <1>   0.2090 
 25 C        5.3640    10.1680     0.6650 C.3   1 <1>   0.3430 
 26 C        3.3940    10.6510    -0.7760 C.3   1 <1>   0.3430 
 27 N        4.4820    11.2480     0.0840 N.4   1 <1>  -0.9590 
 28 C        5.2910    12.2400    -0.6880 C.3   1 <1>   0.2630 
 29 H       -0.5820    -2.1370     2.4460 H     1 <1>   0.1500 
 30 H       -2.8980    -1.7890     1.1230 H     1 <1>   0.1500 
 31 H       -4.1530     0.4580     0.0750 H     1 <1>   0.0800 
 32 H       -3.2140     0.1700    -1.3670 H     1 <1>   0.0800 
 33 H        0.2350     3.0390     1.6560 H     1 <1>   0.0800 
 34 H       -1.4470     3.3980     1.5040 H     1 <1>   0.0800 
 35 H        0.4370     1.3660    -1.7320 H     1 <1>   0.0800 
 36 H        1.4260     1.7690    -0.3650 H     1 <1>   0.0800 
 37 H       -3.2580     2.6850     0.3370 H     1 <1>   0.0800 
 38 H       -3.7060     2.5370    -1.3460 H     1 <1>   0.0800 
 39 H       -0.0320     5.3790     1.0730 H     1 <1>   0.0800 
 40 H       -0.9640     4.9610    -0.3460 H     1 <1>   0.0800 
 41 H        0.1220     3.7570    -2.2350 H     1 <1>   0.0800 
 42 H        1.8180     3.3790    -2.1850 H     1 <1>   0.0800 
 43 H        3.4330     3.6420    -0.5950 H     1 <1>   0.4570 
 44 H        1.2810     7.0700     0.1870 H     1 <1>   0.1500 
 45 H        6.5730     5.2250    -0.1670 H     1 <1>   0.4000 
 46 H        5.8880     3.7060    -0.5650 H     1 <1>   0.4000 
 47 H        5.2260     8.3230     1.7640 H     1 <1>   0.0800 
 48 H        4.1240     9.5410     2.3130 H     1 <1>   0.0800 
 49 H        1.9660    10.0200     0.7210 H     1 <1>   0.0800 
 50 H        1.9040     9.1040    -0.7560 H     1 <1>   0.0800 
 51 H        5.9010     9.6750    -0.1290 H     1 <1>   0.0800 
 52 H        6.0890    10.6060     1.3310 H     1 <1>   0.0800 
 53 H        2.7270    11.4280    -1.1130 H     1 <1>   0.0800 
 54 H        3.8380    10.2000    -1.6480 H     1 <1>   0.0800 
 55 H        4.0280    11.7360     0.8710 H     1 <1>   0.4500 
 56 H        5.7820    11.7590    -1.5180 H     1 <1>   0.0800 
 57 H        6.0420    12.6860    -0.0550 H     1 <1>   0.0800 
 58 H        4.6580    13.0250    -1.0700 H     1 <1>   0.0800 
@<TRIPOS>BOND
  1   1   2  1   
  2   1   3  1   
  3   2   4  2   
  4   2   5  1   
  5   3   6  2   
  6   3  29  1   
  7   4   6  1   
  8   4   7  1   
  9   5   8  1   
 10   5   9  1   
 11   5  10  1   
 12   6  30  1   
 13   7  11  1   
 14   7  31  1   
 15   7  32  1   
 16   8  11  1   
 17   9  12  1   
 18   9  33  1   
 19   9  34  1   
 20  10  13  1   
 21  10  35  1   
 22  10  36  1   
 23  11  37  1   
 24  11  38  1   
 25  12  14  1   
 26  12  39  1   
 27  12  40  1   
 28  13  14  1   
 29  13  41  1   
 30  13  42  1   
 31  14  15  1   
 32  15  16  ar  
 33  15  17  ar  
 34  16  18  ar  
 35  16  43  1   
 36  17  19  ar  
 37  17  44  1   
 38  18  20  ar  
 39  18  21  1   
 40  19  20  ar  
 41  19  22  1   
 42  21  45  1   
 43  21  46  1   
 44  22  23  1   
 45  22  24  1   
 46  23  25  1   
 47  23  47  1   
 48  23  48  1   
 49  24  26  1   
 50  24  49  1   
 51  24  50  1   
 52  25  27  1   
 53  25  51  1   
 54  25  52  1   
 55  26  27  1   
 56  26  53  1   
 57  26  54  1   
 58  27  28  1   
 59  27  55  1   
 60  28  56  1   
 61  28  57  1   
 62  28  58  1   
@<TRIPOS>SUBSTRUCTURE
  1 ****  14 GROUP 4 **** **** 0

# MOE 2024.06 (io_trps.svl 2023.06)
