@<TRIPOS>MOLECULE
NONAME
41 44 1 0 0 
SMALL
USER_CHARGES


@<TRIPOS>ATOM
  1 S       -0.0100    -0.3670    -0.2990 S.3   1 <1>  -0.0800 
  2 C       -0.2160    -2.0810    -0.6880 C.2   1 <1>  -0.0450 
  3 C       -0.1220    -0.7030     1.4270 C.2   1 <1>  -0.1100 
  4 C       -0.2530    -2.6990    -1.9630 C.2   1 <1>   0.8660 
  5 C       -0.3510    -2.7920     0.4530 C.2   1 <1>   0.0830 
  6 C       -0.3000    -2.0200     1.6530 C.2   1 <1>  -0.1500 
  7 O       -0.1360    -2.0690    -3.0050 O.2   1 <1>  -0.5700 
  8 N       -0.4300    -4.0620    -2.0380 N.2   1 <1>  -0.6610 
  9 N       -0.5210    -4.1440     0.3040 N.pl3 1 <1>  -0.5330 
 10 C       -0.5530    -4.7180    -0.9360 C.2   1 <1>   0.4390 
 11 C       -0.7490    -6.2340    -0.9590 C.3   1 <1>   0.1710 
 12 N       -1.5670    -6.7360     0.1810 N.3   1 <1>  -0.8100 
 13 C       -2.9780    -6.3310     0.0700 C.3   1 <1>   0.1100 
 14 C       -1.5770    -8.2090     0.2290 C.3   1 <1>   0.1100 
 15 C       -3.7260    -7.3380     0.9340 C.3   1 <1>   0.2000 
 16 C       -2.9940    -8.6470     0.6480 C.3   1 <1>  -0.0800 
 17 O       -3.4990    -7.0090     2.2570 O.3   1 <1>  -0.6800 
 18 C       -3.7120    -9.4470    -0.4560 C.3   1 <1>  -0.0170 
 19 C       -2.9940   -10.7490    -0.7760 C.ar  1 <1>   0.1670 
 20 N       -2.2160   -10.7510    -1.8470 N.ar  1 <1>  -0.6200 
 21 C       -3.1730   -11.8590     0.0480 C.ar  1 <1>   0.1600 
 22 C       -1.6390   -11.9260    -2.0390 C.ar  1 <1>   0.1600 
 23 N       -2.5920   -13.0320    -0.1400 N.ar  1 <1>  -0.6200 
 24 C       -1.8200   -13.0290    -1.2130 C.ar  1 <1>   0.1600 
 25 H       -0.0410     0.1350     2.0980 H     1 <1>   0.1500 
 26 H       -0.3980    -2.4840     2.6170 H     1 <1>   0.1500 
 27 H       -0.6960    -4.7760     1.0940 H     1 <1>   0.4000 
 28 H        0.2260    -6.6870    -0.9140 H     1 <1>   0.0800 
 29 H       -1.2000    -6.5180    -1.8940 H     1 <1>   0.0800 
 30 H       -3.1370    -5.3210     0.4060 H     1 <1>   0.0800 
 31 H       -3.3120    -6.4220    -0.9500 H     1 <1>   0.0800 
 32 H       -1.3190    -8.6170    -0.7340 H     1 <1>   0.0800 
 33 H       -0.8480    -8.5490     0.9460 H     1 <1>   0.0800 
 34 H       -4.7880    -7.3650     0.7590 H     1 <1>   0.0800 
 35 H       -2.9500    -9.2570     1.5340 H     1 <1>   0.0800 
 36 H       -2.5360    -6.8610     2.3480 H     1 <1>   0.4000 
 37 H       -3.7860    -8.8570    -1.3530 H     1 <1>   0.0800 
 38 H       -4.7130    -9.6750    -0.1370 H     1 <1>   0.0800 
 39 H       -3.8230   -11.7720     0.9000 H     1 <1>   0.1500 
 40 H       -0.9890   -12.0210    -2.8910 H     1 <1>   0.1500 
 41 H       -1.3050   -13.9430    -1.4510 H     1 <1>   0.1500 
@<TRIPOS>BOND
  1   1   2  1   
  2   1   3  1   
  3   2   4  1   
  4   2   5  2   
  5   3   6  2   
  6   3  25  1   
  7   4   7  2   
  8   4   8  1   
  9   5   6  1   
 10   5   9  1   
 11   6  26  1   
 12   8  10  2   
 13   9  10  1   
 14   9  27  1   
 15  10  11  1   
 16  11  12  1   
 17  11  28  1   
 18  11  29  1   
 19  12  13  1   
 20  12  14  1   
 21  13  15  1   
 22  13  30  1   
 23  13  31  1   
 24  14  16  1   
 25  14  32  1   
 26  14  33  1   
 27  15  16  1   
 28  15  17  1   
 29  15  34  1   
 30  16  18  1   
 31  16  35  1   
 32  17  36  1   
 33  18  19  1   
 34  18  37  1   
 35  18  38  1   
 36  19  20  ar  
 37  19  21  ar  
 38  20  22  ar  
 39  21  23  ar  
 40  21  39  1   
 41  22  24  ar  
 42  22  40  1   
 43  23  24  ar  
 44  24  41  1   
@<TRIPOS>SUBSTRUCTURE
  1 ****  12 GROUP 4 **** **** 0

# MOE 2024.06 (io_trps.svl 2023.06)
