@<TRIPOS>MOLECULE
NONAME
48 50 1 0 0 
SMALL
USER_CHARGES


@<TRIPOS>ATOM
  1 O       -0.6440     0.1940    -0.5090 O.2   1 <1>  -0.5700 
  2 C       -1.5430     0.8210     0.0320 C.2   1 <1>   0.7160 
  3 N       -2.6430     0.0960     0.4690 N.am  1 <1>  -0.6600 
  4 C       -1.4070     2.2710     0.1900 C.2   1 <1>   0.2030 
  5 C       -3.0090    -1.2100    -0.1590 C.3   1 <1>   0.1400 
  6 C       -3.5920     0.5820     1.5050 C.3   1 <1>   0.1400 
  7 N       -2.3830     3.1670     0.2830 N.2   1 <1>  -0.7070 
  8 C       -0.1700     2.9320     0.2420 C.2   1 <1>  -0.1810 
  9 C       -4.4370    -1.1400    -0.7330 C.3   1 <1>   0.2000 
 10 C       -4.9940     0.6890     0.8920 C.3   1 <1>  -0.1600 
 11 N       -1.7780     4.3620     0.3900 N.pl3 1 <1>   0.3000 
 12 C       -0.4420     4.2380     0.3620 C.2   1 <1>  -0.3320 
 13 C        1.2510     2.3920     0.1790 C.3   1 <1>   0.3010 
 14 O       -4.7770    -2.3840    -1.2590 O.3   1 <1>  -0.6800 
 15 C       -5.4990    -0.6550     0.2990 C.3   1 <1>   0.0000 
 16 C        0.6460     5.2890     0.4490 C.3   1 <1>   0.0200 
 17 O        2.1510     3.3880     0.6080 O.3   1 <1>  -0.5600 
 18 C       -5.6510    -1.7190     1.4250 C.3   1 <1>   0.1200 
 19 C       -6.8930    -0.4570    -0.3690 C.3   1 <1>  -0.1600 
 20 C        1.9820     4.6510     0.0140 C.3   1 <1>   0.1200 
 21 O       -6.5260    -1.3010     2.4180 O.3   1 <1>  -0.6800 
 22 C       -6.9510     0.4690    -1.5980 C.3   1 <1>  -0.1600 
 23 C       -8.3880     0.5980    -2.1110 C.3   1 <1>  -0.2400 
 24 H       -2.3310    -1.4420    -0.9620 H     1 <1>   0.0800 
 25 H       -2.9320    -1.9850     0.5820 H     1 <1>   0.0800 
 26 H       -3.5910    -0.1070     2.3320 H     1 <1>   0.0800 
 27 H       -3.2870     1.5360     1.8940 H     1 <1>   0.0800 
 28 H       -4.4020    -0.4560    -1.5620 H     1 <1>   0.0800 
 29 H       -5.6780     1.0600     1.6330 H     1 <1>   0.0800 
 30 H       -4.9380     1.4380     0.1230 H     1 <1>   0.0800 
 31 H       -2.3010     5.2420     0.4780 H     1 <1>   0.2700 
 32 H        1.5050     2.1070    -0.8270 H     1 <1>   0.0800 
 33 H        1.3660     1.5420     0.8280 H     1 <1>   0.0800 
 34 H       -4.8750    -3.0500    -0.5550 H     1 <1>   0.4000 
 35 H        0.7310     5.6430     1.4610 H     1 <1>   0.0800 
 36 H        0.4220     6.1230    -0.1900 H     1 <1>   0.0800 
 37 H       -4.7100    -1.9380     1.8970 H     1 <1>   0.0800 
 38 H       -6.0490    -2.6360     1.0260 H     1 <1>   0.0800 
 39 H       -7.2670    -1.4220    -0.6680 H     1 <1>   0.0800 
 40 H       -7.5790    -0.0760     0.3680 H     1 <1>   0.0800 
 41 H        2.8080     5.2710     0.3130 H     1 <1>   0.0800 
 42 H        2.0090     4.5230    -1.0550 H     1 <1>   0.0800 
 43 H       -6.2840    -0.4140     2.7430 H     1 <1>   0.4000 
 44 H       -6.5880     1.4510    -1.3540 H     1 <1>   0.0800 
 45 H       -6.3450     0.0710    -2.3930 H     1 <1>   0.0800 
 46 H       -9.0240     1.0180    -1.3510 H     1 <1>   0.0800 
 47 H       -8.7740    -0.3660    -2.3930 H     1 <1>   0.0800 
 48 H       -8.4150     1.2420    -2.9720 H     1 <1>   0.0800 
@<TRIPOS>BOND
  1   1   2  2   
  2   2   3  am  
  3   2   4  1   
  4   3   5  1   
  5   3   6  1   
  6   4   7  2   
  7   4   8  1   
  8   5   9  1   
  9   5  24  1   
 10   5  25  1   
 11   6  10  1   
 12   6  26  1   
 13   6  27  1   
 14   7  11  1   
 15   8  12  2   
 16   8  13  1   
 17   9  14  1   
 18   9  15  1   
 19   9  28  1   
 20  10  15  1   
 21  10  29  1   
 22  10  30  1   
 23  11  12  1   
 24  11  31  1   
 25  12  16  1   
 26  13  17  1   
 27  13  32  1   
 28  13  33  1   
 29  14  34  1   
 30  15  18  1   
 31  15  19  1   
 32  16  20  1   
 33  16  35  1   
 34  16  36  1   
 35  17  20  1   
 36  18  21  1   
 37  18  37  1   
 38  18  38  1   
 39  19  22  1   
 40  19  39  1   
 41  19  40  1   
 42  20  41  1   
 43  20  42  1   
 44  21  43  1   
 45  22  23  1   
 46  22  44  1   
 47  22  45  1   
 48  23  46  1   
 49  23  47  1   
 50  23  48  1   
@<TRIPOS>SUBSTRUCTURE
  1 ****   3 GROUP 4 **** **** 0

# MOE 2024.06 (io_trps.svl 2023.06)
