@<TRIPOS>MOLECULE
NONAME
55 58 1 0 0 
SMALL
USER_CHARGES


@<TRIPOS>ATOM
  1 O       -0.5090     0.6020    -0.6070 O.2   1 <1>  -0.5700 
  2 C       -1.5460     1.0020    -0.1010 C.2   1 <1>   0.5440 
  3 N       -1.5240     2.2530     0.5020 N.am  1 <1>  -0.6600 
  4 C       -2.7420     0.1550    -0.1880 C.ar  1 <1>   0.3960 
  5 C       -0.2430     2.9350     0.8370 C.3   1 <1>   0.1400 
  6 C       -2.7500     3.0180     0.8630 C.3   1 <1>   0.1400 
  7 N       -3.5670     0.0210     0.8690 N.ar  1 <1>  -0.6200 
  8 C       -2.9930    -0.5170    -1.3860 C.ar  1 <1>  -0.1500 
  9 C       -0.1940     4.3090     0.1640 C.3   1 <1>  -0.1600 
 10 C       -2.7100     4.4030     0.2090 C.3   1 <1>  -0.1600 
 11 C       -4.6150    -0.7670     0.7190 C.ar  1 <1>   0.1600 
 12 C       -4.0930    -1.3340    -1.5320 C.ar  1 <1>  -0.1500 
 13 C       -1.4130     5.1680     0.5470 C.3   1 <1>  -0.0190 
 14 C       -4.9220    -1.4560    -0.4410 C.ar  1 <1>  -0.1500 
 15 C       -1.3440     6.5460    -0.1150 C.2   1 <1>   0.5690 
 16 O       -2.0040     6.7740    -1.1000 O.2   1 <1>  -0.5700 
 17 N       -0.5070     7.4700     0.4510 N.am  1 <1>  -0.4940 
 18 C       -0.2990     8.8190     0.0740 C.2   1 <1>  -0.0880 
 19 N        0.9200     9.4060    -0.0900 N.pl3 1 <1>   0.3140 
 20 C       -1.2210     9.7790    -0.1810 C.2   1 <1>  -0.1810 
 21 N        0.7940    10.7150    -0.4220 N.2   1 <1>  -0.7070 
 22 C        2.2460     8.7290     0.0100 C.3   1 <1>   0.1760 
 23 C       -0.4840    10.9180    -0.4810 C.2   1 <1>   0.1390 
 24 C       -2.7360     9.6890    -0.1620 C.3   1 <1>  -0.0590 
 25 C        3.1340     9.3050     1.1150 C.3   1 <1>  -0.1600 
 26 C        3.0970     8.8650    -1.2520 C.3   1 <1>  -0.1600 
 27 C        4.5670     8.9410     0.7110 C.3   1 <1>  -0.1600 
 28 C        4.5280     8.5900    -0.7830 C.3   1 <1>  -0.1600 
 29 H        0.6010     2.3480     0.5170 H     1 <1>   0.0800 
 30 H       -0.1790     3.0440     1.9060 H     1 <1>   0.0800 
 31 H       -2.8030     3.1110     1.9340 H     1 <1>   0.0800 
 32 H       -3.6360     2.5100     0.5270 H     1 <1>   0.0800 
 33 H       -2.3060    -0.3900    -2.2040 H     1 <1>   0.1500 
 34 H       -0.1680     4.1690    -0.9040 H     1 <1>   0.0800 
 35 H        0.7160     4.8040     0.4500 H     1 <1>   0.0800 
 36 H       -3.5620     4.9740     0.5340 H     1 <1>   0.0800 
 37 H       -2.7920     4.2790    -0.8570 H     1 <1>   0.0800 
 38 H       -5.2700    -0.8740     1.5670 H     1 <1>   0.1500 
 39 H       -4.2910    -1.8530    -2.4540 H     1 <1>   0.1500 
 40 H       -1.3980     5.3210     1.6110 H     1 <1>   0.0800 
 41 H       -5.7970    -2.0790    -0.4840 H     1 <1>   0.1500 
 42 H        0.0310     7.1460     1.2530 H     1 <1>   0.3700 
 43 H        2.0920     7.6830     0.1990 H     1 <1>   0.0800 
 44 H       -0.9170    11.8710    -0.7340 H     1 <1>   0.1500 
 45 H       -3.0540     8.8550     0.4360 H     1 <1>   0.0800 
 46 H       -3.1010     9.5520    -1.1640 H     1 <1>   0.0800 
 47 H       -3.1570    10.5890     0.2480 H     1 <1>   0.0800 
 48 H        2.8780     8.9100     2.0820 H     1 <1>   0.0800 
 49 H        3.0380    10.3780     1.1290 H     1 <1>   0.0800 
 50 H        3.0400     9.8750    -1.6230 H     1 <1>   0.0800 
 51 H        2.7860     8.1810    -2.0210 H     1 <1>   0.0800 
 52 H        4.9120     8.0910     1.2760 H     1 <1>   0.0800 
 53 H        5.2300     9.7700     0.8950 H     1 <1>   0.0800 
 54 H        5.2370     9.1730    -1.3450 H     1 <1>   0.0800 
 55 H        4.7580     7.5460    -0.9130 H     1 <1>   0.0800 
@<TRIPOS>BOND
  1   1   2  2   
  2   2   3  am  
  3   2   4  1   
  4   3   5  1   
  5   3   6  1   
  6   4   7  ar  
  7   4   8  ar  
  8   5   9  1   
  9   5  29  1   
 10   5  30  1   
 11   6  10  1   
 12   6  31  1   
 13   6  32  1   
 14   7  11  ar  
 15   8  12  ar  
 16   8  33  1   
 17   9  13  1   
 18   9  34  1   
 19   9  35  1   
 20  10  13  1   
 21  10  36  1   
 22  10  37  1   
 23  11  14  ar  
 24  11  38  1   
 25  12  14  ar  
 26  12  39  1   
 27  13  15  1   
 28  13  40  1   
 29  14  41  1   
 30  15  16  2   
 31  15  17  am  
 32  17  18  1   
 33  17  42  1   
 34  18  19  1   
 35  18  20  2   
 36  19  21  1   
 37  19  22  1   
 38  20  23  1   
 39  20  24  1   
 40  21  23  2   
 41  22  25  1   
 42  22  26  1   
 43  22  43  1   
 44  23  44  1   
 45  24  45  1   
 46  24  46  1   
 47  24  47  1   
 48  25  27  1   
 49  25  48  1   
 50  25  49  1   
 51  26  28  1   
 52  26  50  1   
 53  26  51  1   
 54  27  28  1   
 55  27  52  1   
 56  27  53  1   
 57  28  54  1   
 58  28  55  1   
@<TRIPOS>SUBSTRUCTURE
  1 ****  13 GROUP 4 **** **** 0

# MOE 2024.06 (io_trps.svl 2023.06)
