@<TRIPOS>MOLECULE
NONAME
46 47 1 0 0 
SMALL
USER_CHARGES


@<TRIPOS>ATOM
  1 N       -0.1210    -0.9400     0.4320 N.2   1 <1>  -0.7070 
  2 N        0.3360    -1.6000    -0.6460 N.pl3 1 <1>   0.3000 
  3 C       -1.3580    -1.3010     0.5410 C.2   1 <1>   0.1080 
  4 C       -0.6190    -2.3780    -1.1990 C.2   1 <1>  -0.3320 
  5 C       -1.7320    -2.2080    -0.4510 C.2   1 <1>  -0.1810 
  6 C       -2.2430    -0.7560     1.6390 C.3   1 <1>  -0.0590 
  7 C       -0.3660    -3.2310    -2.4310 C.3   1 <1>  -0.0600 
  8 C       -3.0920    -2.8520    -0.6250 C.3   1 <1>   0.0210 
  9 C       -3.1220    -4.1750     0.1450 C.3   1 <1>  -0.1600 
 10 C       -4.4720    -4.8740    -0.0080 C.3   1 <1>   0.3430 
 11 N       -4.4380    -6.2190     0.6390 N.4   1 <1>  -0.9590 
 12 C       -5.6160    -7.0190     0.1540 C.3   1 <1>   0.3430 
 13 C       -4.4190    -6.1090     2.1360 C.3   1 <1>   0.2630 
 14 C       -5.5580    -8.5040     0.5330 C.3   1 <1>   0.0960 
 15 N       -6.7350    -9.1890    -0.0270 N.pl3 1 <1>   0.3140 
 16 N       -7.7320    -8.5020    -0.6180 N.2   1 <1>  -0.7070 
 17 C       -6.9830   -10.5170    -0.0300 C.2   1 <1>  -0.3320 
 18 C       -8.5890    -9.4070    -0.9820 C.2   1 <1>   0.1390 
 19 C       -8.1750   -10.6870    -0.6410 C.2   1 <1>  -0.1500 
 20 C       -6.0750   -11.5880     0.5530 C.3   1 <1>  -0.0600 
 21 H        1.3020    -1.4950    -0.9770 H     1 <1>   0.2700 
 22 H       -1.6410    -0.2410     2.3660 H     1 <1>   0.0800 
 23 H       -2.7670    -1.5530     2.1280 H     1 <1>   0.0800 
 24 H       -2.9480    -0.0610     1.2220 H     1 <1>   0.0800 
 25 H        0.4360    -3.9230    -2.2430 H     1 <1>   0.0800 
 26 H       -0.0950    -2.6040    -3.2630 H     1 <1>   0.0800 
 27 H       -1.2430    -3.7890    -2.6990 H     1 <1>   0.0800 
 28 H       -3.2700    -3.0220    -1.6730 H     1 <1>   0.0800 
 29 H       -3.8540    -2.1820    -0.2660 H     1 <1>   0.0800 
 30 H       -2.9200    -3.9660     1.1800 H     1 <1>   0.0800 
 31 H       -2.3380    -4.8050    -0.2380 H     1 <1>   0.0800 
 32 H       -4.6830    -4.9870    -1.0600 H     1 <1>   0.0800 
 33 H       -5.2530    -4.2710     0.4270 H     1 <1>   0.0800 
 34 H       -3.5720    -6.6820     0.3240 H     1 <1>   0.4500 
 35 H       -5.6720    -6.9560    -0.9220 H     1 <1>   0.0800 
 36 H       -6.5270    -6.5980     0.5500 H     1 <1>   0.0800 
 37 H       -5.3080    -5.6090     2.4860 H     1 <1>   0.0800 
 38 H       -3.5580    -5.5470     2.4620 H     1 <1>   0.0800 
 39 H       -4.3730    -7.0860     2.5870 H     1 <1>   0.0800 
 40 H       -5.5800    -8.6310     1.5980 H     1 <1>   0.0800 
 41 H       -4.6780    -8.9630     0.1220 H     1 <1>   0.0800 
 42 H       -9.5140    -9.1840    -1.4890 H     1 <1>   0.1500 
 43 H       -8.7140   -11.5970    -0.8380 H     1 <1>   0.1500 
 44 H       -5.9280   -11.4250     1.6060 H     1 <1>   0.0800 
 45 H       -5.1210   -11.5840     0.0560 H     1 <1>   0.0800 
 46 H       -6.5200   -12.5580     0.4210 H     1 <1>   0.0800 
@<TRIPOS>BOND
  1   1   2  1   
  2   1   3  2   
  3   2   4  1   
  4   2  21  1   
  5   3   5  1   
  6   3   6  1   
  7   4   5  2   
  8   4   7  1   
  9   5   8  1   
 10   6  22  1   
 11   6  23  1   
 12   6  24  1   
 13   7  25  1   
 14   7  26  1   
 15   7  27  1   
 16   8   9  1   
 17   8  28  1   
 18   8  29  1   
 19   9  10  1   
 20   9  30  1   
 21   9  31  1   
 22  10  11  1   
 23  10  32  1   
 24  10  33  1   
 25  11  12  1   
 26  11  13  1   
 27  11  34  1   
 28  12  14  1   
 29  12  35  1   
 30  12  36  1   
 31  13  37  1   
 32  13  38  1   
 33  13  39  1   
 34  14  15  1   
 35  14  40  1   
 36  14  41  1   
 37  15  16  1   
 38  15  17  1   
 39  16  18  2   
 40  17  19  2   
 41  17  20  1   
 42  18  19  1   
 43  18  42  1   
 44  19  43  1   
 45  20  44  1   
 46  20  45  1   
 47  20  46  1   
@<TRIPOS>SUBSTRUCTURE
  1 ****  10 GROUP 4 **** **** 0

# MOE 2024.06 (io_trps.svl 2023.06)
