@<TRIPOS>MOLECULE
NONAME
58 61 1 0 0 
SMALL
USER_CHARGES


@<TRIPOS>ATOM
  1 O       -1.9190    -0.1090    -1.9500 O.2   1 <1>  -0.5700 
  2 C       -1.6660     0.8200    -1.2270 C.2   1 <1>   0.5950 
  3 C       -2.2840     1.0930     0.0400 C.2   1 <1>  -0.0860 
  4 C       -0.6280     1.8340    -1.6970 C.3   1 <1>  -0.0990 
  5 C       -3.0990     0.3280     0.9240 C.2   1 <1>  -0.0860 
  6 C       -2.1300     2.2890     0.6590 C.2   1 <1>  -0.0400 
  7 C       -1.0190     3.2880    -1.3450 C.3   1 <1>  -0.1600 
  8 C       -3.3370     1.1660     1.9730 C.2   1 <1>  -0.0400 
  9 C       -3.5460    -1.0420     0.7850 C.2   1 <1>   0.7160 
 10 O       -2.7570     2.3270     1.8000 O.3   1 <1>  -0.2800 
 11 C       -1.3290     3.4700     0.1540 C.3   1 <1>   0.0200 
 12 C       -4.1280     0.9640     3.2510 C.3   1 <1>  -0.0600 
 13 O       -3.4910    -1.7760     1.7550 O.2   1 <1>  -0.5700 
 14 N       -4.1050    -1.5240    -0.3740 N.am  1 <1>  -0.6600 
 15 C       -4.2700    -3.0090    -0.5650 C.3   1 <1>   0.3640 
 16 C       -4.9320    -0.6260    -1.2310 C.3   1 <1>   0.1400 
 17 C       -2.9040    -3.6960    -0.4350 C.ar  1 <1>  -0.1430 
 18 C       -4.9070    -3.4370    -1.9270 C.3   1 <1>   0.2000 
 19 C       -5.1450    -1.2160    -2.6220 C.3   1 <1>   0.1200 
 20 C       -2.7060    -4.6740     0.5310 C.ar  1 <1>  -0.1500 
 21 C       -1.8500    -3.3650    -1.2780 C.ar  1 <1>  -0.1500 
 22 O       -5.7460    -2.4630    -2.4870 O.3   1 <1>  -0.5600 
 23 C       -5.7520    -4.7180    -1.8230 C.3   1 <1>   0.1200 
 24 C       -1.4890    -5.3240     0.6480 C.ar  1 <1>   0.0830 
 25 C       -0.6240    -3.9960    -1.1580 C.ar  1 <1>  -0.1500 
 26 O       -5.0580    -5.7610    -1.2170 O.3   1 <1>  -0.6800 
 27 O       -1.3850    -6.3000     1.5820 O.3   1 <1>  -0.3630 
 28 C       -0.4290    -4.9660    -0.1910 C.ar  1 <1>   0.0830 
 29 C       -1.2690    -7.6160     1.0900 C.3   1 <1>   0.0400 
 30 O        0.8020    -5.5270    -0.1020 O.3   1 <1>  -0.3630 
 31 C        1.5160    -5.2690     1.0870 C.3   1 <1>   0.0400 
 32 H        0.3110     1.5880    -1.2350 H     1 <1>   0.0800 
 33 H       -0.5060     1.7430    -2.7620 H     1 <1>   0.0800 
 34 H       -0.2340     3.9630    -1.6370 H     1 <1>   0.0800 
 35 H       -1.9000     3.5470    -1.9080 H     1 <1>   0.0800 
 36 H       -1.8850     4.3790     0.3060 H     1 <1>   0.0800 
 37 H       -0.4160     3.5340     0.7200 H     1 <1>   0.0800 
 38 H       -4.5990    -0.0010     3.2660 H     1 <1>   0.0800 
 39 H       -4.8860     1.7210     3.3310 H     1 <1>   0.0800 
 40 H       -3.4690     1.0390     4.0960 H     1 <1>   0.0800 
 41 H       -4.9110    -3.3650     0.2230 H     1 <1>   0.0800 
 42 H       -5.8900    -0.4790    -0.7630 H     1 <1>   0.0800 
 43 H       -4.4630     0.3350    -1.3320 H     1 <1>   0.0800 
 44 H       -4.1260    -3.6110    -2.6450 H     1 <1>   0.0800 
 45 H       -4.2110    -1.3160    -3.1490 H     1 <1>   0.0800 
 46 H       -5.8070    -0.5900    -3.1940 H     1 <1>   0.0800 
 47 H       -3.5020    -4.9440     1.2020 H     1 <1>   0.1500 
 48 H       -1.9790    -2.6060    -2.0290 H     1 <1>   0.1500 
 49 H       -6.0460    -5.0430    -2.8060 H     1 <1>   0.0800 
 50 H       -6.6320    -4.5320    -1.2330 H     1 <1>   0.0800 
 51 H        0.1890    -3.7300    -1.8090 H     1 <1>   0.1500 
 52 H       -4.1690    -5.8750    -1.6130 H     1 <1>   0.4000 
 53 H       -1.2560    -8.2880     1.9290 H     1 <1>   0.0800 
 54 H       -0.3560    -7.7070     0.5310 H     1 <1>   0.0800 
 55 H       -2.1170    -7.8250     0.4620 H     1 <1>   0.0800 
 56 H        2.5140    -5.6510     0.9700 H     1 <1>   0.0800 
 57 H        1.0290    -5.7610     1.9090 H     1 <1>   0.0800 
 58 H        1.5430    -4.2060     1.2520 H     1 <1>   0.0800 
@<TRIPOS>BOND
  1   1   2  2   
  2   2   3  1   
  3   2   4  1   
  4   3   5  1   
  5   3   6  2   
  6   4   7  1   
  7   4  32  1   
  8   4  33  1   
  9   5   8  2   
 10   5   9  1   
 11   6  10  1   
 12   6  11  1   
 13   7  11  1   
 14   7  34  1   
 15   7  35  1   
 16   8  10  1   
 17   8  12  1   
 18   9  13  2   
 19   9  14  am  
 20  11  36  1   
 21  11  37  1   
 22  12  38  1   
 23  12  39  1   
 24  12  40  1   
 25  14  15  1   
 26  14  16  1   
 27  15  17  1   
 28  15  18  1   
 29  15  41  1   
 30  16  19  1   
 31  16  42  1   
 32  16  43  1   
 33  17  20  ar  
 34  17  21  ar  
 35  18  22  1   
 36  18  23  1   
 37  18  44  1   
 38  19  22  1   
 39  19  45  1   
 40  19  46  1   
 41  20  24  ar  
 42  20  47  1   
 43  21  25  ar  
 44  21  48  1   
 45  23  26  1   
 46  23  49  1   
 47  23  50  1   
 48  24  27  1   
 49  24  28  ar  
 50  25  28  ar  
 51  25  51  1   
 52  26  52  1   
 53  27  29  1   
 54  28  30  1   
 55  29  53  1   
 56  29  54  1   
 57  29  55  1   
 58  30  31  1   
 59  31  56  1   
 60  31  57  1   
 61  31  58  1   
@<TRIPOS>SUBSTRUCTURE
  1 ****  14 GROUP 4 **** **** 0

# MOE 2024.06 (io_trps.svl 2023.06)
