@<TRIPOS>MOLECULE
NONAME
41 43 1 0 0 
SMALL
USER_CHARGES


@<TRIPOS>ATOM
  1 N       -0.2380    -0.2440     0.2680 N.ar  1 <1>  -0.6200 
  2 C        0.0670    -1.5160     0.0890 C.ar  1 <1>   0.4100 
  3 C        0.6010     0.4600     1.0010 C.ar  1 <1>   0.4760 
  4 N       -0.7910    -2.2910    -0.6670 N.pl3 1 <1>  -0.8380 
  5 C        1.2210    -2.0420     0.6400 C.ar  1 <1>  -0.1500 
  6 N        1.7190     0.0540     1.5770 N.ar  1 <1>  -0.6200 
  7 C        0.2440     1.9120     1.2020 C.3   1 <1>  -0.0970 
  8 C       -1.0240    -3.7310    -0.3930 C.3   1 <1>   0.2090 
  9 C       -1.9710    -1.7110    -1.3500 C.3   1 <1>   0.2090 
 10 C        2.0170    -1.2140     1.3810 C.ar  1 <1>   0.1600 
 11 C       -2.5260    -3.9750    -0.6330 C.3   1 <1>   0.0000 
 12 C       -2.8590    -2.9050    -1.6830 C.3   1 <1>  -0.1600 
 13 C       -2.7870    -5.3810    -1.2230 C.3   1 <1>  -0.1600 
 14 C       -3.3030    -3.6930     0.6820 C.3   1 <1>  -0.1600 
 15 C       -2.8350    -6.5250    -0.1980 C.3   1 <1>  -0.1600 
 16 C       -4.7360    -4.2470     0.7400 C.3   1 <1>  -0.1600 
 17 C       -4.2560    -6.7640     0.3390 C.3   1 <1>  -0.1600 
 18 C       -4.7840    -5.6810     1.2910 C.3   1 <1>  -0.1600 
 19 H        1.4820    -3.0670     0.4800 H     1 <1>   0.1500 
 20 H       -0.8210     2.0410     1.1550 H     1 <1>   0.0800 
 21 H        0.7060     2.4990     0.4310 H     1 <1>   0.0800 
 22 H        0.5940     2.2480     2.1600 H     1 <1>   0.0800 
 23 H       -0.7350    -3.9910     0.6110 H     1 <1>   0.0800 
 24 H       -0.4310    -4.3030    -1.0850 H     1 <1>   0.0800 
 25 H       -1.6700    -1.1770    -2.2350 H     1 <1>   0.0800 
 26 H       -2.4840    -1.0400    -0.6830 H     1 <1>   0.0800 
 27 H        2.9230    -1.5890     1.8260 H     1 <1>   0.1500 
 28 H       -2.5910    -3.2500    -2.6660 H     1 <1>   0.0800 
 29 H       -3.8990    -2.6330    -1.6890 H     1 <1>   0.0800 
 30 H       -2.0200    -5.6010    -1.9450 H     1 <1>   0.0800 
 31 H       -3.7130    -5.3690    -1.7720 H     1 <1>   0.0800 
 32 H       -3.3430    -2.6300     0.8430 H     1 <1>   0.0800 
 33 H       -2.7550    -4.0900     1.5180 H     1 <1>   0.0800 
 34 H       -2.1460    -6.3530     0.6110 H     1 <1>   0.0800 
 35 H       -2.5240    -7.4280    -0.6950 H     1 <1>   0.0800 
 36 H       -5.2150    -4.1900    -0.2210 H     1 <1>   0.0800 
 37 H       -5.3010    -3.6250     1.4130 H     1 <1>   0.0800 
 38 H       -4.2640    -7.7010     0.8680 H     1 <1>   0.0800 
 39 H       -4.9360    -6.8670    -0.4880 H     1 <1>   0.0800 
 40 H       -5.8080    -5.9190     1.5250 H     1 <1>   0.0800 
 41 H       -4.2350    -5.7260     2.2160 H     1 <1>   0.0800 
@<TRIPOS>BOND
  1   1   2  ar  
  2   1   3  ar  
  3   2   4  1   
  4   2   5  ar  
  5   3   6  ar  
  6   3   7  1   
  7   4   8  1   
  8   4   9  1   
  9   5  10  ar  
 10   5  19  1   
 11   6  10  ar  
 12   7  20  1   
 13   7  21  1   
 14   7  22  1   
 15   8  11  1   
 16   8  23  1   
 17   8  24  1   
 18   9  12  1   
 19   9  25  1   
 20   9  26  1   
 21  10  27  1   
 22  11  12  1   
 23  11  13  1   
 24  11  14  1   
 25  12  28  1   
 26  12  29  1   
 27  13  15  1   
 28  13  30  1   
 29  13  31  1   
 30  14  16  1   
 31  14  32  1   
 32  14  33  1   
 33  15  17  1   
 34  15  34  1   
 35  15  35  1   
 36  16  18  1   
 37  16  36  1   
 38  16  37  1   
 39  17  18  1   
 40  17  38  1   
 41  17  39  1   
 42  18  40  1   
 43  18  41  1   
@<TRIPOS>SUBSTRUCTURE
  1 ****   4 GROUP 4 **** **** 0

# MOE 2024.06 (io_trps.svl 2023.06)
