@<TRIPOS>MOLECULE
NONAME
46 48 1 0 0 
SMALL
USER_CHARGES


@<TRIPOS>ATOM
  1 O       -3.8120     1.4150    -1.9430 O.2   1 <1>  -0.5700 
  2 C       -3.1870     1.0750    -0.9550 C.2   1 <1>   0.5440 
  3 N       -2.0480     1.7790    -0.6110 N.am  1 <1>  -0.6600 
  4 C       -3.6550    -0.0580    -0.1930 C.ar  1 <1>   0.0860 
  5 C       -0.9560     1.2220     0.2340 C.3   1 <1>   0.0600 
  6 C       -1.7290     3.0890    -1.2450 C.3   1 <1>   0.0600 
  7 C       -4.0770    -1.2140    -0.8440 C.ar  1 <1>   0.1600 
  8 C       -3.7270    -0.0610     1.1970 C.ar  1 <1>  -0.1500 
  9 N       -4.5180    -2.3170    -0.2650 N.ar  1 <1>  -0.6200 
 10 C       -4.1860    -1.1970     1.8180 C.ar  1 <1>  -0.1500 
 11 C       -4.5710    -2.3000     1.0620 C.ar  1 <1>   0.4100 
 12 N       -5.0410    -3.4210     1.6900 N.pl3 1 <1>  -0.8690 
 13 C       -5.6320    -4.5750     0.9690 C.3   1 <1>   0.2890 
 14 C       -7.0760    -4.2640     0.6120 C.3   1 <1>  -0.0800 
 15 C       -5.7900    -5.7570     1.9220 C.3   1 <1>   0.1200 
 16 C       -7.8100    -4.6410     1.9000 C.3   1 <1>   0.1200 
 17 C       -7.5470    -5.0900    -0.5990 C.3   1 <1>  -0.0170 
 18 O       -7.0400    -5.6190     2.5370 O.3   1 <1>  -0.5600 
 19 C       -8.9770    -4.7440    -0.9850 C.ar  1 <1>  -0.1430 
 20 C       -9.2860    -3.5610    -1.6260 C.ar  1 <1>  -0.1500 
 21 C      -10.0360    -5.5870    -0.7170 C.ar  1 <1>  -0.1500 
 22 C      -10.6020    -3.2850    -1.9570 C.ar  1 <1>   0.1600 
 23 C      -11.3170    -5.2160    -1.0910 C.ar  1 <1>   0.1600 
 24 N      -11.6260    -4.0840    -1.7040 N.ar  1 <1>  -0.6200 
 25 H       -0.0080     1.3670    -0.2560 H     1 <1>   0.0800 
 26 H       -1.0930     0.1680     0.3950 H     1 <1>   0.0800 
 27 H       -0.9390     1.7270     1.1850 H     1 <1>   0.0800 
 28 H       -1.3370     3.7680    -0.5090 H     1 <1>   0.0800 
 29 H       -2.6140     3.5260    -1.6760 H     1 <1>   0.0800 
 30 H       -1.0010     2.9450    -2.0240 H     1 <1>   0.0800 
 31 H       -4.0410    -1.2130    -1.9210 H     1 <1>   0.1500 
 32 H       -3.4330     0.8090     1.7590 H     1 <1>   0.1500 
 33 H       -4.2560    -1.2480     2.8880 H     1 <1>   0.1500 
 34 H       -5.3620    -3.3370     2.6560 H     1 <1>   0.4000 
 35 H       -5.0250    -4.8260     0.1150 H     1 <1>   0.0800 
 36 H       -7.2050    -3.2200     0.3870 H     1 <1>   0.0800 
 37 H       -5.0190    -5.7860     2.6700 H     1 <1>   0.0800 
 38 H       -5.8010    -6.6820     1.3740 H     1 <1>   0.0800 
 39 H       -8.7990    -5.0260     1.7290 H     1 <1>   0.0800 
 40 H       -7.8660    -3.7940     2.5610 H     1 <1>   0.0800 
 41 H       -7.4740    -6.1420    -0.3860 H     1 <1>   0.0800 
 42 H       -6.9070    -4.8820    -1.4390 H     1 <1>   0.0800 
 43 H       -8.5150    -2.8530    -1.8700 H     1 <1>   0.1500 
 44 H       -9.8800    -6.5270    -0.2210 H     1 <1>   0.1500 
 45 H      -10.8230    -2.3580    -2.4570 H     1 <1>   0.1500 
 46 H      -12.1310    -5.8860    -0.8740 H     1 <1>   0.1500 
@<TRIPOS>BOND
  1   1   2  2   
  2   2   3  am  
  3   2   4  1   
  4   3   5  1   
  5   3   6  1   
  6   4   7  ar  
  7   4   8  ar  
  8   5  25  1   
  9   5  26  1   
 10   5  27  1   
 11   6  28  1   
 12   6  29  1   
 13   6  30  1   
 14   7   9  ar  
 15   7  31  1   
 16   8  10  ar  
 17   8  32  1   
 18   9  11  ar  
 19  10  11  ar  
 20  10  33  1   
 21  11  12  1   
 22  12  13  1   
 23  12  34  1   
 24  13  14  1   
 25  13  15  1   
 26  13  35  1   
 27  14  16  1   
 28  14  17  1   
 29  14  36  1   
 30  15  18  1   
 31  15  37  1   
 32  15  38  1   
 33  16  18  1   
 34  16  39  1   
 35  16  40  1   
 36  17  19  1   
 37  17  41  1   
 38  17  42  1   
 39  19  20  ar  
 40  19  21  ar  
 41  20  22  ar  
 42  20  43  1   
 43  21  23  ar  
 44  21  44  1   
 45  22  24  ar  
 46  22  45  1   
 47  23  24  ar  
 48  23  46  1   
@<TRIPOS>SUBSTRUCTURE
  1 ****   9 GROUP 4 **** **** 0

# MOE 2024.06 (io_trps.svl 2023.06)
