@<TRIPOS>MOLECULE
NONAME
41 43 1 0 0 
SMALL
USER_CHARGES


@<TRIPOS>ATOM
  1 S       -1.6570    -0.6710    -0.6410 S.3   1 <1>  -0.0800 
  2 C       -1.7670    -1.3380     0.9560 C.2   1 <1>   0.4420 
  3 C       -0.9520     0.7340     0.0770 C.2   1 <1>   0.1980 
  4 N       -1.3080    -0.5330     1.8460 N.2   1 <1>  -0.3380 
  5 N       -2.3100    -2.5940     1.0630 N.am  1 <1>  -0.4940 
  6 N       -0.8460     0.6460     1.3380 N.2   1 <1>  -0.3380 
  7 C       -0.5470     1.8830    -0.8180 C.3   1 <1>   0.0200 
  8 C       -2.5320    -3.3850     2.1540 C.2   1 <1>   0.7160 
  9 C        0.0790     2.9810     0.0490 C.3   1 <1>   0.3430 
 10 O       -2.2380    -3.0140     3.2730 O.2   1 <1>  -0.5700 
 11 C       -3.1230    -4.6660     1.9360 C.2   1 <1>  -0.0860 
 12 N        0.5780     4.1510    -0.7490 N.4   1 <1>  -0.9590 
 13 C       -3.5150    -5.2460     0.7570 C.2   1 <1>  -0.0260 
 14 C       -3.4330    -5.6220     2.9000 C.2   1 <1>   0.1390 
 15 C        1.4090     5.0340     0.1290 C.3   1 <1>   0.2630 
 16 C       -0.5350     4.9450    -1.3630 C.3   1 <1>   0.2630 
 17 N       -3.4530    -4.7690    -0.5340 N.2   1 <1>  -0.5760 
 18 N       -4.0210    -6.4790     1.0850 N.pl3 1 <1>   0.6010 
 19 N       -3.9670    -6.7030     2.4120 N.2   1 <1>  -0.7070 
 20 C       -3.9100    -5.5630    -1.4530 C.2   1 <1>   0.3760 
 21 C       -4.4990    -7.3020     0.0940 C.2   1 <1>  -0.1810 
 22 C       -4.4510    -6.8570    -1.1910 C.2   1 <1>  -0.1240 
 23 C       -4.9560    -7.6990    -2.3510 C.3   1 <1>  -0.1020 
 24 H       -2.6100    -3.0470     0.1950 H     1 <1>   0.3700 
 25 H       -1.4220     2.2470    -1.3230 H     1 <1>   0.0800 
 26 H        0.1660     1.5250    -1.5390 H     1 <1>   0.0800 
 27 H        0.9010     2.5450     0.5960 H     1 <1>   0.0800 
 28 H       -0.6470     3.3140     0.7740 H     1 <1>   0.0800 
 29 H        1.1900     3.7990    -1.5030 H     1 <1>   0.4500 
 30 H       -3.2480    -5.4780     3.9540 H     1 <1>   0.1500 
 31 H        0.8140     5.4250     0.9390 H     1 <1>   0.0800 
 32 H        1.8050     5.8620    -0.4380 H     1 <1>   0.0800 
 33 H        2.2340     4.4800     0.5460 H     1 <1>   0.0800 
 34 H       -1.1990     5.3150    -0.5980 H     1 <1>   0.0800 
 35 H       -1.1030     4.3360    -2.0470 H     1 <1>   0.0800 
 36 H       -0.1380     5.7860    -1.9080 H     1 <1>   0.0800 
 37 H       -3.8830    -5.2350    -2.4780 H     1 <1>   0.0600 
 38 H       -4.8830    -8.2540     0.4110 H     1 <1>   0.1500 
 39 H       -5.7500    -7.1850    -2.8640 H     1 <1>   0.0800 
 40 H       -5.3330    -8.6440    -2.0010 H     1 <1>   0.0800 
 41 H       -4.1580    -7.8880    -3.0480 H     1 <1>   0.0800 
@<TRIPOS>BOND
  1   1   2  1   
  2   1   3  1   
  3   2   4  2   
  4   2   5  1   
  5   3   6  2   
  6   3   7  1   
  7   4   6  1   
  8   5   8  am  
  9   5  24  1   
 10   7   9  1   
 11   7  25  1   
 12   7  26  1   
 13   8  10  2   
 14   8  11  1   
 15   9  12  1   
 16   9  27  1   
 17   9  28  1   
 18  11  13  2   
 19  11  14  1   
 20  12  15  1   
 21  12  16  1   
 22  12  29  1   
 23  13  17  1   
 24  13  18  1   
 25  14  19  2   
 26  14  30  1   
 27  15  31  1   
 28  15  32  1   
 29  15  33  1   
 30  16  34  1   
 31  16  35  1   
 32  16  36  1   
 33  17  20  2   
 34  18  19  1   
 35  18  21  1   
 36  20  22  1   
 37  20  37  1   
 38  21  22  2   
 39  21  38  1   
 40  22  23  1   
 41  23  39  1   
 42  23  40  1   
 43  23  41  1   
@<TRIPOS>SUBSTRUCTURE
  1 ****   5 GROUP 4 **** **** 0

# MOE 2024.06 (io_trps.svl 2023.06)
