@<TRIPOS>MOLECULE
NONAME
40 42 1 0 0 
SMALL
USER_CHARGES


@<TRIPOS>ATOM
  1 CL      -1.1780    -1.1580    -1.8580 Cl    1 <1>  -0.1770 
  2 C       -2.1470     0.0310    -1.0140 C.ar  1 <1>   0.1770 
  3 C       -3.1420    -0.4150    -0.1400 C.ar  1 <1>   0.1000 
  4 C       -1.9110     1.3680    -1.2320 C.ar  1 <1>  -0.1500 
  5 N       -3.3670    -1.7770     0.0740 N.pl3 1 <1>  -0.6000 
  6 C       -3.9250     0.5350     0.5340 C.ar  1 <1>   0.0860 
  7 C       -2.6840     2.3090    -0.5640 C.ar  1 <1>  -0.1500 
  8 C       -4.3500    -2.2320     0.9280 C.2   1 <1>  -0.0380 
  9 C       -4.9510     0.0650     1.4290 C.2   1 <1>   0.4690 
 10 C       -3.6740     1.8940     0.3030 C.ar  1 <1>  -0.1500 
 11 C       -5.1170    -1.3330     1.5930 C.2   1 <1>  -0.1360 
 12 C       -4.5600    -3.7350     1.0870 C.3   1 <1>   0.4810 
 13 O       -5.6850     0.8300     2.0350 O.2   1 <1>  -0.5700 
 14 N       -5.1080    -4.2950    -0.1780 N.4   1 <1>  -0.9590 
 15 C       -5.1480    -5.7940    -0.0740 C.3   1 <1>   0.3430 
 16 C       -6.4380    -3.6640    -0.5050 C.3   1 <1>   0.3430 
 17 C       -6.4860    -6.2330     0.4840 C.3   1 <1>  -0.1860 
 18 C       -7.3070    -4.6190    -1.3150 C.3   1 <1>  -0.1600 
 19 C       -6.4640    -7.7100     0.6970 C.2   1 <1>   0.9060 
 20 C       -7.6160    -5.8660    -0.4800 C.3   1 <1>   0.2000 
 21 O       -5.4060    -8.3070     0.4890 O.co2 1 <1>  -0.9000 
 22 O       -7.5050    -8.2440     1.0740 O.co2 1 <1>  -0.9000 
 23 O       -8.7130    -5.5970     0.3000 O.3   1 <1>  -0.6800 
 24 H       -1.1370     1.6800    -1.9120 H     1 <1>   0.1500 
 25 H       -2.6950    -2.4080    -0.3880 H     1 <1>   0.4000 
 26 H       -2.5080     3.3600    -0.7270 H     1 <1>   0.1500 
 27 H       -4.2730     2.6260     0.8210 H     1 <1>   0.1500 
 28 H       -5.8960    -1.6260     2.2740 H     1 <1>   0.1500 
 29 H       -5.2480    -3.9240     1.8940 H     1 <1>   0.0800 
 30 H       -3.6200    -4.2050     1.3270 H     1 <1>   0.0800 
 31 H       -4.4560    -4.0520    -0.9310 H     1 <1>   0.4500 
 32 H       -5.0260    -6.2420    -1.0480 H     1 <1>   0.0800 
 33 H       -4.3530    -6.1630     0.5540 H     1 <1>   0.0800 
 34 H       -6.9670    -3.4360     0.4070 H     1 <1>   0.0800 
 35 H       -6.2890    -2.7440    -1.0460 H     1 <1>   0.0800 
 36 H       -6.6290    -5.7850     1.4480 H     1 <1>   0.0800 
 37 H       -6.7880    -4.8990    -2.2130 H     1 <1>   0.0800 
 38 H       -8.2250    -4.1390    -1.6060 H     1 <1>   0.0800 
 39 H       -7.8680    -6.6930    -1.1270 H     1 <1>   0.0800 
 40 H       -8.9160    -6.4280     0.7990 H     1 <1>   0.4000 
@<TRIPOS>BOND
  1   1   2  1   
  2   2   3  ar  
  3   2   4  ar  
  4   3   5  1   
  5   3   6  ar  
  6   4   7  ar  
  7   4  24  1   
  8   5   8  1   
  9   5  25  1   
 10   6   9  1   
 11   6  10  ar  
 12   7  10  ar  
 13   7  26  1   
 14   8  11  2   
 15   8  12  1   
 16   9  11  1   
 17   9  13  2   
 18  10  27  1   
 19  11  28  1   
 20  12  14  1   
 21  12  29  1   
 22  12  30  1   
 23  14  15  1   
 24  14  16  1   
 25  14  31  1   
 26  15  17  1   
 27  15  32  1   
 28  15  33  1   
 29  16  18  1   
 30  16  34  1   
 31  16  35  1   
 32  17  19  1   
 33  17  20  1   
 34  17  36  1   
 35  18  20  1   
 36  18  37  1   
 37  18  38  1   
 38  19  21  ar  
 39  19  22  ar  
 40  20  23  1   
 41  20  39  1   
 42  23  40  1   
@<TRIPOS>SUBSTRUCTURE
  1 ****   8 GROUP 4 **** **** 0

# MOE 2024.06 (io_trps.svl 2023.06)
