@<TRIPOS>MOLECULE
NONAME
47 49 1 0 0 
SMALL
USER_CHARGES


@<TRIPOS>ATOM
  1 F       -4.9650    -0.2770     1.7610 F     1 <1>  -0.1900 
  2 C       -4.4000     0.3000     0.7300 C.ar  1 <1>   0.1900 
  3 C       -3.7430    -0.4800    -0.2220 C.ar  1 <1>   0.0830 
  4 C       -4.4910     1.6750     0.6310 C.ar  1 <1>  -0.1500 
  5 O       -3.7010    -1.8270    -0.0480 O.3   1 <1>  -0.3630 
  6 C       -3.1550     0.1570    -1.3160 C.ar  1 <1>  -0.1500 
  7 C       -3.8990     2.2660    -0.4670 C.ar  1 <1>   0.1900 
  8 C       -3.5540    -2.6960    -1.1640 C.3   1 <1>   0.1810 
  9 C       -3.2350     1.5370    -1.4390 C.ar  1 <1>  -0.1500 
 10 F       -3.9660     3.5650    -0.5940 F     1 <1>  -0.1900 
 11 C       -3.8590    -4.1450    -0.7930 C.2   1 <1>   0.5690 
 12 O       -2.9810    -4.9640    -0.9520 O.2   1 <1>  -0.5700 
 13 N       -5.0980    -4.5110    -0.3400 N.am  1 <1>  -0.6600 
 14 C       -6.2380    -3.6000    -0.0850 C.3   1 <1>   0.1400 
 15 C       -5.4560    -5.9100    -0.0340 C.3   1 <1>   0.1400 
 16 C       -7.2820    -4.4470     0.6580 C.3   1 <1>  -0.0800 
 17 C       -6.9580    -5.9020     0.2640 C.3   1 <1>  -0.0800 
 18 C       -8.7720    -4.0260     0.4650 C.3   1 <1>   0.2800 
 19 C       -7.8020    -6.3470    -0.9400 C.3   1 <1>  -0.1600 
 20 O       -8.9480    -3.4200    -0.7650 O.3   1 <1>  -0.6800 
 21 C       -9.6760    -5.2730     0.4670 C.3   1 <1>  -0.1600 
 22 C       -9.2530    -3.0210     1.5350 C.3   1 <1>  -0.1600 
 23 C       -9.3080    -6.3050    -0.6210 C.3   1 <1>  -0.1600 
 24 C       -8.4870    -1.6870     1.5890 C.3   1 <1>  -0.2400 
 25 H       -5.0020     2.2580     1.3740 H     1 <1>   0.1500 
 26 H       -2.6290    -0.4020    -2.0680 H     1 <1>   0.1500 
 27 H       -4.2300    -2.3800    -1.9350 H     1 <1>   0.0800 
 28 H       -2.5400    -2.6260    -1.5120 H     1 <1>   0.0800 
 29 H       -2.7880     2.0450    -2.2750 H     1 <1>   0.1500 
 30 H       -5.9350    -2.7610     0.5140 H     1 <1>   0.0800 
 31 H       -6.6020    -3.2490    -1.0330 H     1 <1>   0.0800 
 32 H       -5.2100    -6.5530    -0.8620 H     1 <1>   0.0800 
 33 H       -4.9030    -6.2240     0.8340 H     1 <1>   0.0800 
 34 H       -7.0520    -4.3700     1.7050 H     1 <1>   0.0800 
 35 H       -7.1580    -6.5690     1.0840 H     1 <1>   0.0800 
 36 H       -7.6000    -5.6830    -1.7650 H     1 <1>   0.0800 
 37 H       -7.5240    -7.3400    -1.2470 H     1 <1>   0.0800 
 38 H       -9.8940    -3.2290    -0.8950 H     1 <1>   0.4000 
 39 H       -9.5780    -5.7480     1.4280 H     1 <1>   0.0800 
 40 H      -10.7090    -4.9920     0.3650 H     1 <1>   0.0800 
 41 H      -10.2950    -2.8100     1.3700 H     1 <1>   0.0800 
 42 H       -9.1820    -3.4880     2.5020 H     1 <1>   0.0800 
 43 H       -9.6340    -7.2780    -0.2960 H     1 <1>   0.0800 
 44 H       -9.8390    -6.0740    -1.5290 H     1 <1>   0.0800 
 45 H       -8.4760    -1.2110     0.6240 H     1 <1>   0.0800 
 46 H       -7.4730    -1.8390     1.9120 H     1 <1>   0.0800 
 47 H       -8.9600    -1.0220     2.2890 H     1 <1>   0.0800 
@<TRIPOS>BOND
  1   1   2  1   
  2   2   3  ar  
  3   2   4  ar  
  4   3   5  1   
  5   3   6  ar  
  6   4   7  ar  
  7   4  25  1   
  8   5   8  1   
  9   6   9  ar  
 10   6  26  1   
 11   7   9  ar  
 12   7  10  1   
 13   8  11  1   
 14   8  27  1   
 15   8  28  1   
 16   9  29  1   
 17  11  12  2   
 18  11  13  am  
 19  13  14  1   
 20  13  15  1   
 21  14  16  1   
 22  14  30  1   
 23  14  31  1   
 24  15  17  1   
 25  15  32  1   
 26  15  33  1   
 27  16  17  1   
 28  16  18  1   
 29  16  34  1   
 30  17  19  1   
 31  17  35  1   
 32  18  20  1   
 33  18  21  1   
 34  18  22  1   
 35  19  23  1   
 36  19  36  1   
 37  19  37  1   
 38  20  38  1   
 39  21  23  1   
 40  21  39  1   
 41  21  40  1   
 42  22  24  1   
 43  22  41  1   
 44  22  42  1   
 45  23  43  1   
 46  23  44  1   
 47  24  45  1   
 48  24  46  1   
 49  24  47  1   
@<TRIPOS>SUBSTRUCTURE
  1 ****  14 GROUP 4 **** **** 0

# MOE 2024.06 (io_trps.svl 2023.06)
