@<TRIPOS>MOLECULE
NONAME
41 43 1 0 0 
SMALL
USER_CHARGES


@<TRIPOS>ATOM
  1 CL      -2.2940     0.5770     2.5700 Cl    1 <1>  -0.1230 
  2 C       -2.3890     0.6460     0.8190 C.2   1 <1>   0.1230 
  3 C       -2.7880    -0.4000     0.0030 C.2   1 <1>   0.1080 
  4 C       -2.1030     1.6830     0.0090 C.2   1 <1>  -0.3320 
  5 N       -2.7650    -0.0540    -1.2570 N.2   1 <1>  -0.7070 
  6 C       -3.2010    -1.7740     0.5060 C.3   1 <1>   0.5240 
  7 N       -2.3350     1.2360    -1.2470 N.pl3 1 <1>   0.3000 
  8 C       -1.6170     3.0830     0.3460 C.3   1 <1>  -0.0600 
  9 N       -4.0390    -2.4140    -0.5480 N.4   1 <1>  -0.9590 
 10 C       -5.4390    -1.9030    -0.4740 C.3   1 <1>   0.3430 
 11 C       -4.0940    -3.8980    -0.4120 C.3   1 <1>   0.3430 
 12 C       -6.2120    -2.9660     0.3100 C.3   1 <1>   0.2000 
 13 C       -5.5680    -4.2610    -0.1870 C.3   1 <1>  -0.0800 
 14 O       -5.9400    -2.7950     1.6660 O.3   1 <1>  -0.6800 
 15 C       -5.7560    -5.5100     0.6980 C.3   1 <1>   0.0200 
 16 C       -4.9140    -6.6580     0.1760 C.2   1 <1>  -0.0400 
 17 O       -4.9490    -6.9640    -1.0930 O.3   1 <1>  -0.0190 
 18 C       -4.0530    -7.4910     0.7790 C.2   1 <1>  -0.1500 
 19 N       -4.1460    -7.9460    -1.3750 N.2   1 <1>  -0.4100 
 20 C       -3.5990    -8.2920    -0.2660 C.2   1 <1>   0.1080 
 21 C       -2.5990    -9.4200    -0.1260 C.3   1 <1>  -0.0590 
 22 H       -3.7480    -1.6910     1.4310 H     1 <1>   0.0800 
 23 H       -2.3120    -2.3570     0.6760 H     1 <1>   0.0800 
 24 H       -2.2070     1.7840    -2.1100 H     1 <1>   0.2700 
 25 H       -1.5100     3.1960     1.4100 H     1 <1>   0.0800 
 26 H       -2.3210     3.8190    -0.0040 H     1 <1>   0.0800 
 27 H       -0.6620     3.2690    -0.1130 H     1 <1>   0.0800 
 28 H       -3.6060    -2.0860    -1.4310 H     1 <1>   0.4500 
 29 H       -5.4990    -0.9370     0.0000 H     1 <1>   0.0800 
 30 H       -5.8450    -1.8330    -1.4700 H     1 <1>   0.0800 
 31 H       -3.7160    -4.3890    -1.2950 H     1 <1>   0.0800 
 32 H       -3.5110    -4.2140     0.4390 H     1 <1>   0.0800 
 33 H       -7.2760    -2.9100     0.1490 H     1 <1>   0.0800 
 34 H       -5.9830    -4.4810    -1.1560 H     1 <1>   0.0800 
 35 H       -6.6400    -3.2010     2.2210 H     1 <1>   0.4000 
 36 H       -6.7910    -5.8050     0.6930 H     1 <1>   0.0800 
 37 H       -5.4670    -5.3140     1.7150 H     1 <1>   0.0800 
 38 H       -3.7550    -7.5600     1.8090 H     1 <1>   0.1500 
 39 H       -2.9910   -10.1760     0.5280 H     1 <1>   0.0800 
 40 H       -1.6760    -9.0460     0.2760 H     1 <1>   0.0800 
 41 H       -2.4060    -9.8610    -1.0880 H     1 <1>   0.0800 
@<TRIPOS>BOND
  1   1   2  1   
  2   2   3  1   
  3   2   4  2   
  4   3   5  2   
  5   3   6  1   
  6   4   7  1   
  7   4   8  1   
  8   5   7  1   
  9   6   9  1   
 10   6  22  1   
 11   6  23  1   
 12   7  24  1   
 13   8  25  1   
 14   8  26  1   
 15   8  27  1   
 16   9  10  1   
 17   9  11  1   
 18   9  28  1   
 19  10  12  1   
 20  10  29  1   
 21  10  30  1   
 22  11  13  1   
 23  11  31  1   
 24  11  32  1   
 25  12  13  1   
 26  12  14  1   
 27  12  33  1   
 28  13  15  1   
 29  13  34  1   
 30  14  35  1   
 31  15  16  1   
 32  15  36  1   
 33  15  37  1   
 34  16  17  1   
 35  16  18  2   
 36  17  19  1   
 37  18  20  1   
 38  18  38  1   
 39  19  20  2   
 40  20  21  1   
 41  21  39  1   
 42  21  40  1   
 43  21  41  1   
@<TRIPOS>SUBSTRUCTURE
  1 ****  11 GROUP 4 **** **** 0

# MOE 2024.06 (io_trps.svl 2023.06)
