@<TRIPOS>MOLECULE
NONAME
45 47 1 0 0 
SMALL
USER_CHARGES


@<TRIPOS>ATOM
  1 S        0.7810    -0.2330    -0.4750 S.o2  1 <1>   1.3330 
  2 O        1.1730    -1.3280     0.3840 O.2   1 <1>  -0.6500 
  3 O       -0.2960    -0.4230    -1.4200 O.2   1 <1>  -0.6500 
  4 N        0.3630     1.0790     0.5180 N.am  1 <1>  -0.8490 
  5 C        2.2390     0.3330    -1.3540 C.3   1 <1>  -0.0550 
  6 C       -0.1860     2.2210    -0.2230 C.3   1 <1>   0.1160 
  7 C       -0.5650     0.6800     1.5790 C.3   1 <1>   0.1160 
  8 C        3.3840     0.8010    -0.4380 C.3   1 <1>  -0.0800 
  9 C        4.5020     1.4650    -1.2370 C.3   1 <1>   0.2200 
 10 C        4.0850    -0.3350     0.3130 C.3   1 <1>   0.1200 
 11 N        4.6880     2.8530    -0.7620 N.am  1 <1>  -0.7300 
 12 C        5.7250     0.6040    -0.9330 C.3   1 <1>   0.1200 
 13 O        5.4420    -0.0320     0.2690 O.3   1 <1>  -0.5600 
 14 C        3.8950     3.9180    -1.0960 C.2   1 <1>   0.5440 
 15 O        2.9730     3.7130    -1.8690 O.2   1 <1>  -0.5700 
 16 C        4.1410     5.2410    -0.5280 C.ar  1 <1>   0.3960 
 17 N        5.1030     5.4230     0.3530 N.ar  1 <1>  -0.6200 
 18 C        3.3170     6.3200    -0.9500 C.ar  1 <1>   0.1600 
 19 C        5.2360     6.6940     0.8080 C.ar  1 <1>   0.3100 
 20 N        3.4110     7.5460    -0.5380 N.ar  1 <1>  -0.6200 
 21 C        4.3990     7.7510     0.3680 C.ar  1 <1>   0.3100 
 22 C        6.2380     6.9800     1.7490 C.ar  1 <1>  -0.1500 
 23 C        4.6040     9.0380     0.8870 C.ar  1 <1>  -0.1500 
 24 C        6.4160     8.2480     2.2410 C.ar  1 <1>  -0.1500 
 25 C        5.5900     9.2880     1.8050 C.ar  1 <1>  -0.1500 
 26 H        2.5910    -0.4520    -1.9930 H     1 <1>   0.0800 
 27 H        1.9550     1.1540    -1.9830 H     1 <1>   0.0800 
 28 H       -0.3950     3.0330     0.4520 H     1 <1>   0.0800 
 29 H       -1.0960     1.9410    -0.7290 H     1 <1>   0.0800 
 30 H        0.5240     2.5700    -0.9530 H     1 <1>   0.0800 
 31 H       -0.7890     1.5200     2.2140 H     1 <1>   0.0800 
 32 H       -0.1200    -0.0910     2.1850 H     1 <1>   0.0800 
 33 H       -1.4800     0.3010     1.1530 H     1 <1>   0.0800 
 34 H        2.9920     1.4900     0.2900 H     1 <1>   0.0800 
 35 H        4.3070     1.4770    -2.2970 H     1 <1>   0.0800 
 36 H        3.9420    -1.2860    -0.1720 H     1 <1>   0.0800 
 37 H        3.7700    -0.4010     1.3410 H     1 <1>   0.0800 
 38 H        5.3590     2.9780     0.0040 H     1 <1>   0.3700 
 39 H        6.6300     1.1770    -0.8350 H     1 <1>   0.0800 
 40 H        5.8490    -0.1570    -1.6830 H     1 <1>   0.0800 
 41 H        2.5530     6.0960    -1.6740 H     1 <1>   0.1500 
 42 H        6.8650     6.1700     2.0750 H     1 <1>   0.1500 
 43 H        3.9590     9.8250     0.5390 H     1 <1>   0.1500 
 44 H        7.1880     8.4560     2.9630 H     1 <1>   0.1500 
 45 H        5.7390    10.2800     2.1980 H     1 <1>   0.1500 
@<TRIPOS>BOND
  1   1   2  2   
  2   1   3  2   
  3   1   4  am  
  4   1   5  1   
  5   4   6  1   
  6   4   7  1   
  7   5   8  1   
  8   5  26  1   
  9   5  27  1   
 10   6  28  1   
 11   6  29  1   
 12   6  30  1   
 13   7  31  1   
 14   7  32  1   
 15   7  33  1   
 16   8   9  1   
 17   8  10  1   
 18   8  34  1   
 19   9  11  1   
 20   9  12  1   
 21   9  35  1   
 22  10  13  1   
 23  10  36  1   
 24  10  37  1   
 25  11  14  am  
 26  11  38  1   
 27  12  13  1   
 28  12  39  1   
 29  12  40  1   
 30  14  15  2   
 31  14  16  1   
 32  16  17  ar  
 33  16  18  ar  
 34  17  19  ar  
 35  18  20  ar  
 36  18  41  1   
 37  19  21  ar  
 38  19  22  ar  
 39  20  21  ar  
 40  21  23  ar  
 41  22  24  ar  
 42  22  42  1   
 43  23  25  ar  
 44  23  43  1   
 45  24  25  ar  
 46  24  44  1   
 47  25  45  1   
@<TRIPOS>SUBSTRUCTURE
  1 ****  14 GROUP 4 **** **** 0

# MOE 2024.06 (io_trps.svl 2023.06)
