@<TRIPOS>MOLECULE
NONAME
56 58 1 0 0 
SMALL
USER_CHARGES


@<TRIPOS>ATOM
  1 O        0.5390     1.3040    -1.2510 O.2   1 <1>  -0.5700 
  2 C        0.2300     2.4560    -1.0830 C.2   1 <1>   0.5690 
  3 N       -0.5190     2.8280    -0.0250 N.am  1 <1>  -0.7300 
  4 C        0.6530     3.5230    -2.0900 C.3   1 <1>   0.1810 
  5 C       -1.0400     4.2020     0.1810 C.3   1 <1>   0.3640 
  6 O        0.6820     4.8120    -1.5150 O.3   1 <1>  -0.5600 
  7 C       -2.5670     4.1300     0.1970 C.ar  1 <1>  -0.1440 
  8 C       -0.5410     5.2140    -0.8930 C.3   1 <1>   0.2610 
  9 C       -3.2670     3.3930    -0.7520 C.ar  1 <1>  -0.1500 
 10 C       -3.2800     4.8160     1.1700 C.ar  1 <1>  -0.1500 
 11 C       -0.3570     6.6030    -0.2660 C.2   1 <1>   0.5690 
 12 C       -4.6500     3.3420    -0.7260 C.ar  1 <1>  -0.1500 
 13 C       -4.6630     4.7660     1.1970 C.ar  1 <1>  -0.1500 
 14 O       -1.2380     7.0790     0.4070 O.2   1 <1>  -0.5700 
 15 N        0.8230     7.2540    -0.4940 N.am  1 <1>  -0.7300 
 16 C       -5.3490     4.0290     0.2500 C.ar  1 <1>  -0.1500 
 17 C        1.2820     8.5930    -0.0520 C.3   1 <1>   0.3000 
 18 C        2.7170     8.7940    -0.6510 C.3   1 <1>   0.3430 
 19 C        1.2630     8.6150     1.4830 C.3   1 <1>  -0.2400 
 20 C        0.2990     9.6300    -0.6190 C.3   1 <1>  -0.2400 
 21 N        3.6570     9.8570    -0.1080 N.4   1 <1>  -0.9590 
 22 C        4.3220     9.4450     1.1660 C.3   1 <1>   0.3430 
 23 C        3.0690    11.2260    -0.0170 C.3   1 <1>   0.3430 
 24 C        5.4500    10.4250     1.4930 C.3   1 <1>  -0.1600 
 25 C        4.1720    12.2390     0.2940 C.3   1 <1>  -0.1600 
 26 C        4.9420    11.8710     1.5690 C.3   1 <1>  -0.1600 
 27 H       -0.8670     2.1020     0.6050 H     1 <1>   0.3700 
 28 H       -0.0300     3.5300    -2.9200 H     1 <1>   0.0800 
 29 H        1.6400     3.2990    -2.4520 H     1 <1>   0.0800 
 30 H       -0.7010     4.5350     1.1470 H     1 <1>   0.0800 
 31 H       -1.2810     5.2990    -1.6680 H     1 <1>   0.0800 
 32 H       -2.7440     2.8480    -1.5190 H     1 <1>   0.1500 
 33 H       -2.7660     5.4030     1.9130 H     1 <1>   0.1500 
 34 H       -5.1820     2.7680    -1.4630 H     1 <1>   0.1500 
 35 H       -5.2040     5.3050     1.9560 H     1 <1>   0.1500 
 36 H        1.4690     6.7030    -1.0700 H     1 <1>   0.3700 
 37 H       -6.4240     3.9910     0.2710 H     1 <1>   0.1500 
 38 H        2.5840     8.9770    -1.7040 H     1 <1>   0.0800 
 39 H        3.2230     7.8470    -0.5630 H     1 <1>   0.0800 
 40 H        1.5570     9.5750     1.8600 H     1 <1>   0.0800 
 41 H        1.9160     7.8610     1.8840 H     1 <1>   0.0800 
 42 H        0.2700     8.4350     1.8550 H     1 <1>   0.0800 
 43 H        0.5370    10.6240    -0.3000 H     1 <1>   0.0800 
 44 H       -0.7010     9.4330    -0.2760 H     1 <1>   0.0800 
 45 H        0.2980     9.6040    -1.6940 H     1 <1>   0.0800 
 46 H        4.4240     9.9410    -0.7880 H     1 <1>   0.4500 
 47 H        3.6120     9.4450     1.9750 H     1 <1>   0.0800 
 48 H        4.7280     8.4510     1.0700 H     1 <1>   0.0800 
 49 H        2.5940    11.4890    -0.9490 H     1 <1>   0.0800 
 50 H        2.3280    11.2560     0.7650 H     1 <1>   0.0800 
 51 H        5.8870    10.1530     2.4390 H     1 <1>   0.0800 
 52 H        6.2230    10.3440     0.7490 H     1 <1>   0.0800 
 53 H        4.8500    12.2980    -0.5410 H     1 <1>   0.0800 
 54 H        3.7300    13.2130     0.4150 H     1 <1>   0.0800 
 55 H        5.7730    12.5450     1.7030 H     1 <1>   0.0800 
 56 H        4.2930    11.9790     2.4230 H     1 <1>   0.0800 
@<TRIPOS>BOND
  1   1   2  2   
  2   2   3  am  
  3   2   4  1   
  4   3   5  1   
  5   3  27  1   
  6   4   6  1   
  7   4  28  1   
  8   4  29  1   
  9   5   7  1   
 10   5   8  1   
 11   5  30  1   
 12   6   8  1   
 13   7   9  ar  
 14   7  10  ar  
 15   8  11  1   
 16   8  31  1   
 17   9  12  ar  
 18   9  32  1   
 19  10  13  ar  
 20  10  33  1   
 21  11  14  2   
 22  11  15  am  
 23  12  16  ar  
 24  12  34  1   
 25  13  16  ar  
 26  13  35  1   
 27  15  17  1   
 28  15  36  1   
 29  16  37  1   
 30  17  18  1   
 31  17  19  1   
 32  17  20  1   
 33  18  21  1   
 34  18  38  1   
 35  18  39  1   
 36  19  40  1   
 37  19  41  1   
 38  19  42  1   
 39  20  43  1   
 40  20  44  1   
 41  20  45  1   
 42  21  22  1   
 43  21  23  1   
 44  21  46  1   
 45  22  24  1   
 46  22  47  1   
 47  22  48  1   
 48  23  25  1   
 49  23  49  1   
 50  23  50  1   
 51  24  26  1   
 52  24  51  1   
 53  24  52  1   
 54  25  26  1   
 55  25  53  1   
 56  25  54  1   
 57  26  55  1   
 58  26  56  1   
@<TRIPOS>SUBSTRUCTURE
  1 ****  11 GROUP 4 **** **** 0

# MOE 2024.06 (io_trps.svl 2023.06)
