@<TRIPOS>MOLECULE
NONAME
57 58 1 0 0 
SMALL
USER_CHARGES


@<TRIPOS>ATOM
  1 O       -0.8240     0.1960    -1.9930 O.2   1 <1>  -0.5700 
  2 C       -1.7800     0.9090    -2.1930 C.2   1 <1>   0.5690 
  3 N       -3.0510     0.4510    -1.9140 N.am  1 <1>  -0.6600 
  4 C       -1.4690     2.3010    -2.7940 C.3   1 <1>   0.2610 
  5 C       -3.2900    -1.0120    -1.6730 C.3   1 <1>   0.3210 
  6 C       -4.2560     1.3080    -1.7360 C.3   1 <1>   0.1400 
  7 O       -2.1810     3.3720    -2.1860 O.3   1 <1>  -0.3630 
  8 C       -1.7860     2.3550    -4.2920 C.3   1 <1>  -0.2400 
  9 C       -3.7650    -1.2980    -0.2480 C.2   1 <1>   0.0460 
 10 C       -4.3020     1.8340    -0.2890 C.3   1 <1>   0.3430 
 11 C       -1.8760     3.8510    -0.9560 C.ar  1 <1>   0.0820 
 12 N       -5.0660    -1.1710     0.1110 N.2   1 <1>  -0.5650 
 13 C       -3.0180    -1.7180     0.8000 C.2   1 <1>  -0.3320 
 14 N       -5.5340     2.6260     0.0110 N.4   1 <1>  -0.9590 
 15 C       -2.5290     5.0080    -0.5670 C.ar  1 <1>  -0.1500 
 16 C       -1.0030     3.2280    -0.0720 C.ar  1 <1>  -0.1500 
 17 C       -5.0800    -1.5500     1.3490 C.2   1 <1>   0.0360 
 18 N       -3.8670    -1.8900     1.8290 N.pl3 1 <1>   0.0330 
 19 C       -1.5260    -1.9900     0.9100 C.3   1 <1>  -0.0600 
 20 C       -5.3080     3.4170     1.2570 C.3   1 <1>   0.2630 
 21 C       -6.7110     1.7110     0.1540 C.3   1 <1>   0.2630 
 22 C       -2.3460     5.5430     0.6990 C.ar  1 <1>  -0.1430 
 23 C       -0.8200     3.7560     1.1930 C.ar  1 <1>  -0.1500 
 24 C       -1.4870     4.9060     1.5890 C.ar  1 <1>  -0.1430 
 25 C       -3.0710     6.8280     1.0750 C.3   1 <1>  -0.0970 
 26 C       -1.2400     5.4560     2.9880 C.3   1 <1>  -0.0970 
 27 H       -0.4200     2.5030    -2.6660 H     1 <1>   0.0800 
 28 H       -2.3940    -1.5760    -1.8620 H     1 <1>   0.0800 
 29 H       -4.0330    -1.3680    -2.3640 H     1 <1>   0.0800 
 30 H       -5.1330     0.7180    -1.9390 H     1 <1>   0.0800 
 31 H       -4.2360     2.1250    -2.4320 H     1 <1>   0.0800 
 32 H       -2.8310     2.1720    -4.4670 H     1 <1>   0.0800 
 33 H       -1.2180     1.6020    -4.8070 H     1 <1>   0.0800 
 34 H       -1.5170     3.3160    -4.6920 H     1 <1>   0.0800 
 35 H       -3.4390     2.4470    -0.1180 H     1 <1>   0.0800 
 36 H       -4.2400     1.0070     0.3950 H     1 <1>   0.0800 
 37 H       -5.6920     3.2830    -0.7670 H     1 <1>   0.4500 
 38 H       -3.1790     5.4930    -1.2730 H     1 <1>   0.1500 
 39 H       -0.4610     2.3390    -0.3370 H     1 <1>   0.1500 
 40 H       -5.9650    -1.6050     1.9610 H     1 <1>   0.1500 
 41 H       -3.6420    -2.2300     2.7700 H     1 <1>   0.2700 
 42 H       -1.0220    -1.7410    -0.0070 H     1 <1>   0.0800 
 43 H       -1.3520    -3.0300     1.1210 H     1 <1>   0.0800 
 44 H       -1.0960    -1.3970     1.6970 H     1 <1>   0.0800 
 45 H       -5.1300     2.7580     2.0900 H     1 <1>   0.0800 
 46 H       -6.1690     4.0290     1.4750 H     1 <1>   0.0800 
 47 H       -4.4490     4.0590     1.1400 H     1 <1>   0.0800 
 48 H       -6.5300     0.9940     0.9380 H     1 <1>   0.0800 
 49 H       -6.8810     1.1690    -0.7620 H     1 <1>   0.0800 
 50 H       -7.5990     2.2730     0.3930 H     1 <1>   0.0800 
 51 H       -0.1410     3.2650     1.8690 H     1 <1>   0.1500 
 52 H       -3.7060     7.1640     0.2750 H     1 <1>   0.0800 
 53 H       -2.3540     7.6030     1.2780 H     1 <1>   0.0800 
 54 H       -3.6760     6.6770     1.9500 H     1 <1>   0.0800 
 55 H       -2.1610     5.5030     3.5390 H     1 <1>   0.0800 
 56 H       -0.8180     6.4430     2.9240 H     1 <1>   0.0800 
 57 H       -0.5530     4.8340     3.5320 H     1 <1>   0.0800 
@<TRIPOS>BOND
  1   1   2  2   
  2   2   3  am  
  3   2   4  1   
  4   3   5  1   
  5   3   6  1   
  6   4   7  1   
  7   4   8  1   
  8   4  27  1   
  9   5   9  1   
 10   5  28  1   
 11   5  29  1   
 12   6  10  1   
 13   6  30  1   
 14   6  31  1   
 15   7  11  1   
 16   8  32  1   
 17   8  33  1   
 18   8  34  1   
 19   9  12  1   
 20   9  13  2   
 21  10  14  1   
 22  10  35  1   
 23  10  36  1   
 24  11  15  ar  
 25  11  16  ar  
 26  12  17  2   
 27  13  18  1   
 28  13  19  1   
 29  14  20  1   
 30  14  21  1   
 31  14  37  1   
 32  15  22  ar  
 33  15  38  1   
 34  16  23  ar  
 35  16  39  1   
 36  17  18  1   
 37  17  40  1   
 38  18  41  1   
 39  19  42  1   
 40  19  43  1   
 41  19  44  1   
 42  20  45  1   
 43  20  46  1   
 44  20  47  1   
 45  21  48  1   
 46  21  49  1   
 47  21  50  1   
 48  22  24  ar  
 49  22  25  1   
 50  23  24  ar  
 51  23  51  1   
 52  24  26  1   
 53  25  52  1   
 54  25  53  1   
 55  25  54  1   
 56  26  55  1   
 57  26  56  1   
 58  26  57  1   
@<TRIPOS>SUBSTRUCTURE
  1 ****  10 GROUP 4 **** **** 0

# MOE 2024.06 (io_trps.svl 2023.06)
