@<TRIPOS>MOLECULE
NONAME
38 40 1 0 0 
SMALL
USER_CHARGES


@<TRIPOS>ATOM
  1 S       -0.4080    -0.8070     0.2280 S.o2  1 <1>   1.4150 
  2 O       -0.9630    -1.8060     1.1150 O.2   1 <1>  -0.6500 
  3 O       -0.4070    -1.0380    -1.2000 O.2   1 <1>  -0.6500 
  4 N       -1.1930     0.6670     0.5240 N.am  1 <1>  -0.8490 
  5 C        1.2790    -0.4610     0.7870 C.3   1 <1>  -0.0770 
  6 C       -2.6130     0.5630     0.9390 C.3   1 <1>   0.1960 
  7 C       -0.8970     1.7180    -0.4590 C.3   1 <1>   0.1960 
  8 C        2.3370     0.1750    -0.0710 C.3   1 <1>  -0.2000 
  9 C        2.4750    -1.2580     0.3510 C.3   1 <1>  -0.2000 
 10 C       -3.6310     1.1290    -0.0880 C.3   1 <1>   0.0000 
 11 C       -1.7920     2.9390    -0.2360 C.3   1 <1>  -0.1600 
 12 C       -5.0840     0.9930     0.4150 C.3   1 <1>   0.2000 
 13 C       -3.2870     2.6070    -0.4040 C.3   1 <1>  -0.1600 
 14 C       -3.6890     0.2450    -1.3510 C.3   1 <1>  -0.1600 
 15 O       -5.2210     1.2430     1.7700 O.3   1 <1>  -0.6800 
 16 C       -5.5380    -0.4330     0.0960 C.3   1 <1>  -0.1600 
 17 C       -4.5710    -0.9480    -0.9770 C.3   1 <1>  -0.1600 
 18 H        1.2890    -0.1660     1.8180 H     1 <1>   0.1000 
 19 H       -2.8730    -0.4510     1.1820 H     1 <1>   0.0800 
 20 H       -2.7090     1.1300     1.8480 H     1 <1>   0.0800 
 21 H        0.1360     2.0090    -0.3670 H     1 <1>   0.0800 
 22 H       -1.0480     1.3520    -1.4610 H     1 <1>   0.0800 
 23 H        2.1190     0.3760    -1.1070 H     1 <1>   0.1000 
 24 H        2.9840     0.9130     0.3690 H     1 <1>   0.1000 
 25 H        3.2150    -1.5200     1.0880 H     1 <1>   0.1000 
 26 H        2.3370    -2.0290    -0.3890 H     1 <1>   0.1000 
 27 H       -1.6130     3.3090     0.7590 H     1 <1>   0.0800 
 28 H       -1.5170     3.7190    -0.9240 H     1 <1>   0.0800 
 29 H       -5.7130     1.6920    -0.1120 H     1 <1>   0.0800 
 30 H       -3.5990     2.8490    -1.4050 H     1 <1>   0.0800 
 31 H       -3.8390     3.2520     0.2600 H     1 <1>   0.0800 
 32 H       -4.1710     0.7820    -2.1500 H     1 <1>   0.0800 
 33 H       -2.7280    -0.0800    -1.7010 H     1 <1>   0.0800 
 34 H       -4.8880     0.4870     2.2870 H     1 <1>   0.4000 
 35 H       -5.4920    -1.0710     0.9610 H     1 <1>   0.0800 
 36 H       -6.5450    -0.4170    -0.2820 H     1 <1>   0.0800 
 37 H       -3.9580    -1.7340    -0.5680 H     1 <1>   0.0800 
 38 H       -5.0940    -1.3320    -1.8360 H     1 <1>   0.0800 
@<TRIPOS>BOND
  1   1   2  2   
  2   1   3  2   
  3   1   4  am  
  4   1   5  1   
  5   4   6  1   
  6   4   7  1   
  7   5   8  1   
  8   5   9  1   
  9   5  18  1   
 10   6  10  1   
 11   6  19  1   
 12   6  20  1   
 13   7  11  1   
 14   7  21  1   
 15   7  22  1   
 16   8   9  1   
 17   8  23  1   
 18   8  24  1   
 19   9  25  1   
 20   9  26  1   
 21  10  12  1   
 22  10  13  1   
 23  10  14  1   
 24  11  13  1   
 25  11  27  1   
 26  11  28  1   
 27  12  15  1   
 28  12  16  1   
 29  12  29  1   
 30  13  30  1   
 31  13  31  1   
 32  14  17  1   
 33  14  32  1   
 34  14  33  1   
 35  15  34  1   
 36  16  17  1   
 37  16  35  1   
 38  16  36  1   
 39  17  37  1   
 40  17  38  1   
@<TRIPOS>SUBSTRUCTURE
  1 ****   4 GROUP 4 **** **** 0

# MOE 2024.06 (io_trps.svl 2023.06)
