@<TRIPOS>MOLECULE
NONAME
41 42 1 0 0 
SMALL
USER_CHARGES


@<TRIPOS>ATOM
  1 O        0.1360    -0.0310    -0.7500 O.2   1 <1>  -0.5700 
  2 C        1.2550    -0.4310    -0.4890 C.2   1 <1>   0.7160 
  3 N        2.2360     0.4450    -0.0890 N.am  1 <1>  -0.4940 
  4 C        1.5870    -1.8320    -0.5700 C.2   1 <1>  -0.0860 
  5 C        2.2310     1.8610    -0.0300 C.2   1 <1>  -0.0880 
  6 C        0.8650    -2.9630    -0.3170 C.2   1 <1>  -0.3320 
  7 C        2.8310    -2.3340    -0.9610 C.2   1 <1>   0.1390 
  8 N        3.2400     2.6240     0.4710 N.pl3 1 <1>   0.3140 
  9 C        1.2790     2.7310    -0.4420 C.2   1 <1>  -0.1500 
 10 N        1.6700    -4.0170    -0.5440 N.pl3 1 <1>   0.3140 
 11 C       -0.5830    -3.0790     0.1410 C.3   1 <1>  -0.0600 
 12 N        2.8910    -3.6250    -0.9350 N.2   1 <1>  -0.7070 
 13 N        2.9590     3.9430     0.3870 N.2   1 <1>  -0.7070 
 14 C        4.5060     2.1570     1.0710 C.3   1 <1>   0.0960 
 15 C        1.7860     3.9930    -0.1590 C.2   1 <1>   0.1080 
 16 C        1.3390    -5.4430    -0.4140 C.3   1 <1>   0.0160 
 17 C        5.5030     1.7200    -0.0120 C.3   1 <1>  -0.1600 
 18 C        1.0800     5.2980    -0.4410 C.3   1 <1>  -0.0590 
 19 C        6.7970     1.1800     0.6100 C.3   1 <1>  -0.1600 
 20 C        7.7830     0.7380    -0.4750 C.3   1 <1>  -0.2400 
 21 H        3.0790    -0.0190     0.2390 H     1 <1>   0.3700 
 22 H        3.6650    -1.7230    -1.2620 H     1 <1>   0.1500 
 23 H        0.3290     2.5130    -0.8940 H     1 <1>   0.1500 
 24 H       -1.0130    -2.1060     0.2980 H     1 <1>   0.0800 
 25 H       -0.6400    -3.6250     1.0660 H     1 <1>   0.0800 
 26 H       -1.1670    -3.5870    -0.6050 H     1 <1>   0.0800 
 27 H        4.2860     1.3430     1.7380 H     1 <1>   0.0800 
 28 H        4.9210     2.9650     1.6470 H     1 <1>   0.0800 
 29 H        0.5120    -5.6730    -1.0570 H     1 <1>   0.0800 
 30 H        1.0840    -5.6540     0.6070 H     1 <1>   0.0800 
 31 H        2.1920    -6.0300    -0.7010 H     1 <1>   0.0800 
 32 H        5.7330     2.5690    -0.6340 H     1 <1>   0.0800 
 33 H        5.0610     0.9580    -0.6300 H     1 <1>   0.0800 
 34 H        0.1240     5.1170    -0.8960 H     1 <1>   0.0800 
 35 H        1.6800     5.8940    -1.1030 H     1 <1>   0.0800 
 36 H        0.9380     5.8330     0.4790 H     1 <1>   0.0800 
 37 H        6.5760     0.3400     1.2480 H     1 <1>   0.0800 
 38 H        7.2560     1.9460     1.2130 H     1 <1>   0.0800 
 39 H        7.3570    -0.0450    -1.0780 H     1 <1>   0.0800 
 40 H        8.6860     0.3670    -0.0220 H     1 <1>   0.0800 
 41 H        8.0380     1.5660    -1.1130 H     1 <1>   0.0800 
@<TRIPOS>BOND
  1   1   2  2   
  2   2   3  am  
  3   2   4  1   
  4   3   5  1   
  5   3  21  1   
  6   4   6  2   
  7   4   7  1   
  8   5   8  1   
  9   5   9  2   
 10   6  10  1   
 11   6  11  1   
 12   7  12  2   
 13   7  22  1   
 14   8  13  1   
 15   8  14  1   
 16   9  15  1   
 17   9  23  1   
 18  10  12  1   
 19  10  16  1   
 20  11  24  1   
 21  11  25  1   
 22  11  26  1   
 23  13  15  2   
 24  14  17  1   
 25  14  27  1   
 26  14  28  1   
 27  15  18  1   
 28  16  29  1   
 29  16  30  1   
 30  16  31  1   
 31  17  19  1   
 32  17  32  1   
 33  17  33  1   
 34  18  34  1   
 35  18  35  1   
 36  18  36  1   
 37  19  20  1   
 38  19  37  1   
 39  19  38  1   
 40  20  39  1   
 41  20  40  1   
 42  20  41  1   
@<TRIPOS>SUBSTRUCTURE
  1 ****   3 GROUP 4 **** **** 0

# MOE 2024.06 (io_trps.svl 2023.06)
