@<TRIPOS>MOLECULE
NONAME
42 45 1 0 0 
SMALL
USER_CHARGES


@<TRIPOS>ATOM
  1 S        0.0210     0.5520    -1.8780 S.3   1 <1>  -0.0800 
  2 C       -1.1030     1.2800    -0.7410 C.2   1 <1>  -0.1400 
  3 C       -1.1700    -0.6640    -2.3240 C.2   1 <1>  -0.1100 
  4 C       -2.2720     0.6280    -0.7460 C.2   1 <1>  -0.1810 
  5 C       -0.7450     2.4920     0.1130 C.3   1 <1>   0.4600 
  6 C       -2.3180    -0.4870    -1.6420 C.2   1 <1>  -0.1500 
  7 C       -3.3940     1.1000     0.1510 C.3   1 <1>   0.0210 
  8 O       -1.8000     2.7270     1.0260 O.3   1 <1>  -0.5600 
  9 C        0.5030     2.2180     0.9580 C.3   1 <1>  -0.1600 
 10 C       -0.5390     3.7460    -0.7470 C.3   1 <1>  -0.1600 
 11 C       -3.1230     2.5590     0.5700 C.3   1 <1>   0.1200 
 12 C        0.8940     3.4360     1.7950 C.3   1 <1>   0.1400 
 13 C       -0.1400     4.9560     0.1000 C.3   1 <1>   0.1400 
 14 N        1.0650     4.6170     0.9040 N.am  1 <1>  -0.6600 
 15 C        2.2850     5.2410     0.7490 C.2   1 <1>   0.7150 
 16 O        3.2940     4.6550     1.1020 O.2   1 <1>  -0.5700 
 17 C        2.3900     6.5570     0.1700 C.2   1 <1>  -0.2370 
 18 N        3.3610     6.9220    -0.7290 N.pl3 1 <1>   0.0480 
 19 C        1.6000     7.6590     0.3890 C.2   1 <1>  -0.1500 
 20 C        3.1600     8.2190    -1.0660 C.2   1 <1>  -0.3020 
 21 C        4.4450     6.0680    -1.2520 C.3   1 <1>   0.0160 
 22 C        2.0840     8.7030    -0.3930 C.2   1 <1>  -0.1500 
 23 H       -0.8790    -1.3920    -3.0590 H     1 <1>   0.1500 
 24 H       -3.2000    -1.0970    -1.7310 H     1 <1>   0.1500 
 25 H       -3.4500     0.4740     1.0230 H     1 <1>   0.0800 
 26 H       -4.3320     1.0470    -0.3700 H     1 <1>   0.0800 
 27 H        1.3300     1.9670     0.3180 H     1 <1>   0.0800 
 28 H        0.3200     1.3750     1.5980 H     1 <1>   0.0800 
 29 H       -1.4290     3.9630    -1.3060 H     1 <1>   0.0800 
 30 H        0.2430     3.5580    -1.4600 H     1 <1>   0.0800 
 31 H       -3.7830     2.8430     1.3690 H     1 <1>   0.0800 
 32 H       -3.2840     3.2220    -0.2620 H     1 <1>   0.0800 
 33 H        1.8010     3.2300     2.3370 H     1 <1>   0.0800 
 34 H        0.1210     3.6500     2.5140 H     1 <1>   0.0800 
 35 H       -0.9430     5.2240     0.7660 H     1 <1>   0.0800 
 36 H        0.0520     5.7890    -0.5530 H     1 <1>   0.0800 
 37 H        0.7540     7.7240     1.0510 H     1 <1>   0.1500 
 38 H        3.7920     8.7410    -1.7620 H     1 <1>   0.1500 
 39 H        4.0270     5.1510    -1.6250 H     1 <1>   0.0800 
 40 H        5.1330     5.8490    -0.4560 H     1 <1>   0.0800 
 41 H        4.9600     6.5790    -2.0440 H     1 <1>   0.0800 
 42 H        1.6710     9.6960    -0.4380 H     1 <1>   0.1500 
@<TRIPOS>BOND
  1   1   2  1   
  2   1   3  1   
  3   2   4  2   
  4   2   5  1   
  5   3   6  2   
  6   3  23  1   
  7   4   6  1   
  8   4   7  1   
  9   5   8  1   
 10   5   9  1   
 11   5  10  1   
 12   6  24  1   
 13   7  11  1   
 14   7  25  1   
 15   7  26  1   
 16   8  11  1   
 17   9  12  1   
 18   9  27  1   
 19   9  28  1   
 20  10  13  1   
 21  10  29  1   
 22  10  30  1   
 23  11  31  1   
 24  11  32  1   
 25  12  14  1   
 26  12  33  1   
 27  12  34  1   
 28  13  14  1   
 29  13  35  1   
 30  13  36  1   
 31  14  15  am  
 32  15  16  2   
 33  15  17  1   
 34  17  18  1   
 35  17  19  2   
 36  18  20  1   
 37  18  21  1   
 38  19  22  1   
 39  19  37  1   
 40  20  22  2   
 41  20  38  1   
 42  21  39  1   
 43  21  40  1   
 44  21  41  1   
 45  22  42  1   
@<TRIPOS>SUBSTRUCTURE
  1 ****  10 GROUP 4 **** **** 0

# MOE 2024.06 (io_trps.svl 2023.06)
