@<TRIPOS>MOLECULE
NONAME
47 49 1 0 0 
SMALL
USER_CHARGES


@<TRIPOS>ATOM
  1 F       -2.4860     2.8110     3.4920 F     1 <1>  -0.1900 
  2 C       -2.5930     2.5850     2.2120 C.ar  1 <1>   0.1900 
  3 C       -2.3260     1.3170     1.7350 C.ar  1 <1>  -0.1500 
  4 C       -2.9660     3.6250     1.3860 C.ar  1 <1>  -0.1500 
  5 C       -2.4340     1.0670     0.3700 C.ar  1 <1>  -0.1440 
  6 C       -3.0720     3.3900     0.0230 C.ar  1 <1>  -0.1440 
  7 C       -2.8110     2.1160    -0.4700 C.ar  1 <1>  -0.1500 
  8 C       -2.1530    -0.3320    -0.2080 C.3   1 <1>   1.1640 
  9 C       -3.4620     4.5230    -0.9090 C.3   1 <1>   0.4870 
 10 F       -1.4360    -1.1010     0.6020 F     1 <1>  -0.3400 
 11 F       -3.2730    -0.9910    -0.4660 F     1 <1>  -0.3400 
 12 F       -1.4840    -0.2680    -1.3530 F     1 <1>  -0.3400 
 13 N       -2.3190     5.4640    -0.9900 N.4   1 <1>  -0.9590 
 14 C       -2.7170     6.8070    -1.5070 C.3   1 <1>   0.4860 
 15 C       -1.0990     4.8840    -1.6400 C.3   1 <1>   0.3430 
 16 C       -3.3990     7.5820    -0.3810 C.ar  1 <1>   0.1670 
 17 C        0.1900     5.6050    -1.2140 C.3   1 <1>   0.2000 
 18 N       -2.9480     7.3450     0.8490 N.ar  1 <1>  -0.6200 
 19 C       -4.4280     8.4630    -0.6770 C.ar  1 <1>  -0.1500 
 20 O        1.2640     4.9310    -1.7650 O.3   1 <1>  -0.5600 
 21 C        0.4620     5.5880     0.2860 C.3   1 <1>  -0.1600 
 22 C       -3.5430     8.0300     1.8180 C.ar  1 <1>   0.1600 
 23 C       -5.0390     9.1590     0.3440 C.ar  1 <1>  -0.1500 
 24 C        2.4260     5.1660    -1.0300 C.3   1 <1>   0.1200 
 25 C        1.9780     5.6470     0.3480 C.3   1 <1>  -0.1600 
 26 C       -4.5760     8.9300     1.6210 C.ar  1 <1>  -0.1500 
 27 H       -2.0410     0.5460     2.4330 H     1 <1>   0.1500 
 28 H       -3.1670     4.5910     1.8200 H     1 <1>   0.1500 
 29 H       -2.9030     1.9250    -1.5290 H     1 <1>   0.1500 
 30 H       -4.3270     5.0250    -0.5060 H     1 <1>   0.0800 
 31 H       -3.7070     4.1390    -1.8860 H     1 <1>   0.0800 
 32 H       -2.0870     5.6710    -0.0010 H     1 <1>   0.4500 
 33 H       -3.3720     6.7130    -2.3570 H     1 <1>   0.0800 
 34 H       -1.8410     7.3580    -1.8060 H     1 <1>   0.0800 
 35 H       -1.1930     4.9260    -2.7120 H     1 <1>   0.0800 
 36 H       -0.9960     3.8520    -1.3490 H     1 <1>   0.0800 
 37 H        0.2210     6.6110    -1.5960 H     1 <1>   0.0800 
 38 H       -4.7580     8.6180    -1.6890 H     1 <1>   0.1500 
 39 H        0.1160     4.6630     0.7160 H     1 <1>   0.0800 
 40 H        0.0010     6.4160     0.7970 H     1 <1>   0.0800 
 41 H       -3.1930     7.8690     2.8250 H     1 <1>   0.1500 
 42 H       -5.8420     9.8540     0.1560 H     1 <1>   0.1500 
 43 H        3.0080     5.9160    -1.5400 H     1 <1>   0.0800 
 44 H        2.9840     4.2460    -0.9740 H     1 <1>   0.0800 
 45 H        2.3750     5.0220     1.1300 H     1 <1>   0.0800 
 46 H        2.3200     6.6560     0.5030 H     1 <1>   0.0800 
 47 H       -5.0090     9.4460     2.4600 H     1 <1>   0.1500 
@<TRIPOS>BOND
  1   1   2  1   
  2   2   3  ar  
  3   2   4  ar  
  4   3   5  ar  
  5   3  27  1   
  6   4   6  ar  
  7   4  28  1   
  8   5   7  ar  
  9   5   8  1   
 10   6   7  ar  
 11   6   9  1   
 12   7  29  1   
 13   8  10  1   
 14   8  11  1   
 15   8  12  1   
 16   9  13  1   
 17   9  30  1   
 18   9  31  1   
 19  13  14  1   
 20  13  15  1   
 21  13  32  1   
 22  14  16  1   
 23  14  33  1   
 24  14  34  1   
 25  15  17  1   
 26  15  35  1   
 27  15  36  1   
 28  16  18  ar  
 29  16  19  ar  
 30  17  20  1   
 31  17  21  1   
 32  17  37  1   
 33  18  22  ar  
 34  19  23  ar  
 35  19  38  1   
 36  20  24  1   
 37  21  25  1   
 38  21  39  1   
 39  21  40  1   
 40  22  26  ar  
 41  22  41  1   
 42  23  26  ar  
 43  23  42  1   
 44  24  25  1   
 45  24  43  1   
 46  24  44  1   
 47  25  45  1   
 48  25  46  1   
 49  26  47  1   
@<TRIPOS>SUBSTRUCTURE
  1 ****   6 GROUP 4 **** **** 0

# MOE 2024.06 (io_trps.svl 2023.06)
