@<TRIPOS>MOLECULE
NONAME
46 48 1 0 0 
SMALL
USER_CHARGES


@<TRIPOS>ATOM
  1 O       -0.9590     0.6700    -2.1340 O.2   1 <1>  -0.5700 
  2 C       -1.3460     0.9560    -1.0220 C.2   1 <1>   0.6300 
  3 N       -1.3910     0.0160    -0.0200 N.am  1 <1>  -0.6600 
  4 C       -1.7920     2.4100    -0.7870 C.3   1 <1>   0.0320 
  5 C       -1.0100    -1.4030    -0.3050 C.3   1 <1>   0.3210 
  6 C       -1.6400     0.3480     1.4190 C.3   1 <1>   0.1400 
  7 C       -0.7010     3.2760    -0.1620 C.ar  1 <1>  -0.0320 
  8 C       -2.5860     3.0890    -1.8710 C.3   1 <1>  -0.2000 
  9 C       -3.2550     2.7220    -0.5900 C.3   1 <1>  -0.2000 
 10 C       -2.2100    -2.3390    -0.2090 C.2   1 <1>   0.0460 
 11 C       -3.1140     0.1900     1.8180 C.3   1 <1>   0.1200 
 12 C       -0.8800     3.9150     1.0560 C.ar  1 <1>  -0.1500 
 13 C        0.5030     3.4350    -0.8300 C.ar  1 <1>  -0.1500 
 14 N       -2.3440    -3.1750     0.8420 N.2   1 <1>  -0.5650 
 15 C       -3.2470    -2.4850    -1.0700 C.2   1 <1>  -0.3320 
 16 O       -3.3350    -1.0530     2.3850 O.3   1 <1>  -0.6800 
 17 C        0.1280     4.6940     1.5970 C.ar  1 <1>  -0.1500 
 18 C        1.5120     4.2130    -0.2900 C.ar  1 <1>  -0.1500 
 19 C       -3.4470    -3.8040     0.6040 C.2   1 <1>   0.0360 
 20 N       -4.0480    -3.4290    -0.5430 N.pl3 1 <1>   0.0330 
 21 C       -3.5510    -1.7870    -2.3840 C.3   1 <1>  -0.0600 
 22 C        1.3300     4.8460     0.9280 C.ar  1 <1>  -0.1440 
 23 C        2.4360     5.7030     1.5180 C.3   1 <1>  -0.0970 
 24 H       -0.2570    -1.7200     0.3940 H     1 <1>   0.0800 
 25 H       -0.5880    -1.4960    -1.2900 H     1 <1>   0.0800 
 26 H       -1.3500     1.3650     1.5980 H     1 <1>   0.0800 
 27 H       -1.0230    -0.2640     2.0550 H     1 <1>   0.0800 
 28 H       -2.8140     2.5310    -2.7620 H     1 <1>   0.1000 
 29 H       -2.3860     4.1270    -2.0760 H     1 <1>   0.1000 
 30 H       -3.5550     3.5210     0.0640 H     1 <1>   0.1000 
 31 H       -3.9750     1.9250    -0.6220 H     1 <1>   0.1000 
 32 H       -3.7620     0.2940     0.9670 H     1 <1>   0.0800 
 33 H       -3.3770     0.9240     2.5600 H     1 <1>   0.0800 
 34 H       -1.8050     3.8110     1.5930 H     1 <1>   0.1500 
 35 H        0.6560     2.9480    -1.7790 H     1 <1>   0.1500 
 36 H       -3.0080    -1.7750     1.7800 H     1 <1>   0.4000 
 37 H       -0.0290     5.1840     2.5420 H     1 <1>   0.1500 
 38 H        2.4390     4.3240    -0.8260 H     1 <1>   0.1500 
 39 H       -3.8660    -4.5590     1.2480 H     1 <1>   0.1500 
 40 H       -4.9250    -3.7910    -0.9270 H     1 <1>   0.2700 
 41 H       -2.7410    -1.1400    -2.6660 H     1 <1>   0.0800 
 42 H       -4.4430    -1.1940    -2.2920 H     1 <1>   0.0800 
 43 H       -3.6890    -2.5110    -3.1670 H     1 <1>   0.0800 
 44 H        2.3890     5.6910     2.5920 H     1 <1>   0.0800 
 45 H        2.3310     6.7170     1.1770 H     1 <1>   0.0800 
 46 H        3.3990     5.3330     1.2170 H     1 <1>   0.0800 
@<TRIPOS>BOND
  1   1   2  2   
  2   2   3  am  
  3   2   4  1   
  4   3   5  1   
  5   3   6  1   
  6   4   7  1   
  7   4   8  1   
  8   4   9  1   
  9   5  10  1   
 10   5  24  1   
 11   5  25  1   
 12   6  11  1   
 13   6  26  1   
 14   6  27  1   
 15   7  12  ar  
 16   7  13  ar  
 17   8   9  1   
 18   8  28  1   
 19   8  29  1   
 20   9  30  1   
 21   9  31  1   
 22  10  14  1   
 23  10  15  2   
 24  11  16  1   
 25  11  32  1   
 26  11  33  1   
 27  12  17  ar  
 28  12  34  1   
 29  13  18  ar  
 30  13  35  1   
 31  14  19  2   
 32  15  20  1   
 33  15  21  1   
 34  16  36  1   
 35  17  22  ar  
 36  17  37  1   
 37  18  22  ar  
 38  18  38  1   
 39  19  20  1   
 40  19  39  1   
 41  20  40  1   
 42  21  41  1   
 43  21  42  1   
 44  21  43  1   
 45  22  23  1   
 46  23  44  1   
 47  23  45  1   
 48  23  46  1   
@<TRIPOS>SUBSTRUCTURE
  1 ****   3 GROUP 4 **** **** 0

# MOE 2024.06 (io_trps.svl 2023.06)
