@<TRIPOS>MOLECULE
NONAME
47 48 1 0 0 
SMALL
USER_CHARGES


@<TRIPOS>ATOM
  1 S       -2.6230    -3.0660    -0.9000 S.3   1 <1>  -0.4600 
  2 C       -3.9090    -2.8410     0.3830 C.3   1 <1>   0.1310 
  3 C       -1.1290    -2.4070    -0.1140 C.3   1 <1>  -0.0100 
  4 C       -5.2180    -3.5360     0.0140 C.2   1 <1>   0.5690 
  5 O       -5.5220    -4.5040     0.6760 O.2   1 <1>  -0.5700 
  6 N       -6.0360    -3.0610    -0.9880 N.am  1 <1>  -0.6600 
  7 C       -7.3130    -3.7690    -1.3320 C.3   1 <1>   0.1400 
  8 C       -5.7980    -1.7920    -1.7320 C.3   1 <1>   0.1400 
  9 C       -8.5780    -2.9160    -1.1110 C.3   1 <1>   0.1400 
 10 C       -6.3390    -0.5790    -0.9570 C.3   1 <1>  -0.1600 
 11 N       -8.3620    -1.7770    -0.1680 N.am  1 <1>  -0.6600 
 12 C       -7.8650    -0.5340    -0.8050 C.3   1 <1>   0.1400 
 13 C       -8.3710    -1.9160     1.2010 C.2   1 <1>   0.5690 
 14 O       -8.1350    -0.9760     1.9300 O.2   1 <1>  -0.5700 
 15 C       -8.6060    -3.2790     1.8580 C.3   1 <1>   0.1810 
 16 O       -9.9220    -3.7520     1.6840 O.3   1 <1>  -0.5600 
 17 C      -10.0890    -5.1050     1.9780 C.3   1 <1>   0.2630 
 18 C       -9.6400    -5.9380     0.7850 C.ar  1 <1>  -0.1440 
 19 C       -8.4200    -6.5980     0.7960 C.ar  1 <1>  -0.1500 
 20 C      -10.4540    -6.0380    -0.3330 C.ar  1 <1>  -0.1500 
 21 C       -8.0180    -7.3450    -0.2980 C.ar  1 <1>  -0.1500 
 22 C      -10.0550    -6.7860    -1.4270 C.ar  1 <1>  -0.1500 
 23 C       -8.8350    -7.4390    -1.4100 C.ar  1 <1>  -0.1500 
 24 H       -4.0550    -1.7870     0.5150 H     1 <1>   0.0800 
 25 H       -3.5200    -3.2650     1.2900 H     1 <1>   0.0800 
 26 H       -0.3210    -2.5000    -0.8180 H     1 <1>   0.0800 
 27 H       -0.9330    -2.9880     0.7700 H     1 <1>   0.0800 
 28 H       -1.3060    -1.3750     0.1310 H     1 <1>   0.0800 
 29 H       -7.4080    -4.6620    -0.7440 H     1 <1>   0.0800 
 30 H       -7.2760    -4.0880    -2.3580 H     1 <1>   0.0800 
 31 H       -6.2700    -1.8480    -2.6980 H     1 <1>   0.0800 
 32 H       -4.7440    -1.6640    -1.9040 H     1 <1>   0.0800 
 33 H       -9.3720    -3.5440    -0.7530 H     1 <1>   0.0800 
 34 H       -8.9030    -2.5290    -2.0600 H     1 <1>   0.0800 
 35 H       -6.0340     0.3120    -1.4740 H     1 <1>   0.0800 
 36 H       -5.8940    -0.5400     0.0200 H     1 <1>   0.0800 
 37 H       -8.3310    -0.4070    -1.7660 H     1 <1>   0.0800 
 38 H       -8.1380     0.3130    -0.1970 H     1 <1>   0.0800 
 39 H       -8.4180    -3.1980     2.9130 H     1 <1>   0.0800 
 40 H       -7.9140    -3.9840     1.4390 H     1 <1>   0.0800 
 41 H      -11.1350    -5.2680     2.1640 H     1 <1>   0.0800 
 42 H       -9.5380    -5.3490     2.8700 H     1 <1>   0.0800 
 43 H       -7.7670    -6.5280     1.6500 H     1 <1>   0.1500 
 44 H      -11.4010    -5.5270    -0.3520 H     1 <1>   0.1500 
 45 H       -7.0660    -7.8460    -0.2820 H     1 <1>   0.1500 
 46 H      -10.6930    -6.8600    -2.2900 H     1 <1>   0.1500 
 47 H       -8.5220    -8.0210    -2.2590 H     1 <1>   0.1500 
@<TRIPOS>BOND
  1   1   2  1   
  2   1   3  1   
  3   2   4  1   
  4   2  24  1   
  5   2  25  1   
  6   3  26  1   
  7   3  27  1   
  8   3  28  1   
  9   4   5  2   
 10   4   6  am  
 11   6   7  1   
 12   6   8  1   
 13   7   9  1   
 14   7  29  1   
 15   7  30  1   
 16   8  10  1   
 17   8  31  1   
 18   8  32  1   
 19   9  11  1   
 20   9  33  1   
 21   9  34  1   
 22  10  12  1   
 23  10  35  1   
 24  10  36  1   
 25  11  12  1   
 26  11  13  am  
 27  12  37  1   
 28  12  38  1   
 29  13  14  2   
 30  13  15  1   
 31  15  16  1   
 32  15  39  1   
 33  15  40  1   
 34  16  17  1   
 35  17  18  1   
 36  17  41  1   
 37  17  42  1   
 38  18  19  ar  
 39  18  20  ar  
 40  19  21  ar  
 41  19  43  1   
 42  20  22  ar  
 43  20  44  1   
 44  21  23  ar  
 45  21  45  1   
 46  22  23  ar  
 47  22  46  1   
 48  23  47  1   
@<TRIPOS>SUBSTRUCTURE
  1 ****   7 GROUP 4 **** **** 0

# MOE 2024.06 (io_trps.svl 2023.06)
