@<TRIPOS>MOLECULE
NONAME
50 52 1 0 0 
SMALL
USER_CHARGES


@<TRIPOS>ATOM
  1 O       -0.6010    -0.0090    -0.3690 O.2   1 <1>  -0.5700 
  2 C       -1.4040     0.5770     0.3230 C.2   1 <1>   0.5690 
  3 N       -2.5670    -0.0690     0.6810 N.am  1 <1>  -0.6600 
  4 C       -1.0650     2.0330     0.7430 C.3   1 <1>   0.0610 
  5 C       -2.6560    -1.5660     0.6190 C.3   1 <1>   0.1400 
  6 C       -3.9180     0.5540     0.8400 C.3   1 <1>   0.1400 
  7 C       -1.6220     2.9740    -0.3480 C.3   1 <1>   0.1200 
  8 C        0.4710     2.2270     0.8140 C.3   1 <1>  -0.2400 
  9 C       -1.5990     2.3960     2.1530 C.3   1 <1>  -0.2400 
 10 C       -3.7040    -2.0220    -0.4110 C.3   1 <1>   0.3440 
 11 C       -4.9130    -0.0150    -0.1930 C.3   1 <1>   0.2950 
 12 O       -1.4730     4.3120     0.0240 O.3   1 <1>  -0.5600 
 13 O       -4.9390    -1.4100    -0.1380 O.3   1 <1>  -0.5600 
 14 C       -3.8620    -3.5390    -0.3790 C.ar  1 <1>  -0.1440 
 15 C       -6.3360     0.4840     0.0680 C.3   1 <1>  -0.1950 
 16 C       -1.8470     5.2190    -0.9600 C.3   1 <1>   0.0400 
 17 C       -3.0540    -4.3250    -1.1890 C.ar  1 <1>  -0.1500 
 18 C       -4.7870    -4.1580     0.4510 C.ar  1 <1>  -0.1500 
 19 C       -7.3620     0.5030    -1.0210 C.3   1 <1>  -0.2000 
 20 C       -6.8100     1.7940    -0.4830 C.3   1 <1>  -0.2000 
 21 C       -3.1670    -5.7050    -1.1690 C.ar  1 <1>  -0.1500 
 22 C       -4.9010    -5.5370     0.4730 C.ar  1 <1>  -0.1500 
 23 C       -4.0910    -6.3120    -0.3380 C.ar  1 <1>  -0.1500 
 24 H       -1.7030    -1.9960     0.3650 H     1 <1>   0.0800 
 25 H       -2.9310    -1.9440     1.5870 H     1 <1>   0.0800 
 26 H       -4.2840     0.3590     1.8320 H     1 <1>   0.0800 
 27 H       -3.8760     1.6150     0.7030 H     1 <1>   0.0800 
 28 H       -2.6660     2.7930    -0.5190 H     1 <1>   0.0800 
 29 H       -1.0870     2.8110    -1.2690 H     1 <1>   0.0800 
 30 H        0.7180     3.2330     1.1050 H     1 <1>   0.0800 
 31 H        0.9240     2.0400    -0.1440 H     1 <1>   0.0800 
 32 H        0.9010     1.5470     1.5280 H     1 <1>   0.0800 
 33 H       -1.1830     3.3330     2.4810 H     1 <1>   0.0800 
 34 H       -1.3190     1.6370     2.8620 H     1 <1>   0.0800 
 35 H       -2.6640     2.5090     2.1720 H     1 <1>   0.0800 
 36 H       -3.3950    -1.7200    -1.3970 H     1 <1>   0.0800 
 37 H       -4.6090     0.2730    -1.1860 H     1 <1>   0.0800 
 38 H       -6.6800     0.2160     1.0520 H     1 <1>   0.1000 
 39 H       -1.7020     6.2120    -0.5710 H     1 <1>   0.0800 
 40 H       -2.8850     5.0730    -1.2040 H     1 <1>   0.0800 
 41 H       -1.2280     5.0770    -1.8290 H     1 <1>   0.0800 
 42 H       -2.3290    -3.8670    -1.8400 H     1 <1>   0.1500 
 43 H       -5.4250    -3.5650     1.0830 H     1 <1>   0.1500 
 44 H       -7.0730     0.1760    -2.0050 H     1 <1>   0.1000 
 45 H       -8.3710     0.2200    -0.7750 H     1 <1>   0.1000 
 46 H       -7.4510     2.4110     0.1230 H     1 <1>   0.1000 
 47 H       -6.1660     2.3730    -1.1220 H     1 <1>   0.1000 
 48 H       -2.5360    -6.3050    -1.8010 H     1 <1>   0.1500 
 49 H       -5.6230    -6.0060     1.1190 H     1 <1>   0.1500 
 50 H       -4.1800    -7.3840    -0.3220 H     1 <1>   0.1500 
@<TRIPOS>BOND
  1   1   2  2   
  2   2   3  am  
  3   2   4  1   
  4   3   5  1   
  5   3   6  1   
  6   4   7  1   
  7   4   8  1   
  8   4   9  1   
  9   5  10  1   
 10   5  24  1   
 11   5  25  1   
 12   6  11  1   
 13   6  26  1   
 14   6  27  1   
 15   7  12  1   
 16   7  28  1   
 17   7  29  1   
 18   8  30  1   
 19   8  31  1   
 20   8  32  1   
 21   9  33  1   
 22   9  34  1   
 23   9  35  1   
 24  10  13  1   
 25  10  14  1   
 26  10  36  1   
 27  11  13  1   
 28  11  15  1   
 29  11  37  1   
 30  12  16  1   
 31  14  17  ar  
 32  14  18  ar  
 33  15  19  1   
 34  15  20  1   
 35  15  38  1   
 36  16  39  1   
 37  16  40  1   
 38  16  41  1   
 39  17  21  ar  
 40  17  42  1   
 41  18  22  ar  
 42  18  43  1   
 43  19  20  1   
 44  19  44  1   
 45  19  45  1   
 46  20  46  1   
 47  20  47  1   
 48  21  23  ar  
 49  21  48  1   
 50  22  23  ar  
 51  22  49  1   
 52  23  50  1   
@<TRIPOS>SUBSTRUCTURE
  1 ****   3 GROUP 4 **** **** 0

# MOE 2024.06 (io_trps.svl 2023.06)
