@<TRIPOS>MOLECULE
NONAME
48 51 1 0 0 
SMALL
USER_CHARGES


@<TRIPOS>ATOM
  1 N       -1.0260    -0.0700     0.2770 N.ar  1 <1>  -0.3100 
  2 N        0.2820     0.0170     0.3170 N.ar  1 <1>  -0.3100 
  3 C       -1.6410    -1.2610     0.2800 C.ar  1 <1>   0.4100 
  4 C        1.0100    -1.0910     0.3690 C.ar  1 <1>   0.1660 
  5 N       -3.0350    -1.2900     0.2210 N.pl3 1 <1>  -0.8380 
  6 C       -0.9120    -2.4380     0.3420 C.ar  1 <1>  -0.1500 
  7 C        0.4570    -2.3530     0.3860 C.ar  1 <1>  -0.1500 
  8 C        2.5130    -0.9070     0.4140 C.3   1 <1>  -0.0970 
  9 C       -3.8590    -0.0830     0.5620 C.3   1 <1>   0.2090 
 10 C       -3.7640    -2.3980    -0.4660 C.3   1 <1>   0.2090 
 11 C       -4.5360     0.5330    -0.6870 C.3   1 <1>   0.1440 
 12 C       -5.1020    -1.9300    -1.0610 C.3   1 <1>  -0.1600 
 13 C       -5.7070     1.3650    -0.1920 C.ar  1 <1>   0.1670 
 14 C       -4.9640    -0.5470    -1.7150 C.3   1 <1>  -0.1600 
 15 C       -3.6470     1.6130    -1.3580 C.3   1 <1>  -0.1600 
 16 N       -6.8560     0.8910     0.2250 N.ar  1 <1>  -0.6200 
 17 C       -5.4190     2.6960    -0.2110 C.ar  1 <1>  -0.1430 
 18 C       -4.0260     2.9600    -0.7240 C.3   1 <1>  -0.0170 
 19 C       -7.7400     1.8080     0.6260 C.ar  1 <1>   0.7200 
 20 C       -6.3880     3.5650     0.2210 C.ar  1 <1>   0.1600 
 21 N       -7.5530     3.1320     0.6420 N.ar  1 <1>  -0.6200 
 22 N       -8.9640     1.3430     1.0680 N.pl3 1 <1>  -0.8380 
 23 C       -9.4200    -0.0510     0.8120 C.3   1 <1>   0.1290 
 24 C       -9.9210     2.2130     1.8060 C.3   1 <1>   0.1290 
 25 H       -1.4060    -3.3890     0.3640 H     1 <1>   0.1500 
 26 H        1.0680    -3.2350     0.4340 H     1 <1>   0.1500 
 27 H        2.8370    -0.3770    -0.4630 H     1 <1>   0.0800 
 28 H        3.0190    -1.8540     0.4550 H     1 <1>   0.0800 
 29 H        2.7790    -0.3330     1.2830 H     1 <1>   0.0800 
 30 H       -3.2710     0.6600     1.0710 H     1 <1>   0.0800 
 31 H       -4.6230    -0.3960     1.2520 H     1 <1>   0.0800 
 32 H       -3.9390    -3.1980     0.2330 H     1 <1>   0.0800 
 33 H       -3.1450    -2.7740    -1.2640 H     1 <1>   0.0800 
 34 H       -5.8460    -1.8890    -0.2840 H     1 <1>   0.0800 
 35 H       -5.4360    -2.6490    -1.7880 H     1 <1>   0.0800 
 36 H       -4.2160    -0.6260    -2.4850 H     1 <1>   0.0800 
 37 H       -5.8900    -0.2630    -2.1850 H     1 <1>   0.0800 
 38 H       -3.8820     1.6680    -2.4070 H     1 <1>   0.0800 
 39 H       -2.5970     1.4020    -1.2610 H     1 <1>   0.0800 
 40 H       -4.0050     3.7580    -1.4450 H     1 <1>   0.0800 
 41 H       -3.3710     3.1890     0.0990 H     1 <1>   0.0800 
 42 H       -6.2060     4.6260     0.2230 H     1 <1>   0.1500 
 43 H       -8.9760    -0.4340    -0.0910 H     1 <1>   0.0800 
 44 H      -10.4890    -0.0770     0.6990 H     1 <1>   0.0800 
 45 H       -9.1320    -0.6800     1.6360 H     1 <1>   0.0800 
 46 H       -9.3920     2.9680     2.3630 H     1 <1>   0.0800 
 47 H      -10.4980     1.6250     2.4970 H     1 <1>   0.0800 
 48 H      -10.5820     2.6930     1.1060 H     1 <1>   0.0800 
@<TRIPOS>BOND
  1   1   2  ar  
  2   1   3  ar  
  3   2   4  ar  
  4   3   5  1   
  5   3   6  ar  
  6   4   7  ar  
  7   4   8  1   
  8   5   9  1   
  9   5  10  1   
 10   6   7  ar  
 11   6  25  1   
 12   7  26  1   
 13   8  27  1   
 14   8  28  1   
 15   8  29  1   
 16   9  11  1   
 17   9  30  1   
 18   9  31  1   
 19  10  12  1   
 20  10  32  1   
 21  10  33  1   
 22  11  13  1   
 23  11  14  1   
 24  11  15  1   
 25  12  14  1   
 26  12  34  1   
 27  12  35  1   
 28  13  16  ar  
 29  13  17  ar  
 30  14  36  1   
 31  14  37  1   
 32  15  18  1   
 33  15  38  1   
 34  15  39  1   
 35  16  19  ar  
 36  17  18  1   
 37  17  20  ar  
 38  18  40  1   
 39  18  41  1   
 40  19  21  ar  
 41  19  22  1   
 42  20  21  ar  
 43  20  42  1   
 44  22  23  1   
 45  22  24  1   
 46  23  43  1   
 47  23  44  1   
 48  23  45  1   
 49  24  46  1   
 50  24  47  1   
 51  24  48  1   
@<TRIPOS>SUBSTRUCTURE
  1 ****   9 GROUP 4 **** **** 0

# MOE 2024.06 (io_trps.svl 2023.06)
