@<TRIPOS>MOLECULE
NONAME
56 59 1 0 0 
SMALL
USER_CHARGES


@<TRIPOS>ATOM
  1 O        1.0680    -0.8800    -0.7850 O.2   1 <1>  -0.5700 
  2 C        1.9880    -0.3030    -0.2660 C.2   1 <1>   0.5690 
  3 N        2.3710    -0.6300     0.9830 N.am  1 <1>  -0.7300 
  4 C        2.7070     0.7870    -1.0320 C.3   1 <1>  -0.0990 
  5 C        3.4860    -0.0730     1.7660 C.3   1 <1>   0.1400 
  6 C        4.1890     0.4630    -1.3080 C.3   1 <1>  -0.1600 
  7 C        4.8240    -0.3200     1.0560 C.3   1 <1>  -0.1600 
  8 C        5.1880     0.6180    -0.1250 C.3   1 <1>   0.0000 
  9 C        5.2870     2.0860     0.3670 C.3   1 <1>  -0.1600 
 10 C        6.5950     0.1910    -0.6140 C.3   1 <1>  -0.1600 
 11 C        5.9470     3.0310    -0.6440 C.3   1 <1>   0.2090 
 12 C        7.2330     1.1750    -1.6000 C.3   1 <1>   0.2090 
 13 N        7.3220     2.5250    -0.9570 N.pl3 1 <1>  -0.8380 
 14 C        8.4900     3.1440    -0.6520 C.ar  1 <1>   0.4610 
 15 N        8.4810     4.4300    -0.2970 N.ar  1 <1>  -0.1790 
 16 C        9.7640     2.5190    -0.6820 C.ar  1 <1>  -0.1500 
 17 C        9.5920     5.1930     0.0200 C.ar  1 <1>   0.3610 
 18 C       10.9120     3.1900    -0.3890 C.ar  1 <1>  -0.1440 
 19 C       10.8520     4.5720    -0.0290 C.ar  1 <1>   0.0000 
 20 C        9.4610     6.5500     0.3740 C.ar  1 <1>  -0.1440 
 21 C       12.2550     2.4690    -0.4360 C.3   1 <1>  -0.0970 
 22 C       11.9740     5.3510     0.2820 C.ar  1 <1>  -0.1500 
 23 C       10.5940     7.2870     0.6730 C.ar  1 <1>  -0.1440 
 24 C        8.0630     7.1830     0.4190 C.3   1 <1>  -0.0970 
 25 C       11.8440     6.6720     0.6230 C.ar  1 <1>  -0.1500 
 26 C       10.5610     8.7610     1.0620 C.3   1 <1>  -0.0970 
 27 H        1.8320    -1.3820     1.4200 H     1 <1>   0.3700 
 28 H        2.5860     1.7180    -0.5160 H     1 <1>   0.0800 
 29 H        2.2050     0.8890    -1.9780 H     1 <1>   0.0800 
 30 H        3.5020    -0.5690     2.7220 H     1 <1>   0.0800 
 31 H        3.3190     0.9740     1.9450 H     1 <1>   0.0800 
 32 H        4.4940     1.0880    -2.1260 H     1 <1>   0.0800 
 33 H        4.2340    -0.5500    -1.6710 H     1 <1>   0.0800 
 34 H        4.8490    -1.3450     0.7290 H     1 <1>   0.0800 
 35 H        5.5880    -0.2230     1.8070 H     1 <1>   0.0800 
 36 H        5.8700     2.1170     1.2710 H     1 <1>   0.0800 
 37 H        4.3170     2.4730     0.6120 H     1 <1>   0.0800 
 38 H        6.5400    -0.7790    -1.0790 H     1 <1>   0.0800 
 39 H        7.2630     0.0970     0.2240 H     1 <1>   0.0800 
 40 H        5.9710     4.0190    -0.2220 H     1 <1>   0.0800 
 41 H        5.3640     3.0780    -1.5490 H     1 <1>   0.0800 
 42 H        6.6370     1.2460    -2.4940 H     1 <1>   0.0800 
 43 H        8.1930     0.8060    -1.9090 H     1 <1>   0.0800 
 44 H        7.5880     4.8980    -0.2990 H     1 <1>   0.4570 
 45 H        9.8190     1.4780    -0.9290 H     1 <1>   0.1500 
 46 H       12.1340     1.4370    -0.7160 H     1 <1>   0.0800 
 47 H       12.7270     2.4990     0.5300 H     1 <1>   0.0800 
 48 H       12.9030     2.9350    -1.1570 H     1 <1>   0.0800 
 49 H       12.9580     4.9170     0.2570 H     1 <1>   0.1500 
 50 H        7.4310     6.6480     1.1050 H     1 <1>   0.0800 
 51 H        7.6180     7.1750    -0.5610 H     1 <1>   0.0800 
 52 H        8.0820     8.2050     0.7470 H     1 <1>   0.0800 
 53 H       12.7290     7.2420     0.8570 H     1 <1>   0.1500 
 54 H       10.1080     9.3440     0.2800 H     1 <1>   0.0800 
 55 H       11.5520     9.1460     1.2250 H     1 <1>   0.0800 
 56 H       10.0030     8.8940     1.9720 H     1 <1>   0.0800 
@<TRIPOS>BOND
  1   1   2  2   
  2   2   3  am  
  3   2   4  1   
  4   3   5  1   
  5   3  27  1   
  6   4   6  1   
  7   4  28  1   
  8   4  29  1   
  9   5   7  1   
 10   5  30  1   
 11   5  31  1   
 12   6   8  1   
 13   6  32  1   
 14   6  33  1   
 15   7   8  1   
 16   7  34  1   
 17   7  35  1   
 18   8   9  1   
 19   8  10  1   
 20   9  11  1   
 21   9  36  1   
 22   9  37  1   
 23  10  12  1   
 24  10  38  1   
 25  10  39  1   
 26  11  13  1   
 27  11  40  1   
 28  11  41  1   
 29  12  13  1   
 30  12  42  1   
 31  12  43  1   
 32  13  14  1   
 33  14  15  ar  
 34  14  16  ar  
 35  15  17  ar  
 36  15  44  1   
 37  16  18  ar  
 38  16  45  1   
 39  17  19  ar  
 40  17  20  ar  
 41  18  19  ar  
 42  18  21  1   
 43  19  22  ar  
 44  20  23  ar  
 45  20  24  1   
 46  21  46  1   
 47  21  47  1   
 48  21  48  1   
 49  22  25  ar  
 50  22  49  1   
 51  23  25  ar  
 52  23  26  1   
 53  24  50  1   
 54  24  51  1   
 55  24  52  1   
 56  25  53  1   
 57  26  54  1   
 58  26  55  1   
 59  26  56  1   
@<TRIPOS>SUBSTRUCTURE
  1 ****  13 GROUP 4 **** **** 0

# MOE 2024.06 (io_trps.svl 2023.06)
