@<TRIPOS>MOLECULE
NONAME
48 49 1 0 0 
SMALL
USER_CHARGES


@<TRIPOS>ATOM
  1 F        0.4000     3.6070    -1.9520 F     1 <1>  -0.1900 
  2 C       -0.7200     3.2330    -1.3900 C.ar  1 <1>   0.1900 
  3 C       -0.8360     3.2550    -0.0070 C.ar  1 <1>  -0.1440 
  4 C       -1.7490     2.8210    -2.2160 C.ar  1 <1>  -0.1500 
  5 C       -2.0380     2.8360     0.5480 C.ar  1 <1>  -0.1500 
  6 C        0.3160     3.7140     0.8760 C.3   1 <1>   0.2540 
  7 C       -2.9410     2.4100    -1.6440 C.ar  1 <1>  -0.1500 
  8 C       -3.0810     2.4190    -0.2650 C.ar  1 <1>  -0.1500 
  9 N        0.4170     5.1840     0.8920 N.3   1 <1>  -0.8100 
 10 C        1.6930     5.6330     1.5270 C.3   1 <1>   0.1710 
 11 C       -0.7470     5.8120     1.5390 C.3   1 <1>   0.0300 
 12 C        2.1180     7.0520     1.1300 C.2   1 <1>   0.5690 
 13 O        2.8920     7.6690     1.8250 O.2   1 <1>  -0.5700 
 14 N        1.6140     7.5700    -0.0200 N.am  1 <1>  -0.7300 
 15 C        1.8560     8.9390    -0.5320 C.3   1 <1>   0.1400 
 16 C        3.1840     9.0010    -1.2980 C.3   1 <1>   0.2090 
 17 N        3.6620    10.4110    -1.4050 N.pl3 1 <1>  -0.8690 
 18 C        4.3470    11.1160    -0.4670 C.ar  1 <1>   0.1000 
 19 C        4.7980    12.4230    -0.7250 C.ar  1 <1>  -0.1430 
 20 C        4.6280    10.5810     0.7980 C.ar  1 <1>  -0.1500 
 21 C        5.4820    13.1150     0.2450 C.ar  1 <1>   0.2110 
 22 C        4.5290    13.0710    -2.0810 C.3   1 <1>  -0.0970 
 23 C        5.3100    11.3030     1.7380 C.ar  1 <1>   0.2110 
 24 N        5.7310    12.5590     1.4570 N.ar  1 <1>  -0.1790 
 25 H       -1.6160     2.8220    -3.2820 H     1 <1>   0.1500 
 26 H       -2.1680     2.8360     1.6170 H     1 <1>   0.1500 
 27 H        1.2280     3.2950     0.4850 H     1 <1>   0.0800 
 28 H        0.1860     3.3440     1.8790 H     1 <1>   0.0800 
 29 H       -3.7560     2.0850    -2.2680 H     1 <1>   0.1500 
 30 H       -4.0090     2.0980     0.1790 H     1 <1>   0.1500 
 31 H        2.4920     4.9800     1.2240 H     1 <1>   0.0800 
 32 H        1.6110     5.5790     2.5980 H     1 <1>   0.0800 
 33 H       -1.6450     5.5820     0.9920 H     1 <1>   0.0800 
 34 H       -0.6350     6.8830     1.5540 H     1 <1>   0.0800 
 35 H       -0.8530     5.4600     2.5510 H     1 <1>   0.0800 
 36 H        0.9310     6.9740    -0.5080 H     1 <1>   0.3700 
 37 H        1.8980     9.6120     0.3070 H     1 <1>   0.0800 
 38 H        1.0440     9.2360    -1.1710 H     1 <1>   0.0800 
 39 H        3.0540     8.5870    -2.2840 H     1 <1>   0.0800 
 40 H        3.9250     8.4140    -0.7850 H     1 <1>   0.0800 
 41 H        3.4500    10.8430    -2.3120 H     1 <1>   0.4000 
 42 H        4.3020     9.5870     1.0410 H     1 <1>   0.1500 
 43 H        5.8340    14.1180     0.0630 H     1 <1>   0.1500 
 44 H        4.9750    12.4830    -2.8650 H     1 <1>   0.0800 
 45 H        4.9360    14.0650    -2.1330 H     1 <1>   0.0800 
 46 H        3.4690    13.1320    -2.2560 H     1 <1>   0.0800 
 47 H        5.5190    10.8830     2.7100 H     1 <1>   0.1500 
 48 H        6.2420    13.0930     2.1680 H     1 <1>   0.4570 
@<TRIPOS>BOND
  1   1   2  1   
  2   2   3  ar  
  3   2   4  ar  
  4   3   5  ar  
  5   3   6  1   
  6   4   7  ar  
  7   4  25  1   
  8   5   8  ar  
  9   5  26  1   
 10   6   9  1   
 11   6  27  1   
 12   6  28  1   
 13   7   8  ar  
 14   7  29  1   
 15   8  30  1   
 16   9  10  1   
 17   9  11  1   
 18  10  12  1   
 19  10  31  1   
 20  10  32  1   
 21  11  33  1   
 22  11  34  1   
 23  11  35  1   
 24  12  13  2   
 25  12  14  am  
 26  14  15  1   
 27  14  36  1   
 28  15  16  1   
 29  15  37  1   
 30  15  38  1   
 31  16  17  1   
 32  16  39  1   
 33  16  40  1   
 34  17  18  1   
 35  17  41  1   
 36  18  19  ar  
 37  18  20  ar  
 38  19  21  ar  
 39  19  22  1   
 40  20  23  ar  
 41  20  42  1   
 42  21  24  ar  
 43  21  43  1   
 44  22  44  1   
 45  22  45  1   
 46  22  46  1   
 47  23  24  ar  
 48  23  47  1   
 49  24  48  1   
@<TRIPOS>SUBSTRUCTURE
  1 ****  14 GROUP 4 **** **** 0

# MOE 2024.06 (io_trps.svl 2023.06)
