@<TRIPOS>MOLECULE
NONAME
47 49 1 0 0 
SMALL
USER_CHARGES


@<TRIPOS>ATOM
  1 S        0.8910     0.3910    -0.5650 S.3   1 <1>  -0.3310 
  2 C       -0.4670    -0.7930    -0.5890 C.ar  1 <1>   0.1020 
  3 C        1.7480     0.1760     1.0590 C.3   1 <1>   0.2500 
  4 C       -0.7500    -1.6220     0.4860 C.ar  1 <1>  -0.1500 
  5 C       -1.2290    -0.8470    -1.7410 C.ar  1 <1>  -0.1500 
  6 C        2.9120     1.1460     1.1270 C.2   1 <1>  -0.0400 
  7 C       -1.8080    -2.5110     0.3950 C.ar  1 <1>  -0.1500 
  8 C       -2.2850    -1.7390    -1.8240 C.ar  1 <1>  -0.1500 
  9 O        2.6790     2.4040     1.4230 O.3   1 <1>  -0.2800 
 10 C        4.2340     0.9500     0.9350 C.2   1 <1>  -0.1500 
 11 C       -2.5790    -2.5730    -0.7560 C.ar  1 <1>  -0.1430 
 12 C        3.8280     3.0730     1.4290 C.2   1 <1>   0.0550 
 13 C        4.8300     2.1970     1.1290 C.2   1 <1>  -0.1500 
 14 C       -3.7360    -3.5520    -0.8490 C.3   1 <1>  -0.0970 
 15 C        3.8690     4.4920     1.7130 C.2   1 <1>   0.7150 
 16 O        2.9400     5.0760     2.2410 O.2   1 <1>  -0.5700 
 17 N        4.9800     5.2150     1.3740 N.am  1 <1>  -0.7300 
 18 C        5.1290     6.6780     1.5510 C.3   1 <1>   0.1400 
 19 C        4.6220     7.4270     0.3090 C.3   1 <1>  -0.0800 
 20 C        5.3810     7.0390    -0.9730 C.3   1 <1>  -0.1600 
 21 C        4.7280     8.9460     0.5190 C.3   1 <1>  -0.1600 
 22 C        4.9530     7.9210    -2.1510 C.3   1 <1>   0.1200 
 23 C        4.3390     9.7040    -0.7550 C.3   1 <1>   0.1200 
 24 O        5.1310     9.2620    -1.8130 O.3   1 <1>  -0.5600 
 25 H        2.0900    -0.8420     1.1020 H     1 <1>   0.0800 
 26 H        1.0350     0.3740     1.8380 H     1 <1>   0.0800 
 27 H       -0.1730    -1.5910     1.3870 H     1 <1>   0.1500 
 28 H       -0.9960    -0.1960    -2.5640 H     1 <1>   0.1500 
 29 H       -2.0300    -3.1570     1.2270 H     1 <1>   0.1500 
 30 H       -2.8750    -1.7800    -2.7230 H     1 <1>   0.1500 
 31 H        4.7480     0.0390     0.6830 H     1 <1>   0.1500 
 32 H        5.8830     2.3930     1.0520 H     1 <1>   0.1500 
 33 H       -4.1600    -3.7270     0.1230 H     1 <1>   0.0800 
 34 H       -3.3890    -4.4870    -1.2520 H     1 <1>   0.0800 
 35 H       -4.5070    -3.1620    -1.4900 H     1 <1>   0.0800 
 36 H        5.6970     4.7610     0.8120 H     1 <1>   0.3700 
 37 H        6.1650     6.9110     1.7280 H     1 <1>   0.0800 
 38 H        4.5640     6.9920     2.4140 H     1 <1>   0.0800 
 39 H        3.5790     7.1850     0.1790 H     1 <1>   0.0800 
 40 H        5.1880     6.0120    -1.2230 H     1 <1>   0.0800 
 41 H        6.4410     7.1550    -0.8270 H     1 <1>   0.0800 
 42 H        5.7360     9.2170     0.7810 H     1 <1>   0.0800 
 43 H        4.0820     9.2510     1.3230 H     1 <1>   0.0800 
 44 H        3.9170     7.7630    -2.4020 H     1 <1>   0.0800 
 45 H        5.5580     7.7170    -3.0160 H     1 <1>   0.0800 
 46 H        4.5110    10.7590    -0.6350 H     1 <1>   0.0800 
 47 H        3.3040     9.5430    -1.0070 H     1 <1>   0.0800 
@<TRIPOS>BOND
  1   1   2  1   
  2   1   3  1   
  3   2   4  ar  
  4   2   5  ar  
  5   3   6  1   
  6   3  25  1   
  7   3  26  1   
  8   4   7  ar  
  9   4  27  1   
 10   5   8  ar  
 11   5  28  1   
 12   6   9  1   
 13   6  10  2   
 14   7  11  ar  
 15   7  29  1   
 16   8  11  ar  
 17   8  30  1   
 18   9  12  1   
 19  10  13  1   
 20  10  31  1   
 21  11  14  1   
 22  12  13  2   
 23  12  15  1   
 24  13  32  1   
 25  14  33  1   
 26  14  34  1   
 27  14  35  1   
 28  15  16  2   
 29  15  17  am  
 30  17  18  1   
 31  17  36  1   
 32  18  19  1   
 33  18  37  1   
 34  18  38  1   
 35  19  20  1   
 36  19  21  1   
 37  19  39  1   
 38  20  22  1   
 39  20  40  1   
 40  20  41  1   
 41  21  23  1   
 42  21  42  1   
 43  21  43  1   
 44  22  24  1   
 45  22  44  1   
 46  22  45  1   
 47  23  24  1   
 48  23  46  1   
 49  23  47  1   
@<TRIPOS>SUBSTRUCTURE
  1 ****   9 GROUP 4 **** **** 0

# MOE 2024.06 (io_trps.svl 2023.06)
