@<TRIPOS>MOLECULE
NONAME
45 47 1 0 0 
SMALL
USER_CHARGES


@<TRIPOS>ATOM
  1 O        0.5740    -0.0370     1.2150 O.2   1 <1>  -0.5700 
  2 C        0.7610    -1.1010     0.6760 C.2   1 <1>   0.5690 
  3 N        1.9540    -1.5950     0.2310 N.am  1 <1>  -0.4770 
  4 C       -0.3640    -2.0680     0.4270 C.3   1 <1>  -0.0990 
  5 C        3.2340    -1.0290     0.3920 C.ar  1 <1>   0.1170 
  6 C        1.7840    -2.9490    -0.3370 C.3   1 <1>   0.1400 
  7 C        0.2690    -3.1450    -0.4620 C.3   1 <1>  -0.1600 
  8 C        3.5910    -0.3960     1.5770 C.ar  1 <1>  -0.1500 
  9 C        4.1820    -1.0940    -0.6250 C.ar  1 <1>  -0.1500 
 10 C        4.8540     0.1430     1.7490 C.ar  1 <1>  -0.1500 
 11 C        5.4470    -0.5570    -0.4570 C.ar  1 <1>  -0.1500 
 12 C        5.7950     0.0620     0.7330 C.ar  1 <1>  -0.1430 
 13 C        7.1820     0.6540     0.9210 C.3   1 <1>   0.3530 
 14 N        7.1300     2.0640     0.4870 N.pl3 1 <1>  -0.8690 
 15 C        8.1620     2.9260     0.4120 C.ar  1 <1>   0.4100 
 16 N        9.3470     2.4720     0.7720 N.ar  1 <1>  -0.6200 
 17 C        7.9590     4.2560    -0.0340 C.ar  1 <1>  -0.1430 
 18 C       10.3620     3.3030     0.7040 C.ar  1 <1>   0.7710 
 19 C        9.0440     5.0740    -0.0850 C.ar  1 <1>   0.2110 
 20 C        6.5470     4.7050    -0.4330 C.3   1 <1>  -0.0170 
 21 N       10.2460     4.5750     0.2910 N.ar  1 <1>  -0.1790 
 22 N       11.5470     2.8230     1.0720 N.pl3 1 <1>  -0.9000 
 23 C        6.4340     6.1600    -0.9060 C.3   1 <1>  -0.2400 
 24 H       -1.1860    -1.5750    -0.0600 H     1 <1>   0.0800 
 25 H       -0.6860    -2.4770     1.3670 H     1 <1>   0.0800 
 26 H        2.2090    -3.6690     0.3420 H     1 <1>   0.0800 
 27 H        2.2620    -3.0300    -1.2970 H     1 <1>   0.0800 
 28 H       -0.0200    -2.9850    -1.4860 H     1 <1>   0.0800 
 29 H       -0.0270    -4.1380    -0.1700 H     1 <1>   0.0800 
 30 H        2.8710    -0.3240     2.3730 H     1 <1>   0.1500 
 31 H        3.9300    -1.5590    -1.5590 H     1 <1>   0.1500 
 32 H        5.0980     0.6280     2.6780 H     1 <1>   0.1500 
 33 H        6.1590    -0.6200    -1.2610 H     1 <1>   0.1500 
 34 H        7.9040     0.1160     0.3300 H     1 <1>   0.0800 
 35 H        7.4750     0.6030     1.9550 H     1 <1>   0.0800 
 36 H        6.1770     2.3400     0.2320 H     1 <1>   0.4000 
 37 H        8.9990     6.1010    -0.4090 H     1 <1>   0.1500 
 38 H        5.8880     4.5730     0.4100 H     1 <1>   0.0800 
 39 H        6.1890     4.0650    -1.2240 H     1 <1>   0.0800 
 40 H       11.0930     5.1350     0.2760 H     1 <1>   0.4570 
 41 H       12.4540     3.2910     1.0960 H     1 <1>   0.4000 
 42 H       11.5800     1.8450     1.3790 H     1 <1>   0.4000 
 43 H        6.7280     6.8420    -0.1280 H     1 <1>   0.0800 
 44 H        5.4100     6.3740    -1.1620 H     1 <1>   0.0800 
 45 H        7.0350     6.3280    -1.7830 H     1 <1>   0.0800 
@<TRIPOS>BOND
  1   1   2  2   
  2   2   3  am  
  3   2   4  1   
  4   3   5  1   
  5   3   6  1   
  6   4   7  1   
  7   4  24  1   
  8   4  25  1   
  9   5   8  ar  
 10   5   9  ar  
 11   6   7  1   
 12   6  26  1   
 13   6  27  1   
 14   7  28  1   
 15   7  29  1   
 16   8  10  ar  
 17   8  30  1   
 18   9  11  ar  
 19   9  31  1   
 20  10  12  ar  
 21  10  32  1   
 22  11  12  ar  
 23  11  33  1   
 24  12  13  1   
 25  13  14  1   
 26  13  34  1   
 27  13  35  1   
 28  14  15  1   
 29  14  36  1   
 30  15  16  ar  
 31  15  17  ar  
 32  16  18  ar  
 33  17  19  ar  
 34  17  20  1   
 35  18  21  ar  
 36  18  22  1   
 37  19  21  ar  
 38  19  37  1   
 39  20  23  1   
 40  20  38  1   
 41  20  39  1   
 42  21  40  1   
 43  22  41  1   
 44  22  42  1   
 45  23  43  1   
 46  23  44  1   
 47  23  45  1   
@<TRIPOS>SUBSTRUCTURE
  1 ****  12 GROUP 4 **** **** 0

# MOE 2024.06 (io_trps.svl 2023.06)
