@<TRIPOS>MOLECULE
Untitled Document
63 68 1 0 0 
SMALL
USER_CHARGES


@<TRIPOS>ATOM
  1 O        0.1430    -0.5670    -0.4540 O.2   1 <1>  -0.5700 
  2 C        1.2500    -0.2770    -0.0130 C.2   1 <1>   0.6300 
  3 N        1.5760     1.0580     0.0790 N.am  1 <1>  -0.4690 
  4 C        2.2340    -1.2290     0.4530 C.2   1 <1>   0.3900 
  5 C        2.7750     1.3630     0.6110 C.2   1 <1>   0.2180 
  6 C        0.8590     2.2940    -0.3270 C.3   1 <1>   0.2200 
  7 N        3.3900    -0.9290     0.9690 N.2   1 <1>  -0.6210 
  8 N        2.9930     2.6910     0.6490 N.am  1 <1>  -0.4690 
  9 C        3.6810     0.4110     1.0580 C.2   1 <1>   0.1710 
 10 C        1.8770     3.4160     0.0160 C.3   1 <1>   0.1400 
 11 C       -0.4660     2.4420     0.4630 C.3   1 <1>   0.3430 
 12 C        4.1690     3.1950     1.1590 C.2   1 <1>   0.6160 
 13 C        4.8980     0.9020     1.5910 C.2   1 <1>  -0.1500 
 14 N       -1.7210     2.5100    -0.3880 N.4   1 <1>  -0.9590 
 15 O        4.3390     4.4040     1.1850 O.2   1 <1>  -0.5700 
 16 C        5.1270     2.2510     1.6380 C.2   1 <1>  -0.1360 
 17 C       -2.8820     2.8730     0.4800 C.3   1 <1>   0.3430 
 18 C       -1.9580     1.2180    -1.1110 C.3   1 <1>   0.3430 
 19 C       -4.1610     2.9850    -0.3550 C.3   1 <1>  -0.1600 
 20 C       -3.2220     1.3070    -1.9660 C.3   1 <1>  -0.1600 
 21 C       -4.4330     1.6840    -1.1150 C.3   1 <1>   0.4230 
 22 N       -5.6100     1.8210    -2.0020 N.4   1 <1>  -0.9060 
 23 C       -6.9340     1.8530    -1.3010 C.3   1 <1>   0.4860 
 24 C       -7.2460     0.4650    -0.7420 C.ar  1 <1>   0.1670 
 25 N       -6.6640    -0.5610    -1.3600 N.ar  1 <1>  -0.6200 
 26 C       -8.0940     0.3420     0.3510 C.ar  1 <1>  -0.1500 
 27 C       -6.9630    -1.7600    -0.8700 C.ar  1 <1>   0.1600 
 28 C       -8.3840    -0.9080     0.8560 C.ar  1 <1>  -0.1440 
 29 C       -7.8000    -1.9880     0.2130 C.ar  1 <1>   0.0820 
 30 C       -9.3010    -1.1060     2.0520 C.3   1 <1>  -0.0170 
 31 O       -8.0130    -3.2630     0.6200 O.3   1 <1>  -0.3620 
 32 C       -9.0860    -2.4990     2.6500 C.3   1 <1>  -0.1600 
 33 C       -9.0550    -3.5490     1.5350 C.3   1 <1>   0.1200 
 34 H        1.9640    -2.2650     0.3610 H     1 <1>   0.0600 
 35 H        0.6820     2.2750    -1.3880 H     1 <1>   0.0800 
 36 H        1.4860     4.1520     0.6960 H     1 <1>   0.0800 
 37 H        2.2300     3.9080    -0.8750 H     1 <1>   0.0800 
 38 H       -0.4010     3.3400     1.0550 H     1 <1>   0.0800 
 39 H       -0.5440     1.6130     1.1480 H     1 <1>   0.0800 
 40 H        5.6150     0.1840     1.9480 H     1 <1>   0.1500 
 41 H       -1.5890     3.2570    -1.0850 H     1 <1>   0.4500 
 42 H        6.0370     2.6600     2.0350 H     1 <1>   0.1500 
 43 H       -3.0130     2.1210     1.2430 H     1 <1>   0.0800 
 44 H       -2.6920     3.8150     0.9720 H     1 <1>   0.0800 
 45 H       -1.1160     0.9850    -1.7450 H     1 <1>   0.0800 
 46 H       -2.0580     0.4130    -0.3980 H     1 <1>   0.0800 
 47 H       -4.0640     3.8120    -1.0370 H     1 <1>   0.0800 
 48 H       -4.9740     3.1960     0.3160 H     1 <1>   0.0800 
 49 H       -3.3870     0.3430    -2.4160 H     1 <1>   0.0800 
 50 H       -3.0640     2.0240    -2.7530 H     1 <1>   0.0800 
 51 H       -4.6150     0.8870    -0.4060 H     1 <1>   0.0800 
 52 H       -5.5280     2.5760    -2.6880 H     1 <1>   0.4500 
 53 H       -5.6840     0.9260    -2.5220 H     1 <1>   0.4500 
 54 H       -6.9380     2.5850    -0.5120 H     1 <1>   0.0800 
 55 H       -7.7080     2.1080    -2.0070 H     1 <1>   0.0800 
 56 H       -8.5350     1.2090     0.8110 H     1 <1>   0.1500 
 57 H       -6.5270    -2.6220    -1.3450 H     1 <1>   0.1500 
 58 H       -9.1130    -0.3570     2.8010 H     1 <1>   0.0800 
 59 H      -10.3220    -1.0110     1.7250 H     1 <1>   0.0800 
 60 H       -9.8760    -2.7250     3.3430 H     1 <1>   0.0800 
 61 H       -8.1530    -2.5320     3.1850 H     1 <1>   0.0800 
 62 H       -9.9820    -3.5550     0.9880 H     1 <1>   0.0800 
 63 H       -8.8780    -4.5310     1.9370 H     1 <1>   0.0800 
@<TRIPOS>BOND
  1   1   2  2   
  2   2   3  am  
  3   2   4  1   
  4   3   5  1   
  5   3   6  1   
  6   4   7  2   
  7   4  34  1   
  8   5   8  1   
  9   5   9  2   
 10   6  10  1   
 11   6  11  1   
 12   6  35  1   
 13   7   9  1   
 14   8  10  1   
 15   8  12  am  
 16   9  13  1   
 17  10  36  1   
 18  10  37  1   
 19  11  14  1   
 20  11  38  1   
 21  11  39  1   
 22  12  15  2   
 23  12  16  1   
 24  13  16  2   
 25  13  40  1   
 26  14  17  1   
 27  14  18  1   
 28  14  41  1   
 29  16  42  1   
 30  17  19  1   
 31  17  43  1   
 32  17  44  1   
 33  18  20  1   
 34  18  45  1   
 35  18  46  1   
 36  19  21  1   
 37  19  47  1   
 38  19  48  1   
 39  20  21  1   
 40  20  49  1   
 41  20  50  1   
 42  21  22  1   
 43  21  51  1   
 44  22  23  1   
 45  22  52  1   
 46  22  53  1   
 47  23  24  1   
 48  23  54  1   
 49  23  55  1   
 50  24  25  ar  
 51  24  26  ar  
 52  25  27  ar  
 53  26  28  ar  
 54  26  56  1   
 55  27  29  ar  
 56  27  57  1   
 57  28  29  ar  
 58  28  30  1   
 59  29  31  1   
 60  30  32  1   
 61  30  58  1   
 62  30  59  1   
 63  31  33  1   
 64  32  33  1   
 65  32  60  1   
 66  32  61  1   
 67  33  62  1   
 68  33  63  1   
@<TRIPOS>SUBSTRUCTURE
  1 ****  18 GROUP 4 **** **** 0

# MOE 2024.06 (io_trps.svl 2023.06)
