@<TRIPOS>MOLECULE
NONAME
46 48 1 0 0 
SMALL
USER_CHARGES


@<TRIPOS>ATOM
  1 F        2.1270     0.4390     0.3740 F     1 <1>  -0.1900 
  2 C        3.1740    -0.1810    -0.1040 C.ar  1 <1>   0.1900 
  3 C        4.2070     0.5760    -0.6560 C.ar  1 <1>   0.0860 
  4 C        3.1930    -1.5680    -0.0380 C.ar  1 <1>  -0.1440 
  5 C        4.1750     2.0220    -0.7030 C.2   1 <1>   0.5440 
  6 C        5.2890    -0.1350    -1.1740 C.ar  1 <1>  -0.1500 
  7 C        4.2940    -2.2330    -0.5540 C.ar  1 <1>  -0.1500 
  8 C        2.0410    -2.3490     0.5780 C.3   1 <1>  -0.0960 
  9 O        4.2910     2.5800    -1.7800 O.2   1 <1>  -0.5700 
 10 N        4.0560     2.7930     0.4340 N.am  1 <1>  -0.6600 
 11 C        5.3360    -1.5170    -1.1210 C.ar  1 <1>  -0.1500 
 12 C        4.3700     2.2410     1.7950 C.3   1 <1>   0.1400 
 13 C        3.5930     4.2070     0.3510 C.3   1 <1>   0.1400 
 14 C        5.1520     3.1990     2.7110 C.3   1 <1>   0.1400 
 15 C        4.7730     5.1800     0.2260 C.3   1 <1>  -0.1600 
 16 N        6.1300     4.0330     1.9590 N.am  1 <1>  -0.6600 
 17 C        5.6010     5.3440     1.5060 C.3   1 <1>   0.1400 
 18 C        7.2810     3.4820     1.4270 C.2   1 <1>   0.7150 
 19 O        7.4950     2.2930     1.6170 O.2   1 <1>  -0.5700 
 20 C        8.1960     4.2550     0.6050 C.2   1 <1>   0.1020 
 21 N        8.8370     5.3540     0.9530 N.2   1 <1>  -0.5650 
 22 N        8.4750     3.8970    -0.6810 N.pl3 1 <1>   0.0480 
 23 C        9.5410     5.6910    -0.1340 C.2   1 <1>   0.0770 
 24 C        9.3320     4.8180    -1.1420 C.2   1 <1>  -0.3020 
 25 C        7.9040     2.7750    -1.4480 C.3   1 <1>   0.0160 
 26 H        6.0990     0.4100    -1.6240 H     1 <1>   0.1500 
 27 H        4.3470    -3.3080    -0.5210 H     1 <1>   0.1500 
 28 H        1.9040    -2.0550     1.6030 H     1 <1>   0.0800 
 29 H        2.2310    -3.4070     0.5480 H     1 <1>   0.0800 
 30 H        1.1330    -2.1500     0.0370 H     1 <1>   0.0800 
 31 H        6.1860    -2.0410    -1.5250 H     1 <1>   0.1500 
 32 H        4.9640     1.3500     1.6870 H     1 <1>   0.0800 
 33 H        3.4530     1.9580     2.2810 H     1 <1>   0.0800 
 34 H        2.9960     4.4470     1.2140 H     1 <1>   0.0800 
 35 H        2.9640     4.3120    -0.5180 H     1 <1>   0.0800 
 36 H        5.6760     2.6220     3.4540 H     1 <1>   0.0800 
 37 H        4.4600     3.8350     3.2330 H     1 <1>   0.0800 
 38 H        4.3810     6.1460    -0.0350 H     1 <1>   0.0800 
 39 H        5.4070     4.8720    -0.5860 H     1 <1>   0.0800 
 40 H        4.9920     5.7710     2.2830 H     1 <1>   0.0800 
 41 H        6.4090     6.0310     1.3260 H     1 <1>   0.0800 
 42 H       10.1760     6.5610    -0.1430 H     1 <1>   0.1500 
 43 H        9.7400     4.8110    -2.1350 H     1 <1>   0.1500 
 44 H        8.1020     1.8530    -0.9330 H     1 <1>   0.0800 
 45 H        8.3460     2.7420    -2.4270 H     1 <1>   0.0800 
 46 H        6.8430     2.9160    -1.5410 H     1 <1>   0.0800 
@<TRIPOS>BOND
  1   1   2  1   
  2   2   3  ar  
  3   2   4  ar  
  4   3   5  1   
  5   3   6  ar  
  6   4   7  ar  
  7   4   8  1   
  8   5   9  2   
  9   5  10  am  
 10   6  11  ar  
 11   6  26  1   
 12   7  11  ar  
 13   7  27  1   
 14   8  28  1   
 15   8  29  1   
 16   8  30  1   
 17  10  12  1   
 18  10  13  1   
 19  11  31  1   
 20  12  14  1   
 21  12  32  1   
 22  12  33  1   
 23  13  15  1   
 24  13  34  1   
 25  13  35  1   
 26  14  16  1   
 27  14  36  1   
 28  14  37  1   
 29  15  17  1   
 30  15  38  1   
 31  15  39  1   
 32  16  17  1   
 33  16  18  am  
 34  17  40  1   
 35  17  41  1   
 36  18  19  2   
 37  18  20  1   
 38  20  21  2   
 39  20  22  1   
 40  21  23  1   
 41  22  24  1   
 42  22  25  1   
 43  23  24  2   
 44  23  42  1   
 45  24  43  1   
 46  25  44  1   
 47  25  45  1   
 48  25  46  1   
@<TRIPOS>SUBSTRUCTURE
  1 ****  10 GROUP 4 **** **** 0

# MOE 2024.06 (io_trps.svl 2023.06)
