@<TRIPOS>MOLECULE
NONAME
51 54 1 0 0 
SMALL
USER_CHARGES


@<TRIPOS>ATOM
  1 O       -0.3780     0.3190     0.6400 O.2   1 <1>  -0.5700 
  2 C       -0.2820     1.5330     0.6190 C.2   1 <1>   0.5440 
  3 N       -1.4390     2.2860     0.6360 N.am  1 <1>  -0.6600 
  4 C        1.0220     2.1560     0.5850 C.ar  1 <1>   0.0860 
  5 C       -1.4620     3.7330     0.2750 C.3   1 <1>   0.1400 
  6 C       -2.7550     1.6340     0.8940 C.3   1 <1>   0.1400 
  7 C        1.9230     1.8890    -0.4640 C.ar  1 <1>   0.0000 
  8 C        1.4370     3.0470     1.5650 C.ar  1 <1>  -0.1500 
  9 C       -2.7390     4.0450    -0.5050 C.3   1 <1>  -0.1600 
 10 C       -3.7750     2.6700     1.3700 C.3   1 <1>  -0.1600 
 11 C        3.1680     2.5140    -0.5140 C.ar  1 <1>  -0.1520 
 12 C        1.8570     1.0550    -1.5980 C.2   1 <1>  -0.1500 
 13 C        2.6870     3.6700     1.5170 C.ar  1 <1>  -0.1500 
 14 C       -4.0180     3.7960     0.3380 C.3   1 <1>   0.2800 
 15 N        3.8290     2.0800    -1.6390 N.pl3 1 <1>   0.0480 
 16 C        3.5550     3.4120     0.4820 C.ar  1 <1>  -0.1500 
 17 C        3.0170     1.1940    -2.2840 C.2   1 <1>  -0.3020 
 18 O       -4.2940     4.9320     1.1150 O.3   1 <1>  -0.5600 
 19 C       -5.2510     3.4560    -0.5340 C.3   1 <1>  -0.1600 
 20 C        5.1790     2.4830    -2.0620 C.3   1 <1>   0.0160 
 21 C       -4.7780     6.0980     0.5080 C.3   1 <1>   0.1200 
 22 C       -5.8810     4.6530    -1.2490 C.3   1 <1>   0.2800 
 23 C       -6.0650     5.8040    -0.2620 C.3   1 <1>  -0.1600 
 24 O       -5.0380     5.0700    -2.2490 O.3   1 <1>  -0.6800 
 25 C       -7.1960     4.2810    -1.9300 C.3   1 <1>  -0.2400 
 26 H       -0.6060     3.9770    -0.3320 H     1 <1>   0.0800 
 27 H       -1.4270     4.3270     1.1730 H     1 <1>   0.0800 
 28 H       -2.6330     0.8730     1.6470 H     1 <1>   0.0800 
 29 H       -3.0960     1.1600    -0.0100 H     1 <1>   0.0800 
 30 H        0.7780     3.2630     2.3860 H     1 <1>   0.1500 
 31 H       -2.7470     3.4050    -1.3690 H     1 <1>   0.0800 
 32 H       -2.6830     5.0520    -0.8630 H     1 <1>   0.0800 
 33 H       -3.3960     3.0920     2.2850 H     1 <1>   0.0800 
 34 H       -4.6910     2.1660     1.6170 H     1 <1>   0.0800 
 35 H        1.0130     0.4290    -1.8320 H     1 <1>   0.1500 
 36 H        2.9650     4.3530     2.3010 H     1 <1>   0.1500 
 37 H        4.5190     3.8870     0.4380 H     1 <1>   0.1500 
 38 H        3.3120     0.7060    -3.1960 H     1 <1>   0.1500 
 39 H       -6.0100     3.0450     0.1070 H     1 <1>   0.0800 
 40 H       -5.0060     2.6890    -1.2470 H     1 <1>   0.0800 
 41 H        5.8840     2.2120    -1.2970 H     1 <1>   0.0800 
 42 H        5.2000     3.5460    -2.2140 H     1 <1>   0.0800 
 43 H        5.4340     1.9830    -2.9790 H     1 <1>   0.0800 
 44 H       -4.0210     6.5120    -0.1330 H     1 <1>   0.0800 
 45 H       -4.9750     6.8090     1.2920 H     1 <1>   0.0800 
 46 H       -6.3950     6.6860    -0.7820 H     1 <1>   0.0800 
 47 H       -6.8280     5.5450     0.4500 H     1 <1>   0.0800 
 48 H       -4.1590     5.2450    -1.8690 H     1 <1>   0.4000 
 49 H       -7.9140     3.9510    -1.2010 H     1 <1>   0.0800 
 50 H       -7.0370     3.4860    -2.6360 H     1 <1>   0.0800 
 51 H       -7.6020     5.1320    -2.4460 H     1 <1>   0.0800 
@<TRIPOS>BOND
  1   1   2  2   
  2   2   3  am  
  3   2   4  1   
  4   3   5  1   
  5   3   6  1   
  6   4   7  ar  
  7   4   8  ar  
  8   5   9  1   
  9   5  26  1   
 10   5  27  1   
 11   6  10  1   
 12   6  28  1   
 13   6  29  1   
 14   7  11  ar  
 15   7  12  1   
 16   8  13  ar  
 17   8  30  1   
 18   9  14  1   
 19   9  31  1   
 20   9  32  1   
 21  10  14  1   
 22  10  33  1   
 23  10  34  1   
 24  11  15  1   
 25  11  16  ar  
 26  12  17  2   
 27  12  35  1   
 28  13  16  ar  
 29  13  36  1   
 30  14  18  1   
 31  14  19  1   
 32  15  17  1   
 33  15  20  1   
 34  16  37  1   
 35  17  38  1   
 36  18  21  1   
 37  19  22  1   
 38  19  39  1   
 39  19  40  1   
 40  20  41  1   
 41  20  42  1   
 42  20  43  1   
 43  21  23  1   
 44  21  44  1   
 45  21  45  1   
 46  22  23  1   
 47  22  24  1   
 48  22  25  1   
 49  23  46  1   
 50  23  47  1   
 51  24  48  1   
 52  25  49  1   
 53  25  50  1   
 54  25  51  1   
@<TRIPOS>SUBSTRUCTURE
  1 ****   5 GROUP 4 **** **** 0

# MOE 2024.06 (io_trps.svl 2023.06)
