@<TRIPOS>MOLECULE
NONAME
46 49 1 0 0 
SMALL
USER_CHARGES


@<TRIPOS>ATOM
  1 O       -0.2810     1.2260    -1.3080 O.2   1 <1>  -0.5700 
  2 C        0.0310     2.3350    -0.9520 C.2   1 <1>   0.5690 
  3 N        1.0320     2.5260    -0.0590 N.am  1 <1>  -0.5470 
  4 C       -0.7160     3.5610    -1.4750 C.3   1 <1>   0.1810 
  5 C        1.4530     3.7960     0.3230 C.ar  1 <1>   0.1170 
  6 O        0.0100     4.7880    -1.3280 O.3   1 <1>  -0.3630 
  7 C        0.9260     4.9160    -0.3270 C.ar  1 <1>   0.0830 
  8 C        2.3890     3.9860     1.3290 C.ar  1 <1>  -0.1500 
  9 C        1.3350     6.1870     0.0250 C.ar  1 <1>  -0.1500 
 10 C        2.7930     5.2630     1.6730 C.ar  1 <1>  -0.1500 
 11 C        2.2870     6.3930     1.0260 C.ar  1 <1>   0.0860 
 12 C        2.7330     7.7230     1.3920 C.2   1 <1>   0.5440 
 13 O        2.8550     8.0150     2.5660 O.2   1 <1>  -0.5700 
 14 N        3.0600     8.6900     0.4570 N.am  1 <1>  -0.6600 
 15 C        3.0450    10.1370     0.8500 C.3   1 <1>   0.1400 
 16 C        3.5300     8.3480    -0.9120 C.3   1 <1>   0.1400 
 17 C        4.4490    10.7680     0.9960 C.3   1 <1>   0.4230 
 18 C        4.9060     8.9470    -1.2510 C.3   1 <1>  -0.0800 
 19 N        5.0050    11.3160    -0.2940 N.4   1 <1>  -0.9590 
 20 C        5.5130     9.8100     1.5920 C.3   1 <1>   0.1200 
 21 C        6.0390     8.4700    -0.3030 C.3   1 <1>   0.1200 
 22 C        4.8080    10.4630    -1.5060 C.3   1 <1>   0.3430 
 23 C        4.6650    12.7490    -0.5320 C.3   1 <1>   0.2630 
 24 O        6.4550     9.4440     0.6120 O.3   1 <1>  -0.5600 
 25 H        1.4830     1.6870     0.3040 H     1 <1>   0.3700 
 26 H       -1.6390     3.6640    -0.9360 H     1 <1>   0.0800 
 27 H       -0.9340     3.4320    -2.5180 H     1 <1>   0.0800 
 28 H        2.7980     3.1360     1.8450 H     1 <1>   0.1500 
 29 H        0.9020     7.0300    -0.4820 H     1 <1>   0.1500 
 30 H        3.5130     5.3990     2.4630 H     1 <1>   0.1500 
 31 H        2.4600    10.6970     0.1430 H     1 <1>   0.0800 
 32 H        2.5460    10.2340     1.7990 H     1 <1>   0.0800 
 33 H        3.6020     7.2770    -1.0120 H     1 <1>   0.0800 
 34 H        2.7950     8.6830    -1.6250 H     1 <1>   0.0800 
 35 H        4.3430    11.5840     1.6900 H     1 <1>   0.0800 
 36 H        5.1380     8.5160    -2.2090 H     1 <1>   0.0800 
 37 H        6.0230    11.2230    -0.1130 H     1 <1>   0.4500 
 38 H        5.0930     8.9280     2.0400 H     1 <1>   0.0800 
 39 H        6.0510    10.3300     2.3650 H     1 <1>   0.0800 
 40 H        6.9080     8.2180    -0.8880 H     1 <1>   0.0800 
 41 H        5.7490     7.5870     0.2440 H     1 <1>   0.0800 
 42 H        3.8450    10.6750    -1.9420 H     1 <1>   0.0800 
 43 H        5.5570    10.7320    -2.2330 H     1 <1>   0.0800 
 44 H        3.6070    12.8590    -0.7050 H     1 <1>   0.0800 
 45 H        5.1980    13.1200    -1.3920 H     1 <1>   0.0800 
 46 H        4.9410    13.3450     0.3230 H     1 <1>   0.0800 
@<TRIPOS>BOND
  1   1   2  2   
  2   2   3  am  
  3   2   4  1   
  4   3   5  1   
  5   3  25  1   
  6   4   6  1   
  7   4  26  1   
  8   4  27  1   
  9   5   7  ar  
 10   5   8  ar  
 11   6   7  1   
 12   7   9  ar  
 13   8  10  ar  
 14   8  28  1   
 15   9  11  ar  
 16   9  29  1   
 17  10  11  ar  
 18  10  30  1   
 19  11  12  1   
 20  12  13  2   
 21  12  14  am  
 22  14  15  1   
 23  14  16  1   
 24  15  17  1   
 25  15  31  1   
 26  15  32  1   
 27  16  18  1   
 28  16  33  1   
 29  16  34  1   
 30  17  19  1   
 31  17  20  1   
 32  17  35  1   
 33  18  21  1   
 34  18  22  1   
 35  18  36  1   
 36  19  22  1   
 37  19  23  1   
 38  19  37  1   
 39  20  24  1   
 40  20  38  1   
 41  20  39  1   
 42  21  24  1   
 43  21  40  1   
 44  21  41  1   
 45  22  42  1   
 46  22  43  1   
 47  23  44  1   
 48  23  45  1   
 49  23  46  1   
@<TRIPOS>SUBSTRUCTURE
  1 ****  11 GROUP 4 **** **** 0

# MOE 2024.06 (io_trps.svl 2023.06)
