@<TRIPOS>MOLECULE
NONAME
52 56 1 0 0 
SMALL
USER_CHARGES


@<TRIPOS>ATOM
  1 CL      -1.5810     0.6230     0.8450 Cl    1 <1>  -0.1400 
  2 C       -2.7280    -0.6780     0.6680 C.2   1 <1>   0.1400 
  3 C       -3.6730    -0.9100     1.6280 C.2   1 <1>   0.1910 
  4 C       -2.6610    -1.4790    -0.4740 C.2   1 <1>  -0.1500 
  5 N       -4.5860    -1.9410     1.4940 N.pl3 1 <1>  -0.5760 
  6 C       -3.5720    -2.4980    -0.5980 C.2   1 <1>  -0.1800 
  7 C       -5.5430    -2.1830     2.4850 C.2   1 <1>   0.9370 
  8 C       -4.5440    -2.7330     0.3910 C.cat 1 <1>   0.7390 
  9 O       -5.5880    -1.4760     3.4620 O.2   1 <1>  -0.5700 
 10 C       -6.4550    -3.2550     2.3170 C.2   1 <1>  -0.1360 
 11 N       -5.4470    -3.7440     0.2640 N.pl3 1 <1>  -0.6450 
 12 C       -6.4170    -4.0330     1.2170 C.2   1 <1>   0.2030 
 13 C       -7.3990    -5.2090     1.0090 C.3   1 <1>   0.4810 
 14 N       -8.4430    -4.9480    -0.0450 N.4   1 <1>  -0.9590 
 15 C       -9.2810    -3.7320     0.2790 C.3   1 <1>   0.3430 
 16 C       -9.3290    -6.1500    -0.1950 C.3   1 <1>   0.3430 
 17 C      -10.3370    -3.4250    -0.7960 C.3   1 <1>   0.1430 
 18 C      -10.3550    -5.9210    -1.3090 C.3   1 <1>  -0.1600 
 19 C      -11.1790    -2.2820    -0.2880 C.ar  1 <1>   0.1670 
 20 C      -11.2110    -4.6680    -1.0550 C.3   1 <1>  -0.1600 
 21 C       -9.7500    -2.8430    -2.1110 C.3   1 <1>  -0.1600 
 22 N      -11.6470    -2.1970     0.9350 N.ar  1 <1>  -0.6200 
 23 C      -11.3740    -1.3310    -1.2410 C.ar  1 <1>  -0.1430 
 24 C      -10.6890    -1.6940    -2.5350 C.3   1 <1>  -0.0170 
 25 C      -12.3640    -1.1010     1.1600 C.ar  1 <1>   0.4770 
 26 C      -12.1230    -0.2330    -0.8960 C.ar  1 <1>   0.1600 
 27 N      -12.6230    -0.1120     0.3160 N.ar  1 <1>  -0.6200 
 28 C      -12.9530    -0.9490     2.5420 C.3   1 <1>  -0.0970 
 29 H       -3.7070    -0.2800     2.5070 H     1 <1>   0.1500 
 30 H       -1.9050    -1.2780    -1.2180 H     1 <1>   0.1500 
 31 H       -3.5400    -3.1290    -1.4670 H     1 <1>   0.1500 
 32 H       -7.1570    -3.3890     3.1210 H     1 <1>   0.1500 
 33 H       -5.3160    -4.3410    -0.5610 H     1 <1>   0.4500 
 34 H       -7.8960    -5.4100     1.9450 H     1 <1>   0.0800 
 35 H       -6.8370    -6.0920     0.7510 H     1 <1>   0.0800 
 36 H       -8.0080    -4.7910    -0.9630 H     1 <1>   0.4500 
 37 H       -8.6580    -2.8610     0.3970 H     1 <1>   0.0800 
 38 H       -9.8000    -3.8920     1.2110 H     1 <1>   0.0800 
 39 H       -9.8540    -6.3380     0.7290 H     1 <1>   0.0800 
 40 H       -8.7420    -7.0240    -0.4310 H     1 <1>   0.0800 
 41 H      -11.0050    -6.7780    -1.3620 H     1 <1>   0.0800 
 42 H       -9.8520    -5.8510    -2.2580 H     1 <1>   0.0800 
 43 H      -11.8700    -4.4920    -1.8890 H     1 <1>   0.0800 
 44 H      -11.8350    -4.8420    -0.1930 H     1 <1>   0.0800 
 45 H       -9.6620    -3.5720    -2.8970 H     1 <1>   0.0800 
 46 H       -8.7800    -2.4190    -1.9220 H     1 <1>   0.0800 
 47 H      -11.4220    -2.0380    -3.2450 H     1 <1>   0.0800 
 48 H      -10.1470    -0.8610    -2.9480 H     1 <1>   0.0800 
 49 H      -12.3140     0.5510    -1.6090 H     1 <1>   0.1500 
 50 H      -12.8620    -1.8640     3.0980 H     1 <1>   0.0800 
 51 H      -13.9940    -0.6930     2.4620 H     1 <1>   0.0800 
 52 H      -12.4400    -0.1650     3.0650 H     1 <1>   0.0800 
@<TRIPOS>BOND
  1   1   2  1   
  2   2   3  2   
  3   2   4  1   
  4   3   5  1   
  5   3  29  1   
  6   4   6  2   
  7   4  30  1   
  8   5   7  1   
  9   5   8  ar  
 10   6   8  1   
 11   6  31  1   
 12   7   9  2   
 13   7  10  1   
 14   8  11  ar  
 15  10  12  2   
 16  10  32  1   
 17  11  12  1   
 18  11  33  1   
 19  12  13  1   
 20  13  14  1   
 21  13  34  1   
 22  13  35  1   
 23  14  15  1   
 24  14  16  1   
 25  14  36  1   
 26  15  17  1   
 27  15  37  1   
 28  15  38  1   
 29  16  18  1   
 30  16  39  1   
 31  16  40  1   
 32  17  19  1   
 33  17  20  1   
 34  17  21  1   
 35  18  20  1   
 36  18  41  1   
 37  18  42  1   
 38  19  22  ar  
 39  19  23  ar  
 40  20  43  1   
 41  20  44  1   
 42  21  24  1   
 43  21  45  1   
 44  21  46  1   
 45  22  25  ar  
 46  23  24  1   
 47  23  26  ar  
 48  24  47  1   
 49  24  48  1   
 50  25  27  ar  
 51  25  28  1   
 52  26  27  ar  
 53  26  49  1   
 54  28  50  1   
 55  28  51  1   
 56  28  52  1   
@<TRIPOS>SUBSTRUCTURE
  1 ****  15 GROUP 4 **** **** 0

# MOE 2024.06 (io_trps.svl 2023.06)
