@<TRIPOS>MOLECULE
NONAME
47 50 1 0 0 
SMALL
USER_CHARGES


@<TRIPOS>ATOM
  1 O       -0.7260     0.2030    -0.7860 O.2   1 <1>  -0.5700 
  2 C       -1.4400     0.8180    -0.0150 C.2   1 <1>   0.7160 
  3 N       -2.4930     0.1580     0.5760 N.am  1 <1>  -0.6600 
  4 C       -1.1920     2.2160     0.2380 C.2   1 <1>  -0.0860 
  5 C       -2.5610    -1.3380     0.5960 C.3   1 <1>   0.1400 
  6 C       -3.8360     0.7930     0.7440 C.3   1 <1>   0.1400 
  7 C       -1.4870     2.9150     1.4100 C.2   1 <1>   0.1390 
  8 C       -0.6230     3.1700    -0.5500 C.2   1 <1>  -0.3020 
  9 C       -3.6510    -1.8550    -0.3600 C.3   1 <1>   0.3440 
 10 C       -4.8670     0.1560    -0.2110 C.3   1 <1>   0.2950 
 11 N       -1.1610     4.1670     1.3520 N.2   1 <1>  -0.7070 
 12 N       -0.6150     4.3240     0.1340 N.pl3 1 <1>   0.3140 
 13 O       -4.8760    -1.2340    -0.0680 O.3   1 <1>  -0.5600 
 14 C       -3.7980    -3.3690    -0.2340 C.ar  1 <1>  -0.1440 
 15 C       -6.2840     0.6580     0.0800 C.3   1 <1>  -0.1950 
 16 C       -0.0890     5.6250    -0.3250 C.3   1 <1>   0.0960 
 17 C       -4.6720    -3.9410     0.6810 C.ar  1 <1>  -0.1500 
 18 C       -3.0310    -4.1980    -1.0400 C.ar  1 <1>  -0.1500 
 19 C       -7.3540     0.6070    -0.9650 C.3   1 <1>  -0.2000 
 20 C       -6.7930     1.9300    -0.5250 C.3   1 <1>  -0.2000 
 21 C        1.4330     5.6990    -0.1440 C.3   1 <1>  -0.2400 
 22 C       -4.7760    -5.3170     0.7890 C.ar  1 <1>  -0.1500 
 23 C       -3.1340    -5.5740    -0.9340 C.ar  1 <1>  -0.1500 
 24 C       -4.0060    -6.1350    -0.0190 C.ar  1 <1>  -0.1500 
 25 H       -1.6130    -1.7650     0.3170 H     1 <1>   0.0800 
 26 H       -2.7840    -1.6710     1.5940 H     1 <1>   0.0800 
 27 H       -4.1660     0.6650     1.7600 H     1 <1>   0.0800 
 28 H       -3.7900     1.8480     0.5400 H     1 <1>   0.0800 
 29 H       -1.9370     2.4640     2.2790 H     1 <1>   0.1500 
 30 H       -0.2300     3.0650    -1.5440 H     1 <1>   0.1500 
 31 H       -3.3870    -1.6090    -1.3750 H     1 <1>   0.0800 
 32 H       -4.6080     0.3860    -1.2310 H     1 <1>   0.0800 
 33 H       -6.5850     0.4460     1.0920 H     1 <1>   0.1000 
 34 H       -0.3490     5.7530    -1.3590 H     1 <1>   0.0800 
 35 H       -0.5650     6.4000     0.2480 H     1 <1>   0.0800 
 36 H       -5.2780    -3.3130     1.3120 H     1 <1>   0.1500 
 37 H       -2.3460    -3.7770    -1.7560 H     1 <1>   0.1500 
 38 H       -7.1030     0.2270    -1.9400 H     1 <1>   0.1000 
 39 H       -8.3490     0.3320    -0.6620 H     1 <1>   0.1000 
 40 H       -7.4130     2.5770     0.0720 H     1 <1>   0.1000 
 41 H       -6.1780     2.4760    -1.2190 H     1 <1>   0.1000 
 42 H        1.9190     4.9340    -0.7230 H     1 <1>   0.0800 
 43 H        1.6860     5.5750     0.8940 H     1 <1>   0.0800 
 44 H        1.7930     6.6580    -0.4710 H     1 <1>   0.0800 
 45 H       -5.4580    -5.7490     1.5000 H     1 <1>   0.1500 
 46 H       -2.5350    -6.2090    -1.5630 H     1 <1>   0.1500 
 47 H       -4.0880    -7.2050     0.0640 H     1 <1>   0.1500 
@<TRIPOS>BOND
  1   1   2  2   
  2   2   3  am  
  3   2   4  1   
  4   3   5  1   
  5   3   6  1   
  6   4   7  1   
  7   4   8  2   
  8   5   9  1   
  9   5  25  1   
 10   5  26  1   
 11   6  10  1   
 12   6  27  1   
 13   6  28  1   
 14   7  11  2   
 15   7  29  1   
 16   8  12  1   
 17   8  30  1   
 18   9  13  1   
 19   9  14  1   
 20   9  31  1   
 21  10  13  1   
 22  10  15  1   
 23  10  32  1   
 24  11  12  1   
 25  12  16  1   
 26  14  17  ar  
 27  14  18  ar  
 28  15  19  1   
 29  15  20  1   
 30  15  33  1   
 31  16  21  1   
 32  16  34  1   
 33  16  35  1   
 34  17  22  ar  
 35  17  36  1   
 36  18  23  ar  
 37  18  37  1   
 38  19  20  1   
 39  19  38  1   
 40  19  39  1   
 41  20  40  1   
 42  20  41  1   
 43  21  42  1   
 44  21  43  1   
 45  21  44  1   
 46  22  24  ar  
 47  22  45  1   
 48  23  24  ar  
 49  23  46  1   
 50  24  47  1   
@<TRIPOS>SUBSTRUCTURE
  1 ****   3 GROUP 4 **** **** 0

# MOE 2024.06 (io_trps.svl 2023.06)
