@<TRIPOS>MOLECULE
NONAME
46 47 1 0 0 
SMALL
USER_CHARGES


@<TRIPOS>ATOM
  1 O        2.8930     2.8700    -3.7900 O.co2 1 <1>  -0.9000 
  2 C        3.6430     3.5410    -3.0540 C.2   1 <1>   1.0320 
  3 O        4.5090     4.2620    -3.5890 O.co2 1 <1>  -0.9000 
  4 C        3.4800     3.4850    -1.6090 C.2   1 <1>  -0.0920 
  5 O        4.3080     4.1060    -0.7700 O.3   1 <1>  -0.2800 
  6 C        2.5290     2.8510    -0.8690 C.2   1 <1>  -0.1500 
  7 C        3.9070     3.8980     0.4670 C.2   1 <1>  -0.0400 
  8 C        2.8020     3.1220     0.4730 C.2   1 <1>  -0.1500 
  9 C        4.6930     4.5390     1.5920 C.3   1 <1>   0.3200 
 10 N        4.9020     5.9490     1.2400 N.am  1 <1>  -0.7300 
 11 C        5.4370     6.8890     2.0550 C.2   1 <1>   0.5690 
 12 O        5.6500     6.6520     3.2220 O.2   1 <1>  -0.5700 
 13 C        5.7270     8.2910     1.4970 C.3   1 <1>   0.1710 
 14 N        6.9770     8.4420     0.6930 N.3   1 <1>  -0.8100 
 15 C        7.2580     9.8760     0.4640 C.3   1 <1>   0.1100 
 16 C        6.9250     7.7020    -0.5830 C.3   1 <1>   0.1100 
 17 C        8.6020    10.0780    -0.2490 C.3   1 <1>   0.2000 
 18 C        8.2560     7.8350    -1.3310 C.3   1 <1>  -0.1600 
 19 O        8.7500    11.4420    -0.5100 O.3   1 <1>  -0.5600 
 20 C        8.6350     9.3030    -1.5730 C.3   1 <1>  -0.1600 
 21 C       10.0650    11.8820    -0.6200 C.3   1 <1>   0.1200 
 22 C       10.0320    13.3850    -0.8930 C.3   1 <1>  -0.1600 
 23 C       11.4470    13.9600    -1.0250 C.3   1 <1>  -0.2400 
 24 H        1.7180     2.2580    -1.2560 H     1 <1>   0.1500 
 25 H        2.2260     2.7710     1.3090 H     1 <1>   0.1500 
 26 H        5.6480     4.0540     1.6880 H     1 <1>   0.0800 
 27 H        4.1610     4.4650     2.5240 H     1 <1>   0.0800 
 28 H        4.7890     6.1120     0.2350 H     1 <1>   0.3700 
 29 H        5.7860     8.9490     2.3450 H     1 <1>   0.0800 
 30 H        4.8850     8.6010     0.9060 H     1 <1>   0.0800 
 31 H        7.2990    10.3870     1.4100 H     1 <1>   0.0800 
 32 H        6.4730    10.3070    -0.1330 H     1 <1>   0.0800 
 33 H        6.1210     8.0770    -1.1950 H     1 <1>   0.0800 
 34 H        6.7530     6.6560    -0.3970 H     1 <1>   0.0800 
 35 H        9.3900     9.7530     0.4090 H     1 <1>   0.0800 
 36 H        8.1800     7.3200    -2.2730 H     1 <1>   0.0800 
 37 H        9.0220     7.3500    -0.7530 H     1 <1>   0.0800 
 38 H        9.6160     9.3490    -2.0100 H     1 <1>   0.0800 
 39 H        7.9280     9.7410    -2.2550 H     1 <1>   0.0800 
 40 H       10.5440    11.3620    -1.4310 H     1 <1>   0.0800 
 41 H       10.5770    11.6770     0.3050 H     1 <1>   0.0800 
 42 H        9.5210    13.8780    -0.0840 H     1 <1>   0.0800 
 43 H        9.4890    13.5650    -1.8040 H     1 <1>   0.0800 
 44 H       12.0030    13.8030    -0.1170 H     1 <1>   0.0800 
 45 H       11.3960    15.0170    -1.2160 H     1 <1>   0.0800 
 46 H       11.9700    13.4900    -1.8390 H     1 <1>   0.0800 
@<TRIPOS>BOND
  1   1   2  ar  
  2   2   3  ar  
  3   2   4  1   
  4   4   5  1   
  5   4   6  2   
  6   5   7  1   
  7   6   8  1   
  8   6  24  1   
  9   7   8  2   
 10   7   9  1   
 11   8  25  1   
 12   9  10  1   
 13   9  26  1   
 14   9  27  1   
 15  10  11  am  
 16  10  28  1   
 17  11  12  2   
 18  11  13  1   
 19  13  14  1   
 20  13  29  1   
 21  13  30  1   
 22  14  15  1   
 23  14  16  1   
 24  15  17  1   
 25  15  31  1   
 26  15  32  1   
 27  16  18  1   
 28  16  33  1   
 29  16  34  1   
 30  17  19  1   
 31  17  20  1   
 32  17  35  1   
 33  18  20  1   
 34  18  36  1   
 35  18  37  1   
 36  19  21  1   
 37  20  38  1   
 38  20  39  1   
 39  21  22  1   
 40  21  40  1   
 41  21  41  1   
 42  22  23  1   
 43  22  42  1   
 44  22  43  1   
 45  23  44  1   
 46  23  45  1   
 47  23  46  1   
@<TRIPOS>SUBSTRUCTURE
  1 ****  16 GROUP 4 **** **** 0

# MOE 2024.06 (io_trps.svl 2023.06)
