@<TRIPOS>MOLECULE
NONAME
51 53 1 0 0 
SMALL
USER_CHARGES


@<TRIPOS>ATOM
  1 O       -0.8640    -0.9120    -0.3910 O.3   1 <1>  -0.3630 
  2 C       -0.7550    -2.2040    -0.7240 C.ar  1 <1>   0.0830 
  3 C       -0.4060    -0.7180     0.9410 C.3   1 <1>   0.1200 
  4 C       -0.3770    -2.9960     0.3260 C.ar  1 <1>  -0.1440 
  5 C       -0.9860    -2.7270    -1.9800 C.ar  1 <1>  -0.1500 
  6 C       -0.1530    -2.1200     1.5260 C.3   1 <1>  -0.0160 
  7 C       -0.2470    -4.3610     0.1640 C.ar  1 <1>  -0.1500 
  8 C       -0.8630    -4.0960    -2.1560 C.ar  1 <1>  -0.1500 
  9 C       -0.5150    -4.9170    -1.0850 C.ar  1 <1>  -0.1440 
 10 C       -0.4560    -6.4200    -1.2790 C.3   1 <1>   0.4870 
 11 N       -1.6350    -7.0180    -0.5880 N.4   1 <1>  -0.9590 
 12 C       -1.7050    -8.5010    -0.7110 C.3   1 <1>   0.5240 
 13 C       -2.9590    -6.3540    -0.8820 C.3   1 <1>   0.3430 
 14 C       -2.5380    -9.0000     0.4670 C.2   1 <1>   0.0460 
 15 C       -3.4720    -5.5000     0.3140 C.3   1 <1>   0.3430 
 16 N       -2.6060    -8.2720     1.6090 N.2   1 <1>  -0.5650 
 17 C       -3.2710   -10.1330     0.5730 C.2   1 <1>  -0.3320 
 18 N       -4.5430    -4.4950    -0.0320 N.4   1 <1>  -0.9590 
 19 C       -3.3520    -8.9920     2.3870 C.2   1 <1>   0.0360 
 20 N       -3.7920   -10.1330     1.8160 N.pl3 1 <1>   0.0330 
 21 C       -3.5210   -11.2700    -0.4060 C.3   1 <1>  -0.0600 
 22 C       -3.9990    -3.3330    -0.8120 C.3   1 <1>   0.2630 
 23 C       -5.1770    -3.9780     1.2240 C.3   1 <1>   0.2630 
 24 H       -1.1570    -0.1760     1.4890 H     1 <1>   0.0800 
 25 H        0.5040    -0.1450     0.8950 H     1 <1>   0.0800 
 26 H       -1.2450    -2.0690    -2.7920 H     1 <1>   0.1500 
 27 H       -0.8520    -2.3380     2.3130 H     1 <1>   0.0800 
 28 H        0.8530    -2.2020     1.8970 H     1 <1>   0.0800 
 29 H        0.0620    -4.9660     1.0010 H     1 <1>   0.1500 
 30 H       -1.0360    -4.5060    -3.1380 H     1 <1>   0.1500 
 31 H        0.4610    -6.8070    -0.8630 H     1 <1>   0.0800 
 32 H       -0.4810    -6.6520    -2.3310 H     1 <1>   0.0800 
 33 H       -1.4810    -6.9330     0.4330 H     1 <1>   0.4500 
 34 H       -0.7180    -8.9270    -0.6340 H     1 <1>   0.0800 
 35 H       -2.1470    -8.8010    -1.6470 H     1 <1>   0.0800 
 36 H       -3.6980    -7.1070    -1.1000 H     1 <1>   0.0800 
 37 H       -2.8540    -5.7240    -1.7490 H     1 <1>   0.0800 
 38 H       -2.6380    -4.9690     0.7410 H     1 <1>   0.0800 
 39 H       -3.8500    -6.1760     1.0640 H     1 <1>   0.0800 
 40 H       -5.2940    -4.9440    -0.5820 H     1 <1>   0.4500 
 41 H       -3.6110    -8.7330     3.4020 H     1 <1>   0.1500 
 42 H       -4.3800   -10.8540     2.2520 H     1 <1>   0.2700 
 43 H       -3.0150   -11.1000    -1.3390 H     1 <1>   0.0800 
 44 H       -4.5750   -11.3680    -0.6030 H     1 <1>   0.0800 
 45 H       -3.1650   -12.1990     0.0060 H     1 <1>   0.0800 
 46 H       -3.2310    -2.8260    -0.2480 H     1 <1>   0.0800 
 47 H       -4.7830    -2.6240    -1.0270 H     1 <1>   0.0800 
 48 H       -3.5740    -3.6620    -1.7460 H     1 <1>   0.0800 
 49 H       -4.4440    -3.4780     1.8380 H     1 <1>   0.0800 
 50 H       -5.6060    -4.7880     1.7920 H     1 <1>   0.0800 
 51 H       -5.9610    -3.2760     0.9880 H     1 <1>   0.0800 
@<TRIPOS>BOND
  1   1   2  1   
  2   1   3  1   
  3   2   4  ar  
  4   2   5  ar  
  5   3   6  1   
  6   3  24  1   
  7   3  25  1   
  8   4   6  1   
  9   4   7  ar  
 10   5   8  ar  
 11   5  26  1   
 12   6  27  1   
 13   6  28  1   
 14   7   9  ar  
 15   7  29  1   
 16   8   9  ar  
 17   8  30  1   
 18   9  10  1   
 19  10  11  1   
 20  10  31  1   
 21  10  32  1   
 22  11  12  1   
 23  11  13  1   
 24  11  33  1   
 25  12  14  1   
 26  12  34  1   
 27  12  35  1   
 28  13  15  1   
 29  13  36  1   
 30  13  37  1   
 31  14  16  1   
 32  14  17  2   
 33  15  18  1   
 34  15  38  1   
 35  15  39  1   
 36  16  19  2   
 37  17  20  1   
 38  17  21  1   
 39  18  22  1   
 40  18  23  1   
 41  18  40  1   
 42  19  20  1   
 43  19  41  1   
 44  20  42  1   
 45  21  43  1   
 46  21  44  1   
 47  21  45  1   
 48  22  46  1   
 49  22  47  1   
 50  22  48  1   
 51  23  49  1   
 52  23  50  1   
 53  23  51  1   
@<TRIPOS>SUBSTRUCTURE
  1 ****  15 GROUP 4 **** **** 0

# MOE 2024.06 (io_trps.svl 2023.06)
