@<TRIPOS>MOLECULE
NONAME
42 43 1 0 0 
SMALL
USER_CHARGES


@<TRIPOS>ATOM
  1 F        0.3520     2.5900    -1.7280 F     1 <1>  -0.3400 
  2 C        0.2660     2.6400    -0.4080 C.3   1 <1>   1.0200 
  3 F        1.1620     3.5150     0.0120 F     1 <1>  -0.3400 
  4 F        0.6370     1.4510     0.0390 F     1 <1>  -0.3400 
  5 C       -1.1410     2.9870     0.0460 C.3   1 <1>  -0.1600 
  6 C       -2.0990     1.9260    -0.4820 C.3   1 <1>   0.3430 
  7 N       -3.5050     2.2600    -0.1260 N.4   1 <1>  -0.9590 
  8 C       -3.8240     2.1610     1.3300 C.3   1 <1>   0.3430 
  9 C       -4.4950     1.5090    -0.9400 C.3   1 <1>   0.3430 
 10 C       -5.2950     2.5080     1.5940 C.3   1 <1>  -0.1600 
 11 C       -5.8810     2.1480    -0.7930 C.3   1 <1>  -0.1600 
 12 C       -6.0040     3.1420     0.3860 C.3   1 <1>   0.2800 
 13 O       -5.2810     4.3170     0.0970 O.3   1 <1>  -0.5600 
 14 C       -7.4600     3.4920     0.7640 C.3   1 <1>  -0.1600 
 15 C       -5.8130     5.2120    -0.8460 C.3   1 <1>   0.1200 
 16 C       -8.1330     4.4840    -0.1860 C.3   1 <1>   0.2800 
 17 C       -7.2070     5.6740    -0.4200 C.3   1 <1>  -0.1600 
 18 O       -8.3450     3.8560    -1.3900 O.3   1 <1>  -0.6800 
 19 C       -9.5050     4.9180     0.3240 C.3   1 <1>  -0.2400 
 20 H       -1.3960     3.9540    -0.3450 H     1 <1>   0.0800 
 21 H       -1.1470     3.0180     1.1190 H     1 <1>   0.0800 
 22 H       -1.8400     0.9580    -0.0810 H     1 <1>   0.0800 
 23 H       -2.0070     1.8760    -1.5560 H     1 <1>   0.0800 
 24 H       -3.7070     3.2570    -0.3480 H     1 <1>   0.4500 
 25 H       -3.2060     2.8560     1.8770 H     1 <1>   0.0800 
 26 H       -3.6150     1.1680     1.6920 H     1 <1>   0.0800 
 27 H       -4.5320     0.4830    -0.6090 H     1 <1>   0.0800 
 28 H       -4.2110     1.5190    -1.9790 H     1 <1>   0.0800 
 29 H       -5.3500     3.1690     2.4410 H     1 <1>   0.0800 
 30 H       -5.8130     1.6070     1.8730 H     1 <1>   0.0800 
 31 H       -6.5880     1.3510    -0.6490 H     1 <1>   0.0800 
 32 H       -6.1520     2.6090    -1.7220 H     1 <1>   0.0800 
 33 H       -7.4540     3.9360     1.7430 H     1 <1>   0.0800 
 34 H       -8.0550     2.5990     0.8340 H     1 <1>   0.0800 
 35 H       -5.8440     4.7380    -1.8110 H     1 <1>   0.0800 
 36 H       -5.1490     6.0580    -0.9050 H     1 <1>   0.0800 
 37 H       -7.6210     6.3280    -1.1660 H     1 <1>   0.0800 
 38 H       -7.1130     6.2420     0.4890 H     1 <1>   0.0800 
 39 H       -8.9510     4.3960    -1.9330 H     1 <1>   0.4000 
 40 H       -9.4060     5.4040     1.2780 H     1 <1>   0.0800 
 41 H      -10.1470     4.0630     0.4500 H     1 <1>   0.0800 
 42 H       -9.9660     5.6110    -0.3560 H     1 <1>   0.0800 
@<TRIPOS>BOND
  1   1   2  1   
  2   2   3  1   
  3   2   4  1   
  4   2   5  1   
  5   5   6  1   
  6   5  20  1   
  7   5  21  1   
  8   6   7  1   
  9   6  22  1   
 10   6  23  1   
 11   7   8  1   
 12   7   9  1   
 13   7  24  1   
 14   8  10  1   
 15   8  25  1   
 16   8  26  1   
 17   9  11  1   
 18   9  27  1   
 19   9  28  1   
 20  10  12  1   
 21  10  29  1   
 22  10  30  1   
 23  11  12  1   
 24  11  31  1   
 25  11  32  1   
 26  12  13  1   
 27  12  14  1   
 28  13  15  1   
 29  14  16  1   
 30  14  33  1   
 31  14  34  1   
 32  15  17  1   
 33  15  35  1   
 34  15  36  1   
 35  16  17  1   
 36  16  18  1   
 37  16  19  1   
 38  17  37  1   
 39  17  38  1   
 40  18  39  1   
 41  19  40  1   
 42  19  41  1   
 43  19  42  1   
@<TRIPOS>SUBSTRUCTURE
  1 ****   7 GROUP 4 **** **** 0

# MOE 2024.06 (io_trps.svl 2023.06)
