@<TRIPOS>MOLECULE
NONAME
51 53 1 0 0 
SMALL
USER_CHARGES


@<TRIPOS>ATOM
  1 F        0.6660     1.0450    -2.3260 F     1 <1>  -0.1900 
  2 C        1.6730     1.1130    -1.4940 C.ar  1 <1>   0.1900 
  3 C        2.2330    -0.0580    -1.0090 C.ar  1 <1>  -0.1440 
  4 C        2.1300     2.3680    -1.1340 C.ar  1 <1>  -0.1500 
  5 C        3.2980     0.0920    -0.1340 C.ar  1 <1>   0.1900 
  6 C        1.7170    -1.4310    -1.4080 C.3   1 <1>   0.2540 
  7 C        3.1940     2.4800    -0.2530 C.ar  1 <1>   0.0830 
  8 F        3.8810    -0.9730     0.3530 F     1 <1>  -0.1900 
  9 C        3.7890     1.3260     0.2540 C.ar  1 <1>  -0.1500 
 10 N        0.8670    -1.9830    -0.3380 N.3   1 <1>  -0.8100 
 11 O        3.5950     3.7340     0.0640 O.3   1 <1>  -0.3630 
 12 C        0.6880    -3.4300    -0.4620 C.3   1 <1>   0.1100 
 13 C       -0.4230    -1.2730    -0.2190 C.3   1 <1>   0.1100 
 14 C        4.6660     3.9610     0.9540 C.3   1 <1>   0.0400 
 15 C       -0.2050    -3.8420     0.7200 C.3   1 <1>   0.4230 
 16 C       -1.3540    -1.9410     0.8240 C.3   1 <1>  -0.1600 
 17 N        0.0930    -5.1660     1.3790 N.4   1 <1>  -0.9590 
 18 C       -1.7300    -3.4630     0.4210 C.3   1 <1>   0.0000 
 19 C        0.0150    -6.3080     0.4590 C.3   1 <1>   0.3430 
 20 C        1.3910    -5.1320     2.1200 C.3   1 <1>   0.2630 
 21 C       -2.1200    -4.9580    -0.0590 C.3   1 <1>  -0.1600 
 22 C       -3.2590    -3.0270     0.2080 C.3   1 <1>   0.1200 
 23 C       -1.1020    -6.0310    -0.5260 C.3   1 <1>  -0.1600 
 24 O       -3.8510    -2.9310     1.4660 O.3   1 <1>  -0.6800 
 25 H        1.6650     3.2510    -1.5320 H     1 <1>   0.1500 
 26 H        2.5640    -2.0770    -1.5650 H     1 <1>   0.0800 
 27 H        1.1680    -1.3820    -2.3330 H     1 <1>   0.0800 
 28 H        4.6160     1.3620     0.9350 H     1 <1>   0.1500 
 29 H        0.2210    -3.6620    -1.4030 H     1 <1>   0.0800 
 30 H        1.6480    -3.9100    -0.4020 H     1 <1>   0.0800 
 31 H       -0.2390    -0.2540     0.0810 H     1 <1>   0.0800 
 32 H       -0.9170    -1.2510    -1.1780 H     1 <1>   0.0800 
 33 H        4.8000     5.0230     1.0510 H     1 <1>   0.0800 
 34 H        5.5580     3.5160     0.5480 H     1 <1>   0.0800 
 35 H        4.4230     3.5350     1.9110 H     1 <1>   0.0800 
 36 H        0.1640    -3.1880     1.4870 H     1 <1>   0.0800 
 37 H       -0.9270    -1.8550     1.8110 H     1 <1>   0.0800 
 38 H       -2.1480    -1.2210     0.9350 H     1 <1>   0.0800 
 39 H       -0.6690    -5.2810     2.0640 H     1 <1>   0.4500 
 40 H        0.9450    -6.4340    -0.0730 H     1 <1>   0.0800 
 41 H       -0.1920    -7.2090     1.0130 H     1 <1>   0.0800 
 42 H        2.2120    -4.9940     1.4340 H     1 <1>   0.0800 
 43 H        1.5410    -6.0530     2.6590 H     1 <1>   0.0800 
 44 H        1.3960    -4.3160     2.8250 H     1 <1>   0.0800 
 45 H       -2.7260    -5.4110     0.7110 H     1 <1>   0.0800 
 46 H       -2.7090    -4.9360    -0.9630 H     1 <1>   0.0800 
 47 H       -3.9360    -3.6580    -0.3400 H     1 <1>   0.0800 
 48 H       -3.3720    -2.0880    -0.3110 H     1 <1>   0.0800 
 49 H       -0.6660    -5.7330    -1.4630 H     1 <1>   0.0800 
 50 H       -1.6180    -6.9560    -0.7210 H     1 <1>   0.0800 
 51 H       -4.7760    -2.6160     1.3980 H     1 <1>   0.4000 
@<TRIPOS>BOND
  1   1   2  1   
  2   2   3  ar  
  3   2   4  ar  
  4   3   5  ar  
  5   3   6  1   
  6   4   7  ar  
  7   4  25  1   
  8   5   8  1   
  9   5   9  ar  
 10   6  10  1   
 11   6  26  1   
 12   6  27  1   
 13   7   9  ar  
 14   7  11  1   
 15   9  28  1   
 16  10  12  1   
 17  10  13  1   
 18  11  14  1   
 19  12  15  1   
 20  12  29  1   
 21  12  30  1   
 22  13  16  1   
 23  13  31  1   
 24  13  32  1   
 25  14  33  1   
 26  14  34  1   
 27  14  35  1   
 28  15  17  1   
 29  15  18  1   
 30  15  36  1   
 31  16  18  1   
 32  16  37  1   
 33  16  38  1   
 34  17  19  1   
 35  17  20  1   
 36  17  39  1   
 37  18  21  1   
 38  18  22  1   
 39  19  23  1   
 40  19  40  1   
 41  19  41  1   
 42  20  42  1   
 43  20  43  1   
 44  20  44  1   
 45  21  23  1   
 46  21  45  1   
 47  21  46  1   
 48  22  24  1   
 49  22  47  1   
 50  22  48  1   
 51  23  49  1   
 52  23  50  1   
 53  24  51  1   
@<TRIPOS>SUBSTRUCTURE
  1 ****  10 GROUP 4 **** **** 0

# MOE 2024.06 (io_trps.svl 2023.06)
