@<TRIPOS>MOLECULE
NONAME
54 56 1 0 0 
SMALL
USER_CHARGES


@<TRIPOS>ATOM
  1 O        4.5220    -3.9060     1.0640 O.2   1 <1>  -0.5700 
  2 C        3.7170    -3.5330     1.8870 C.2   1 <1>   0.5690 
  3 N        3.9630    -2.3920     2.6210 N.am  1 <1>  -0.6600 
  4 C        2.4360    -4.3330     2.0080 C.3   1 <1>   0.1570 
  5 C        5.1340    -1.5420     2.2650 C.3   1 <1>   0.1400 
  6 C        3.0090    -1.7590     3.5710 C.3   1 <1>   0.1400 
  7 N        1.3740    -3.6390     1.2610 N.pl3 1 <1>   0.3140 
  8 C        4.8760    -0.8410     0.9190 C.3   1 <1>   0.3430 
  9 C        2.4750    -0.4320     3.0140 C.3   1 <1>  -0.1600 
 10 N        0.4830    -2.8480     1.8920 N.2   1 <1>  -0.7070 
 11 C        1.1540    -3.6460    -0.0760 C.2   1 <1>  -0.3320 
 12 N        3.7170     0.1250     0.9210 N.4   1 <1>  -0.9590 
 13 C        2.4210    -0.3620     1.4830 C.3   1 <1>   0.3430 
 14 C       -0.2970    -2.4020     0.9600 C.2   1 <1>   0.1080 
 15 C        0.0780    -2.8580    -0.3000 C.2   1 <1>  -0.1810 
 16 C        1.9890    -4.4350    -1.0770 C.3   1 <1>  -0.0600 
 17 C        3.5380     0.6880    -0.4400 C.3   1 <1>   0.5230 
 18 C       -1.4750    -1.5030     1.2630 C.3   1 <1>  -0.0590 
 19 C       -0.6080    -2.5360    -1.6180 C.3   1 <1>   0.0210 
 20 C        4.5620     1.8040    -0.6120 C.2   1 <1>   0.0060 
 21 C        0.0100    -1.2890    -2.2520 C.3   1 <1>  -0.2400 
 22 N        5.2170     2.3260     0.3820 N.2   1 <1>  -0.5650 
 23 N        4.8750     2.3550    -1.8090 N.pl3 1 <1>   0.0330 
 24 C        5.9950     3.2610    -0.1960 C.2   1 <1>   0.0770 
 25 C        5.7990     3.2900    -1.5310 C.2   1 <1>  -0.3020 
 26 H        2.1440    -4.4370     3.0340 H     1 <1>   0.0800 
 27 H        2.5760    -5.3100     1.5890 H     1 <1>   0.0800 
 28 H        6.0060    -2.1680     2.1710 H     1 <1>   0.0800 
 29 H        5.3340    -0.8180     3.0350 H     1 <1>   0.0800 
 30 H        3.5040    -1.5870     4.5120 H     1 <1>   0.0800 
 31 H        2.1820    -2.4170     3.7700 H     1 <1>   0.0800 
 32 H        4.7080    -1.6060     0.1790 H     1 <1>   0.0800 
 33 H        5.7710    -0.3100     0.6390 H     1 <1>   0.0800 
 34 H        3.0410     0.3930     3.4070 H     1 <1>   0.0800 
 35 H        1.4720    -0.3210     3.3850 H     1 <1>   0.0800 
 36 H        4.0360     0.9530     1.4550 H     1 <1>   0.4500 
 37 H        1.6370     0.3260     1.2110 H     1 <1>   0.0800 
 38 H        2.1710    -1.3240     1.0690 H     1 <1>   0.0800 
 39 H        3.0090    -4.0970    -1.0690 H     1 <1>   0.0800 
 40 H        1.6070    -4.3150    -2.0740 H     1 <1>   0.0800 
 41 H        1.9680    -5.4820    -0.8350 H     1 <1>   0.0800 
 42 H        2.5500     1.1060    -0.5410 H     1 <1>   0.0800 
 43 H        3.6730    -0.0780    -1.1850 H     1 <1>   0.0800 
 44 H       -1.4110    -1.1390     2.2720 H     1 <1>   0.0800 
 45 H       -2.3860    -2.0630     1.1580 H     1 <1>   0.0800 
 46 H       -1.4930    -0.6680     0.5890 H     1 <1>   0.0800 
 47 H       -1.6600    -2.3820    -1.4520 H     1 <1>   0.0800 
 48 H       -0.5100    -3.3710    -2.2890 H     1 <1>   0.0800 
 49 H       -0.1050    -0.4440    -1.5990 H     1 <1>   0.0800 
 50 H       -0.4800    -1.0740    -3.1860 H     1 <1>   0.0800 
 51 H        1.0550    -1.4550    -2.4400 H     1 <1>   0.0800 
 52 H        4.5040     2.1330    -2.7410 H     1 <1>   0.2700 
 53 H        6.6660     3.8770     0.3840 H     1 <1>   0.1500 
 54 H        6.2590     3.9160    -2.2770 H     1 <1>   0.1500 
@<TRIPOS>BOND
  1   1   2  2   
  2   2   3  am  
  3   2   4  1   
  4   3   5  1   
  5   3   6  1   
  6   4   7  1   
  7   4  26  1   
  8   4  27  1   
  9   5   8  1   
 10   5  28  1   
 11   5  29  1   
 12   6   9  1   
 13   6  30  1   
 14   6  31  1   
 15   7  10  1   
 16   7  11  1   
 17   8  12  1   
 18   8  32  1   
 19   8  33  1   
 20   9  13  1   
 21   9  34  1   
 22   9  35  1   
 23  10  14  2   
 24  11  15  2   
 25  11  16  1   
 26  12  13  1   
 27  12  17  1   
 28  12  36  1   
 29  13  37  1   
 30  13  38  1   
 31  14  15  1   
 32  14  18  1   
 33  15  19  1   
 34  16  39  1   
 35  16  40  1   
 36  16  41  1   
 37  17  20  1   
 38  17  42  1   
 39  17  43  1   
 40  18  44  1   
 41  18  45  1   
 42  18  46  1   
 43  19  21  1   
 44  19  47  1   
 45  19  48  1   
 46  20  22  2   
 47  20  23  1   
 48  21  49  1   
 49  21  50  1   
 50  21  51  1   
 51  22  24  1   
 52  23  25  1   
 53  23  52  1   
 54  24  25  2   
 55  24  53  1   
 56  25  54  1   
@<TRIPOS>SUBSTRUCTURE
  1 ****  13 GROUP 4 **** **** 0

# MOE 2024.06 (io_trps.svl 2023.06)
