@<TRIPOS>MOLECULE
NONAME
47 48 1 0 0 
SMALL
USER_CHARGES


@<TRIPOS>ATOM
  1 S       -0.1360    -0.5860    -0.1210 S.o2  1 <1>   1.0900 
  2 O        0.4170    -0.0130    -1.3260 O.2   1 <1>  -0.6500 
  3 O        0.0650     0.0260     1.1730 O.2   1 <1>  -0.6500 
  4 C       -1.8700    -0.8790    -0.3430 C.3   1 <1>  -0.0550 
  5 C        0.3010    -2.3100    -0.0010 C.3   1 <1>  -0.0550 
  6 C       -2.1660    -2.2320     0.3050 C.3   1 <1>   0.1900 
  7 C       -0.9870    -3.1400    -0.0980 C.3   1 <1>  -0.1600 
  8 N       -3.4470    -2.7980    -0.1690 N.3   1 <1>  -0.8100 
  9 C       -3.7990    -4.0670     0.4990 C.3   1 <1>   0.1100 
 10 C       -4.5760    -1.8510    -0.0570 C.3   1 <1>   0.0300 
 11 C       -4.5100    -4.9860    -0.4920 C.3   1 <1>  -0.0990 
 12 C       -4.8890    -6.2860     0.1860 C.2   1 <1>   0.5690 
 13 O       -4.1580    -7.2350     0.0190 O.2   1 <1>  -0.5700 
 14 N       -6.0200    -6.3900     0.9530 N.am  1 <1>  -0.6600 
 15 C       -6.3270    -7.6790     1.6450 C.3   1 <1>   0.3200 
 16 C       -7.1010    -5.3620     1.0300 C.3   1 <1>   0.1400 
 17 C       -7.0000    -8.6420     0.6850 C.2   1 <1>   0.0070 
 18 C       -8.1200    -5.5550    -0.0990 C.3   1 <1>   0.1200 
 19 N       -8.2170    -9.0770     0.7900 N.2   1 <1>  -0.5650 
 20 N       -6.3450    -9.1210    -0.3930 N.pl3 1 <1>   0.0330 
 21 O       -9.0540    -4.5310    -0.0410 O.3   1 <1>  -0.6800 
 22 C       -8.3590    -9.8870    -0.2780 C.2   1 <1>   0.0770 
 23 C       -7.2260    -9.9250    -1.0130 C.2   1 <1>  -0.3020 
 24 H       -2.0870    -0.9400    -1.3920 H     1 <1>   0.0800 
 25 H       -2.4460    -0.0920     0.1030 H     1 <1>   0.0800 
 26 H        0.7740    -2.4890     0.9470 H     1 <1>   0.0800 
 27 H        0.9850    -2.5890    -0.7810 H     1 <1>   0.0800 
 28 H       -2.1860    -2.1130     1.3770 H     1 <1>   0.0800 
 29 H       -0.9060    -4.0080     0.5310 H     1 <1>   0.0800 
 30 H       -1.1230    -3.4540    -1.1190 H     1 <1>   0.0800 
 31 H       -4.4220    -3.8780     1.3580 H     1 <1>   0.0800 
 32 H       -2.9240    -4.5830     0.8500 H     1 <1>   0.0800 
 33 H       -4.4330    -1.0110    -0.7140 H     1 <1>   0.0800 
 34 H       -4.6730    -1.4970     0.9550 H     1 <1>   0.0800 
 35 H       -5.4980    -2.3270    -0.3460 H     1 <1>   0.0800 
 36 H       -3.8380    -5.2050    -1.3020 H     1 <1>   0.0800 
 37 H       -5.3790    -4.5160    -0.9070 H     1 <1>   0.0800 
 38 H       -6.9710    -7.5040     2.4880 H     1 <1>   0.0800 
 39 H       -5.4170    -8.1220     2.0130 H     1 <1>   0.0800 
 40 H       -6.6770    -4.3770     0.9580 H     1 <1>   0.0800 
 41 H       -7.6010    -5.4380     1.9800 H     1 <1>   0.0800 
 42 H       -8.6390    -6.4940    -0.0100 H     1 <1>   0.0800 
 43 H       -7.6350    -5.5010    -1.0580 H     1 <1>   0.0800 
 44 H       -5.3800    -8.8710    -0.6530 H     1 <1>   0.2700 
 45 H       -9.7560    -4.7430     0.6060 H     1 <1>   0.4000 
 46 H       -9.2840   -10.4080    -0.4640 H     1 <1>   0.1500 
 47 H       -7.0040   -10.4630    -1.9160 H     1 <1>   0.1500 
@<TRIPOS>BOND
  1   1   2  2   
  2   1   3  2   
  3   1   4  1   
  4   1   5  1   
  5   4   6  1   
  6   4  24  1   
  7   4  25  1   
  8   5   7  1   
  9   5  26  1   
 10   5  27  1   
 11   6   7  1   
 12   6   8  1   
 13   6  28  1   
 14   7  29  1   
 15   7  30  1   
 16   8   9  1   
 17   8  10  1   
 18   9  11  1   
 19   9  31  1   
 20   9  32  1   
 21  10  33  1   
 22  10  34  1   
 23  10  35  1   
 24  11  12  1   
 25  11  36  1   
 26  11  37  1   
 27  12  13  2   
 28  12  14  am  
 29  14  15  1   
 30  14  16  1   
 31  15  17  1   
 32  15  38  1   
 33  15  39  1   
 34  16  18  1   
 35  16  40  1   
 36  16  41  1   
 37  17  19  2   
 38  17  20  1   
 39  18  21  1   
 40  18  42  1   
 41  18  43  1   
 42  19  22  1   
 43  20  23  1   
 44  20  44  1   
 45  21  45  1   
 46  22  23  2   
 47  22  46  1   
 48  23  47  1   
@<TRIPOS>SUBSTRUCTURE
  1 ****  11 GROUP 4 **** **** 0

# MOE 2024.06 (io_trps.svl 2023.06)
