@<TRIPOS>MOLECULE
NONAME
56 58 1 0 0 
SMALL
USER_CHARGES


@<TRIPOS>ATOM
  1 F       -0.2480     1.2140    -0.4990 F     1 <1>  -0.1900 
  2 C       -1.5540     1.2900    -0.4720 C.ar  1 <1>   0.1900 
  3 C       -2.2280     2.2040     0.3460 C.ar  1 <1>   0.0830 
  4 C       -2.2370     0.4190    -1.2980 C.ar  1 <1>  -0.1500 
  5 O       -1.6700     3.1100     1.2000 O.3   1 <1>  -0.3630 
  6 C       -3.6120     2.2070     0.3010 C.ar  1 <1>  -0.1500 
  7 C       -3.6190     0.4490    -1.3190 C.ar  1 <1>  -0.1500 
  8 C       -0.2790     3.2180     1.4050 C.3   1 <1>   0.0400 
  9 C       -4.3370     1.3390    -0.5180 C.ar  1 <1>   0.0530 
 10 C       -5.7780     1.3850    -0.5370 C.2   1 <1>   0.0870 
 11 O       -6.3780     2.5480    -0.5160 O.3   1 <1>  -0.0190 
 12 C       -6.7530     0.4350    -0.5800 C.2   1 <1>  -0.0860 
 13 N       -7.6790     2.4550    -0.5520 N.2   1 <1>  -0.4100 
 14 C       -7.9320     1.1940    -0.5920 C.2   1 <1>   0.3720 
 15 C       -6.6710    -0.9960    -0.5870 C.2   1 <1>   0.7160 
 16 N       -9.2420     0.6880    -0.6230 N.pl3 1 <1>  -0.8210 
 17 O       -5.6270    -1.5770    -0.3590 O.2   1 <1>  -0.5700 
 18 N       -7.7820    -1.7360    -0.8430 N.am  1 <1>  -0.7300 
 19 C       -9.9360     0.8290     0.6860 C.3   1 <1>   0.1290 
 20 C      -10.0630     1.2500    -1.7330 C.3   1 <1>   0.1290 
 21 C       -7.9390    -3.2030    -0.6870 C.3   1 <1>   0.1400 
 22 C       -8.9200    -3.5760     0.4540 C.3   1 <1>   0.0000 
 23 C      -10.3550    -3.0540     0.1550 C.3   1 <1>  -0.1600 
 24 C       -8.9090    -5.1230     0.5960 C.3   1 <1>  -0.1600 
 25 C       -8.4350    -2.9520     1.7790 C.3   1 <1>  -0.2400 
 26 C      -11.1860    -4.0600    -0.6520 C.3   1 <1>  -0.1600 
 27 C      -10.2430    -5.6810     1.1090 C.3   1 <1>  -0.1600 
 28 C      -11.3900    -5.3710     0.1300 C.3   1 <1>  -0.1600 
 29 H       -1.6930    -0.2740    -1.9150 H     1 <1>   0.1500 
 30 H       -4.1430     2.9040     0.9240 H     1 <1>   0.1500 
 31 H       -4.1500    -0.2280    -1.9650 H     1 <1>   0.1500 
 32 H       -0.1070     3.9860     2.1380 H     1 <1>   0.0800 
 33 H        0.1930     3.4890     0.4770 H     1 <1>   0.0800 
 34 H        0.0960     2.2770     1.7690 H     1 <1>   0.0800 
 35 H       -8.6510    -1.1860    -0.9020 H     1 <1>   0.3700 
 36 H       -9.3120     0.4460     1.4740 H     1 <1>   0.0800 
 37 H      -10.8600     0.2760     0.6750 H     1 <1>   0.0800 
 38 H      -10.1450     1.8670     0.8850 H     1 <1>   0.0800 
 39 H       -9.5130     1.1950    -2.6570 H     1 <1>   0.0800 
 40 H      -10.3020     2.2810    -1.5340 H     1 <1>   0.0800 
 41 H      -10.9740     0.6870    -1.8380 H     1 <1>   0.0800 
 42 H       -6.9770    -3.6440    -0.4860 H     1 <1>   0.0800 
 43 H       -8.2950    -3.6090    -1.6180 H     1 <1>   0.0800 
 44 H      -10.3230    -2.1160    -0.3670 H     1 <1>   0.0800 
 45 H      -10.8740    -2.8750     1.0810 H     1 <1>   0.0800 
 46 H       -8.1100    -5.4310     1.2490 H     1 <1>   0.0800 
 47 H       -8.7200    -5.5770    -0.3620 H     1 <1>   0.0800 
 48 H       -8.4980    -1.8800     1.7440 H     1 <1>   0.0800 
 49 H       -7.4100    -3.2200     1.9680 H     1 <1>   0.0800 
 50 H       -9.0330    -3.2970     2.6030 H     1 <1>   0.0800 
 51 H      -10.6780    -4.2710    -1.5780 H     1 <1>   0.0800 
 52 H      -12.1440    -3.6350    -0.8970 H     1 <1>   0.0800 
 53 H      -10.4610    -5.2400     2.0670 H     1 <1>   0.0800 
 54 H      -10.1680    -6.7450     1.2520 H     1 <1>   0.0800 
 55 H      -11.4880    -6.1780    -0.5760 H     1 <1>   0.0800 
 56 H      -12.3090    -5.3180     0.6880 H     1 <1>   0.0800 
@<TRIPOS>BOND
  1   1   2  1   
  2   2   3  ar  
  3   2   4  ar  
  4   3   5  1   
  5   3   6  ar  
  6   4   7  ar  
  7   4  29  1   
  8   5   8  1   
  9   6   9  ar  
 10   6  30  1   
 11   7   9  ar  
 12   7  31  1   
 13   8  32  1   
 14   8  33  1   
 15   8  34  1   
 16   9  10  1   
 17  10  11  1   
 18  10  12  2   
 19  11  13  1   
 20  12  14  1   
 21  12  15  1   
 22  13  14  2   
 23  14  16  1   
 24  15  17  2   
 25  15  18  am  
 26  16  19  1   
 27  16  20  1   
 28  18  21  1   
 29  18  35  1   
 30  19  36  1   
 31  19  37  1   
 32  19  38  1   
 33  20  39  1   
 34  20  40  1   
 35  20  41  1   
 36  21  22  1   
 37  21  42  1   
 38  21  43  1   
 39  22  23  1   
 40  22  24  1   
 41  22  25  1   
 42  23  26  1   
 43  23  44  1   
 44  23  45  1   
 45  24  27  1   
 46  24  46  1   
 47  24  47  1   
 48  25  48  1   
 49  25  49  1   
 50  25  50  1   
 51  26  28  1   
 52  26  51  1   
 53  26  52  1   
 54  27  28  1   
 55  27  53  1   
 56  27  54  1   
 57  28  55  1   
 58  28  56  1   
@<TRIPOS>SUBSTRUCTURE
  1 ****  15 GROUP 4 **** **** 0

# MOE 2024.06 (io_trps.svl 2023.06)
