@<TRIPOS>MOLECULE
NONAME
48 52 1 0 0 
SMALL
USER_CHARGES


@<TRIPOS>ATOM
  1 O        0.0760     0.8200    -0.6500 O.2   1 <1>  -0.5700 
  2 C       -0.0710     2.0040    -0.4550 C.2   1 <1>   0.5690 
  3 N       -1.1690     2.5380     0.1720 N.am  1 <1>  -0.5090 
  4 C        1.0390     2.9350    -0.9350 C.3   1 <1>   0.1810 
  5 C       -1.2750     4.0160     0.4210 C.3   1 <1>   0.3640 
  6 C       -2.0630     1.6860     1.0020 C.3   1 <1>   0.0490 
  7 O        1.1180     4.1070    -0.1650 O.3   1 <1>  -0.5600 
  8 C       -2.5610     4.5630    -0.1970 C.ar  1 <1>  -0.1440 
  9 C       -0.0860     4.8500    -0.1370 C.3   1 <1>   0.2610 
 10 C       -2.7490     0.5160     0.3690 C.3   1 <1>  -0.2000 
 11 C       -3.5500     1.6960     0.8130 C.3   1 <1>  -0.2000 
 12 C       -3.3820     5.4040     0.5430 C.ar  1 <1>   0.1600 
 13 C       -2.9330     4.2500    -1.4930 C.ar  1 <1>  -0.1500 
 14 C        0.0980     6.1780     0.6260 C.2   1 <1>   0.5690 
 15 N       -4.5100     5.9390     0.1050 N.ar  1 <1>  -0.6200 
 16 C       -4.1060     4.7990    -1.9620 C.ar  1 <1>  -0.1500 
 17 O       -0.5680     6.3670     1.6210 O.2   1 <1>  -0.5700 
 18 N        0.9680     7.1460     0.1810 N.am  1 <1>  -0.6600 
 19 C       -4.8470     5.6250    -1.1340 C.ar  1 <1>   0.1600 
 20 C        1.1580     8.4090     0.9740 C.3   1 <1>   0.3210 
 21 C        1.8780     7.0090    -1.0080 C.3   1 <1>   0.1400 
 22 C        2.6390     8.7310     1.0760 C.2   1 <1>  -0.1810 
 23 C        3.3560     6.9700    -0.5790 C.3   1 <1>   0.0200 
 24 C        3.6140     8.1010     0.3970 C.2   1 <1>  -0.3320 
 25 C        3.2970     9.6810     1.8470 C.2   1 <1>   0.1390 
 26 N        4.7820     8.6600     0.7700 N.pl3 1 <1>   0.3000 
 27 N        4.5840     9.6480     1.6670 N.2   1 <1>  -0.7070 
 28 H        0.8750     3.2010    -1.9630 H     1 <1>   0.0800 
 29 H        1.9830     2.4280    -0.8520 H     1 <1>   0.0800 
 30 H       -1.3180     4.1400     1.4890 H     1 <1>   0.0800 
 31 H       -1.6780     1.5530     2.0000 H     1 <1>   0.1000 
 32 H       -0.3110     5.1100    -1.1550 H     1 <1>   0.0800 
 33 H       -2.6100     0.3470    -0.6850 H     1 <1>   0.1000 
 34 H       -2.8220    -0.3990     0.9280 H     1 <1>   0.1000 
 35 H       -4.1810     1.5810     1.6770 H     1 <1>   0.1000 
 36 H       -4.0160     2.2840     0.0450 H     1 <1>   0.1000 
 37 H       -3.0950     5.6580     1.5510 H     1 <1>   0.1500 
 38 H       -2.3440     3.5960    -2.1130 H     1 <1>   0.1500 
 39 H       -4.4500     4.5890    -2.9590 H     1 <1>   0.1500 
 40 H       -5.7630     6.0470    -1.5100 H     1 <1>   0.1500 
 41 H        0.6450     9.2160     0.4830 H     1 <1>   0.0800 
 42 H        0.7560     8.3030     1.9670 H     1 <1>   0.0800 
 43 H        1.6500     6.1320    -1.5830 H     1 <1>   0.0800 
 44 H        1.7260     7.8640    -1.6460 H     1 <1>   0.0800 
 45 H        3.9830     7.0710    -1.4470 H     1 <1>   0.0800 
 46 H        3.5690     6.0260    -0.1090 H     1 <1>   0.0800 
 47 H        2.8120    10.3690     2.5200 H     1 <1>   0.1500 
 48 H        5.7200     8.4010     0.4420 H     1 <1>   0.2700 
@<TRIPOS>BOND
  1   1   2  2   
  2   2   3  am  
  3   2   4  1   
  4   3   5  1   
  5   3   6  1   
  6   4   7  1   
  7   4  28  1   
  8   4  29  1   
  9   5   8  1   
 10   5   9  1   
 11   5  30  1   
 12   6  10  1   
 13   6  11  1   
 14   6  31  1   
 15   7   9  1   
 16   8  12  ar  
 17   8  13  ar  
 18   9  14  1   
 19   9  32  1   
 20  10  11  1   
 21  10  33  1   
 22  10  34  1   
 23  11  35  1   
 24  11  36  1   
 25  12  15  ar  
 26  12  37  1   
 27  13  16  ar  
 28  13  38  1   
 29  14  17  2   
 30  14  18  am  
 31  15  19  ar  
 32  16  19  ar  
 33  16  39  1   
 34  18  20  1   
 35  18  21  1   
 36  19  40  1   
 37  20  22  1   
 38  20  41  1   
 39  20  42  1   
 40  21  23  1   
 41  21  43  1   
 42  21  44  1   
 43  22  24  2   
 44  22  25  1   
 45  23  24  1   
 46  23  45  1   
 47  23  46  1   
 48  24  26  1   
 49  25  27  2   
 50  25  47  1   
 51  26  27  1   
 52  26  48  1   
@<TRIPOS>SUBSTRUCTURE
  1 ****   9 GROUP 4 **** **** 0

# MOE 2024.06 (io_trps.svl 2023.06)
