@<TRIPOS>MOLECULE
NONAME
38 40 1 0 0 
SMALL
USER_CHARGES


@<TRIPOS>ATOM
  1 S        2.8270    -0.8490    -1.8060 S.3   1 <1>  -0.0800 
  2 C        1.5440    -0.7620    -0.6020 C.2   1 <1>   0.3250 
  3 C        2.2990    -2.4270    -2.2730 C.2   1 <1>  -0.1100 
  4 N        0.8260    -1.8400    -0.6000 N.2   1 <1>  -0.5650 
  5 C        1.4300     0.4460     0.2100 C.ar  1 <1>   0.6730 
  6 C        1.2280    -2.7960    -1.5400 C.2   1 <1>   0.1410 
  7 N        0.3620     0.5580     1.0170 N.ar  1 <1>  -0.6200 
  8 N        2.3900     1.3790     0.1050 N.ar  1 <1>  -0.6200 
  9 C        0.5510    -4.0870    -1.6760 C.2   1 <1>   0.7160 
 10 C        0.2680     1.6420     1.7470 C.ar  1 <1>   0.1600 
 11 C        2.2700     2.4540     0.8460 C.ar  1 <1>   0.1600 
 12 O        1.1800    -5.0300    -2.1230 O.2   1 <1>  -0.5700 
 13 N       -0.7680    -4.3070    -1.3200 N.am  1 <1>  -0.6600 
 14 C        1.2110     2.6360     1.6980 C.ar  1 <1>  -0.1500 
 15 C       -1.2520    -5.6890    -1.0080 C.3   1 <1>   0.1400 
 16 C       -1.8030    -3.2430    -1.2300 C.3   1 <1>   0.1400 
 17 C       -2.4380    -5.6790    -0.0160 C.3   1 <1>  -0.0800 
 18 C       -2.3290    -3.1370     0.2090 C.3   1 <1>  -0.1600 
 19 C       -2.3570    -4.4840     0.9530 C.3   1 <1>   0.2000 
 20 C       -2.5240    -7.0040     0.7540 C.3   1 <1>   0.1200 
 21 O       -1.1920    -4.5840     1.6850 O.3   1 <1>  -0.6800 
 22 O       -2.7220    -8.0460    -0.1390 O.3   1 <1>  -0.6800 
 23 H        2.8380    -2.9430    -3.0470 H     1 <1>   0.1500 
 24 H       -0.5830     1.7380     2.4010 H     1 <1>   0.1500 
 25 H        3.0370     3.2080     0.7710 H     1 <1>   0.1500 
 26 H        1.1240     3.5210     2.3010 H     1 <1>   0.1500 
 27 H       -1.5380    -6.1850    -1.9190 H     1 <1>   0.0800 
 28 H       -0.4370    -6.2470    -0.5770 H     1 <1>   0.0800 
 29 H       -1.4280    -2.2920    -1.5670 H     1 <1>   0.0800 
 30 H       -2.6140    -3.5120    -1.8860 H     1 <1>   0.0800 
 31 H       -3.3480    -5.5710    -0.5770 H     1 <1>   0.0800 
 32 H       -3.3300    -2.7490     0.1580 H     1 <1>   0.0800 
 33 H       -1.7460    -2.4180     0.7590 H     1 <1>   0.0800 
 34 H       -3.1730    -4.5040     1.6550 H     1 <1>   0.0800 
 35 H       -3.3410    -6.9970     1.4550 H     1 <1>   0.0800 
 36 H       -1.6070    -7.1950     1.2890 H     1 <1>   0.0800 
 37 H       -0.4410    -4.3580     1.0960 H     1 <1>   0.4000 
 38 H       -3.6150    -8.0050    -0.5320 H     1 <1>   0.4000 
@<TRIPOS>BOND
  1   1   2  1   
  2   1   3  1   
  3   2   4  2   
  4   2   5  1   
  5   3   6  2   
  6   3  23  1   
  7   4   6  1   
  8   5   7  ar  
  9   5   8  ar  
 10   6   9  1   
 11   7  10  ar  
 12   8  11  ar  
 13   9  12  2   
 14   9  13  am  
 15  10  14  ar  
 16  10  24  1   
 17  11  14  ar  
 18  11  25  1   
 19  13  15  1   
 20  13  16  1   
 21  14  26  1   
 22  15  17  1   
 23  15  27  1   
 24  15  28  1   
 25  16  18  1   
 26  16  29  1   
 27  16  30  1   
 28  17  19  1   
 29  17  20  1   
 30  17  31  1   
 31  18  19  1   
 32  18  32  1   
 33  18  33  1   
 34  19  21  1   
 35  19  34  1   
 36  20  22  1   
 37  20  35  1   
 38  20  36  1   
 39  21  37  1   
 40  22  38  1   
@<TRIPOS>SUBSTRUCTURE
  1 ****   4 GROUP 4 **** **** 0

# MOE 2024.06 (io_trps.svl 2023.06)
