@<TRIPOS>MOLECULE
NONAME
50 53 1 0 0 
SMALL
USER_CHARGES


@<TRIPOS>ATOM
  1 O       -0.8490     0.0390     1.6580 O.2   1 <1>  -0.5700 
  2 C       -1.5090     0.8910     1.0940 C.2   1 <1>   0.5440 
  3 N       -2.6000     0.5030     0.3370 N.am  1 <1>  -0.6600 
  4 C       -1.1350     2.2840     1.2570 C.ar  1 <1>   0.0860 
  5 C       -3.6820     1.4630    -0.0420 C.3   1 <1>   0.2200 
  6 C       -2.8110    -0.9470     0.0410 C.3   1 <1>   0.0600 
  7 C       -0.9480     3.1270     0.1810 C.ar  1 <1>  -0.1500 
  8 C       -0.9570     2.8240     2.5440 C.ar  1 <1>  -0.1500 
  9 C       -5.0820     1.0460     0.4010 C.3   1 <1>  -0.1600 
 10 C       -3.8110     1.6660    -1.5490 C.3   1 <1>  -0.1600 
 11 C       -0.6470     4.4840     0.3310 C.ar  1 <1>   0.3100 
 12 C       -0.6450     4.1460     2.7250 C.ar  1 <1>  -0.1500 
 13 C       -6.0180     1.8860    -0.4770 C.3   1 <1>  -0.0800 
 14 C       -5.2110     2.2670    -1.7330 C.3   1 <1>  -0.0800 
 15 N       -0.5290     5.2580    -0.7760 N.ar  1 <1>  -0.6200 
 16 C       -0.4910     5.0130     1.6340 C.ar  1 <1>   0.3100 
 17 C       -6.4460     3.2080     0.1780 C.3   1 <1>  -0.1600 
 18 C       -5.2070     3.8020    -1.7990 C.3   1 <1>  -0.1600 
 19 C       -0.2570     6.5030    -0.5370 C.ar  1 <1>   0.1670 
 20 N       -0.2080     6.3190     1.8510 N.ar  1 <1>  -0.6200 
 21 C       -6.3920     4.2280    -0.9480 C.3   1 <1>   0.2000 
 22 C       -0.0960     7.0330     0.7740 C.ar  1 <1>   0.1670 
 23 C       -0.1140     7.4010    -1.7550 C.3   1 <1>  -0.0970 
 24 O       -6.1820     5.4900    -0.4380 O.3   1 <1>  -0.6800 
 25 C        0.2240     8.5040     0.9790 C.3   1 <1>  -0.0970 
 26 H       -3.4940     2.4240     0.4040 H     1 <1>   0.0800 
 27 H       -3.3330    -1.0790    -0.8890 H     1 <1>   0.0800 
 28 H       -3.3800    -1.3970     0.8360 H     1 <1>   0.0800 
 29 H       -1.8630    -1.4530    -0.0290 H     1 <1>   0.0800 
 30 H       -1.0360     2.7470    -0.8200 H     1 <1>   0.1500 
 31 H       -1.0730     2.1650     3.3890 H     1 <1>   0.1500 
 32 H       -5.2590     0.0090     0.1810 H     1 <1>   0.0800 
 33 H       -5.2360     1.2170     1.4520 H     1 <1>   0.0800 
 34 H       -3.0400     2.3030    -1.9420 H     1 <1>   0.0800 
 35 H       -3.7750     0.7200    -2.0570 H     1 <1>   0.0800 
 36 H       -0.5100     4.5560     3.7100 H     1 <1>   0.1500 
 37 H       -6.8920     1.3200    -0.7540 H     1 <1>   0.0800 
 38 H       -5.6830     1.8670    -2.6140 H     1 <1>   0.0800 
 39 H       -5.7510     3.4840     0.9510 H     1 <1>   0.0800 
 40 H       -7.4360     3.1380     0.5920 H     1 <1>   0.0800 
 41 H       -5.3110     4.1510    -2.8110 H     1 <1>   0.0800 
 42 H       -4.2970     4.1920    -1.3770 H     1 <1>   0.0800 
 43 H       -7.3050     4.2250    -1.5200 H     1 <1>   0.0800 
 44 H       -0.8460     8.1860    -1.7240 H     1 <1>   0.0800 
 45 H       -0.2650     6.8350    -2.6570 H     1 <1>   0.0800 
 46 H        0.8720     7.8270    -1.7860 H     1 <1>   0.0800 
 47 H       -5.3360     5.5180     0.0450 H     1 <1>   0.4000 
 48 H        1.1560     8.7500     0.5050 H     1 <1>   0.0800 
 49 H        0.3100     8.7260     2.0280 H     1 <1>   0.0800 
 50 H       -0.5600     9.1140     0.5700 H     1 <1>   0.0800 
@<TRIPOS>BOND
  1   1   2  2   
  2   2   3  am  
  3   2   4  1   
  4   3   5  1   
  5   3   6  1   
  6   4   7  ar  
  7   4   8  ar  
  8   5   9  1   
  9   5  10  1   
 10   5  26  1   
 11   6  27  1   
 12   6  28  1   
 13   6  29  1   
 14   7  11  ar  
 15   7  30  1   
 16   8  12  ar  
 17   8  31  1   
 18   9  13  1   
 19   9  32  1   
 20   9  33  1   
 21  10  14  1   
 22  10  34  1   
 23  10  35  1   
 24  11  15  ar  
 25  11  16  ar  
 26  12  16  ar  
 27  12  36  1   
 28  13  14  1   
 29  13  17  1   
 30  13  37  1   
 31  14  18  1   
 32  14  38  1   
 33  15  19  ar  
 34  16  20  ar  
 35  17  21  1   
 36  17  39  1   
 37  17  40  1   
 38  18  21  1   
 39  18  41  1   
 40  18  42  1   
 41  19  22  ar  
 42  19  23  1   
 43  20  22  ar  
 44  21  24  1   
 45  21  43  1   
 46  22  25  1   
 47  23  44  1   
 48  23  45  1   
 49  23  46  1   
 50  24  47  1   
 51  25  48  1   
 52  25  49  1   
 53  25  50  1   
@<TRIPOS>SUBSTRUCTURE
  1 ****   7 GROUP 4 **** **** 0

# MOE 2024.06 (io_trps.svl 2023.06)
