@<TRIPOS>MOLECULE
NONAME
56 58 1 0 0 
SMALL
USER_CHARGES


@<TRIPOS>ATOM
  1 O       -3.2440    -1.0130     2.1780 O.2   1 <1>  -0.5700 
  2 C       -2.2030    -1.2750     1.6250 C.2   1 <1>   0.5690 
  3 N       -1.9990    -2.2860     0.7530 N.am  1 <1>  -0.6600 
  4 C       -0.9350    -0.4990     1.8470 C.3   1 <1>  -0.0990 
  5 C       -0.5980    -2.3960     0.3190 C.3   1 <1>   0.1400 
  6 C       -2.9580    -3.3730     0.4630 C.3   1 <1>   0.1400 
  7 C        0.0450    -1.0950     0.8200 C.3   1 <1>  -0.1600 
  8 C       -4.0640    -2.8690    -0.4600 C.3   1 <1>  -0.0990 
  9 C       -5.0280    -3.9820    -0.8030 C.2   1 <1>   0.5690 
 10 O       -5.2260    -4.2570    -1.9620 O.2   1 <1>  -0.5700 
 11 N       -5.6940    -4.6180     0.1990 N.am  1 <1>  -0.6600 
 12 C       -5.5080    -6.0880     0.4310 C.3   1 <1>   0.3640 
 13 C       -7.0940    -4.1900     0.4420 C.3   1 <1>   0.1400 
 14 C       -4.0550    -6.4910     0.1340 C.ar  1 <1>  -0.1440 
 15 C       -6.5840    -6.9180    -0.3320 C.3   1 <1>   0.2000 
 16 C       -8.0470    -5.0500    -0.4010 C.3   1 <1>   0.1200 
 17 C       -3.1620    -6.6130     1.1890 C.ar  1 <1>  -0.1500 
 18 C       -3.5930    -6.7320    -1.1540 C.ar  1 <1>  -0.1500 
 19 O       -7.8740    -6.4020    -0.0920 O.3   1 <1>  -0.5600 
 20 C       -6.6670    -8.4060     0.0690 C.3   1 <1>   0.1200 
 21 C       -1.8390    -6.9590     0.9780 C.ar  1 <1>   0.0820 
 22 C       -2.2720    -7.0740    -1.3820 C.ar  1 <1>  -0.1500 
 23 O       -5.4280    -9.0260     0.1980 O.3   1 <1>  -0.6800 
 24 O       -1.0630    -7.0390     2.0910 O.3   1 <1>  -0.3630 
 25 C       -1.3730    -7.1840    -0.3250 C.ar  1 <1>   0.0820 
 26 C       -0.2410    -8.1720     2.2710 C.3   1 <1>   0.0400 
 27 O       -0.0560    -7.4810    -0.5260 O.3   1 <1>  -0.3630 
 28 C        0.4740    -7.6930    -1.8160 C.3   1 <1>   0.0400 
 29 H       -1.1010     0.5490     1.6840 H     1 <1>   0.0800 
 30 H       -0.5960    -0.6690     2.8520 H     1 <1>   0.0800 
 31 H       -0.1460    -3.2560     0.7850 H     1 <1>   0.0800 
 32 H       -0.5370    -2.4820    -0.7530 H     1 <1>   0.0800 
 33 H       -2.4400    -4.1950    -0.0010 H     1 <1>   0.0800 
 34 H       -3.3840    -3.7170     1.3910 H     1 <1>   0.0800 
 35 H        1.0150    -1.2780     1.2460 H     1 <1>   0.0800 
 36 H        0.1530    -0.4200    -0.0110 H     1 <1>   0.0800 
 37 H       -3.6310    -2.4900    -1.3660 H     1 <1>   0.0800 
 38 H       -4.6090    -2.0800     0.0240 H     1 <1>   0.0800 
 39 H       -5.6770    -6.2700     1.4790 H     1 <1>   0.0800 
 40 H       -7.3320    -4.2930     1.4860 H     1 <1>   0.0800 
 41 H       -7.2110    -3.1540     0.1710 H     1 <1>   0.0800 
 42 H       -6.4070    -6.8490    -1.3900 H     1 <1>   0.0800 
 43 H       -7.8620    -4.9060    -1.4530 H     1 <1>   0.0800 
 44 H       -9.0690    -4.7920    -0.1890 H     1 <1>   0.0800 
 45 H       -3.4850    -6.4370     2.2000 H     1 <1>   0.1500 
 46 H       -4.2540    -6.6360    -1.9990 H     1 <1>   0.1500 
 47 H       -7.2300    -8.9470    -0.6710 H     1 <1>   0.0800 
 48 H       -7.1620    -8.4990     1.0200 H     1 <1>   0.0800 
 49 H       -1.9660    -7.2400    -2.3970 H     1 <1>   0.1500 
 50 H       -4.8010    -8.7360    -0.4970 H     1 <1>   0.4000 
 51 H       -0.0560    -8.2870     3.3240 H     1 <1>   0.0800 
 52 H        0.6880    -8.0140     1.7550 H     1 <1>   0.0800 
 53 H       -0.7480    -9.0400     1.8880 H     1 <1>   0.0800 
 54 H        1.5230    -7.9020    -1.7150 H     1 <1>   0.0800 
 55 H        0.3340    -6.8020    -2.4020 H     1 <1>   0.0800 
 56 H       -0.0240    -8.5340    -2.2650 H     1 <1>   0.0800 
@<TRIPOS>BOND
  1   1   2  2   
  2   2   3  am  
  3   2   4  1   
  4   3   5  1   
  5   3   6  1   
  6   4   7  1   
  7   4  29  1   
  8   4  30  1   
  9   5   7  1   
 10   5  31  1   
 11   5  32  1   
 12   6   8  1   
 13   6  33  1   
 14   6  34  1   
 15   7  35  1   
 16   7  36  1   
 17   8   9  1   
 18   8  37  1   
 19   8  38  1   
 20   9  10  2   
 21   9  11  am  
 22  11  12  1   
 23  11  13  1   
 24  12  14  1   
 25  12  15  1   
 26  12  39  1   
 27  13  16  1   
 28  13  40  1   
 29  13  41  1   
 30  14  17  ar  
 31  14  18  ar  
 32  15  19  1   
 33  15  20  1   
 34  15  42  1   
 35  16  19  1   
 36  16  43  1   
 37  16  44  1   
 38  17  21  ar  
 39  17  45  1   
 40  18  22  ar  
 41  18  46  1   
 42  20  23  1   
 43  20  47  1   
 44  20  48  1   
 45  21  24  1   
 46  21  25  ar  
 47  22  25  ar  
 48  22  49  1   
 49  23  50  1   
 50  24  26  1   
 51  25  27  1   
 52  26  51  1   
 53  26  52  1   
 54  26  53  1   
 55  27  28  1   
 56  28  54  1   
 57  28  55  1   
 58  28  56  1   
@<TRIPOS>SUBSTRUCTURE
  1 ****  14 GROUP 4 **** **** 0

# MOE 2024.06 (io_trps.svl 2023.06)
