@<TRIPOS>MOLECULE
NONAME
53 55 1 0 0 
SMALL
USER_CHARGES


@<TRIPOS>ATOM
  1 O        0.9990     0.4690    -1.8510 O.2   1 <1>  -0.5700 
  2 C        1.8470     0.2260    -1.0170 C.2   1 <1>   0.7150 
  3 N        2.2400     1.2460    -0.2230 N.am  1 <1>  -0.8000 
  4 C        2.4020    -1.0990    -0.8770 C.2   1 <1>   0.0550 
  5 O        3.2690    -1.3960     0.0820 O.3   1 <1>  -0.2800 
  6 C        2.1830    -2.2220    -1.6090 C.2   1 <1>  -0.1500 
  7 C        3.6170    -2.6640     0.0000 C.2   1 <1>  -0.0400 
  8 C        2.9550    -3.2390    -1.0380 C.2   1 <1>  -0.1810 
  9 C        4.6260    -3.1690     1.0470 C.3   1 <1>   0.1800 
 10 C        2.9480    -4.6580    -1.5570 C.3   1 <1>   0.5240 
 11 C        5.8650    -2.2610     1.0330 C.3   1 <1>  -0.2400 
 12 C        3.9740    -3.1080     2.4350 C.3   1 <1>  -0.2400 
 13 C        5.0950    -4.6080     0.7910 C.3   1 <1>  -0.2400 
 14 N        2.0010    -5.4410    -0.7220 N.4   1 <1>  -0.9590 
 15 C        2.1620    -6.9050    -0.9210 C.3   1 <1>   0.3430 
 16 C        0.5880    -5.0000    -0.8960 C.3   1 <1>   0.3430 
 17 C        1.3310    -7.6450     0.1220 C.3   1 <1>  -0.1600 
 18 C       -0.2840    -5.6950     0.1450 C.3   1 <1>  -0.1600 
 19 C       -0.1490    -7.2270     0.0990 C.3   1 <1>   0.1000 
 20 C       -0.8720    -7.8390     1.2940 C.2   1 <1>   0.0060 
 21 N       -0.5300    -7.5980     2.5140 N.2   1 <1>  -0.3380 
 22 N       -1.9180    -8.6750     1.2370 N.pl3 1 <1>   0.0480 
 23 N       -1.3570    -8.2830     3.2990 N.2   1 <1>  -0.3380 
 24 C       -2.1700    -8.9130     2.5250 C.2   1 <1>   0.0360 
 25 C       -2.6460    -9.2250     0.0780 C.3   1 <1>   0.0160 
 26 H        1.8400     2.1740    -0.3560 H     1 <1>   0.3700 
 27 H        2.9600     1.1300     0.4890 H     1 <1>   0.3700 
 28 H        1.5350    -2.2960    -2.4660 H     1 <1>   0.1500 
 29 H        3.9400    -5.0720    -1.4830 H     1 <1>   0.0800 
 30 H        2.6480    -4.6750    -2.5920 H     1 <1>   0.0800 
 31 H        5.5960    -1.2480     1.2740 H     1 <1>   0.0800 
 32 H        6.3190    -2.2640     0.0580 H     1 <1>   0.0800 
 33 H        6.5930    -2.5920     1.7520 H     1 <1>   0.0800 
 34 H        3.6810    -2.0990     2.6670 H     1 <1>   0.0800 
 35 H        4.6610    -3.4410     3.1940 H     1 <1>   0.0800 
 36 H        3.0970    -3.7280     2.4710 H     1 <1>   0.0800 
 37 H        5.5540    -4.6880    -0.1770 H     1 <1>   0.0800 
 38 H        4.2810    -5.3020     0.8710 H     1 <1>   0.0800 
 39 H        5.8310    -4.8900     1.5250 H     1 <1>   0.0800 
 40 H        2.2480    -5.2210     0.2530 H     1 <1>   0.4500 
 41 H        3.1980    -7.1840    -0.8130 H     1 <1>   0.0800 
 42 H        1.8350    -7.1810    -1.9110 H     1 <1>   0.0800 
 43 H        0.2430    -5.2440    -1.8880 H     1 <1>   0.0800 
 44 H        0.5100    -3.9330    -0.7600 H     1 <1>   0.0800 
 45 H        1.7520    -7.4550     1.0950 H     1 <1>   0.0800 
 46 H        1.4030    -8.7050    -0.0490 H     1 <1>   0.0800 
 47 H       -1.3130    -5.4230    -0.0130 H     1 <1>   0.0800 
 48 H       -0.0100    -5.3310     1.1210 H     1 <1>   0.0800 
 49 H       -0.5920    -7.5830    -0.8140 H     1 <1>   0.0800 
 50 H       -2.9610    -9.5560     2.8660 H     1 <1>   0.1500 
 51 H       -1.9710    -9.8000    -0.5300 H     1 <1>   0.0800 
 52 H       -3.0620    -8.4200    -0.5000 H     1 <1>   0.0800 
 53 H       -3.4420    -9.8620     0.4210 H     1 <1>   0.0800 
@<TRIPOS>BOND
  1   1   2  2   
  2   2   3  am  
  3   2   4  1   
  4   3  26  1   
  5   3  27  1   
  6   4   5  1   
  7   4   6  2   
  8   5   7  1   
  9   6   8  1   
 10   6  28  1   
 11   7   8  2   
 12   7   9  1   
 13   8  10  1   
 14   9  11  1   
 15   9  12  1   
 16   9  13  1   
 17  10  14  1   
 18  10  29  1   
 19  10  30  1   
 20  11  31  1   
 21  11  32  1   
 22  11  33  1   
 23  12  34  1   
 24  12  35  1   
 25  12  36  1   
 26  13  37  1   
 27  13  38  1   
 28  13  39  1   
 29  14  15  1   
 30  14  16  1   
 31  14  40  1   
 32  15  17  1   
 33  15  41  1   
 34  15  42  1   
 35  16  18  1   
 36  16  43  1   
 37  16  44  1   
 38  17  19  1   
 39  17  45  1   
 40  17  46  1   
 41  18  19  1   
 42  18  47  1   
 43  18  48  1   
 44  19  20  1   
 45  19  49  1   
 46  20  21  2   
 47  20  22  1   
 48  21  23  1   
 49  22  24  1   
 50  22  25  1   
 51  23  24  2   
 52  24  50  1   
 53  25  51  1   
 54  25  52  1   
 55  25  53  1   
@<TRIPOS>SUBSTRUCTURE
  1 ****  14 GROUP 4 **** **** 0

# MOE 2024.06 (io_trps.svl 2023.06)
