@<TRIPOS>MOLECULE
NONAME
46 48 1 0 0 
SMALL
USER_CHARGES


@<TRIPOS>ATOM
  1 S       -0.8530     2.4600    -2.1030 S.3   1 <1>  -0.0800 
  2 C       -1.1560     2.6010    -0.3890 C.2   1 <1>  -0.1400 
  3 C       -1.1730     0.7460    -1.9910 C.2   1 <1>   0.2280 
  4 C       -1.4720     1.3860     0.0900 C.2   1 <1>   0.0460 
  5 C       -1.0480     3.9700     0.2550 C.3   1 <1>   0.5230 
  6 N       -1.4660     0.3480    -0.8190 N.2   1 <1>  -0.5650 
  7 C       -1.8410     1.0090     1.5110 C.3   1 <1>  -0.0590 
  8 N        0.3770     4.3460     0.5030 N.4   1 <1>  -0.9590 
  9 C        1.0990     4.6670    -0.7620 C.3   1 <1>   0.4380 
 10 C        1.1130     3.3150     1.2980 C.3   1 <1>   0.2630 
 11 C        2.2940     5.5820    -0.4600 C.3   1 <1>  -0.0630 
 12 C        1.8560     6.7710     0.3900 C.ar  1 <1>  -0.0320 
 13 C        3.3850     5.7700    -1.4740 C.3   1 <1>  -0.1900 
 14 C        3.6610     4.9760    -0.2380 C.3   1 <1>  -0.2000 
 15 C        2.1490     6.8270     1.7450 C.ar  1 <1>  -0.1500 
 16 C        1.1220     7.7950    -0.1890 C.ar  1 <1>  -0.1500 
 17 C        3.3570     5.0250    -2.8170 C.3   1 <1>  -0.1450 
 18 C        4.0920     7.1260    -1.6140 C.3   1 <1>  -0.1450 
 19 C        1.7010     7.8870     2.5140 C.ar  1 <1>  -0.1500 
 20 C        0.6730     8.8550     0.5780 C.ar  1 <1>  -0.1500 
 21 C        0.9600     8.9000     1.9310 C.ar  1 <1>  -0.1500 
 22 H       -1.1000     0.1660    -2.8960 H     1 <1>   0.1500 
 23 H       -1.5750     3.9490     1.1940 H     1 <1>   0.0800 
 24 H       -1.5250     4.7040    -0.3750 H     1 <1>   0.0800 
 25 H       -1.8310     1.8610     2.1620 H     1 <1>   0.0800 
 26 H       -1.1480     0.2750     1.8810 H     1 <1>   0.0800 
 27 H       -2.8260     0.5770     1.5210 H     1 <1>   0.0800 
 28 H        0.3840     5.2330     1.0330 H     1 <1>   0.4500 
 29 H        0.4380     5.1880    -1.4350 H     1 <1>   0.0800 
 30 H        1.4320     3.7640    -1.2440 H     1 <1>   0.0800 
 31 H        1.1670     2.3870     0.7510 H     1 <1>   0.0800 
 32 H        0.6110     3.1340     2.2350 H     1 <1>   0.0800 
 33 H        2.1160     3.6500     1.5070 H     1 <1>   0.0800 
 34 H        3.8120     3.9160    -0.3450 H     1 <1>   0.1000 
 35 H        4.3330     5.4050     0.4860 H     1 <1>   0.1000 
 36 H        2.7320     6.0540     2.2120 H     1 <1>   0.1500 
 37 H        0.9030     7.7770    -1.2420 H     1 <1>   0.1500 
 38 H        2.9800     4.0230    -2.7170 H     1 <1>   0.0800 
 39 H        4.3530     4.9570    -3.2190 H     1 <1>   0.0800 
 40 H        2.7450     5.5570    -3.5250 H     1 <1>   0.0800 
 41 H        4.1940     7.6190    -0.6620 H     1 <1>   0.0800 
 42 H        3.5360     7.7720    -2.2700 H     1 <1>   0.0800 
 43 H        5.0790     6.9920    -2.0210 H     1 <1>   0.0800 
 44 H        1.9340     7.9330     3.5650 H     1 <1>   0.1500 
 45 H        0.1070     9.6510     0.1240 H     1 <1>   0.1500 
 46 H        0.6150     9.7270     2.5280 H     1 <1>   0.1500 
@<TRIPOS>BOND
  1   1   2  1   
  2   1   3  1   
  3   2   4  2   
  4   2   5  1   
  5   3   6  2   
  6   3  22  1   
  7   4   6  1   
  8   4   7  1   
  9   5   8  1   
 10   5  23  1   
 11   5  24  1   
 12   7  25  1   
 13   7  26  1   
 14   7  27  1   
 15   8   9  1   
 16   8  10  1   
 17   8  28  1   
 18   9  11  1   
 19   9  29  1   
 20   9  30  1   
 21  10  31  1   
 22  10  32  1   
 23  10  33  1   
 24  11  12  1   
 25  11  13  1   
 26  11  14  1   
 27  12  15  ar  
 28  12  16  ar  
 29  13  14  1   
 30  13  17  1   
 31  13  18  1   
 32  14  34  1   
 33  14  35  1   
 34  15  19  ar  
 35  15  36  1   
 36  16  20  ar  
 37  16  37  1   
 38  17  38  1   
 39  17  39  1   
 40  17  40  1   
 41  18  41  1   
 42  18  42  1   
 43  18  43  1   
 44  19  21  ar  
 45  19  44  1   
 46  20  21  ar  
 47  20  45  1   
 48  21  46  1   
@<TRIPOS>SUBSTRUCTURE
  1 ****   9 GROUP 4 **** **** 0

# MOE 2024.06 (io_trps.svl 2023.06)
