@<TRIPOS>MOLECULE
NONAME
41 43 1 0 0 
SMALL
USER_CHARGES


@<TRIPOS>ATOM
  1 O        1.5400    -0.2590    -1.4080 O.2   1 <1>  -0.5760 
  2 C        1.3800    -1.3180    -0.8440 C.2   1 <1>   0.5630 
  3 N        2.2970    -1.9350    -0.0600 N.am  1 <1>  -0.6650 
  4 C        0.1120    -2.1170    -0.9410 C.3   1 <1>  -0.1090 
  5 C        1.7680    -3.2190     0.4520 C.3   1 <1>   0.1310 
  6 C        3.7570    -1.6200     0.1660 C.3   1 <1>   0.1920 
  7 C        0.2520    -3.1490     0.1910 C.3   1 <1>   0.0540 
  8 C        4.0960    -0.1470     0.4390 C.2   1 <1>   0.8490 
  9 C       -0.4060    -4.5040    -0.0890 C.ar  1 <1>  -0.1530 
 10 O        4.5870     0.1790     1.4870 O.2   1 <1>  -0.5760 
 11 N        3.8180     0.7610    -0.5210 N.pl3 1 <1>  -0.7340 
 12 C        0.0900    -5.6690     0.4870 C.ar  1 <1>  -0.1590 
 13 C       -1.5300    -4.5970    -0.9020 C.ar  1 <1>  -0.1590 
 14 C        3.4830     2.0200    -0.2920 C.cat 1 <1>   1.0680 
 15 C       -0.5050    -6.8930     0.2370 C.ar  1 <1>  -0.1590 
 16 C       -2.1260    -5.8200    -1.1530 C.ar  1 <1>  -0.1590 
 17 N        2.3090     2.4890    -0.6650 N.pl3 1 <1>  -0.7050 
 18 N        4.2000     2.9910     0.2740 N.pl3 1 <1>  -0.7680 
 19 C       -1.6120    -6.9710    -0.5860 C.ar  1 <1>  -0.1590 
 20 C        2.2440     3.8180    -0.3150 C.2   1 <1>   0.1910 
 21 C        3.4160     4.1300     0.2690 C.2   1 <1>   0.1910 
 22 C        5.5770     2.9180     0.8280 C.3   1 <1>   0.2660 
 23 H        0.0890    -2.5940    -1.9040 H     1 <1>   0.0700 
 24 H       -0.7560    -1.4980    -0.8110 H     1 <1>   0.0700 
 25 H        1.9730    -3.3360     1.5030 H     1 <1>   0.0700 
 26 H        2.2120    -4.0290    -0.1030 H     1 <1>   0.0700 
 27 H        4.3140    -1.9460    -0.6940 H     1 <1>   0.0700 
 28 H        4.1040    -2.1930     1.0080 H     1 <1>   0.0700 
 29 H       -0.2060    -2.7400     1.0750 H     1 <1>   0.0700 
 30 H        3.2170     0.3460    -1.2380 H     1 <1>   0.4430 
 31 H        0.9400    -5.6460     1.1430 H     1 <1>   0.1410 
 32 H       -1.9640    -3.7210    -1.3490 H     1 <1>   0.1410 
 33 H       -0.1090    -7.7870     0.6860 H     1 <1>   0.1410 
 34 H       -2.9920    -5.8760    -1.7880 H     1 <1>   0.1410 
 35 H        1.5850     1.9070    -1.1050 H     1 <1>   0.4430 
 36 H       -2.0740    -7.9220    -0.7820 H     1 <1>   0.1410 
 37 H        1.3800     4.4390    -0.5010 H     1 <1>   0.1410 
 38 H        3.7440     5.0740     0.6770 H     1 <1>   0.1410 
 39 H        6.1230     2.1060     0.3790 H     1 <1>   0.0700 
 40 H        5.5340     2.7620     1.8930 H     1 <1>   0.0700 
 41 H        6.1040     3.8360     0.6300 H     1 <1>   0.0700 
@<TRIPOS>BOND
  1   1   2  2   
  2   2   3  am  
  3   2   4  1   
  4   3   5  1   
  5   3   6  1   
  6   4   7  1   
  7   4  23  1   
  8   4  24  1   
  9   5   7  1   
 10   5  25  1   
 11   5  26  1   
 12   6   8  1   
 13   6  27  1   
 14   6  28  1   
 15   7   9  1   
 16   7  29  1   
 17   8  10  2   
 18   8  11  1   
 19   9  12  ar  
 20   9  13  ar  
 21  11  14  ar  
 22  11  30  1   
 23  12  15  ar  
 24  12  31  1   
 25  13  16  ar  
 26  13  32  1   
 27  14  17  ar  
 28  14  18  ar  
 29  15  19  ar  
 30  15  33  1   
 31  16  19  ar  
 32  16  34  1   
 33  17  20  1   
 34  17  35  1   
 35  18  21  1   
 36  18  22  1   
 37  19  36  1   
 38  20  21  2   
 39  20  37  1   
 40  21  38  1   
 41  22  39  1   
 42  22  40  1   
 43  22  41  1   
@<TRIPOS>SUBSTRUCTURE
  1 ****   2 GROUP 4 **** **** 0

# MOE 2024.06 (io_trps.svl 2023.06)
