@<TRIPOS>MOLECULE
NONAME
54 58 1 0 0 
SMALL
USER_CHARGES


@<TRIPOS>ATOM
  1 O        0.1280     0.3570     0.2180 O.2   1 <1>  -0.5700 
  2 C       -0.5450     1.2620     0.6770 C.2   1 <1>   0.7150 
  3 N       -1.9190     1.1550     0.6420 N.am  1 <1>  -0.6600 
  4 C        0.1000     2.4100     1.2530 C.2   1 <1>  -0.2370 
  5 C       -2.8420     2.3280     0.7460 C.3   1 <1>   0.1400 
  6 C       -2.6040    -0.1390     0.3620 C.3   1 <1>   0.1400 
  7 N        1.1730     3.0370     0.6750 N.pl3 1 <1>   0.2940 
  8 C       -0.1830     3.0620     2.4280 C.2   1 <1>  -0.1500 
  9 C       -3.6900     2.4820    -0.5300 C.3   1 <1>   0.1440 
 10 C       -3.4580    -0.0250    -0.9060 C.3   1 <1>  -0.1600 
 11 C        1.5410     4.0600     1.4880 C.2   1 <1>  -0.3020 
 12 C        1.8200     2.6930    -0.6160 C.3   1 <1>  -0.0910 
 13 C        0.7250     4.1040     2.5740 C.2   1 <1>  -0.1500 
 14 C       -4.6290     3.6550    -0.3320 C.ar  1 <1>   0.1660 
 15 C       -4.4340     1.1630    -0.8300 C.3   1 <1>  -0.1600 
 16 C       -2.8290     2.9480    -1.7350 C.3   1 <1>  -0.1600 
 17 C        2.4820     3.7390    -1.4660 C.3   1 <1>  -0.2000 
 18 C        1.1750     3.1490    -1.8900 C.3   1 <1>  -0.2000 
 19 N       -5.6960     3.6530     0.4270 N.ar  1 <1>  -0.6200 
 20 C       -4.2160     4.7490    -1.0300 C.ar  1 <1>  -0.1430 
 21 C       -2.9480     4.4810    -1.8010 C.3   1 <1>  -0.0170 
 22 C       -6.3710     4.8050     0.4650 C.ar  1 <1>   0.7200 
 23 C       -4.9720     5.8900    -0.9310 C.ar  1 <1>   0.1600 
 24 N       -6.0510     5.9290    -0.1860 N.ar  1 <1>  -0.6200 
 25 N       -7.5040     4.8380     1.2540 N.pl3 1 <1>  -0.8380 
 26 C       -8.1620     3.5970     1.7490 C.3   1 <1>   0.1290 
 27 C       -8.1760     6.1160     1.6170 C.3   1 <1>   0.1290 
 28 H       -2.2950     3.2390     0.9080 H     1 <1>   0.0800 
 29 H       -3.4950     2.1830     1.5900 H     1 <1>   0.0800 
 30 H       -3.2320    -0.3850     1.2010 H     1 <1>   0.0800 
 31 H       -1.8870    -0.9350     0.2460 H     1 <1>   0.0800 
 32 H       -0.9630     2.8170     3.1310 H     1 <1>   0.1500 
 33 H       -4.0130    -0.9370    -1.0400 H     1 <1>   0.0800 
 34 H       -2.8050     0.0830    -1.7540 H     1 <1>   0.0800 
 35 H        2.3680     4.7050     1.2550 H     1 <1>   0.1500 
 36 H        2.2520     1.7070    -0.5890 H     1 <1>   0.1000 
 37 H        0.7580     4.7970     3.3980 H     1 <1>   0.1500 
 38 H       -4.9880     1.2500    -1.7480 H     1 <1>   0.0800 
 39 H       -5.1440     0.9780    -0.0420 H     1 <1>   0.0800 
 40 H       -3.2410     2.5460    -2.6430 H     1 <1>   0.0800 
 41 H       -1.8070     2.6250    -1.6600 H     1 <1>   0.0800 
 42 H        3.3630     3.4710    -2.0230 H     1 <1>   0.1000 
 43 H        2.4960     4.7640    -1.1410 H     1 <1>   0.1000 
 44 H        0.3010     3.7740    -1.8450 H     1 <1>   0.1000 
 45 H        1.1640     2.4750    -2.7300 H     1 <1>   0.1000 
 46 H       -3.0140     4.8300    -2.8160 H     1 <1>   0.0800 
 47 H       -2.1160     4.9480    -1.3030 H     1 <1>   0.0800 
 48 H       -4.6880     6.7800    -1.4640 H     1 <1>   0.1500 
 49 H       -7.9610     2.7720     1.0870 H     1 <1>   0.0800 
 50 H       -9.2280     3.7380     1.7970 H     1 <1>   0.0800 
 51 H       -7.7890     3.3590     2.7290 H     1 <1>   0.0800 
 52 H       -7.4600     6.9190     1.6640 H     1 <1>   0.0800 
 53 H       -8.6460     6.0260     2.5800 H     1 <1>   0.0800 
 54 H       -8.9190     6.3540     0.8770 H     1 <1>   0.0800 
@<TRIPOS>BOND
  1   1   2  2   
  2   2   3  am  
  3   2   4  1   
  4   3   5  1   
  5   3   6  1   
  6   4   7  1   
  7   4   8  2   
  8   5   9  1   
  9   5  28  1   
 10   5  29  1   
 11   6  10  1   
 12   6  30  1   
 13   6  31  1   
 14   7  11  1   
 15   7  12  1   
 16   8  13  1   
 17   8  32  1   
 18   9  14  1   
 19   9  15  1   
 20   9  16  1   
 21  10  15  1   
 22  10  33  1   
 23  10  34  1   
 24  11  13  2   
 25  11  35  1   
 26  12  17  1   
 27  12  18  1   
 28  12  36  1   
 29  13  37  1   
 30  14  19  ar  
 31  14  20  ar  
 32  15  38  1   
 33  15  39  1   
 34  16  21  1   
 35  16  40  1   
 36  16  41  1   
 37  17  18  1   
 38  17  42  1   
 39  17  43  1   
 40  18  44  1   
 41  18  45  1   
 42  19  22  ar  
 43  20  21  1   
 44  20  23  ar  
 45  21  46  1   
 46  21  47  1   
 47  22  24  ar  
 48  22  25  1   
 49  23  24  ar  
 50  23  48  1   
 51  25  26  1   
 52  25  27  1   
 53  26  49  1   
 54  26  50  1   
 55  26  51  1   
 56  27  52  1   
 57  27  53  1   
 58  27  54  1   
@<TRIPOS>SUBSTRUCTURE
  1 ****   5 GROUP 4 **** **** 0

# MOE 2024.06 (io_trps.svl 2023.06)
