@<TRIPOS>MOLECULE
NONAME
36 37 1 0 0 
SMALL
USER_CHARGES


@<TRIPOS>ATOM
  1 S        0.8530     0.1210     1.4680 S.3   1 <1>  -0.0800 
  2 C        1.5350     1.1410     0.1970 C.2   1 <1>  -0.0450 
  3 C        0.8720    -1.3050     0.4510 C.2   1 <1>  -0.1400 
  4 C        1.7650     2.5380     0.4710 C.2   1 <1>   0.7150 
  5 C        1.7390     0.3720    -0.9050 C.2   1 <1>  -0.1500 
  6 C        1.3670    -0.9970    -0.7620 C.2   1 <1>  -0.1500 
  7 C        0.3530    -2.5880     1.0750 C.3   1 <1>   0.0200 
  8 O        1.5300     3.0260     1.5590 O.2   1 <1>  -0.5700 
  9 N        2.2600     3.3380    -0.5210 N.am  1 <1>  -0.7300 
 10 C        0.4130    -3.7710     0.1040 C.3   1 <1>  -0.2400 
 11 C        2.5020     4.8030    -0.4850 C.3   1 <1>   0.2200 
 12 C        3.4660     5.2230     0.6400 C.3   1 <1>   0.1400 
 13 C        1.1790     5.5590    -0.3660 C.3   1 <1>  -0.1600 
 14 N        3.5910     6.7090     0.7420 N.am  1 <1>  -0.6600 
 15 C        1.4340     7.0690    -0.5060 C.3   1 <1>  -0.0990 
 16 C        2.6350     7.5800     0.2780 C.2   1 <1>   0.5690 
 17 C        4.7560     7.1800     1.5400 C.3   1 <1>   0.0600 
 18 O        2.7130     8.7730     0.4450 O.2   1 <1>  -0.5700 
 19 H        2.1460     0.7200    -1.8360 H     1 <1>   0.1500 
 20 H        1.4890    -1.6880    -1.5780 H     1 <1>   0.1500 
 21 H       -0.6650    -2.4360     1.3890 H     1 <1>   0.0800 
 22 H        0.9400    -2.8130     1.9480 H     1 <1>   0.0800 
 23 H        2.3880     2.9080    -1.4350 H     1 <1>   0.3700 
 24 H       -0.1870    -3.5690    -0.7660 H     1 <1>   0.0800 
 25 H        0.0370    -4.6580     0.5820 H     1 <1>   0.0800 
 26 H        1.4280    -3.9490    -0.2030 H     1 <1>   0.0800 
 27 H        2.9640     5.0730    -1.4200 H     1 <1>   0.0800 
 28 H        4.4340     4.7970     0.4480 H     1 <1>   0.0800 
 29 H        3.1130     4.8580     1.5880 H     1 <1>   0.0800 
 30 H        0.7430     5.3680     0.6000 H     1 <1>   0.0800 
 31 H        0.4890     5.2370    -1.1260 H     1 <1>   0.0800 
 32 H        0.5610     7.6090    -0.1870 H     1 <1>   0.0800 
 33 H        1.6040     7.3070    -1.5400 H     1 <1>   0.0800 
 34 H        5.6710     6.8470     1.0830 H     1 <1>   0.0800 
 35 H        4.6940     6.7870     2.5400 H     1 <1>   0.0800 
 36 H        4.7740     8.2550     1.5960 H     1 <1>   0.0800 
@<TRIPOS>BOND
  1   1   2  1   
  2   1   3  1   
  3   2   4  1   
  4   2   5  2   
  5   3   6  2   
  6   3   7  1   
  7   4   8  2   
  8   4   9  am  
  9   5   6  1   
 10   5  19  1   
 11   6  20  1   
 12   7  10  1   
 13   7  21  1   
 14   7  22  1   
 15   9  11  1   
 16   9  23  1   
 17  10  24  1   
 18  10  25  1   
 19  10  26  1   
 20  11  12  1   
 21  11  13  1   
 22  11  27  1   
 23  12  14  1   
 24  12  28  1   
 25  12  29  1   
 26  13  15  1   
 27  13  30  1   
 28  13  31  1   
 29  14  16  am  
 30  14  17  1   
 31  15  16  1   
 32  15  32  1   
 33  15  33  1   
 34  16  18  2   
 35  17  34  1   
 36  17  35  1   
 37  17  36  1   
@<TRIPOS>SUBSTRUCTURE
  1 ****   4 GROUP 4 **** **** 0

# MOE 2024.06 (io_trps.svl 2023.06)
