@<TRIPOS>MOLECULE
NONAME
55 59 1 0 0 
SMALL
USER_CHARGES


@<TRIPOS>ATOM
  1 O       -0.9890    -0.9510     1.7370 O.3   1 <1>  -0.0190 
  2 N       -0.0120    -0.1880     2.1170 N.2   1 <1>  -0.4100 
  3 C       -0.5620    -2.0760     1.2330 C.2   1 <1>  -0.0400 
  4 C        1.0700    -0.8370     1.8700 C.2   1 <1>   0.1080 
  5 C        0.7790    -2.0710     1.2940 C.2   1 <1>  -0.1500 
  6 C       -1.5620    -3.0830     0.7050 C.3   1 <1>   0.5230 
  7 C        2.4640    -0.3150     2.1690 C.3   1 <1>   0.0210 
  8 N       -2.3170    -2.4670    -0.4240 N.4   1 <1>  -0.9590 
  9 C        3.1780     0.1350     0.8910 C.3   1 <1>  -0.2400 
 10 C       -3.4450    -1.6040     0.0810 C.3   1 <1>   0.3430 
 11 C       -2.8130    -3.4810    -1.3950 C.3   1 <1>   0.3430 
 12 C       -4.1320    -0.8370    -1.0610 C.3   1 <1>   0.1430 
 13 C       -3.4500    -2.7710    -2.5940 C.3   1 <1>  -0.1600 
 14 C       -5.3280    -0.1050    -0.5010 C.ar  1 <1>   0.1670 
 15 C       -4.5800    -1.8150    -2.1690 C.3   1 <1>  -0.1600 
 16 C       -3.2590     0.3210    -1.6170 C.3   1 <1>  -0.1600 
 17 N       -6.2240    -0.6440     0.2880 N.ar  1 <1>  -0.6200 
 18 C       -5.3640     1.1920    -0.9050 C.ar  1 <1>  -0.1440 
 19 C       -4.1940     1.5340    -1.7920 C.3   1 <1>  -0.0170 
 20 C       -7.2210     0.1720     0.6670 C.ar  1 <1>   0.6200 
 21 C       -6.4090     1.9620    -0.4670 C.ar  1 <1>   0.1600 
 22 N       -7.3390     1.4590     0.3140 N.ar  1 <1>  -0.6200 
 23 C       -8.2540    -0.3850     1.5270 C.ar  1 <1>   0.0000 
 24 C       -9.5850     0.0330     1.4310 C.ar  1 <1>  -0.1500 
 25 C       -7.9670    -1.3620     2.4850 C.ar  1 <1>  -0.1500 
 26 C      -10.5730    -0.4940     2.2420 C.ar  1 <1>  -0.1500 
 27 C       -8.9500    -1.8940     3.2990 C.ar  1 <1>  -0.1500 
 28 C      -10.2580    -1.4610     3.1790 C.ar  1 <1>  -0.1500 
 29 H        1.5040    -2.8050     0.9880 H     1 <1>   0.1500 
 30 H       -2.2350    -3.3850     1.4910 H     1 <1>   0.0800 
 31 H       -1.0250    -3.9510     0.3600 H     1 <1>   0.0800 
 32 H        3.0360    -1.0860     2.6550 H     1 <1>   0.0800 
 33 H        2.3890     0.5170     2.8480 H     1 <1>   0.0800 
 34 H       -1.6540    -1.8480    -0.9080 H     1 <1>   0.4500 
 35 H        3.2910    -0.6890     0.2100 H     1 <1>   0.0800 
 36 H        4.1540     0.5200     1.1300 H     1 <1>   0.0800 
 37 H        2.6130     0.9120     0.4070 H     1 <1>   0.0800 
 38 H       -3.0870    -0.8910     0.8050 H     1 <1>   0.0800 
 39 H       -4.1840    -2.2210     0.5670 H     1 <1>   0.0800 
 40 H       -3.5480    -4.1140    -0.9220 H     1 <1>   0.0800 
 41 H       -1.9990    -4.1010    -1.7380 H     1 <1>   0.0800 
 42 H       -3.8530    -3.5120    -3.2620 H     1 <1>   0.0800 
 43 H       -2.6910    -2.2360    -3.1380 H     1 <1>   0.0800 
 44 H       -4.9430    -1.2660    -3.0220 H     1 <1>   0.0800 
 45 H       -5.4050    -2.4020    -1.7980 H     1 <1>   0.0800 
 46 H       -2.7700     0.0750    -2.5430 H     1 <1>   0.0800 
 47 H       -2.5060     0.5880    -0.8940 H     1 <1>   0.0800 
 48 H       -4.5270     1.6190    -2.8130 H     1 <1>   0.0800 
 49 H       -3.7180     2.4510    -1.4880 H     1 <1>   0.0800 
 50 H       -6.4880     2.9970    -0.7560 H     1 <1>   0.1500 
 51 H       -9.8480     0.7850     0.7080 H     1 <1>   0.1500 
 52 H       -6.9550    -1.7080     2.5950 H     1 <1>   0.1500 
 53 H      -11.5890    -0.1520     2.1450 H     1 <1>   0.1500 
 54 H       -8.7000    -2.6450     4.0280 H     1 <1>   0.1500 
 55 H      -11.0250    -1.8730     3.8110 H     1 <1>   0.1500 
@<TRIPOS>BOND
  1   1   2  1   
  2   1   3  1   
  3   2   4  2   
  4   3   5  2   
  5   3   6  1   
  6   4   5  1   
  7   4   7  1   
  8   5  29  1   
  9   6   8  1   
 10   6  30  1   
 11   6  31  1   
 12   7   9  1   
 13   7  32  1   
 14   7  33  1   
 15   8  10  1   
 16   8  11  1   
 17   8  34  1   
 18   9  35  1   
 19   9  36  1   
 20   9  37  1   
 21  10  12  1   
 22  10  38  1   
 23  10  39  1   
 24  11  13  1   
 25  11  40  1   
 26  11  41  1   
 27  12  14  1   
 28  12  15  1   
 29  12  16  1   
 30  13  15  1   
 31  13  42  1   
 32  13  43  1   
 33  14  17  ar  
 34  14  18  ar  
 35  15  44  1   
 36  15  45  1   
 37  16  19  1   
 38  16  46  1   
 39  16  47  1   
 40  17  20  ar  
 41  18  19  1   
 42  18  21  ar  
 43  19  48  1   
 44  19  49  1   
 45  20  22  ar  
 46  20  23  1   
 47  21  22  ar  
 48  21  50  1   
 49  23  24  ar  
 50  23  25  ar  
 51  24  26  ar  
 52  24  51  1   
 53  25  27  ar  
 54  25  52  1   
 55  26  28  ar  
 56  26  53  1   
 57  27  28  ar  
 58  27  54  1   
 59  28  55  1   
@<TRIPOS>SUBSTRUCTURE
  1 ****  10 GROUP 4 **** **** 0

# MOE 2024.06 (io_trps.svl 2023.06)
