@<TRIPOS>MOLECULE
NONAME
45 48 1 0 0 
SMALL
USER_CHARGES


@<TRIPOS>ATOM
  1 O        0.5940    -0.3770    -1.0230 O.3   1 <1>  -0.0190 
  2 N       -0.2870    -1.3130    -1.1070 N.2   1 <1>  -0.4100 
  3 C        1.5370    -0.7370    -0.1970 C.2   1 <1>   0.5620 
  4 C        0.1520    -2.2300    -0.3140 C.2   1 <1>   0.4620 
  5 N        1.3180    -1.8990     0.2850 N.2   1 <1>  -0.5650 
  6 N        2.6140     0.0820     0.0780 N.pl3 1 <1>  -0.8220 
  7 C       -0.5080    -3.5030    -0.0640 C.ar  1 <1>   0.0540 
  8 C        3.7680    -0.4010     0.9040 C.3   1 <1>   0.2090 
  9 C        2.8130     1.3700    -0.6590 C.3   1 <1>   0.2090 
 10 C       -1.6750    -3.8600    -0.7450 C.ar  1 <1>  -0.1500 
 11 C       -0.0090    -4.4210     0.8630 C.ar  1 <1>  -0.1500 
 12 C        5.1200    -0.0360     0.2630 C.3   1 <1>   0.2090 
 13 C        3.9780     2.2030    -0.0870 C.3   1 <1>   0.2090 
 14 C       -2.3090    -5.0680    -0.5150 C.ar  1 <1>  -0.1500 
 15 C       -0.6370    -5.6310     1.0980 C.ar  1 <1>  -0.1500 
 16 N        5.2630     1.4300    -0.0210 N.pl3 1 <1>  -0.8380 
 17 C       -1.7900    -5.9570     0.4080 C.ar  1 <1>  -0.1500 
 18 C        6.3760     2.0580     0.4930 C.ar  1 <1>   0.4100 
 19 N        6.1950     2.7490     1.5990 N.ar  1 <1>  -0.6200 
 20 C        7.6300     1.9490    -0.1040 C.ar  1 <1>  -0.1430 
 21 C        7.2740     3.3090     2.1000 C.ar  1 <1>   0.4700 
 22 C        8.6800     2.5730     0.5340 C.ar  1 <1>   0.1670 
 23 C        7.8100     1.1770    -1.4130 C.3   1 <1>  -0.0970 
 24 N        8.5100     3.2630     1.6430 N.ar  1 <1>  -0.6200 
 25 C       10.1090     2.5220     0.0220 C.3   1 <1>  -0.0970 
 26 H        3.7170    -1.4680     1.0290 H     1 <1>   0.0800 
 27 H        3.7130     0.0480     1.8800 H     1 <1>   0.0800 
 28 H        1.9090     1.9510    -0.6100 H     1 <1>   0.0800 
 29 H        3.0170     1.1560    -1.6930 H     1 <1>   0.0800 
 30 H       -2.0930    -3.1810    -1.4670 H     1 <1>   0.1500 
 31 H        0.8870    -4.1850     1.4100 H     1 <1>   0.1500 
 32 H        5.2200    -0.5790    -0.6600 H     1 <1>   0.0800 
 33 H        5.9120    -0.3530     0.9190 H     1 <1>   0.0800 
 34 H        3.7070     2.5340     0.9010 H     1 <1>   0.0800 
 35 H        4.1270     3.0760    -0.6960 H     1 <1>   0.0800 
 36 H       -3.2060    -5.3160    -1.0550 H     1 <1>   0.1500 
 37 H       -0.2300    -6.3190     1.8180 H     1 <1>   0.1500 
 38 H       -2.2810    -6.8970     0.5890 H     1 <1>   0.1500 
 39 H        7.1310     3.8760     3.0040 H     1 <1>   0.1500 
 40 H        6.9090     1.2040    -1.9990 H     1 <1>   0.0800 
 41 H        8.0510     0.1510    -1.2000 H     1 <1>   0.0800 
 42 H        8.5900     1.6050    -2.0140 H     1 <1>   0.0800 
 43 H       10.3330     1.5610    -0.3990 H     1 <1>   0.0800 
 44 H       10.7960     2.6980     0.8300 H     1 <1>   0.0800 
 45 H       10.2510     3.2840    -0.7210 H     1 <1>   0.0800 
@<TRIPOS>BOND
  1   1   2  1   
  2   1   3  1   
  3   2   4  2   
  4   3   5  2   
  5   3   6  1   
  6   4   5  1   
  7   4   7  1   
  8   6   8  1   
  9   6   9  1   
 10   7  10  ar  
 11   7  11  ar  
 12   8  12  1   
 13   8  26  1   
 14   8  27  1   
 15   9  13  1   
 16   9  28  1   
 17   9  29  1   
 18  10  14  ar  
 19  10  30  1   
 20  11  15  ar  
 21  11  31  1   
 22  12  16  1   
 23  12  32  1   
 24  12  33  1   
 25  13  16  1   
 26  13  34  1   
 27  13  35  1   
 28  14  17  ar  
 29  14  36  1   
 30  15  17  ar  
 31  15  37  1   
 32  16  18  1   
 33  17  38  1   
 34  18  19  ar  
 35  18  20  ar  
 36  19  21  ar  
 37  20  22  ar  
 38  20  23  1   
 39  21  24  ar  
 40  21  39  1   
 41  22  24  ar  
 42  22  25  1   
 43  23  40  1   
 44  23  41  1   
 45  23  42  1   
 46  25  43  1   
 47  25  44  1   
 48  25  45  1   
@<TRIPOS>SUBSTRUCTURE
  1 ****   6 GROUP 4 **** **** 0

# MOE 2024.06 (io_trps.svl 2023.06)
