@<TRIPOS>MOLECULE
NONAME
26 26 1 0 0 
SMALL
USER_CHARGES


@<TRIPOS>ATOM
  1 N        7.6240    -0.9100     0.6540 N.pl3 1 <1>  -0.8380 
  2 C        6.2720    -0.9070     1.0030 C.2   1 <1>  -0.0500 
  3 C        7.8290     0.3700    -0.0960 C.3   1 <1>   0.5780 
  4 C        8.0040    -2.1040    -0.1380 C.3   1 <1>   0.1290 
  5 C        5.6440     0.1830     0.5750 C.2   1 <1>  -0.0500 
  6 N        6.4900     1.0370    -0.1390 N.pl3 1 <1>  -0.8380 
  7 C        6.5170     2.4210     0.3910 C.3   1 <1>   0.2090 
  8 C        5.4240     3.2410    -0.2960 C.3   1 <1>  -0.1600 
  9 C        5.4200     4.6960     0.1940 C.3   1 <1>  -0.1600 
 10 C        4.3230     5.5070    -0.4990 C.3   1 <1>  -0.2400 
 11 H        5.8540    -1.7290     1.5600 H     1 <1>   0.1500 
 12 H        8.1710     0.1790    -1.0990 H     1 <1>   0.0800 
 13 H        8.5500     0.9780     0.4230 H     1 <1>   0.0800 
 14 H        7.8550    -2.9900     0.4530 H     1 <1>   0.0800 
 15 H        9.0410    -2.0450    -0.4180 H     1 <1>   0.0800 
 16 H        7.3960    -2.1670    -1.0250 H     1 <1>   0.0800 
 17 H        4.6080     0.4420     0.7200 H     1 <1>   0.1500 
 18 H        7.4740     2.8730     0.1930 H     1 <1>   0.0800 
 19 H        6.3590     2.4070     1.4570 H     1 <1>   0.0800 
 20 H        4.4680     2.7920    -0.0920 H     1 <1>   0.0800 
 21 H        5.5900     3.2190    -1.3580 H     1 <1>   0.0800 
 22 H        6.3760     5.1490    -0.0080 H     1 <1>   0.0800 
 23 H        5.2570     4.7180     1.2590 H     1 <1>   0.0800 
 24 H        4.4770     5.5140    -1.5640 H     1 <1>   0.0800 
 25 H        4.3340     6.5220    -0.1450 H     1 <1>   0.0800 
 26 H        3.3550     5.0830    -0.2930 H     1 <1>   0.0800 
@<TRIPOS>BOND
  1   1   2  1   
  2   1   3  1   
  3   1   4  1   
  4   2   5  2   
  5   2  11  1   
  6   3   6  1   
  7   3  12  1   
  8   3  13  1   
  9   4  14  1   
 10   4  15  1   
 11   4  16  1   
 12   5   6  1   
 13   5  17  1   
 14   6   7  1   
 15   7   8  1   
 16   7  18  1   
 17   7  19  1   
 18   8   9  1   
 19   8  20  1   
 20   8  21  1   
 21   9  10  1   
 22   9  22  1   
 23   9  23  1   
 24  10  24  1   
 25  10  25  1   
 26  10  26  1   
@<TRIPOS>SUBSTRUCTURE
  1 ****   6 GROUP 4 **** **** 0

# MOE 2024.06 (io_trps.svl 2023.06)
