@<TRIPOS>MOLECULE
NONAME
39 41 1 0 0 
SMALL
USER_CHARGES


@<TRIPOS>ATOM
  1 S        1.0080     0.4030    -1.5950 S.3   1 <1>  -0.3320 
  2 C        2.2100    -0.6020    -0.7320 C.ar  1 <1>   0.7220 
  3 C       -0.4820    -0.6790    -1.7600 C.3   1 <1>  -0.0100 
  4 N        3.3560    -0.0040    -0.5080 N.ar  1 <1>  -0.6200 
  5 N        1.8110    -1.8240    -0.4200 N.ar  1 <1>  -0.6200 
  6 C        4.2530    -0.7380     0.1260 C.ar  1 <1>   0.4100 
  7 C        2.7270    -2.5260     0.2120 C.ar  1 <1>   0.1600 
  8 N        5.4490    -0.1120     0.3810 N.pl3 1 <1>  -0.8380 
  9 C        3.9810    -2.0470     0.5050 C.ar  1 <1>  -0.1790 
 10 C        5.5050     1.3300     0.7660 C.3   1 <1>   0.2090 
 11 C        6.6940    -0.5950    -0.2830 C.3   1 <1>   0.2090 
 12 C        4.8900    -2.9080     1.1950 C.2   1 <1>   0.9790 
 13 C        5.9920     2.1960    -0.4100 C.3   1 <1>   0.3440 
 14 C        7.1630     0.3970    -1.3650 C.3   1 <1>   0.1200 
 15 O        5.9160    -3.3470     0.6420 O.co2 1 <1>  -0.9000 
 16 O        4.5890    -3.3390     2.3200 O.co2 1 <1>  -0.9000 
 17 O        7.2270     1.7170    -0.8890 O.3   1 <1>  -0.5600 
 18 C        6.1350     3.6560     0.0150 C.ar  1 <1>  -0.1440 
 19 C        7.3040     4.1310     0.5930 C.ar  1 <1>  -0.1500 
 20 C        5.0690     4.5260    -0.1640 C.ar  1 <1>  -0.1500 
 21 C        7.4070     5.4550     0.9860 C.ar  1 <1>  -0.1500 
 22 C        5.1690     5.8500     0.2290 C.ar  1 <1>  -0.1500 
 23 C        6.3380     6.3150     0.8040 C.ar  1 <1>  -0.1500 
 24 H       -1.2410    -0.1190    -2.2740 H     1 <1>   0.0800 
 25 H       -0.8020    -0.9500    -0.7700 H     1 <1>   0.0800 
 26 H       -0.1950    -1.5500    -2.3210 H     1 <1>   0.0800 
 27 H        2.4800    -3.5310     0.5160 H     1 <1>   0.1500 
 28 H        6.1780     1.4470     1.5960 H     1 <1>   0.0800 
 29 H        4.5330     1.6650     1.0800 H     1 <1>   0.0800 
 30 H        6.5190    -1.5440    -0.7560 H     1 <1>   0.0800 
 31 H        7.4630    -0.7330     0.4570 H     1 <1>   0.0800 
 32 H        5.2780     2.1280    -1.2130 H     1 <1>   0.0800 
 33 H        6.4850     0.3690    -2.2000 H     1 <1>   0.0800 
 34 H        8.1440     0.1230    -1.7100 H     1 <1>   0.0800 
 35 H        8.1390     3.4660     0.7340 H     1 <1>   0.1500 
 36 H        4.1540     4.1740    -0.6090 H     1 <1>   0.1500 
 37 H        8.3180     5.8130     1.4310 H     1 <1>   0.1500 
 38 H        4.3370     6.5160     0.0860 H     1 <1>   0.1500 
 39 H        6.4180     7.3440     1.1080 H     1 <1>   0.1500 
@<TRIPOS>BOND
  1   1   2  1   
  2   1   3  1   
  3   2   4  ar  
  4   2   5  ar  
  5   3  24  1   
  6   3  25  1   
  7   3  26  1   
  8   4   6  ar  
  9   5   7  ar  
 10   6   8  1   
 11   6   9  ar  
 12   7   9  ar  
 13   7  27  1   
 14   8  10  1   
 15   8  11  1   
 16   9  12  1   
 17  10  13  1   
 18  10  28  1   
 19  10  29  1   
 20  11  14  1   
 21  11  30  1   
 22  11  31  1   
 23  12  15  ar  
 24  12  16  ar  
 25  13  17  1   
 26  13  18  1   
 27  13  32  1   
 28  14  17  1   
 29  14  33  1   
 30  14  34  1   
 31  18  19  ar  
 32  18  20  ar  
 33  19  21  ar  
 34  19  35  1   
 35  20  22  ar  
 36  20  36  1   
 37  21  23  ar  
 38  21  37  1   
 39  22  23  ar  
 40  22  38  1   
 41  23  39  1   
@<TRIPOS>SUBSTRUCTURE
  1 ****   8 GROUP 4 **** **** 0

# MOE 2024.06 (io_trps.svl 2023.06)
