@<TRIPOS>MOLECULE
NONAME
46 47 1 0 0 
SMALL
USER_CHARGES


@<TRIPOS>ATOM
  1 O        1.7640     1.6460    -1.2800 O.3   1 <1>  -0.5600 
  2 C        3.0110     1.2340    -0.8330 C.3   1 <1>   0.1200 
  3 C        0.7760     0.6680    -1.1970 C.3   1 <1>   0.0400 
  4 C        3.9730     2.3990    -1.0450 C.3   1 <1>   0.0960 
  5 N        5.2910     2.0860    -0.4550 N.pl3 1 <1>   0.0480 
  6 C        5.7140     2.1610     0.8140 C.2   1 <1>   0.0060 
  7 C        6.3800     1.6560    -1.0950 C.2   1 <1>   0.0360 
  8 N        6.9390     1.7760     0.9280 N.2   1 <1>  -0.3380 
  9 C        4.9070     2.6790     1.9940 C.3   1 <1>   0.0200 
 10 N        7.3750     1.4860    -0.2940 N.2   1 <1>  -0.3380 
 11 C        5.6990     3.7500     2.7570 C.3   1 <1>   0.2090 
 12 N        5.9470     4.9610     1.9190 N.pl3 1 <1>  -0.8690 
 13 C        6.9700     5.3090     1.1230 C.ar  1 <1>   0.7710 
 14 N        6.9940     6.5710     0.7560 N.ar  1 <1>  -0.6200 
 15 N        7.8930     4.4200     0.7240 N.ar  1 <1>  -0.1790 
 16 C        7.9960     6.9740    -0.0050 C.ar  1 <1>   0.4100 
 17 C        8.9070     4.7780    -0.0910 C.ar  1 <1>   0.2110 
 18 N        8.0190     8.2970    -0.3100 N.pl3 1 <1>  -0.8380 
 19 C        8.9870     6.0750    -0.4820 C.ar  1 <1>  -0.1430 
 20 C        9.1780     9.1750     0.0140 C.3   1 <1>   0.1290 
 21 C        6.7680     9.0450    -0.6240 C.3   1 <1>   0.1290 
 22 C       10.0890     6.5180    -1.4430 C.3   1 <1>  -0.0970 
 23 H        3.3180     0.3740    -1.4050 H     1 <1>   0.0800 
 24 H        2.9300     0.9820     0.2110 H     1 <1>   0.0800 
 25 H       -0.1440     1.0890    -1.5620 H     1 <1>   0.0800 
 26 H        0.6540     0.3680    -0.1710 H     1 <1>   0.0800 
 27 H        1.0540    -0.1740    -1.8080 H     1 <1>   0.0800 
 28 H        3.5810     3.2860    -0.5820 H     1 <1>   0.0800 
 29 H        4.0910     2.5790    -2.0980 H     1 <1>   0.0800 
 30 H        6.4070     1.4780    -2.1570 H     1 <1>   0.1500 
 31 H        4.7060     1.8550     2.6560 H     1 <1>   0.0800 
 32 H        3.9630     3.0870     1.6830 H     1 <1>   0.0800 
 33 H        6.6360     3.3390     3.0960 H     1 <1>   0.0800 
 34 H        5.1430     4.0430     3.6320 H     1 <1>   0.0800 
 35 H        5.3110     5.7430     2.1110 H     1 <1>   0.4000 
 36 H        7.7280     3.4350     0.9580 H     1 <1>   0.4570 
 37 H        9.6010     4.0170    -0.4110 H     1 <1>   0.1500 
 38 H        9.9270     8.6260     0.5560 H     1 <1>   0.0800 
 39 H        8.8550     9.9980     0.6290 H     1 <1>   0.0800 
 40 H        9.6070     9.5630    -0.8940 H     1 <1>   0.0800 
 41 H        5.9920     8.3640    -0.9290 H     1 <1>   0.0800 
 42 H        6.9470     9.7410    -1.4250 H     1 <1>   0.0800 
 43 H        6.4350     9.5830     0.2470 H     1 <1>   0.0800 
 44 H        9.6760     7.1460    -2.2130 H     1 <1>   0.0800 
 45 H       10.5560     5.6730    -1.9170 H     1 <1>   0.0800 
 46 H       10.8470     7.0690    -0.9170 H     1 <1>   0.0800 
@<TRIPOS>BOND
  1   1   2  1   
  2   1   3  1   
  3   2   4  1   
  4   2  23  1   
  5   2  24  1   
  6   3  25  1   
  7   3  26  1   
  8   3  27  1   
  9   4   5  1   
 10   4  28  1   
 11   4  29  1   
 12   5   6  1   
 13   5   7  1   
 14   6   8  2   
 15   6   9  1   
 16   7  10  2   
 17   7  30  1   
 18   8  10  1   
 19   9  11  1   
 20   9  31  1   
 21   9  32  1   
 22  11  12  1   
 23  11  33  1   
 24  11  34  1   
 25  12  13  1   
 26  12  35  1   
 27  13  14  ar  
 28  13  15  ar  
 29  14  16  ar  
 30  15  17  ar  
 31  15  36  1   
 32  16  18  1   
 33  16  19  ar  
 34  17  19  ar  
 35  17  37  1   
 36  18  20  1   
 37  18  21  1   
 38  19  22  1   
 39  20  38  1   
 40  20  39  1   
 41  20  40  1   
 42  21  41  1   
 43  21  42  1   
 44  21  43  1   
 45  22  44  1   
 46  22  45  1   
 47  22  46  1   
@<TRIPOS>SUBSTRUCTURE
  1 ****  13 GROUP 4 **** **** 0

# MOE 2024.06 (io_trps.svl 2023.06)
