@<TRIPOS>MOLECULE
NONAME
45 46 1 0 0 
SMALL
USER_CHARGES


@<TRIPOS>ATOM
  1 O        1.4320     0.4270    -1.7950 O.2   1 <1>  -0.5700 
  2 C        1.7900     0.5760    -0.6420 C.2   1 <1>   0.5440 
  3 N        1.3680     1.6860     0.0430 N.am  1 <1>  -0.7300 
  4 C        2.6650    -0.3650     0.0000 C.ar  1 <1>   0.0860 
  5 C        0.4550     2.7320    -0.4850 C.3   1 <1>   0.0600 
  6 C        2.2360    -1.6320     0.4540 C.ar  1 <1>   0.4100 
  7 C        3.9970    -0.0160     0.1820 C.ar  1 <1>  -0.1500 
  8 N        3.0640    -2.5020     1.0390 N.ar  1 <1>  -0.6200 
  9 N        0.9250    -2.0790     0.3370 N.pl3 1 <1>  -0.8380 
 10 C        4.8350    -0.9220     0.7890 C.ar  1 <1>  -0.1500 
 11 C        4.3200    -2.1390     1.1920 C.ar  1 <1>   0.1600 
 12 C        0.6270    -3.5580     0.2080 C.3   1 <1>   0.2090 
 13 C       -0.2670    -1.2060     0.5990 C.3   1 <1>   0.2090 
 14 C       -0.6900    -3.7520    -0.5600 C.3   1 <1>   0.2000 
 15 C       -1.4400    -2.0120     1.1650 C.3   1 <1>  -0.1600 
 16 O       -0.5480    -3.0270    -1.7470 O.3   1 <1>  -0.6800 
 17 C       -1.8930    -3.2370     0.2950 C.3   1 <1>  -0.1060 
 18 C       -2.3100    -4.3810     1.2530 C.2   1 <1>   0.9060 
 19 C       -3.0810    -2.8490    -0.6440 C.3   1 <1>  -0.1600 
 20 O       -2.9360    -4.1120     2.2880 O.co2 1 <1>  -0.9000 
 21 O       -1.9990    -5.5520     0.9970 O.co2 1 <1>  -0.9000 
 22 C       -4.4390    -2.6060     0.0410 C.3   1 <1>  -0.1600 
 23 C       -5.4870    -2.1330    -0.9710 C.3   1 <1>  -0.2400 
 24 H        1.6580     1.7920     1.0170 H     1 <1>   0.3700 
 25 H        0.1870     2.5190    -1.5060 H     1 <1>   0.0800 
 26 H        0.9410     3.6920    -0.4490 H     1 <1>   0.0800 
 27 H       -0.4420     2.7640     0.1080 H     1 <1>   0.0800 
 28 H        4.3600     0.9390    -0.1550 H     1 <1>   0.1500 
 29 H        5.8740    -0.6950     0.9470 H     1 <1>   0.1500 
 30 H        4.9760    -2.8490     1.6650 H     1 <1>   0.1500 
 31 H        1.4220    -4.0530    -0.3220 H     1 <1>   0.0800 
 32 H        0.5500    -4.0050     1.1840 H     1 <1>   0.0800 
 33 H       -0.0010    -0.4350     1.3000 H     1 <1>   0.0800 
 34 H       -0.5770    -0.7380    -0.3210 H     1 <1>   0.0800 
 35 H       -0.8220    -4.7820    -0.8440 H     1 <1>   0.0800 
 36 H       -1.1230    -2.3630     2.1330 H     1 <1>   0.0800 
 37 H       -2.2650    -1.3530     1.3480 H     1 <1>   0.0800 
 38 H        0.0330    -2.2670    -1.5160 H     1 <1>   0.4000 
 39 H       -2.8130    -1.9670    -1.1980 H     1 <1>   0.0800 
 40 H       -3.2130    -3.6470    -1.3550 H     1 <1>   0.0800 
 41 H       -4.7800    -3.5210     0.4960 H     1 <1>   0.0800 
 42 H       -4.3450    -1.8740     0.8220 H     1 <1>   0.0800 
 43 H       -5.6160    -2.8700    -1.7430 H     1 <1>   0.0800 
 44 H       -5.1810    -1.2050    -1.4210 H     1 <1>   0.0800 
 45 H       -6.4300    -1.9840    -0.4760 H     1 <1>   0.0800 
@<TRIPOS>BOND
  1   1   2  2   
  2   2   3  am  
  3   2   4  1   
  4   3   5  1   
  5   3  24  1   
  6   4   6  ar  
  7   4   7  ar  
  8   5  25  1   
  9   5  26  1   
 10   5  27  1   
 11   6   8  ar  
 12   6   9  1   
 13   7  10  ar  
 14   7  28  1   
 15   8  11  ar  
 16   9  12  1   
 17   9  13  1   
 18  10  11  ar  
 19  10  29  1   
 20  11  30  1   
 21  12  14  1   
 22  12  31  1   
 23  12  32  1   
 24  13  15  1   
 25  13  33  1   
 26  13  34  1   
 27  14  16  1   
 28  14  17  1   
 29  14  35  1   
 30  15  17  1   
 31  15  36  1   
 32  15  37  1   
 33  16  38  1   
 34  17  18  1   
 35  17  19  1   
 36  18  20  ar  
 37  18  21  ar  
 38  19  22  1   
 39  19  39  1   
 40  19  40  1   
 41  22  23  1   
 42  22  41  1   
 43  22  42  1   
 44  23  43  1   
 45  23  44  1   
 46  23  45  1   
@<TRIPOS>SUBSTRUCTURE
  1 ****   9 GROUP 4 **** **** 0

# MOE 2024.06 (io_trps.svl 2023.06)
