@<TRIPOS>MOLECULE
NONAME
58 62 1 0 0 
SMALL
USER_CHARGES


@<TRIPOS>ATOM
  1 O        0.5930    -1.1530     1.8730 O.2   1 <1>  -0.5700 
  2 C        0.9740    -2.1460     1.2980 C.2   1 <1>   0.5690 
  3 N        2.3160    -2.4100     1.1670 N.am  1 <1>  -0.6600 
  4 C       -0.1380    -3.0540     0.7950 C.3   1 <1>  -0.0990 
  5 C        2.8970    -3.6130     0.4870 C.3   1 <1>   0.1400 
  6 C        3.3150    -1.5330     1.8520 C.3   1 <1>   0.2840 
  7 C        0.2320    -4.2200    -0.1170 C.3   1 <1>   0.1200 
  8 C        2.4300    -3.8570    -0.9840 C.3   1 <1>   0.2800 
  9 C        4.0790    -0.6720     0.8560 C.ar  1 <1>  -0.1440 
 10 O        1.0420    -3.7450    -1.1400 O.3   1 <1>  -0.5600 
 11 C        3.0080    -2.7880    -1.9270 C.3   1 <1>  -0.1600 
 12 C        2.8260    -5.2790    -1.4610 C.3   1 <1>  -0.1600 
 13 C        3.3980     0.1890     0.0090 C.ar  1 <1>  -0.1500 
 14 C        5.4640    -0.7230     0.7960 C.ar  1 <1>  -0.1500 
 15 C        4.5340    -2.8900    -2.0560 C.3   1 <1>   0.1400 
 16 C        3.9170    -5.2870    -2.5350 C.3   1 <1>   0.1400 
 17 C        4.0880     0.9690    -0.9030 C.ar  1 <1>  -0.1500 
 18 C        6.1570     0.0570    -0.1130 C.ar  1 <1>  -0.1500 
 19 N        4.9740    -4.3150    -2.1460 N.am  1 <1>  -0.6600 
 20 C        5.4680     0.9010    -0.9670 C.ar  1 <1>  -0.1500 
 21 C        6.2350    -4.7390    -1.7780 C.2   1 <1>   0.5440 
 22 O        6.5470    -5.9020    -1.9500 O.2   1 <1>  -0.5700 
 23 C        7.2180    -3.8300    -1.2430 C.ar  1 <1>   0.0860 
 24 C        7.3440    -3.6630     0.1580 C.ar  1 <1>   0.3100 
 25 C        8.0580    -3.1410    -2.0950 C.ar  1 <1>  -0.1500 
 26 N        6.4880    -4.2940     1.0160 N.ar  1 <1>  -0.6200 
 27 C        8.3750    -2.8180     0.6490 C.ar  1 <1>   0.3100 
 28 C        9.0490    -2.2920    -1.6080 C.ar  1 <1>  -0.1500 
 29 C        6.7440    -4.1060     2.2730 C.ar  1 <1>   0.1600 
 30 N        8.5920    -2.6280     1.9770 N.ar  1 <1>  -0.6200 
 31 C        9.2040    -2.1430    -0.2570 C.ar  1 <1>  -0.1500 
 32 C        7.7850    -3.2860     2.7470 C.ar  1 <1>   0.1600 
 33 H       -0.8350    -2.4340     0.2620 H     1 <1>   0.0800 
 34 H       -0.6570    -3.4410     1.6500 H     1 <1>   0.0800 
 35 H        2.6740    -4.4770     1.0860 H     1 <1>   0.0800 
 36 H        3.9690    -3.5340     0.4850 H     1 <1>   0.0800 
 37 H        3.9990    -2.1500     2.4050 H     1 <1>   0.0800 
 38 H        2.8300    -0.8850     2.5620 H     1 <1>   0.0800 
 39 H       -0.6600    -4.6140    -0.5720 H     1 <1>   0.0800 
 40 H        0.7180    -5.0210     0.4130 H     1 <1>   0.0800 
 41 H        2.7430    -1.8100    -1.5770 H     1 <1>   0.0800 
 42 H        2.5720    -2.9010    -2.9030 H     1 <1>   0.0800 
 43 H        1.9700    -5.7910    -1.8610 H     1 <1>   0.0800 
 44 H        3.1870    -5.8610    -0.6330 H     1 <1>   0.0800 
 45 H        2.3230     0.2470     0.0610 H     1 <1>   0.1500 
 46 H        6.0090    -1.3660     1.4610 H     1 <1>   0.1500 
 47 H        4.9890    -2.4280    -1.1990 H     1 <1>   0.0800 
 48 H        4.8590    -2.3570    -2.9320 H     1 <1>   0.0800 
 49 H        3.5070    -4.9960    -3.4870 H     1 <1>   0.0800 
 50 H        4.3170    -6.2810    -2.6420 H     1 <1>   0.0800 
 51 H        3.5480     1.6300    -1.5580 H     1 <1>   0.1500 
 52 H        7.2310     0.0130    -0.1510 H     1 <1>   0.1500 
 53 H        6.0050     1.5090    -1.6740 H     1 <1>   0.1500 
 54 H        7.9540    -3.2700    -3.1590 H     1 <1>   0.1500 
 55 H        9.6890    -1.7700    -2.3000 H     1 <1>   0.1500 
 56 H        6.1270    -4.6010     3.0020 H     1 <1>   0.1500 
 57 H        9.9700    -1.5030     0.1450 H     1 <1>   0.1500 
 58 H        7.9080    -3.1990     3.8130 H     1 <1>   0.1500 
@<TRIPOS>BOND
  1   1   2  2   
  2   2   3  am  
  3   2   4  1   
  4   3   5  1   
  5   3   6  1   
  6   4   7  1   
  7   4  33  1   
  8   4  34  1   
  9   5   8  1   
 10   5  35  1   
 11   5  36  1   
 12   6   9  1   
 13   6  37  1   
 14   6  38  1   
 15   7  10  1   
 16   7  39  1   
 17   7  40  1   
 18   8  10  1   
 19   8  11  1   
 20   8  12  1   
 21   9  13  ar  
 22   9  14  ar  
 23  11  15  1   
 24  11  41  1   
 25  11  42  1   
 26  12  16  1   
 27  12  43  1   
 28  12  44  1   
 29  13  17  ar  
 30  13  45  1   
 31  14  18  ar  
 32  14  46  1   
 33  15  19  1   
 34  15  47  1   
 35  15  48  1   
 36  16  19  1   
 37  16  49  1   
 38  16  50  1   
 39  17  20  ar  
 40  17  51  1   
 41  18  20  ar  
 42  18  52  1   
 43  19  21  am  
 44  20  53  1   
 45  21  22  2   
 46  21  23  1   
 47  23  24  ar  
 48  23  25  ar  
 49  24  26  ar  
 50  24  27  ar  
 51  25  28  ar  
 52  25  54  1   
 53  26  29  ar  
 54  27  30  ar  
 55  27  31  ar  
 56  28  31  ar  
 57  28  55  1   
 58  29  32  ar  
 59  29  56  1   
 60  30  32  ar  
 61  31  57  1   
 62  32  58  1   
@<TRIPOS>SUBSTRUCTURE
  1 ****  15 GROUP 4 **** **** 0

# MOE 2024.06 (io_trps.svl 2023.06)
