@<TRIPOS>MOLECULE
NONAME
53 55 1 0 0 
SMALL
USER_CHARGES


@<TRIPOS>ATOM
  1 O       -1.2130     0.1010     0.4030 O.2   1 <1>  -0.5700 
  2 C       -1.9680     0.9510    -0.0300 C.2   1 <1>   0.5440 
  3 N       -3.2190     0.5500    -0.4400 N.am  1 <1>  -0.6600 
  4 C       -1.5680     2.3380    -0.0530 C.ar  1 <1>   0.0860 
  5 C       -3.4380    -0.8580    -0.8630 C.3   1 <1>   0.1400 
  6 C       -4.4180     1.1590     0.2130 C.3   1 <1>   0.1400 
  7 C       -0.6540     2.8520     0.8450 C.ar  1 <1>   0.1600 
  8 C       -2.0640     3.2470    -0.9680 C.ar  1 <1>   0.1600 
  9 C       -4.3470    -1.4800     0.2160 C.3   1 <1>   0.4230 
 10 C       -5.7130     0.3180    -0.0320 C.3   1 <1>  -0.1600 
 11 N       -0.2920     4.1160     0.8600 N.ar  1 <1>  -0.6200 
 12 N       -1.7260     4.5170    -0.9830 N.ar  1 <1>  -0.6200 
 13 N       -3.7500    -2.7030     0.8600 N.4   1 <1>  -0.9590 
 14 C       -5.8690    -1.2980    -0.2270 C.3   1 <1>   0.0000 
 15 C       -0.8490     4.8930    -0.0610 C.ar  1 <1>   0.4770 
 16 C       -3.8130    -3.8470    -0.0280 C.3   1 <1>   0.3430 
 17 C       -2.3680    -2.4720     1.3990 C.3   1 <1>   0.2630 
 18 C       -6.1110    -2.8780    -0.5120 C.3   1 <1>  -0.1600 
 19 C       -7.4150    -1.0410    -0.6070 C.3   1 <1>   0.1200 
 20 C       -0.4450     6.3740    -0.0730 C.3   1 <1>   0.0630 
 21 C       -5.2860    -4.1090    -0.0770 C.3   1 <1>  -0.1600 
 22 O       -8.1680    -1.1550     0.5600 O.3   1 <1>  -0.6800 
 23 C        1.0580     6.5540    -0.3460 C.3   1 <1>  -0.2400 
 24 C       -0.8350     7.0840     1.2340 C.3   1 <1>  -0.2400 
 25 H       -3.9310    -0.8650    -1.8200 H     1 <1>   0.0800 
 26 H       -2.5040    -1.3790    -0.9740 H     1 <1>   0.0800 
 27 H       -4.2360     1.2300     1.2740 H     1 <1>   0.0800 
 28 H       -4.5620     2.1630    -0.1530 H     1 <1>   0.0800 
 29 H       -0.2100     2.1970     1.5750 H     1 <1>   0.1500 
 30 H       -2.7640     2.9130    -1.7150 H     1 <1>   0.1500 
 31 H       -4.2640    -0.8240     1.0620 H     1 <1>   0.0800 
 32 H       -6.4000     0.6620     0.7270 H     1 <1>   0.0800 
 33 H       -6.0010     0.7890    -0.9590 H     1 <1>   0.0800 
 34 H       -4.3650    -2.9170     1.6570 H     1 <1>   0.4500 
 35 H       -3.4160    -3.6110    -1.0020 H     1 <1>   0.0800 
 36 H       -3.2900    -4.6950     0.3870 H     1 <1>   0.0800 
 37 H       -1.6640    -2.3140     0.5980 H     1 <1>   0.0800 
 38 H       -2.0420    -3.3210     1.9770 H     1 <1>   0.0800 
 39 H       -2.3530    -1.5990     2.0320 H     1 <1>   0.0800 
 40 H       -7.0810    -3.2130    -0.1690 H     1 <1>   0.0800 
 41 H       -6.1310    -2.9620    -1.5880 H     1 <1>   0.0800 
 42 H       -7.8360    -1.7220    -1.3320 H     1 <1>   0.0800 
 43 H       -7.6920    -0.0920    -1.0340 H     1 <1>   0.0800 
 44 H       -0.9790     6.8540    -0.8750 H     1 <1>   0.0800 
 45 H       -5.4730    -4.9240    -0.7560 H     1 <1>   0.0800 
 46 H       -5.6140    -4.4400     0.8940 H     1 <1>   0.0800 
 47 H       -9.1240    -1.0330     0.3800 H     1 <1>   0.4000 
 48 H        1.6380     6.1130     0.4450 H     1 <1>   0.0800 
 49 H        1.3050     7.5980    -0.4180 H     1 <1>   0.0800 
 50 H        1.3210     6.0740    -1.2710 H     1 <1>   0.0800 
 51 H       -0.3040     6.6550     2.0660 H     1 <1>   0.0800 
 52 H       -1.8900     6.9760     1.4080 H     1 <1>   0.0800 
 53 H       -0.6010     8.1320     1.1760 H     1 <1>   0.0800 
@<TRIPOS>BOND
  1   1   2  2   
  2   2   3  am  
  3   2   4  1   
  4   3   5  1   
  5   3   6  1   
  6   4   7  ar  
  7   4   8  ar  
  8   5   9  1   
  9   5  25  1   
 10   5  26  1   
 11   6  10  1   
 12   6  27  1   
 13   6  28  1   
 14   7  11  ar  
 15   7  29  1   
 16   8  12  ar  
 17   8  30  1   
 18   9  13  1   
 19   9  14  1   
 20   9  31  1   
 21  10  14  1   
 22  10  32  1   
 23  10  33  1   
 24  11  15  ar  
 25  12  15  ar  
 26  13  16  1   
 27  13  17  1   
 28  13  34  1   
 29  14  18  1   
 30  14  19  1   
 31  15  20  1   
 32  16  21  1   
 33  16  35  1   
 34  16  36  1   
 35  17  37  1   
 36  17  38  1   
 37  17  39  1   
 38  18  21  1   
 39  18  40  1   
 40  18  41  1   
 41  19  22  1   
 42  19  42  1   
 43  19  43  1   
 44  20  23  1   
 45  20  24  1   
 46  20  44  1   
 47  21  45  1   
 48  21  46  1   
 49  22  47  1   
 50  23  48  1   
 51  23  49  1   
 52  23  50  1   
 53  24  51  1   
 54  24  52  1   
 55  24  53  1   
@<TRIPOS>SUBSTRUCTURE
  1 ****   3 GROUP 4 **** **** 0

# MOE 2024.06 (io_trps.svl 2023.06)
