@<TRIPOS>MOLECULE
NONAME
43 44 1 0 0 
SMALL
USER_CHARGES


@<TRIPOS>ATOM
  1 S       -0.0750     0.2640     0.1930 S.o2  1 <1>   1.3330 
  2 O       -0.6010     1.6090     0.1340 O.2   1 <1>  -0.6500 
  3 O       -0.2330    -0.5100     1.4030 O.2   1 <1>  -0.6500 
  4 N       -0.7560    -0.6270    -1.0810 N.am  1 <1>  -0.8490 
  5 C        1.6570     0.3390    -0.2710 C.3   1 <1>  -0.0550 
  6 C       -2.1600    -0.2740    -1.3170 C.3   1 <1>   0.1160 
  7 C       -0.6310    -2.0790    -0.9080 C.3   1 <1>   0.1160 
  8 C        2.5270     1.1700     0.6950 C.3   1 <1>  -0.0800 
  9 C        3.9210     1.3790     0.1270 C.3   1 <1>   0.2200 
 10 C        2.8400     0.4020     1.9790 C.3   1 <1>   0.1200 
 11 N        4.5350     2.5710     0.7530 N.am  1 <1>  -0.7300 
 12 C        4.6540     0.1180     0.5830 C.3   1 <1>   0.1200 
 13 O        3.9630    -0.3750     1.6950 O.3   1 <1>  -0.5600 
 14 C        5.0810     3.6410     0.1060 C.2   1 <1>   0.7160 
 15 O        5.0200     3.6750    -1.1090 O.2   1 <1>  -0.5700 
 16 C        5.7230     4.6890     0.8850 C.2   1 <1>   0.1410 
 17 N        5.8010     4.6440     2.2540 N.2   1 <1>  -0.5650 
 18 C        6.3340     5.8320     0.4830 C.2   1 <1>  -0.0400 
 19 C        6.4270     5.7200     2.5580 C.2   1 <1>   0.3280 
 20 O        6.7670     6.4610     1.5350 O.3   1 <1>  -0.2800 
 21 C        6.5850     6.4480    -0.8850 C.3   1 <1>   0.0200 
 22 C        5.8160     7.7630    -1.0460 C.3   1 <1>  -0.2400 
 23 H        2.0510    -0.6560    -0.3420 H     1 <1>   0.0800 
 24 H        1.7130     0.7830    -1.2460 H     1 <1>   0.0800 
 25 H       -2.5560    -0.8460    -2.1390 H     1 <1>   0.0800 
 26 H       -2.2410     0.7710    -1.5660 H     1 <1>   0.0800 
 27 H       -2.7470    -0.4660    -0.4340 H     1 <1>   0.0800 
 28 H       -0.9940    -2.5880    -1.7840 H     1 <1>   0.0800 
 29 H       -1.1980    -2.4060    -0.0510 H     1 <1>   0.0800 
 30 H        0.4010    -2.3490    -0.7610 H     1 <1>   0.0800 
 31 H        2.0390     2.1090     0.8970 H     1 <1>   0.0800 
 32 H        3.9280     1.4780    -0.9460 H     1 <1>   0.0800 
 33 H        2.0440    -0.2400     2.3120 H     1 <1>   0.0800 
 34 H        3.1050     1.0790     2.7730 H     1 <1>   0.0800 
 35 H        4.6540     2.5500     1.7700 H     1 <1>   0.3700 
 36 H        5.6770     0.3120     0.8540 H     1 <1>   0.0800 
 37 H        4.6170    -0.6390    -0.1800 H     1 <1>   0.0800 
 38 H        6.6890     6.0550     3.5470 H     1 <1>   0.1500 
 39 H        7.6390     6.6310    -0.9960 H     1 <1>   0.0800 
 40 H        6.2870     5.7680    -1.6630 H     1 <1>   0.0800 
 41 H        6.1280     8.4700    -0.2980 H     1 <1>   0.0800 
 42 H        4.7600     7.5880    -0.9390 H     1 <1>   0.0800 
 43 H        6.0010     8.1830    -2.0180 H     1 <1>   0.0800 
@<TRIPOS>BOND
  1   1   2  2   
  2   1   3  2   
  3   1   4  am  
  4   1   5  1   
  5   4   6  1   
  6   4   7  1   
  7   5   8  1   
  8   5  23  1   
  9   5  24  1   
 10   6  25  1   
 11   6  26  1   
 12   6  27  1   
 13   7  28  1   
 14   7  29  1   
 15   7  30  1   
 16   8   9  1   
 17   8  10  1   
 18   8  31  1   
 19   9  11  1   
 20   9  12  1   
 21   9  32  1   
 22  10  13  1   
 23  10  33  1   
 24  10  34  1   
 25  11  14  am  
 26  11  35  1   
 27  12  13  1   
 28  12  36  1   
 29  12  37  1   
 30  14  15  2   
 31  14  16  1   
 32  16  17  1   
 33  16  18  2   
 34  17  19  2   
 35  18  20  1   
 36  18  21  1   
 37  19  20  1   
 38  19  38  1   
 39  21  22  1   
 40  21  39  1   
 41  21  40  1   
 42  22  41  1   
 43  22  42  1   
 44  22  43  1   
@<TRIPOS>SUBSTRUCTURE
  1 ****   9 GROUP 4 **** **** 0

# MOE 2024.06 (io_trps.svl 2023.06)
