@<TRIPOS>MOLECULE
NONAME
48 50 1 0 0 
SMALL
USER_CHARGES


@<TRIPOS>ATOM
  1 O       -0.9610    -1.3900     1.3570 O.2   1 <1>  -0.5700 
  2 C       -0.0650    -2.0650     0.9110 C.2   1 <1>   0.5690 
  3 N       -0.1060    -2.6520    -0.3240 N.am  1 <1>  -0.6600 
  4 C        1.1770    -2.2860     1.7510 C.3   1 <1>  -0.0990 
  5 C        1.0270    -3.4880    -0.7960 C.3   1 <1>   0.1400 
  6 C       -1.2840    -2.5450    -1.2250 C.3   1 <1>   0.0600 
  7 C        2.4420    -2.0970     0.8950 C.3   1 <1>  -0.0800 
  8 C        2.3670    -2.7920    -0.4850 C.3   1 <1>  -0.0800 
  9 C        3.7150    -2.6110     1.5800 C.3   1 <1>  -0.1600 
 10 C        3.5630    -3.7520    -0.5370 C.3   1 <1>  -0.1600 
 11 C        4.5710    -3.1500     0.4410 C.3   1 <1>   0.2200 
 12 N        5.6250    -4.0950     0.9220 N.am  1 <1>  -0.6600 
 13 C        6.9540    -3.7560     1.0430 C.2   1 <1>   0.5690 
 14 C        5.1950    -5.4800     1.2990 C.3   1 <1>   0.0600 
 15 O        7.7940    -4.5730     1.3350 O.2   1 <1>  -0.5700 
 16 C        7.4500    -2.3390     0.8140 C.3   1 <1>  -0.0990 
 17 C        7.8430    -2.1210    -0.6520 C.3   1 <1>  -0.0170 
 18 C        8.3080    -0.6910    -0.8680 C.ar  1 <1>  -0.1440 
 19 C        7.4720     0.2880    -1.3670 C.ar  1 <1>  -0.1500 
 20 C        9.5980    -0.2980    -0.5720 C.ar  1 <1>  -0.1500 
 21 C        7.9530     1.5760    -1.5390 C.ar  1 <1>   0.1600 
 22 C        9.9780     1.0170    -0.7810 C.ar  1 <1>   0.1600 
 23 N        9.1860     1.9640    -1.2570 N.ar  1 <1>  -0.6200 
 24 H        1.1800    -1.5960     2.5750 H     1 <1>   0.0800 
 25 H        1.1300    -3.2830     2.1450 H     1 <1>   0.0800 
 26 H        0.9730    -4.4370    -0.2910 H     1 <1>   0.0800 
 27 H        0.9450    -3.6630    -1.8550 H     1 <1>   0.0800 
 28 H       -0.9930    -2.0860    -2.1530 H     1 <1>   0.0800 
 29 H       -2.0530    -1.9420    -0.7700 H     1 <1>   0.0800 
 30 H       -1.6850    -3.5240    -1.4190 H     1 <1>   0.0800 
 31 H        2.5560    -1.0400     0.7140 H     1 <1>   0.0800 
 32 H        2.5180    -2.0350    -1.2360 H     1 <1>   0.0800 
 33 H        3.4720    -3.4050     2.2640 H     1 <1>   0.0800 
 34 H        4.2190    -1.8260     2.1150 H     1 <1>   0.0800 
 35 H        3.9730    -3.8240    -1.5290 H     1 <1>   0.0800 
 36 H        3.2440    -4.7240    -0.2100 H     1 <1>   0.0800 
 37 H        5.0230    -2.3120    -0.0590 H     1 <1>   0.0800 
 38 H        4.2460    -5.4590     1.8020 H     1 <1>   0.0800 
 39 H        5.9120    -5.9340     1.9620 H     1 <1>   0.0800 
 40 H        5.1180    -6.0870     0.4150 H     1 <1>   0.0800 
 41 H        6.7140    -1.6230     1.1240 H     1 <1>   0.0800 
 42 H        8.3160    -2.1860     1.4320 H     1 <1>   0.0800 
 43 H        7.0090    -2.3350    -1.2960 H     1 <1>   0.0800 
 44 H        8.6360    -2.8010    -0.9130 H     1 <1>   0.0800 
 45 H        6.4540     0.0640    -1.6240 H     1 <1>   0.1500 
 46 H       10.3090    -1.0030    -0.1810 H     1 <1>   0.1500 
 47 H        7.2880     2.3270    -1.9300 H     1 <1>   0.1500 
 48 H       10.9880     1.3050    -0.5440 H     1 <1>   0.1500 
@<TRIPOS>BOND
  1   1   2  2   
  2   2   3  am  
  3   2   4  1   
  4   3   5  1   
  5   3   6  1   
  6   4   7  1   
  7   4  24  1   
  8   4  25  1   
  9   5   8  1   
 10   5  26  1   
 11   5  27  1   
 12   6  28  1   
 13   6  29  1   
 14   6  30  1   
 15   7   8  1   
 16   7   9  1   
 17   7  31  1   
 18   8  10  1   
 19   8  32  1   
 20   9  11  1   
 21   9  33  1   
 22   9  34  1   
 23  10  11  1   
 24  10  35  1   
 25  10  36  1   
 26  11  12  1   
 27  11  37  1   
 28  12  13  am  
 29  12  14  1   
 30  13  15  2   
 31  13  16  1   
 32  14  38  1   
 33  14  39  1   
 34  14  40  1   
 35  16  17  1   
 36  16  41  1   
 37  16  42  1   
 38  17  18  1   
 39  17  43  1   
 40  17  44  1   
 41  18  19  ar  
 42  18  20  ar  
 43  19  21  ar  
 44  19  45  1   
 45  20  22  ar  
 46  20  46  1   
 47  21  23  ar  
 48  21  47  1   
 49  22  23  ar  
 50  22  48  1   
@<TRIPOS>SUBSTRUCTURE
  1 ****  11 GROUP 4 **** **** 0

# MOE 2024.06 (io_trps.svl 2023.06)
