@<TRIPOS>MOLECULE
NONAME
24 24 1 0 0 
SMALL
USER_CHARGES


@<TRIPOS>ATOM
  1 O        4.2000     3.0740     0.5210 O.co2 1 <1>  -0.9000 
  2 C        5.2010     2.6650    -0.0910 C.2   1 <1>   0.9060 
  3 O        6.1560     3.3670    -0.4110 O.co2 1 <1>  -0.9000 
  4 C        5.1560     1.1680    -0.4580 C.3   1 <1>   0.3170 
  5 N        3.8660     0.6090     0.0660 N.4   1 <1>  -0.8530 
  6 C        6.3550     0.3840     0.1050 C.3   1 <1>  -0.1600 
  7 C        6.4850    -1.0580    -0.4250 C.3   1 <1>  -0.0800 
  8 C        5.4970    -2.0670     0.1480 C.3   1 <1>   0.1200 
  9 C        7.8100    -1.6930    -0.0430 C.3   1 <1>  -0.1600 
 10 O        6.1130    -3.3040     0.0390 O.3   1 <1>  -0.5600 
 11 C        7.5000    -3.1850    -0.0510 C.3   1 <1>   0.1200 
 12 H        5.1690     1.1180    -1.5320 H     1 <1>   0.0800 
 13 H        4.0020     0.0120     0.8800 H     1 <1>   0.4500 
 14 H        3.2620     0.2160    -0.6540 H     1 <1>   0.4500 
 15 H        3.4210     1.4920     0.4240 H     1 <1>   0.4500 
 16 H        6.3390     0.4040     1.1810 H     1 <1>   0.0800 
 17 H        7.2410     0.9190    -0.1950 H     1 <1>   0.0800 
 18 H        6.3980    -1.0630    -1.4990 H     1 <1>   0.0800 
 19 H        4.5680    -2.0990    -0.3930 H     1 <1>   0.0800 
 20 H        5.3210    -1.8930     1.1960 H     1 <1>   0.0800 
 21 H        8.1070    -1.4060     0.9510 H     1 <1>   0.0800 
 22 H        8.6010    -1.4470    -0.7290 H     1 <1>   0.0800 
 23 H        7.9500    -3.6990     0.7810 H     1 <1>   0.0800 
 24 H        7.8080    -3.6440    -0.9750 H     1 <1>   0.0800 
@<TRIPOS>BOND
  1   1   2  ar  
  2   2   3  ar  
  3   2   4  1   
  4   4   5  1   
  5   4   6  1   
  6   4  12  1   
  7   5  13  1   
  8   5  14  1   
  9   5  15  1   
 10   6   7  1   
 11   6  16  1   
 12   6  17  1   
 13   7   8  1   
 14   7   9  1   
 15   7  18  1   
 16   8  10  1   
 17   8  19  1   
 18   8  20  1   
 19   9  11  1   
 20   9  21  1   
 21   9  22  1   
 22  10  11  1   
 23  11  23  1   
 24  11  24  1   
@<TRIPOS>SUBSTRUCTURE
  1 ****   6 GROUP 4 **** **** 0

# MOE 2024.06 (io_trps.svl 2023.06)
