@<TRIPOS>MOLECULE
NONAME
56 59 1 0 0 
SMALL
USER_CHARGES


@<TRIPOS>ATOM
  1 O       -1.0000     0.8250     0.8960 O.2   1 <1>  -0.5700 
  2 C       -2.1420     1.1920     0.7520 C.2   1 <1>   0.5690 
  3 N       -3.1520     0.2770     0.6110 N.am  1 <1>  -0.6600 
  4 C       -2.4400     2.6970     0.7160 C.3   1 <1>  -0.0190 
  5 C       -4.5960     0.5370     0.3730 C.3   1 <1>   0.1400 
  6 C       -2.8840    -1.1830     0.5900 C.3   1 <1>   0.1400 
  7 C       -2.4920     3.2160    -0.7350 C.3   1 <1>  -0.1600 
  8 C       -1.4210     3.5240     1.5280 C.3   1 <1>  -0.1600 
  9 C       -5.2720    -0.8110     0.6170 C.3   1 <1>   0.2000 
 10 C       -4.2140    -1.8330     0.1860 C.3   1 <1>  -0.0800 
 11 C       -2.7710     4.7210    -0.7920 C.3   1 <1>   0.1400 
 12 C       -1.7200     5.0220     1.4500 C.3   1 <1>   0.1400 
 13 O       -5.5090    -0.9320     1.9780 O.3   1 <1>  -0.6800 
 14 C       -4.4130    -3.2530     0.7500 C.3   1 <1>   0.0200 
 15 N       -1.7560     5.4420     0.0220 N.am  1 <1>  -0.6600 
 16 C       -3.4280    -4.2630     0.1870 C.2   1 <1>  -0.0400 
 17 C       -0.9240     6.3780    -0.5490 C.2   1 <1>   0.5770 
 18 O       -3.4210    -5.4720     0.6830 O.3   1 <1>  -0.0190 
 19 C       -2.4920    -4.2130    -0.7750 C.2   1 <1>  -0.1500 
 20 O       -1.0840     6.7410    -1.6920 O.2   1 <1>  -0.5700 
 21 C        0.2250     6.9930     0.2520 C.3   1 <1>   0.0530 
 22 N       -2.5310    -6.2300     0.1100 N.2   1 <1>  -0.4100 
 23 C       -1.9550    -5.4980    -0.7730 C.2   1 <1>   0.1080 
 24 C        1.2600     7.8430    -0.5430 C.3   1 <1>   0.0000 
 25 C        1.3940     6.0140     0.5510 C.3   1 <1>   0.0000 
 26 C       -0.8440    -5.9760    -1.6810 C.3   1 <1>  -0.0590 
 27 C        2.3490     7.2210     0.3680 C.3   1 <1>   0.0000 
 28 H       -3.4010     2.8580     1.1670 H     1 <1>   0.0800 
 29 H       -4.9900     1.2950     1.0270 H     1 <1>   0.0800 
 30 H       -4.7340     0.8320    -0.6530 H     1 <1>   0.0800 
 31 H       -2.0970    -1.4120    -0.1090 H     1 <1>   0.0800 
 32 H       -2.5820    -1.4980     1.5750 H     1 <1>   0.0800 
 33 H       -3.2540     2.6960    -1.2850 H     1 <1>   0.0800 
 34 H       -1.5510     3.0210    -1.2200 H     1 <1>   0.0800 
 35 H       -0.4260     3.3510     1.1530 H     1 <1>   0.0800 
 36 H       -1.4390     3.2080     2.5560 H     1 <1>   0.0800 
 37 H       -6.2080    -0.9170     0.0960 H     1 <1>   0.0800 
 38 H       -4.2380    -1.8880    -0.8880 H     1 <1>   0.0800 
 39 H       -3.7510     4.9340    -0.4010 H     1 <1>   0.0800 
 40 H       -2.7450     5.0500    -1.8170 H     1 <1>   0.0800 
 41 H       -0.9800     5.5680     2.0050 H     1 <1>   0.0800 
 42 H       -2.6790     5.2260     1.8970 H     1 <1>   0.0800 
 43 H       -4.6850    -0.7290     2.4650 H     1 <1>   0.4000 
 44 H       -5.4100    -3.5890     0.5240 H     1 <1>   0.0800 
 45 H       -4.3110    -3.2420     1.8210 H     1 <1>   0.0800 
 46 H       -2.1910    -3.4080    -1.4180 H     1 <1>   0.1500 
 47 H       -0.1070     7.5110     1.1360 H     1 <1>   0.0000 
 48 H        1.3790     7.5430    -1.5700 H     1 <1>   0.0000 
 49 H        1.1420     8.9040    -0.4150 H     1 <1>   0.0000 
 50 H        1.3890     5.6150     1.5500 H     1 <1>   0.0000 
 51 H        1.5230     5.2650    -0.2120 H     1 <1>   0.0000 
 52 H        0.0370    -5.3830    -1.5220 H     1 <1>   0.0800 
 53 H       -1.1500    -5.8910    -2.7070 H     1 <1>   0.0800 
 54 H       -0.6150    -7.0050    -1.4690 H     1 <1>   0.0800 
 55 H        2.4970     7.7770     1.2790 H     1 <1>   0.0000 
 56 H        3.2630     6.9810    -0.1450 H     1 <1>   0.0000 
@<TRIPOS>BOND
  1   1   2  2   
  2   2   3  am  
  3   2   4  1   
  4   3   5  1   
  5   3   6  1   
  6   4   7  1   
  7   4   8  1   
  8   4  28  1   
  9   5   9  1   
 10   5  29  1   
 11   5  30  1   
 12   6  10  1   
 13   6  31  1   
 14   6  32  1   
 15   7  11  1   
 16   7  33  1   
 17   7  34  1   
 18   8  12  1   
 19   8  35  1   
 20   8  36  1   
 21   9  10  1   
 22   9  13  1   
 23   9  37  1   
 24  10  14  1   
 25  10  38  1   
 26  11  15  1   
 27  11  39  1   
 28  11  40  1   
 29  12  15  1   
 30  12  41  1   
 31  12  42  1   
 32  13  43  1   
 33  14  16  1   
 34  14  44  1   
 35  14  45  1   
 36  15  17  am  
 37  16  18  1   
 38  16  19  2   
 39  17  20  2   
 40  17  21  1   
 41  18  22  1   
 42  19  23  1   
 43  19  46  1   
 44  21  24  1   
 45  21  25  1   
 46  21  47  1   
 47  22  23  2   
 48  23  26  1   
 49  24  27  1   
 50  24  48  1   
 51  24  49  1   
 52  25  27  1   
 53  25  50  1   
 54  25  51  1   
 55  26  52  1   
 56  26  53  1   
 57  26  54  1   
 58  27  55  1   
 59  27  56  1   
@<TRIPOS>SUBSTRUCTURE
  1 ****   2 GROUP 4 **** **** 0

# MOE 2024.06 (io_trps.svl 2023.06)
