@<TRIPOS>MOLECULE
NONAME
46 48 1 0 0 
SMALL
USER_CHARGES


@<TRIPOS>ATOM
  1 O       -0.1110     0.2050     0.0810 O.2   1 <1>  -0.5700 
  2 C       -1.1170     0.8030    -0.2590 C.2   1 <1>   0.6160 
  3 N       -2.1050     0.0990    -0.9090 N.am  1 <1>  -0.6600 
  4 C       -1.2370     2.2040     0.0210 C.2   1 <1>   0.0290 
  5 C       -3.3340     0.6740    -1.5180 C.3   1 <1>   0.1400 
  6 C       -2.3260    -1.3370    -0.6060 C.3   1 <1>   0.1400 
  7 C       -2.2230     2.5610     0.9930 C.2   1 <1>   0.6160 
  8 C       -0.4750     3.1990    -0.5560 C.2   1 <1>  -0.1380 
  9 C       -4.4590    -0.2420    -1.0440 C.3   1 <1>   0.2000 
 10 C       -3.7930    -1.6180    -0.9560 C.3   1 <1>  -0.0800 
 11 O       -2.9740     1.7620     1.5400 O.2   1 <1>  -0.5700 
 12 N       -2.3760     3.8800     1.3210 N.am  1 <1>  -0.5390 
 13 C       -0.6840     4.5440    -0.1750 C.2   1 <1>  -0.1500 
 14 C        0.6060     2.9330    -1.5970 C.3   1 <1>  -0.1020 
 15 O       -4.8810     0.1810     0.2100 O.3   1 <1>  -0.6800 
 16 C       -4.4700    -2.6210    -0.0060 C.3   1 <1>   0.0210 
 17 C       -1.6250     4.8700     0.7540 C.2   1 <1>  -0.0290 
 18 C       -3.7510    -3.9560    -0.0310 C.2   1 <1>   0.1080 
 19 C       -1.8950     6.2890     1.2080 C.3   1 <1>  -0.1020 
 20 N       -3.7490    -4.7370    -1.0660 N.2   1 <1>  -0.7070 
 21 C       -3.0140    -4.4800     1.0250 C.2   1 <1>  -0.1500 
 22 N       -3.0040    -5.7940    -0.6920 N.pl3 1 <1>   0.3000 
 23 C       -2.5450    -5.6610     0.5710 C.2   1 <1>  -0.3320 
 24 C       -1.6740    -6.6830     1.2750 C.3   1 <1>  -0.0600 
 25 H       -3.5110     1.6970    -1.2380 H     1 <1>   0.0800 
 26 H       -3.2450     0.6110    -2.5890 H     1 <1>   0.0800 
 27 H       -1.6620    -1.9540    -1.1860 H     1 <1>   0.0800 
 28 H       -2.1420    -1.5100     0.4420 H     1 <1>   0.0800 
 29 H       -5.3100    -0.2350    -1.7030 H     1 <1>   0.0800 
 30 H       -3.8010    -2.0450    -1.9440 H     1 <1>   0.0800 
 31 H       -3.0900     4.0670     2.0260 H     1 <1>   0.3700 
 32 H       -0.0780     5.3060    -0.6340 H     1 <1>   0.1500 
 33 H        0.4330     3.5360    -2.4710 H     1 <1>   0.0800 
 34 H        0.6280     1.9020    -1.9010 H     1 <1>   0.0800 
 35 H        1.5690     3.1820    -1.1900 H     1 <1>   0.0800 
 36 H       -4.1150     0.5250     0.7340 H     1 <1>   0.4000 
 37 H       -5.4900    -2.7720    -0.3100 H     1 <1>   0.0800 
 38 H       -4.4760    -2.2430     1.0000 H     1 <1>   0.0800 
 39 H       -2.9150     6.5550     0.9980 H     1 <1>   0.0800 
 40 H       -1.2490     6.9800     0.6980 H     1 <1>   0.0800 
 41 H       -1.7210     6.3760     2.2660 H     1 <1>   0.0800 
 42 H       -2.8660    -4.0170     1.9850 H     1 <1>   0.1500 
 43 H       -2.8270    -6.5860    -1.3200 H     1 <1>   0.2700 
 44 H       -1.4430    -6.3480     2.2710 H     1 <1>   0.0800 
 45 H       -0.7510    -6.8190     0.7380 H     1 <1>   0.0800 
 46 H       -2.1850    -7.6270     1.3410 H     1 <1>   0.0800 
@<TRIPOS>BOND
  1   1   2  2   
  2   2   3  am  
  3   2   4  1   
  4   3   5  1   
  5   3   6  1   
  6   4   7  1   
  7   4   8  2   
  8   5   9  1   
  9   5  25  1   
 10   5  26  1   
 11   6  10  1   
 12   6  27  1   
 13   6  28  1   
 14   7  11  2   
 15   7  12  am  
 16   8  13  1   
 17   8  14  1   
 18   9  10  1   
 19   9  15  1   
 20   9  29  1   
 21  10  16  1   
 22  10  30  1   
 23  12  17  1   
 24  12  31  1   
 25  13  17  2   
 26  13  32  1   
 27  14  33  1   
 28  14  34  1   
 29  14  35  1   
 30  15  36  1   
 31  16  18  1   
 32  16  37  1   
 33  16  38  1   
 34  17  19  1   
 35  18  20  2   
 36  18  21  1   
 37  19  39  1   
 38  19  40  1   
 39  19  41  1   
 40  20  22  1   
 41  21  23  2   
 42  21  42  1   
 43  22  23  1   
 44  22  43  1   
 45  23  24  1   
 46  24  44  1   
 47  24  45  1   
 48  24  46  1   
@<TRIPOS>SUBSTRUCTURE
  1 ****   3 GROUP 4 **** **** 0

# MOE 2024.06 (io_trps.svl 2023.06)
