@<TRIPOS>MOLECULE
NONAME
50 52 1 0 0 
SMALL
USER_CHARGES


@<TRIPOS>ATOM
  1 O       -1.2570     0.4380     0.1390 O.2   1 <1>  -0.5700 
  2 C       -0.9280     1.5830     0.3460 C.2   1 <1>   0.5690 
  3 N       -1.8410     2.6010     0.4310 N.am  1 <1>  -0.6600 
  4 C        0.5680     1.8860     0.4810 C.3   1 <1>   0.1810 
  5 C       -1.3990     4.0120     0.6790 C.3   1 <1>   0.3640 
  6 C       -3.3120     2.3560     0.4760 C.3   1 <1>   0.0600 
  7 O        0.8400     3.1090     1.1230 O.3   1 <1>  -0.5600 
  8 C       -2.1030     5.0090    -0.2590 C.ar  1 <1>  -0.1430 
  9 C        0.1320     4.2100     0.5860 C.3   1 <1>   0.2610 
 10 C       -2.2060     4.8720    -1.6480 C.ar  1 <1>  -0.1430 
 11 C       -2.6520     6.1350     0.3440 C.ar  1 <1>  -0.1500 
 12 C        0.5480     5.5310     1.2540 C.2   1 <1>   0.5690 
 13 C       -2.8530     5.8560    -2.3820 C.ar  1 <1>  -0.1500 
 14 C       -1.6570     3.6820    -2.4300 C.3   1 <1>  -0.0960 
 15 C       -3.2930     7.1080    -0.3980 C.ar  1 <1>  -0.1500 
 16 O       -0.0080     5.8620     2.2810 O.2   1 <1>  -0.5700 
 17 N        1.4980     6.3420     0.6770 N.am  1 <1>  -0.6600 
 18 C       -3.3930     6.9680    -1.7670 C.ar  1 <1>  -0.1500 
 19 C        2.3770     5.9590    -0.4570 C.3   1 <1>   0.1400 
 20 C        1.6870     7.7380     1.1440 C.3   1 <1>   0.1400 
 21 C        1.8120     6.4550    -1.7950 C.3   1 <1>  -0.1600 
 22 C        0.6710     8.6770     0.4800 C.3   1 <1>  -0.1600 
 23 C        1.5330     7.9690    -1.8650 C.3   1 <1>  -0.1600 
 24 C        0.3360     8.3940    -0.9980 C.3   1 <1>  -0.1600 
 25 H        1.0170     1.9070    -0.4950 H     1 <1>   0.0800 
 26 H        1.0330     1.1080     1.0570 H     1 <1>   0.0800 
 27 H       -1.6910     4.2370     1.6900 H     1 <1>   0.0800 
 28 H       -3.7980     2.8780    -0.3300 H     1 <1>   0.0800 
 29 H       -3.7110     2.7070     1.4110 H     1 <1>   0.0800 
 30 H       -3.5270     1.3060     0.3820 H     1 <1>   0.0800 
 31 H        0.3910     4.2730    -0.4500 H     1 <1>   0.0800 
 32 H       -2.5770     6.2710     1.4110 H     1 <1>   0.1500 
 33 H       -2.9450     5.7630    -3.4500 H     1 <1>   0.1500 
 34 H       -1.5890     3.9110    -3.4780 H     1 <1>   0.0800 
 35 H       -2.3120     2.8370    -2.3160 H     1 <1>   0.0800 
 36 H       -0.6770     3.4050    -2.0970 H     1 <1>   0.0800 
 37 H       -3.7080     7.9720     0.0900 H     1 <1>   0.1500 
 38 H       -3.8910     7.7220    -2.3510 H     1 <1>   0.1500 
 39 H        3.3560     6.3810    -0.3040 H     1 <1>   0.0800 
 40 H        2.5000     4.8900    -0.4840 H     1 <1>   0.0800 
 41 H        1.5750     7.7840     2.2140 H     1 <1>   0.0800 
 42 H        2.6850     8.0640     0.9100 H     1 <1>   0.0800 
 43 H        2.5240     6.2080    -2.5620 H     1 <1>   0.0800 
 44 H        0.9090     5.9170    -2.0230 H     1 <1>   0.0800 
 45 H       -0.2430     8.6370     1.0460 H     1 <1>   0.0800 
 46 H        1.0480     9.6800     0.5690 H     1 <1>   0.0800 
 47 H        2.4110     8.5320    -1.5990 H     1 <1>   0.0800 
 48 H        1.2980     8.2080    -2.8880 H     1 <1>   0.0800 
 49 H       -0.4220     7.6310    -1.0470 H     1 <1>   0.0800 
 50 H       -0.0980     9.2860    -1.4150 H     1 <1>   0.0800 
@<TRIPOS>BOND
  1   1   2  2   
  2   2   3  am  
  3   2   4  1   
  4   3   5  1   
  5   3   6  1   
  6   4   7  1   
  7   4  25  1   
  8   4  26  1   
  9   5   8  1   
 10   5   9  1   
 11   5  27  1   
 12   6  28  1   
 13   6  29  1   
 14   6  30  1   
 15   7   9  1   
 16   8  10  ar  
 17   8  11  ar  
 18   9  12  1   
 19   9  31  1   
 20  10  13  ar  
 21  10  14  1   
 22  11  15  ar  
 23  11  32  1   
 24  12  16  2   
 25  12  17  am  
 26  13  18  ar  
 27  13  33  1   
 28  14  34  1   
 29  14  35  1   
 30  14  36  1   
 31  15  18  ar  
 32  15  37  1   
 33  17  19  1   
 34  17  20  1   
 35  18  38  1   
 36  19  21  1   
 37  19  39  1   
 38  19  40  1   
 39  20  22  1   
 40  20  41  1   
 41  20  42  1   
 42  21  23  1   
 43  21  43  1   
 44  21  44  1   
 45  22  24  1   
 46  22  45  1   
 47  22  46  1   
 48  23  24  1   
 49  23  47  1   
 50  23  48  1   
 51  24  49  1   
 52  24  50  1   
@<TRIPOS>SUBSTRUCTURE
  1 ****   9 GROUP 4 **** **** 0

# MOE 2024.06 (io_trps.svl 2023.06)
