@<TRIPOS>MOLECULE
NONAME
24 26 1 0 0 
SMALL
USER_CHARGES


@<TRIPOS>ATOM
  1 CL       0.0880     0.0850    -0.3280 Cl    1 <1>  -0.1770 
  2 C        0.4730    -1.6040    -0.1580 C.ar  1 <1>   0.4870 
  3 N        1.7360    -1.9320    -0.1480 N.ar  1 <1>  -0.6200 
  4 C       -0.5650    -2.5250    -0.0430 C.ar  1 <1>   0.0000 
  5 C        1.9790    -3.2460    -0.0190 C.ar  1 <1>   0.4700 
  6 C       -0.1660    -3.8430     0.0800 C.ar  1 <1>   0.1050 
  7 C       -1.9810    -2.5450    -0.0120 C.2   1 <1>  -0.1810 
  8 N        1.1140    -4.2230     0.0940 N.ar  1 <1>  -0.5670 
  9 N       -1.2670    -4.6390     0.1750 N.pl3 1 <1>   0.0330 
 10 C       -2.3710    -3.8330     0.1110 C.2   1 <1>  -0.3320 
 11 C       -2.9450    -1.3760    -0.1030 C.3   1 <1>   0.0210 
 12 C       -3.8110    -4.3080     0.1760 C.3   1 <1>   0.0200 
 13 C       -4.3580    -1.8150     0.3270 C.3   1 <1>  -0.1600 
 14 C       -4.7520    -3.1780    -0.2780 C.3   1 <1>  -0.1600 
 15 H        3.0210    -3.5200    -0.0100 H     1 <1>   0.1500 
 16 H       -1.2350    -5.6570     0.2730 H     1 <1>   0.2700 
 17 H       -2.9650    -1.0230    -1.1190 H     1 <1>   0.0800 
 18 H       -2.6120    -0.5720     0.5290 H     1 <1>   0.0800 
 19 H       -4.0410    -4.5880     1.1890 H     1 <1>   0.0800 
 20 H       -3.9500    -5.1680    -0.4560 H     1 <1>   0.0800 
 21 H       -5.0690    -1.0630     0.0320 H     1 <1>   0.0800 
 22 H       -4.3850    -1.8920     1.4000 H     1 <1>   0.0800 
 23 H       -5.7630    -3.4220    -0.0020 H     1 <1>   0.0800 
 24 H       -4.7110    -3.1030    -1.3510 H     1 <1>   0.0800 
@<TRIPOS>BOND
  1   1   2  1   
  2   2   3  ar  
  3   2   4  ar  
  4   3   5  ar  
  5   4   6  ar  
  6   4   7  1   
  7   5   8  ar  
  8   5  15  1   
  9   6   8  ar  
 10   6   9  1   
 11   7  10  2   
 12   7  11  1   
 13   9  10  1   
 14   9  16  1   
 15  10  12  1   
 16  11  13  1   
 17  11  17  1   
 18  11  18  1   
 19  12  14  1   
 20  12  19  1   
 21  12  20  1   
 22  13  14  1   
 23  13  21  1   
 24  13  22  1   
 25  14  23  1   
 26  14  24  1   
@<TRIPOS>SUBSTRUCTURE
  1 ****   4 GROUP 4 **** **** 0

# MOE 2024.06 (io_trps.svl 2023.06)
