@<TRIPOS>MOLECULE
NONAME
44 46 1 0 0 
SMALL
USER_CHARGES


@<TRIPOS>ATOM
  1 S        2.4270    -1.5100     1.3570 S.3   1 <1>  -0.0800 
  2 C        1.4530    -0.9710     0.0090 C.2   1 <1>   0.1980 
  3 C        2.1040    -3.1510     0.9040 C.2   1 <1>  -0.1100 
  4 N        0.9570    -1.9220    -0.6770 N.2   1 <1>  -0.5650 
  5 C        1.3140     0.5380    -0.1850 C.3   1 <1>   0.1000 
  6 C        1.3130    -3.1910    -0.1930 C.2   1 <1>   0.1410 
  7 C        0.3030     1.1180     0.8120 C.3   1 <1>  -0.2400 
  8 C        0.8950     0.8910    -1.6190 C.3   1 <1>  -0.2400 
  9 C        0.8400    -4.4100    -0.8390 C.2   1 <1>   0.7160 
 10 O        0.5670    -4.4650    -2.0240 O.2   1 <1>  -0.5700 
 11 N        0.6810    -5.5480    -0.1000 N.am  1 <1>  -0.7300 
 12 C        0.2130    -6.8550    -0.6190 C.3   1 <1>   0.2200 
 13 C       -1.2590    -7.0830    -0.3010 C.3   1 <1>  -0.0800 
 14 C        0.8470    -7.9590     0.2150 C.3   1 <1>   0.1200 
 15 C       -1.2240    -7.6290     1.1310 C.3   1 <1>   0.1200 
 16 C       -2.1940    -5.8740    -0.4980 C.3   1 <1>  -0.0170 
 17 O        0.1040    -7.9830     1.3950 O.3   1 <1>  -0.5600 
 18 C       -3.6400    -6.2600    -0.2280 C.ar  1 <1>  -0.1430 
 19 C       -4.2640    -5.9780     0.9700 C.ar  1 <1>  -0.1500 
 20 C       -4.4030    -6.9160    -1.1730 C.ar  1 <1>  -0.1500 
 21 C       -5.5810    -6.3620     1.1630 C.ar  1 <1>   0.1600 
 22 C       -5.7140    -7.2550    -0.8800 C.ar  1 <1>   0.1600 
 23 N       -6.3200    -6.9970     0.2680 N.ar  1 <1>  -0.6200 
 24 H        2.5440    -3.9280     1.5000 H     1 <1>   0.1500 
 25 H        2.2760     0.9840     0.0000 H     1 <1>   0.0800 
 26 H       -0.6650     0.6750     0.6570 H     1 <1>   0.0800 
 27 H        0.2210     2.1830     0.6870 H     1 <1>   0.0800 
 28 H        0.6150     0.9160     1.8210 H     1 <1>   0.0800 
 29 H       -0.0700     0.4690    -1.8410 H     1 <1>   0.0800 
 30 H        1.6070     0.4880    -2.3180 H     1 <1>   0.0800 
 31 H        0.8490     1.9570    -1.7490 H     1 <1>   0.0800 
 32 H        0.7770    -5.5160     0.9160 H     1 <1>   0.3700 
 33 H        0.4360    -6.9530    -1.6690 H     1 <1>   0.0800 
 34 H       -1.6090    -7.8780    -0.9370 H     1 <1>   0.0800 
 35 H        1.8830    -7.7750     0.4380 H     1 <1>   0.0800 
 36 H        0.7380    -8.9150    -0.2670 H     1 <1>   0.0800 
 37 H       -1.8480    -8.5000     1.2400 H     1 <1>   0.0800 
 38 H       -1.5120    -6.8840     1.8520 H     1 <1>   0.0800 
 39 H       -2.1040    -5.5120    -1.5080 H     1 <1>   0.0800 
 40 H       -1.9140    -5.0680     0.1580 H     1 <1>   0.0800 
 41 H       -3.7420    -5.4640     1.7560 H     1 <1>   0.1500 
 42 H       -3.9920    -7.1650    -2.1340 H     1 <1>   0.1500 
 43 H       -6.0520    -6.1340     2.1040 H     1 <1>   0.1500 
 44 H       -6.2940    -7.7660    -1.6290 H     1 <1>   0.1500 
@<TRIPOS>BOND
  1   1   2  1   
  2   1   3  1   
  3   2   4  2   
  4   2   5  1   
  5   3   6  2   
  6   3  24  1   
  7   4   6  1   
  8   5   7  1   
  9   5   8  1   
 10   5  25  1   
 11   6   9  1   
 12   7  26  1   
 13   7  27  1   
 14   7  28  1   
 15   8  29  1   
 16   8  30  1   
 17   8  31  1   
 18   9  10  2   
 19   9  11  am  
 20  11  12  1   
 21  11  32  1   
 22  12  13  1   
 23  12  14  1   
 24  12  33  1   
 25  13  15  1   
 26  13  16  1   
 27  13  34  1   
 28  14  17  1   
 29  14  35  1   
 30  14  36  1   
 31  15  17  1   
 32  15  37  1   
 33  15  38  1   
 34  16  18  1   
 35  16  39  1   
 36  16  40  1   
 37  18  19  ar  
 38  18  20  ar  
 39  19  21  ar  
 40  19  41  1   
 41  20  22  ar  
 42  20  42  1   
 43  21  23  ar  
 44  21  43  1   
 45  22  23  ar  
 46  22  44  1   
@<TRIPOS>SUBSTRUCTURE
  1 ****  11 GROUP 4 **** **** 0

# MOE 2024.06 (io_trps.svl 2023.06)
