@<TRIPOS>MOLECULE
NONAME
44 44 1 0 0 
SMALL
USER_CHARGES


@<TRIPOS>ATOM
  1 O        2.6260     3.7440     1.6620 O.co2 1 <1>  -0.9000 
  2 C        1.4690     3.8940     2.0670 C.2   1 <1>   0.9060 
  3 O        1.1980     4.7110     2.9420 O.co2 1 <1>  -0.9000 
  4 C        0.3370     3.2460     1.3050 C.3   1 <1>  -0.2660 
  5 C        0.5220     3.1210    -0.2300 C.3   1 <1>  -0.1600 
  6 C        0.9380     4.4150    -0.9610 C.3   1 <1>   0.3430 
  7 N        2.3960     4.7170    -0.8150 N.4   1 <1>  -0.9590 
  8 C        2.8130     6.1250    -1.0990 C.3   1 <1>   0.3430 
  9 C        3.2420     3.7220    -1.5320 C.3   1 <1>   0.3430 
 10 C        1.9930     7.2160    -0.3770 C.3   1 <1>  -0.0800 
 11 C        4.6950     3.8200    -1.0760 C.3   1 <1>  -0.2400 
 12 C        2.6920     8.5800    -0.4260 C.3   1 <1>   0.3430 
 13 C        1.7830     6.9580     1.1140 C.3   1 <1>  -0.1600 
 14 N        2.9710     8.9640     0.9890 N.4   1 <1>  -0.9590 
 15 C        1.9460     8.2840     1.8150 C.3   1 <1>   0.3430 
 16 C        3.0160    10.4260     1.2460 C.3   1 <1>   0.3430 
 17 C        4.2440    11.0230     0.5710 C.3   1 <1>  -0.2400 
 18 H       -0.5490     3.8180     1.5090 H     1 <1>   0.0800 
 19 H        0.1900     2.2700     1.7280 H     1 <1>   0.0800 
 20 H       -0.4250     2.8110    -0.6350 H     1 <1>   0.0800 
 21 H        1.2120     2.3230    -0.4320 H     1 <1>   0.0800 
 22 H        0.3530     5.2240    -0.5570 H     1 <1>   0.0800 
 23 H        0.7000     4.3220    -2.0080 H     1 <1>   0.0800 
 24 H        2.5980     4.5090     0.2010 H     1 <1>   0.4500 
 25 H        2.7680     6.2980    -2.1620 H     1 <1>   0.0800 
 26 H        3.8410     6.2330    -0.7960 H     1 <1>   0.0800 
 27 H        3.1750     3.8710    -2.5970 H     1 <1>   0.0800 
 28 H        2.8980     2.7270    -1.3090 H     1 <1>   0.0800 
 29 H        1.0420     7.3190    -0.8680 H     1 <1>   0.0800 
 30 H        5.1600     4.7290    -1.4070 H     1 <1>   0.0800 
 31 H        5.2480     2.9990    -1.4950 H     1 <1>   0.0800 
 32 H        4.7550     3.7430    -0.0030 H     1 <1>   0.0800 
 33 H        2.0290     9.3030    -0.8740 H     1 <1>   0.0800 
 34 H        3.6060     8.5450    -0.9980 H     1 <1>   0.0800 
 35 H        2.5450     6.3050     1.5020 H     1 <1>   0.0800 
 36 H        0.8130     6.5420     1.3230 H     1 <1>   0.0800 
 37 H        3.8740     8.5590     1.2740 H     1 <1>   0.4500 
 38 H        2.2640     8.1510     2.8390 H     1 <1>   0.0800 
 39 H        1.0160     8.8290     1.7900 H     1 <1>   0.0800 
 40 H        3.0750    10.6060     2.3080 H     1 <1>   0.0800 
 41 H        2.1200    10.8990     0.8730 H     1 <1>   0.0800 
 42 H        5.1430    10.5540     0.9290 H     1 <1>   0.0800 
 43 H        4.3010    12.0710     0.8090 H     1 <1>   0.0800 
 44 H        4.1880    10.9340    -0.4990 H     1 <1>   0.0800 
@<TRIPOS>BOND
  1   1   2  ar  
  2   2   3  ar  
  3   2   4  1   
  4   4   5  1   
  5   4  18  1   
  6   4  19  1   
  7   5   6  1   
  8   5  20  1   
  9   5  21  1   
 10   6   7  1   
 11   6  22  1   
 12   6  23  1   
 13   7   8  1   
 14   7   9  1   
 15   7  24  1   
 16   8  10  1   
 17   8  25  1   
 18   8  26  1   
 19   9  11  1   
 20   9  27  1   
 21   9  28  1   
 22  10  12  1   
 23  10  13  1   
 24  10  29  1   
 25  11  30  1   
 26  11  31  1   
 27  11  32  1   
 28  12  14  1   
 29  12  33  1   
 30  12  34  1   
 31  13  15  1   
 32  13  35  1   
 33  13  36  1   
 34  14  15  1   
 35  14  16  1   
 36  14  37  1   
 37  15  38  1   
 38  15  39  1   
 39  16  17  1   
 40  16  40  1   
 41  16  41  1   
 42  17  42  1   
 43  17  43  1   
 44  17  44  1   
@<TRIPOS>SUBSTRUCTURE
  1 ****  13 GROUP 4 **** **** 0

# MOE 2024.06 (io_trps.svl 2023.06)
