@<TRIPOS>MOLECULE
NONAME
55 59 1 0 0 
SMALL
USER_CHARGES


@<TRIPOS>ATOM
  1 O        2.7640    -0.9760    -2.8110 O.2   1 <1>  -0.5700 
  2 C        2.1790    -1.3640    -1.8130 C.2   1 <1>   0.5440 
  3 N        1.7610    -0.3970    -0.9140 N.am  1 <1>  -0.6600 
  4 C        1.9890    -2.8050    -1.6240 C.ar  1 <1>   0.3960 
  5 C        2.0570     1.0420    -1.0920 C.3   1 <1>   0.1400 
  6 C        1.1450    -0.6450     0.4110 C.3   1 <1>   0.1400 
  7 N        0.9360    -3.2900    -0.9460 N.ar  1 <1>  -0.6200 
  8 C        2.9430    -3.6620    -2.1800 C.ar  1 <1>   0.1600 
  9 C        1.9580     1.6320     0.3090 C.3   1 <1>  -0.1600 
 10 C        0.9580     0.7360     1.0310 C.3   1 <1>  -0.1600 
 11 C        0.8950    -4.6090    -0.8580 C.ar  1 <1>   0.4100 
 12 N        2.9380    -4.9850    -2.1000 N.ar  1 <1>  -0.6200 
 13 N       -0.1880    -5.1400    -0.1600 N.pl3 1 <1>  -0.8380 
 14 C        1.8950    -5.4210    -1.4240 C.ar  1 <1>   0.1600 
 15 C       -1.3730    -4.3040     0.1960 C.3   1 <1>   0.2090 
 16 C       -0.6090    -6.5570    -0.3080 C.3   1 <1>   0.2090 
 17 C       -2.5550    -5.2710     0.2910 C.3   1 <1>   0.2000 
 18 C       -1.9440    -6.6620     0.4270 C.3   1 <1>  -0.0800 
 19 O       -3.3580    -5.0040     1.3920 O.3   1 <1>  -0.6800 
 20 C       -2.8610    -7.7720    -0.1130 C.3   1 <1>  -0.0170 
 21 C       -2.2200    -9.1430     0.0250 C.ar  1 <1>   0.1670 
 22 N       -1.3600    -9.4960    -0.8820 N.ar  1 <1>  -0.6200 
 23 C       -2.5770    -9.9520     1.1160 C.ar  1 <1>  -0.1500 
 24 C       -0.7840   -10.7200    -0.7630 C.ar  1 <1>   0.3100 
 25 C       -2.0120   -11.1830     1.2600 C.ar  1 <1>  -0.1500 
 26 C       -1.0790   -11.6030     0.2990 C.ar  1 <1>   0.0000 
 27 C        0.1460   -11.1290    -1.7330 C.ar  1 <1>  -0.1500 
 28 C       -0.4330   -12.8540     0.3490 C.ar  1 <1>  -0.1500 
 29 C        0.7630   -12.3510    -1.6660 C.ar  1 <1>  -0.1500 
 30 C        0.4690   -13.2220    -0.6120 C.ar  1 <1>  -0.1500 
 31 H        3.0360     1.1900    -1.5170 H     1 <1>   0.0800 
 32 H        1.3140     1.4730    -1.7400 H     1 <1>   0.0800 
 33 H        0.1990    -1.1480     0.3060 H     1 <1>   0.0800 
 34 H        1.8120    -1.2440     1.0070 H     1 <1>   0.0800 
 35 H        3.7610    -3.2200    -2.7230 H     1 <1>   0.1500 
 36 H        2.9220     1.5640     0.7840 H     1 <1>   0.0800 
 37 H        1.6490     2.6620     0.2870 H     1 <1>   0.0800 
 38 H       -0.0440     1.0730     0.8310 H     1 <1>   0.0800 
 39 H        1.1140     0.7190     2.0950 H     1 <1>   0.0800 
 40 H        1.8120    -6.4830    -1.3010 H     1 <1>   0.1500 
 41 H       -1.1880    -3.8170     1.1380 H     1 <1>   0.0800 
 42 H       -1.5630    -3.5660    -0.5640 H     1 <1>   0.0800 
 43 H       -0.7340    -6.7860    -1.3540 H     1 <1>   0.0800 
 44 H        0.1170    -7.2260     0.1220 H     1 <1>   0.0800 
 45 H       -3.1580    -5.1920    -0.5970 H     1 <1>   0.0800 
 46 H       -1.7180    -6.8570     1.4610 H     1 <1>   0.0800 
 47 H       -2.8280    -5.0430     2.2110 H     1 <1>   0.4000 
 48 H       -3.0780    -7.5940    -1.1520 H     1 <1>   0.0800 
 49 H       -3.7960    -7.7520     0.4180 H     1 <1>   0.0800 
 50 H       -3.2950    -9.5890     1.8280 H     1 <1>   0.1500 
 51 H       -2.2620   -11.8310     2.0810 H     1 <1>   0.1500 
 52 H        0.3580   -10.4480    -2.5360 H     1 <1>   0.1500 
 53 H       -0.6640   -13.5200     1.1620 H     1 <1>   0.1500 
 54 H        1.4740   -12.6520    -2.4160 H     1 <1>   0.1500 
 55 H        0.9610   -14.1790    -0.5710 H     1 <1>   0.1500 
@<TRIPOS>BOND
  1   1   2  2   
  2   2   3  am  
  3   2   4  1   
  4   3   5  1   
  5   3   6  1   
  6   4   7  ar  
  7   4   8  ar  
  8   5   9  1   
  9   5  31  1   
 10   5  32  1   
 11   6  10  1   
 12   6  33  1   
 13   6  34  1   
 14   7  11  ar  
 15   8  12  ar  
 16   8  35  1   
 17   9  10  1   
 18   9  36  1   
 19   9  37  1   
 20  10  38  1   
 21  10  39  1   
 22  11  13  1   
 23  11  14  ar  
 24  12  14  ar  
 25  13  15  1   
 26  13  16  1   
 27  14  40  1   
 28  15  17  1   
 29  15  41  1   
 30  15  42  1   
 31  16  18  1   
 32  16  43  1   
 33  16  44  1   
 34  17  18  1   
 35  17  19  1   
 36  17  45  1   
 37  18  20  1   
 38  18  46  1   
 39  19  47  1   
 40  20  21  1   
 41  20  48  1   
 42  20  49  1   
 43  21  22  ar  
 44  21  23  ar  
 45  22  24  ar  
 46  23  25  ar  
 47  23  50  1   
 48  24  26  ar  
 49  24  27  ar  
 50  25  26  ar  
 51  25  51  1   
 52  26  28  ar  
 53  27  29  ar  
 54  27  52  1   
 55  28  30  ar  
 56  28  53  1   
 57  29  30  ar  
 58  29  54  1   
 59  30  55  1   
@<TRIPOS>SUBSTRUCTURE
  1 ****  13 GROUP 4 **** **** 0

# MOE 2024.06 (io_trps.svl 2023.06)
