@<TRIPOS>MOLECULE
NONAME
49 51 1 0 0 
SMALL
USER_CHARGES


@<TRIPOS>ATOM
  1 O       -0.1070     0.4370    -0.2850 O.3   1 <1>  -0.5600 
  2 C        0.6090     1.3710    -1.0360 C.3   1 <1>   0.2640 
  3 C       -1.0820    -0.2590    -0.9780 C.3   1 <1>   0.1200 
  4 C        1.5970     2.0610    -0.1130 C.ar  1 <1>  -0.1440 
  5 C       -1.7220    -1.2290     0.0230 C.3   1 <1>   0.3430 
  6 C        2.8110     1.4600     0.1850 C.ar  1 <1>  -0.1500 
  7 C        1.2970     3.2970     0.4410 C.ar  1 <1>  -0.1500 
  8 N       -2.8000    -2.0790    -0.5930 N.4   1 <1>  -0.9590 
  9 C        3.7160     2.0890     1.0220 C.ar  1 <1>  -0.1500 
 10 C        2.2010     3.9260     1.2780 C.ar  1 <1>  -0.1500 
 11 C       -4.1660    -1.6150    -0.2100 C.3   1 <1>   0.4230 
 12 C       -2.5790    -3.5080    -0.1980 C.3   1 <1>   0.2630 
 13 C        3.4120     3.3230     1.5680 C.ar  1 <1>  -0.1500 
 14 C       -5.2610    -2.4560    -0.8650 C.3   1 <1>  -0.1600 
 15 C       -4.4580    -0.1980    -0.6990 C.3   1 <1>  -0.1600 
 16 C       -6.4990    -1.5520    -0.8950 C.3   1 <1>  -0.0800 
 17 C       -5.9860    -0.1090    -0.7740 C.3   1 <1>  -0.0800 
 18 C       -7.4580    -1.7730     0.2850 C.3   1 <1>  -0.1600 
 19 C       -6.6380     0.4770     0.4880 C.3   1 <1>  -0.1600 
 20 C       -7.8810    -0.3720     0.6980 C.3   1 <1>   0.2000 
 21 O       -8.2610    -0.3540     2.0200 O.3   1 <1>  -0.6800 
 22 H        1.1310     0.8600    -1.8280 H     1 <1>   0.0800 
 23 H       -0.0780     2.0860    -1.4560 H     1 <1>   0.0800 
 24 H       -1.7990     0.4490    -1.3550 H     1 <1>   0.0800 
 25 H       -0.6100    -0.7950    -1.7840 H     1 <1>   0.0800 
 26 H       -2.1250    -0.6640     0.8470 H     1 <1>   0.0800 
 27 H       -0.9380    -1.8600     0.4070 H     1 <1>   0.0800 
 28 H        3.0550     0.4990    -0.2310 H     1 <1>   0.1500 
 29 H        0.3580     3.7750     0.2260 H     1 <1>   0.1500 
 30 H       -2.7300    -2.0150    -1.6170 H     1 <1>   0.4500 
 31 H        4.6560     1.6170     1.2490 H     1 <1>   0.1500 
 32 H        1.9630     4.8840     1.7050 H     1 <1>   0.1500 
 33 H       -4.2920    -1.6490     0.8610 H     1 <1>   0.0800 
 34 H       -2.6810    -3.6220     0.8690 H     1 <1>   0.0800 
 35 H       -1.5890    -3.8260    -0.4840 H     1 <1>   0.0800 
 36 H       -3.2950    -4.1500    -0.6830 H     1 <1>   0.0800 
 37 H        4.1160     3.8120     2.2190 H     1 <1>   0.1500 
 38 H       -4.9890    -2.6870    -1.8800 H     1 <1>   0.0800 
 39 H       -5.4510    -3.3690    -0.3290 H     1 <1>   0.0800 
 40 H       -4.0480     0.5540    -0.0480 H     1 <1>   0.0800 
 41 H       -4.0710    -0.0660    -1.6930 H     1 <1>   0.0800 
 42 H       -7.0390    -1.6760    -1.8210 H     1 <1>   0.0800 
 43 H       -6.2950     0.4670    -1.6320 H     1 <1>   0.0800 
 44 H       -6.9510    -2.2540     1.1030 H     1 <1>   0.0800 
 45 H       -8.3100    -2.3620    -0.0060 H     1 <1>   0.0800 
 46 H       -6.8970     1.5130     0.3530 H     1 <1>   0.0800 
 47 H       -5.9830     0.3780     1.3360 H     1 <1>   0.0800 
 48 H       -8.7010    -0.0190     0.0930 H     1 <1>   0.0800 
 49 H       -7.5390    -0.6630     2.5960 H     1 <1>   0.4000 
@<TRIPOS>BOND
  1   1   2  1   
  2   1   3  1   
  3   2   4  1   
  4   2  22  1   
  5   2  23  1   
  6   3   5  1   
  7   3  24  1   
  8   3  25  1   
  9   4   6  ar  
 10   4   7  ar  
 11   5   8  1   
 12   5  26  1   
 13   5  27  1   
 14   6   9  ar  
 15   6  28  1   
 16   7  10  ar  
 17   7  29  1   
 18   8  11  1   
 19   8  12  1   
 20   8  30  1   
 21   9  13  ar  
 22   9  31  1   
 23  10  13  ar  
 24  10  32  1   
 25  11  14  1   
 26  11  15  1   
 27  11  33  1   
 28  12  34  1   
 29  12  35  1   
 30  12  36  1   
 31  13  37  1   
 32  14  16  1   
 33  14  38  1   
 34  14  39  1   
 35  15  17  1   
 36  15  40  1   
 37  15  41  1   
 38  16  17  1   
 39  16  18  1   
 40  16  42  1   
 41  17  19  1   
 42  17  43  1   
 43  18  20  1   
 44  18  44  1   
 45  18  45  1   
 46  19  20  1   
 47  19  46  1   
 48  19  47  1   
 49  20  21  1   
 50  20  48  1   
 51  21  49  1   
@<TRIPOS>SUBSTRUCTURE
  1 ****   5 GROUP 4 **** **** 0

# MOE 2024.06 (io_trps.svl 2023.06)
