@<TRIPOS>MOLECULE
NONAME
52 54 1 0 0 
SMALL
USER_CHARGES


@<TRIPOS>ATOM
  1 S       -2.0930    -2.5770     0.5690 S.3   1 <1>  -0.0800 
  2 C       -2.4190    -2.2860    -1.1080 C.2   1 <1>   0.4420 
  3 C       -1.9030    -0.8680     0.7560 C.2   1 <1>   0.1980 
  4 N       -2.3710    -1.0380    -1.4020 N.2   1 <1>  -0.3380 
  5 N       -2.6800    -3.3900    -1.8850 N.am  1 <1>  -0.4940 
  6 N       -2.0760    -0.2360    -0.3340 N.2   1 <1>  -0.3380 
  7 C       -1.5660    -0.3530     2.1460 C.3   1 <1>   0.0200 
  8 C       -3.0110    -3.5030    -3.2020 C.2   1 <1>   0.5690 
  9 C       -1.4250     1.1760     2.1970 C.3   1 <1>  -0.1600 
 10 O       -3.1430    -2.5750    -3.9590 O.2   1 <1>  -0.5700 
 11 C       -3.2240    -4.9280    -3.7150 C.3   1 <1>   0.1710 
 12 C       -1.0860     1.6680     3.6090 C.3   1 <1>  -0.2400 
 13 N       -3.5130    -5.9060    -2.6210 N.3   1 <1>  -0.8100 
 14 C       -3.2100    -7.2800    -3.0480 C.3   1 <1>   0.1100 
 15 C       -4.9080    -5.7820    -2.1590 C.3   1 <1>   0.1100 
 16 C       -3.3750    -8.2330    -1.8630 C.3   1 <1>  -0.1600 
 17 C       -5.1270    -6.6810    -0.9420 C.3   1 <1>  -0.1600 
 18 C       -4.7870    -8.1360    -1.2830 C.3   1 <1>   0.2000 
 19 O       -4.8210    -8.9160    -0.1080 O.3   1 <1>  -0.3630 
 20 C       -5.9770    -9.3110     0.4880 C.ar  1 <1>   0.0820 
 21 C       -5.8560    -9.9050     1.7340 C.ar  1 <1>  -0.1500 
 22 C       -7.2410    -9.1550    -0.0740 C.ar  1 <1>  -0.1500 
 23 C       -6.9750   -10.3380     2.4270 C.ar  1 <1>  -0.1440 
 24 C       -8.3610    -9.5880     0.6140 C.ar  1 <1>  -0.1500 
 25 C       -8.2280   -10.1770     1.8600 C.ar  1 <1>  -0.1500 
 26 C       -6.8340   -10.9870     3.7920 C.3   1 <1>  -0.0970 
 27 H       -2.6810    -4.3000    -1.4180 H     1 <1>   0.3700 
 28 H       -0.6440    -0.8060     2.4630 H     1 <1>   0.0800 
 29 H       -2.3420    -0.6620     2.8220 H     1 <1>   0.0800 
 30 H       -2.3470     1.6300     1.8730 H     1 <1>   0.0800 
 31 H       -0.6500     1.4860     1.5150 H     1 <1>   0.0800 
 32 H       -2.3190    -5.2120    -4.2230 H     1 <1>   0.0800 
 33 H       -4.0210    -4.9270    -4.4370 H     1 <1>   0.0800 
 34 H       -1.8610     1.3920     4.3020 H     1 <1>   0.0800 
 35 H       -0.9940     2.7400     3.6100 H     1 <1>   0.0800 
 36 H       -0.1530     1.2470     3.9420 H     1 <1>   0.0800 
 37 H       -2.1930    -7.3350    -3.3990 H     1 <1>   0.0800 
 38 H       -3.8650    -7.5710    -3.8530 H     1 <1>   0.0800 
 39 H       -5.5840    -6.0630    -2.9500 H     1 <1>   0.0800 
 40 H       -5.1200    -4.7620    -1.8840 H     1 <1>   0.0800 
 41 H       -2.6530    -7.9770    -1.1080 H     1 <1>   0.0800 
 42 H       -3.1900    -9.2410    -2.1860 H     1 <1>   0.0800 
 43 H       -6.1510    -6.6040    -0.6280 H     1 <1>   0.0800 
 44 H       -4.4990    -6.3410    -0.1390 H     1 <1>   0.0800 
 45 H       -5.4820    -8.5440    -1.9950 H     1 <1>   0.0800 
 46 H       -4.8740   -10.0240     2.1540 H     1 <1>   0.1500 
 47 H       -7.3770    -8.7070    -1.0380 H     1 <1>   0.1500 
 48 H       -9.3390    -9.4690     0.1820 H     1 <1>   0.1500 
 49 H       -9.1050   -10.5100     2.3870 H     1 <1>   0.1500 
 50 H       -5.8800   -10.7520     4.2280 H     1 <1>   0.0800 
 51 H       -6.9180   -12.0550     3.6970 H     1 <1>   0.0800 
 52 H       -7.6060   -10.6340     4.4520 H     1 <1>   0.0800 
@<TRIPOS>BOND
  1   1   2  1   
  2   1   3  1   
  3   2   4  2   
  4   2   5  1   
  5   3   6  2   
  6   3   7  1   
  7   4   6  1   
  8   5   8  am  
  9   5  27  1   
 10   7   9  1   
 11   7  28  1   
 12   7  29  1   
 13   8  10  2   
 14   8  11  1   
 15   9  12  1   
 16   9  30  1   
 17   9  31  1   
 18  11  13  1   
 19  11  32  1   
 20  11  33  1   
 21  12  34  1   
 22  12  35  1   
 23  12  36  1   
 24  13  14  1   
 25  13  15  1   
 26  14  16  1   
 27  14  37  1   
 28  14  38  1   
 29  15  17  1   
 30  15  39  1   
 31  15  40  1   
 32  16  18  1   
 33  16  41  1   
 34  16  42  1   
 35  17  18  1   
 36  17  43  1   
 37  17  44  1   
 38  18  19  1   
 39  18  45  1   
 40  19  20  1   
 41  20  21  ar  
 42  20  22  ar  
 43  21  23  ar  
 44  21  46  1   
 45  22  24  ar  
 46  22  47  1   
 47  23  25  ar  
 48  23  26  1   
 49  24  25  ar  
 50  24  48  1   
 51  25  49  1   
 52  26  50  1   
 53  26  51  1   
 54  26  52  1   
@<TRIPOS>SUBSTRUCTURE
  1 ****  17 GROUP 4 **** **** 0

# MOE 2024.06 (io_trps.svl 2023.06)
