@<TRIPOS>MOLECULE
NONAME
51 54 1 0 0 
SMALL
USER_CHARGES


@<TRIPOS>ATOM
  1 O        2.0840     1.9540     0.8990 O.3   1 <1>  -0.0190 
  2 N        2.7310     0.8280     0.8700 N.2   1 <1>  -0.4100 
  3 C        1.0580     1.9490     0.0910 C.2   1 <1>  -0.0400 
  4 C        2.0990     0.0750     0.0430 C.2   1 <1>   0.1080 
  5 C        1.0040     0.7450    -0.4970 C.2   1 <1>  -0.1500 
  6 C        0.1900     3.1870    -0.0350 C.3   1 <1>   0.0200 
  7 C        2.4990    -1.3450    -0.2920 C.3   1 <1>  -0.0590 
  8 C        0.9820     4.3480    -0.6670 C.3   1 <1>  -0.0800 
  9 C        0.1920     5.6420    -0.8510 C.3   1 <1>   0.2000 
 10 C        2.2100     4.7650     0.1530 C.3   1 <1>   0.3430 
 11 O       -0.5370     5.8900     0.3180 O.3   1 <1>  -0.5600 
 12 C        1.3060     6.6840    -0.9660 C.3   1 <1>   0.3430 
 13 N        2.3630     6.2440     0.0010 N.4   1 <1>  -0.9590 
 14 C       -1.6910     6.6550     0.1440 C.3   1 <1>   0.0400 
 15 C        2.1940     6.9130     1.3220 C.3   1 <1>   0.4860 
 16 C        2.3860     8.4060     1.1390 C.ar  1 <1>  -0.1440 
 17 C        3.6260     8.9140     0.7850 C.ar  1 <1>  -0.1500 
 18 C        1.3190     9.2730     1.3160 C.ar  1 <1>  -0.1500 
 19 C        3.8300    10.2770     0.5790 C.ar  1 <1>   0.0530 
 20 C        1.4980    10.6310     1.1260 C.ar  1 <1>  -0.1500 
 21 C        5.1260    10.7850     0.1880 C.2   1 <1>   0.0870 
 22 C        2.7370    11.1230     0.7590 C.ar  1 <1>  -0.1500 
 23 O        6.0780     9.9470    -0.2050 O.3   1 <1>  -0.2800 
 24 C        5.6140    12.0540     0.1300 C.2   1 <1>  -0.1500 
 25 C        7.1530    10.6420    -0.5100 C.2   1 <1>  -0.0100 
 26 C        6.9310    11.9590    -0.3240 C.2   1 <1>  -0.1500 
 27 H        0.3070     0.3520    -1.2150 H     1 <1>   0.1500 
 28 H       -0.6640     2.9570    -0.6470 H     1 <1>   0.0800 
 29 H       -0.1700     3.4540     0.9440 H     1 <1>   0.0800 
 30 H        1.6990    -2.0170    -0.0450 H     1 <1>   0.0800 
 31 H        3.3720    -1.6230     0.2700 H     1 <1>   0.0800 
 32 H        2.7200    -1.4260    -1.3400 H     1 <1>   0.0800 
 33 H        1.3330     4.0270    -1.6320 H     1 <1>   0.0800 
 34 H       -0.4650     5.6130    -1.7050 H     1 <1>   0.0800 
 35 H        3.0870     4.2410    -0.1930 H     1 <1>   0.0800 
 36 H        2.0480     4.5140     1.1890 H     1 <1>   0.0800 
 37 H        0.9420     7.6770    -0.7570 H     1 <1>   0.0800 
 38 H        1.7050     6.6610    -1.9660 H     1 <1>   0.0800 
 39 H        3.2920     6.4950    -0.3590 H     1 <1>   0.4500 
 40 H       -2.1520     6.7950     1.1070 H     1 <1>   0.0800 
 41 H       -2.3740     6.1300    -0.5030 H     1 <1>   0.0800 
 42 H       -1.4340     7.6130    -0.2750 H     1 <1>   0.0800 
 43 H        1.2100     6.7140     1.7150 H     1 <1>   0.0800 
 44 H        2.9240     6.5420     2.0230 H     1 <1>   0.0800 
 45 H        4.4670     8.2540     0.6650 H     1 <1>   0.1500 
 46 H        0.3480     8.9050     1.6030 H     1 <1>   0.1500 
 47 H        0.6730    11.3090     1.2640 H     1 <1>   0.1500 
 48 H        2.8570    12.1810     0.6110 H     1 <1>   0.1500 
 49 H        5.1140    12.9720     0.3790 H     1 <1>   0.1500 
 50 H        8.0330    10.1250    -0.8500 H     1 <1>   0.1500 
 51 H        7.6040    12.7840    -0.4810 H     1 <1>   0.1500 
@<TRIPOS>BOND
  1   1   2  1   
  2   1   3  1   
  3   2   4  2   
  4   3   5  2   
  5   3   6  1   
  6   4   5  1   
  7   4   7  1   
  8   5  27  1   
  9   6   8  1   
 10   6  28  1   
 11   6  29  1   
 12   7  30  1   
 13   7  31  1   
 14   7  32  1   
 15   8   9  1   
 16   8  10  1   
 17   8  33  1   
 18   9  11  1   
 19   9  12  1   
 20   9  34  1   
 21  10  13  1   
 22  10  35  1   
 23  10  36  1   
 24  11  14  1   
 25  12  13  1   
 26  12  37  1   
 27  12  38  1   
 28  13  15  1   
 29  13  39  1   
 30  14  40  1   
 31  14  41  1   
 32  14  42  1   
 33  15  16  1   
 34  15  43  1   
 35  15  44  1   
 36  16  17  ar  
 37  16  18  ar  
 38  17  19  ar  
 39  17  45  1   
 40  18  20  ar  
 41  18  46  1   
 42  19  21  1   
 43  19  22  ar  
 44  20  22  ar  
 45  20  47  1   
 46  21  23  1   
 47  21  24  2   
 48  22  48  1   
 49  23  25  1   
 50  24  26  1   
 51  24  49  1   
 52  25  26  2   
 53  25  50  1   
 54  26  51  1   
@<TRIPOS>SUBSTRUCTURE
  1 ****  13 GROUP 4 **** **** 0

# MOE 2024.06 (io_trps.svl 2023.06)
