@<TRIPOS>MOLECULE
NONAME
50 52 1 0 0 
SMALL
USER_CHARGES


@<TRIPOS>ATOM
  1 S        0.4830     0.5700    -1.3120 S.o2  1 <1>   1.3330 
  2 O       -0.3380     1.5170    -2.0320 O.2   1 <1>  -0.6500 
  3 O        0.6970    -0.7530    -1.8560 O.2   1 <1>  -0.6500 
  4 N       -0.1940     0.3920     0.2370 N.am  1 <1>  -0.8490 
  5 C        2.0890     1.3070    -0.9940 C.3   1 <1>  -0.0550 
  6 C       -1.1550    -0.7140     0.2960 C.3   1 <1>   0.1160 
  7 C       -0.8230     1.6190     0.7400 C.3   1 <1>   0.1160 
  8 C        3.0850     0.3690    -0.2780 C.3   1 <1>  -0.0800 
  9 C        4.5060     0.9010    -0.1770 C.3   1 <1>   0.2200 
 10 C        2.7420     0.0370     1.1810 C.3   1 <1>   0.1200 
 11 N        4.5100     2.3330     0.2060 N.am  1 <1>  -0.7300 
 12 C        5.0220     0.0860     1.0000 C.3   1 <1>   0.1200 
 13 O        3.9490     0.0390     1.8890 O.3   1 <1>  -0.5600 
 14 C        4.8300     3.3710    -0.6150 C.2   1 <1>   0.7160 
 15 O        4.9940     3.1360    -1.7960 O.2   1 <1>  -0.5700 
 16 C        4.9510     4.7060    -0.0760 C.2   1 <1>  -0.0860 
 17 C        5.6680     5.8010    -0.4640 C.2   1 <1>  -0.3320 
 18 C        4.2760     5.1570     1.0590 C.2   1 <1>   0.1390 
 19 N        5.4250     6.8180     0.4130 N.pl3 1 <1>   0.5930 
 20 C        6.6000     5.9270    -1.6670 C.3   1 <1>  -0.0600 
 21 N        4.5360     6.3840     1.3560 N.2   1 <1>  -0.7070 
 22 C        5.9280     8.1680     0.4070 C.ar  1 <1>   0.2870 
 23 N        7.2030     8.3960     0.0590 N.ar  1 <1>  -0.6200 
 24 C        5.0670     9.2040     0.7710 C.ar  1 <1>  -0.1500 
 25 C        7.6070     9.6540     0.0770 C.ar  1 <1>   0.1600 
 26 C        5.5010    10.5100     0.7820 C.ar  1 <1>  -0.1500 
 27 C        6.8130    10.7320     0.4230 C.ar  1 <1>  -0.1500 
 28 H        2.5190     1.5880    -1.9360 H     1 <1>   0.0800 
 29 H        1.9590     2.2050    -0.4240 H     1 <1>   0.0800 
 30 H       -1.5590    -0.8070     1.2890 H     1 <1>   0.0800 
 31 H       -0.6680    -1.6410     0.0440 H     1 <1>   0.0800 
 32 H       -1.9610    -0.5470    -0.4010 H     1 <1>   0.0800 
 33 H       -1.1510     1.4760     1.7550 H     1 <1>   0.0800 
 34 H       -1.6720     1.8840     0.1310 H     1 <1>   0.0800 
 35 H       -0.1190     2.4330     0.7220 H     1 <1>   0.0800 
 36 H        3.1220    -0.5610    -0.8200 H     1 <1>   0.0800 
 37 H        5.0810     0.7370    -1.0740 H     1 <1>   0.0800 
 38 H        2.2820    -0.9320     1.2720 H     1 <1>   0.0800 
 39 H        2.1050     0.7830     1.6260 H     1 <1>   0.0800 
 40 H        4.4420     2.4860     1.2140 H     1 <1>   0.3700 
 41 H        5.8760     0.5310     1.4790 H     1 <1>   0.0800 
 42 H        5.2500    -0.9220     0.7000 H     1 <1>   0.0800 
 43 H        3.5970     4.5510     1.6350 H     1 <1>   0.1500 
 44 H        6.5680     5.0470    -2.2820 H     1 <1>   0.0800 
 45 H        7.6140     6.0670    -1.3360 H     1 <1>   0.0800 
 46 H        6.3160     6.7700    -2.2710 H     1 <1>   0.0800 
 47 H        4.0530     8.9760     1.0480 H     1 <1>   0.1500 
 48 H        8.6310     9.8390    -0.1990 H     1 <1>   0.1500 
 49 H        4.8480    11.3200     1.0610 H     1 <1>   0.1500 
 50 H        7.2160    11.7280     0.4130 H     1 <1>   0.1500 
@<TRIPOS>BOND
  1   1   2  2   
  2   1   3  2   
  3   1   4  am  
  4   1   5  1   
  5   4   6  1   
  6   4   7  1   
  7   5   8  1   
  8   5  28  1   
  9   5  29  1   
 10   6  30  1   
 11   6  31  1   
 12   6  32  1   
 13   7  33  1   
 14   7  34  1   
 15   7  35  1   
 16   8   9  1   
 17   8  10  1   
 18   8  36  1   
 19   9  11  1   
 20   9  12  1   
 21   9  37  1   
 22  10  13  1   
 23  10  38  1   
 24  10  39  1   
 25  11  14  am  
 26  11  40  1   
 27  12  13  1   
 28  12  41  1   
 29  12  42  1   
 30  14  15  2   
 31  14  16  1   
 32  16  17  2   
 33  16  18  1   
 34  17  19  1   
 35  17  20  1   
 36  18  21  2   
 37  18  43  1   
 38  19  21  1   
 39  19  22  1   
 40  20  44  1   
 41  20  45  1   
 42  20  46  1   
 43  22  23  ar  
 44  22  24  ar  
 45  23  25  ar  
 46  24  26  ar  
 47  24  47  1   
 48  25  27  ar  
 49  25  48  1   
 50  26  27  ar  
 51  26  49  1   
 52  27  50  1   
@<TRIPOS>SUBSTRUCTURE
  1 ****  14 GROUP 4 **** **** 0

# MOE 2024.06 (io_trps.svl 2023.06)
