@<TRIPOS>MOLECULE
NONAME
46 48 1 0 0 
SMALL
USER_CHARGES


@<TRIPOS>ATOM
  1 F       -0.6530    -0.5670    -1.1260 F     1 <1>  -0.1900 
  2 C       -1.7870    -1.0810    -0.6930 C.ar  1 <1>   0.1900 
  3 C       -2.8260    -0.2810    -0.2260 C.ar  1 <1>   0.4100 
  4 C       -1.9390    -2.4380    -0.6920 C.ar  1 <1>   0.1600 
  5 N       -3.9330    -0.8500     0.2120 N.ar  1 <1>  -0.6200 
  6 N       -2.7790     1.1130    -0.1890 N.pl3 1 <1>  -0.8380 
  7 N       -3.0450    -3.0080    -0.2610 N.ar  1 <1>  -0.6200 
  8 C       -3.9970    -2.1790     0.1720 C.ar  1 <1>   0.7200 
  9 C       -2.3130     1.8910    -1.3680 C.3   1 <1>   0.1290 
 10 C       -3.6190     1.8700     0.7800 C.3   1 <1>   0.1290 
 11 N       -5.1660    -2.7580     0.6280 N.pl3 1 <1>  -0.8380 
 12 C       -6.4340    -1.9910     0.7670 C.3   1 <1>   0.2090 
 13 C       -5.2190    -4.1480     1.1540 C.3   1 <1>   0.2090 
 14 C       -7.5690    -2.7550     0.0810 C.3   1 <1>  -0.1600 
 15 C       -6.3470    -4.9180     0.4630 C.3   1 <1>  -0.1600 
 16 C       -7.7020    -4.1970     0.6000 C.3   1 <1>  -0.0800 
 17 C       -8.8270    -4.9220    -0.1620 C.3   1 <1>  -0.1600 
 18 C       -9.1210    -6.3260     0.3880 C.3   1 <1>   0.0960 
 19 N      -10.2780    -6.9250    -0.3040 N.pl3 1 <1>   0.3140 
 20 N      -10.1300    -7.7380    -1.3650 N.2   1 <1>  -0.7070 
 21 C      -11.5790    -6.7580     0.0060 C.2   1 <1>  -0.3020 
 22 C      -11.3390    -8.0670    -1.7040 C.2   1 <1>   0.1390 
 23 C      -12.2930    -7.4830    -0.8800 C.2   1 <1>  -0.1500 
 24 H       -1.1440    -3.0670    -1.0480 H     1 <1>   0.1500 
 25 H       -2.1390     1.2400    -2.2060 H     1 <1>   0.0800 
 26 H       -1.3970     2.4010    -1.1240 H     1 <1>   0.0800 
 27 H       -3.0570     2.6150    -1.6500 H     1 <1>   0.0800 
 28 H       -3.7440     1.3000     1.6850 H     1 <1>   0.0800 
 29 H       -4.5880     2.0580     0.3510 H     1 <1>   0.0800 
 30 H       -3.1470     2.8050     1.0250 H     1 <1>   0.0800 
 31 H       -6.3520    -1.0170     0.3170 H     1 <1>   0.0800 
 32 H       -6.6510    -1.8610     1.8130 H     1 <1>   0.0800 
 33 H       -5.4010    -4.1090     2.2140 H     1 <1>   0.0800 
 34 H       -4.2870    -4.6640     1.0020 H     1 <1>   0.0800 
 35 H       -7.3750    -2.7640    -0.9780 H     1 <1>   0.0800 
 36 H       -8.4890    -2.2220     0.2400 H     1 <1>   0.0800 
 37 H       -6.3950    -5.8990     0.8960 H     1 <1>   0.0800 
 38 H       -6.0910    -5.0280    -0.5770 H     1 <1>   0.0800 
 39 H       -7.9630    -4.1540     1.6450 H     1 <1>   0.0800 
 40 H       -8.5610    -5.0040    -1.2030 H     1 <1>   0.0800 
 41 H       -9.7250    -4.3330    -0.0940 H     1 <1>   0.0800 
 42 H       -9.3400    -6.2810     1.4380 H     1 <1>   0.0800 
 43 H       -8.2780    -6.9750     0.2370 H     1 <1>   0.0800 
 44 H      -11.9180    -6.1460     0.8220 H     1 <1>   0.1500 
 45 H      -11.5650    -8.7190    -2.5310 H     1 <1>   0.1500 
 46 H      -13.3590    -7.6030    -0.9590 H     1 <1>   0.1500 
@<TRIPOS>BOND
  1   1   2  1   
  2   2   3  ar  
  3   2   4  ar  
  4   3   5  ar  
  5   3   6  1   
  6   4   7  ar  
  7   4  24  1   
  8   5   8  ar  
  9   6   9  1   
 10   6  10  1   
 11   7   8  ar  
 12   8  11  1   
 13   9  25  1   
 14   9  26  1   
 15   9  27  1   
 16  10  28  1   
 17  10  29  1   
 18  10  30  1   
 19  11  12  1   
 20  11  13  1   
 21  12  14  1   
 22  12  31  1   
 23  12  32  1   
 24  13  15  1   
 25  13  33  1   
 26  13  34  1   
 27  14  16  1   
 28  14  35  1   
 29  14  36  1   
 30  15  16  1   
 31  15  37  1   
 32  15  38  1   
 33  16  17  1   
 34  16  39  1   
 35  17  18  1   
 36  17  40  1   
 37  17  41  1   
 38  18  19  1   
 39  18  42  1   
 40  18  43  1   
 41  19  20  1   
 42  19  21  1   
 43  20  22  2   
 44  21  23  2   
 45  21  44  1   
 46  22  23  1   
 47  22  45  1   
 48  23  46  1   
@<TRIPOS>SUBSTRUCTURE
  1 ****  11 GROUP 4 **** **** 0

# MOE 2024.06 (io_trps.svl 2023.06)
