@<TRIPOS>MOLECULE
NONAME
54 58 1 0 0 
SMALL
USER_CHARGES


@<TRIPOS>ATOM
  1 N       -1.7720     1.4530    -0.1060 N.2   1 <1>  -0.5760 
  2 C       -0.9580     1.9820    -0.9640 C.2   1 <1>   0.3750 
  3 C       -1.6870     1.9310     1.1870 C.2   1 <1>  -0.0260 
  4 C       -0.0280     3.0070    -0.6260 C.2   1 <1>  -0.1360 
  5 C       -0.9940     1.4980    -2.3960 C.3   1 <1>  -0.1790 
  6 N       -0.8160     2.9250     1.5800 N.pl3 1 <1>   0.6010 
  7 C       -2.3790     1.5750     2.3020 C.2   1 <1>  -0.1810 
  8 C        0.0450     3.4830     0.6450 C.2   1 <1>  -0.1690 
  9 N       -0.9600     3.2010     2.8950 N.2   1 <1>  -0.7070 
 10 C       -1.8880     2.3870     3.3090 C.2   1 <1>   0.1390 
 11 C       -3.4470     0.5130     2.4210 C.3   1 <1>   0.5240 
 12 C        1.0040     4.5760     1.0990 C.3   1 <1>  -0.1020 
 13 N       -4.2110     0.5210     1.1560 N.4   1 <1>  -0.9590 
 14 C       -5.1580     1.6820     1.0900 C.3   1 <1>   0.3430 
 15 C       -4.8700    -0.7760     0.8580 C.3   1 <1>   0.3430 
 16 C       -5.8250     1.8010    -0.2910 C.3   1 <1>   0.1430 
 17 C       -5.4880    -0.7230    -0.5430 C.3   1 <1>  -0.1600 
 18 C       -6.8830     2.8760    -0.2220 C.ar  1 <1>   0.1670 
 19 C       -6.4650     0.4560    -0.7000 C.3   1 <1>  -0.1600 
 20 C       -4.8680     2.3500    -1.3820 C.3   1 <1>  -0.1600 
 21 N       -7.7700     2.9860     0.7400 N.ar  1 <1>  -0.6200 
 22 C       -6.8040     3.7350    -1.2750 C.ar  1 <1>  -0.1430 
 23 C       -5.6780     3.3670    -2.2090 C.3   1 <1>  -0.0170 
 24 C       -8.6030     4.0090     0.5900 C.ar  1 <1>   0.4770 
 25 C       -7.7140     4.7610    -1.3270 C.ar  1 <1>   0.1600 
 26 N       -8.6250     4.9050    -0.3870 N.ar  1 <1>  -0.6200 
 27 C       -9.6510     4.1830     1.6630 C.3   1 <1>  -0.0970 
 28 H        0.6080     3.3850    -1.4070 H     1 <1>   0.1500 
 29 H       -0.0260     1.1220    -2.6770 H     1 <1>   0.0800 
 30 H       -1.2590     2.3080    -3.0500 H     1 <1>   0.0800 
 31 H       -1.7140     0.7080    -2.5120 H     1 <1>   0.0800 
 32 H       -2.2160     2.3720     4.3380 H     1 <1>   0.1500 
 33 H       -4.0960     0.7110     3.2580 H     1 <1>   0.0800 
 34 H       -2.9710    -0.4440     2.5620 H     1 <1>   0.0800 
 35 H        0.4520     5.4110     1.4930 H     1 <1>   0.0800 
 36 H        1.6120     4.9200     0.2810 H     1 <1>   0.0800 
 37 H        1.6500     4.2000     1.8730 H     1 <1>   0.0800 
 38 H       -3.4760     0.6940     0.4400 H     1 <1>   0.4500 
 39 H       -4.6370     2.6010     1.3050 H     1 <1>   0.0800 
 40 H       -5.9320     1.5590     1.8300 H     1 <1>   0.0800 
 41 H       -5.6430    -0.9690     1.5840 H     1 <1>   0.0800 
 42 H       -4.1500    -1.5780     0.9020 H     1 <1>   0.0800 
 43 H       -6.0150    -1.6440    -0.7250 H     1 <1>   0.0800 
 44 H       -4.7010    -0.6590    -1.2740 H     1 <1>   0.0800 
 45 H       -6.8200     0.5090    -1.7160 H     1 <1>   0.0800 
 46 H       -7.3240     0.2770    -0.0740 H     1 <1>   0.0800 
 47 H       -4.4510     1.5800    -2.0070 H     1 <1>   0.0800 
 48 H       -4.0580     2.8820    -0.9140 H     1 <1>   0.0800 
 49 H       -6.0810     2.9070    -3.0960 H     1 <1>   0.0800 
 50 H       -5.0860     4.2240    -2.4790 H     1 <1>   0.0800 
 51 H       -7.6990     5.4700    -2.1380 H     1 <1>   0.1500 
 52 H       -9.8000     3.2620     2.1950 H     1 <1>   0.0800 
 53 H      -10.5820     4.4810     1.2170 H     1 <1>   0.0800 
 54 H       -9.3320     4.9420     2.3510 H     1 <1>   0.0800 
@<TRIPOS>BOND
  1   1   2  2   
  2   1   3  1   
  3   2   4  1   
  4   2   5  1   
  5   3   6  1   
  6   3   7  2   
  7   4   8  2   
  8   4  28  1   
  9   5  29  1   
 10   5  30  1   
 11   5  31  1   
 12   6   8  1   
 13   6   9  1   
 14   7  10  1   
 15   7  11  1   
 16   8  12  1   
 17   9  10  2   
 18  10  32  1   
 19  11  13  1   
 20  11  33  1   
 21  11  34  1   
 22  12  35  1   
 23  12  36  1   
 24  12  37  1   
 25  13  14  1   
 26  13  15  1   
 27  13  38  1   
 28  14  16  1   
 29  14  39  1   
 30  14  40  1   
 31  15  17  1   
 32  15  41  1   
 33  15  42  1   
 34  16  18  1   
 35  16  19  1   
 36  16  20  1   
 37  17  19  1   
 38  17  43  1   
 39  17  44  1   
 40  18  21  ar  
 41  18  22  ar  
 42  19  45  1   
 43  19  46  1   
 44  20  23  1   
 45  20  47  1   
 46  20  48  1   
 47  21  24  ar  
 48  22  23  1   
 49  22  25  ar  
 50  23  49  1   
 51  23  50  1   
 52  24  26  ar  
 53  24  27  1   
 54  25  26  ar  
 55  25  51  1   
 56  27  52  1   
 57  27  53  1   
 58  27  54  1   
@<TRIPOS>SUBSTRUCTURE
  1 ****  14 GROUP 4 **** **** 0

# MOE 2024.06 (io_trps.svl 2023.06)
