@<TRIPOS>MOLECULE
NONAME
42 44 1 0 0 
SMALL
USER_CHARGES


@<TRIPOS>ATOM
  1 CL      -1.8400    -2.9930     1.8720 Cl    1 <1>  -0.1770 
  2 C       -2.1170    -1.4220     1.1630 C.ar  1 <1>   0.1770 
  3 C       -3.4080    -0.9130     1.1020 C.ar  1 <1>  -0.1440 
  4 C       -1.0330    -0.7180     0.6750 C.ar  1 <1>  -0.1500 
  5 C       -3.6160     0.3430     0.5400 C.ar  1 <1>  -0.1500 
  6 C       -4.5660    -1.7250     1.6510 C.3   1 <1>   0.4870 
  7 C       -1.2730     0.5210     0.1180 C.ar  1 <1>   0.1900 
  8 C       -2.5420     1.0660     0.0410 C.ar  1 <1>  -0.1500 
  9 N       -5.0200    -2.6870     0.6180 N.4   1 <1>  -0.9590 
 10 F       -0.2670     1.2030    -0.3540 F     1 <1>  -0.1900 
 11 C       -5.5500    -2.0910    -0.6440 C.3   1 <1>   0.3430 
 12 C       -5.9870    -3.7150     1.0620 C.3   1 <1>   0.3430 
 13 C       -6.5640    -3.1010    -1.1990 C.3   1 <1>   0.2000 
 14 C       -6.5660    -4.2910    -0.2300 C.3   1 <1>  -0.0800 
 15 O       -7.8280    -2.5220    -1.2070 O.3   1 <1>  -0.6800 
 16 C       -5.7540    -5.4950    -0.7630 C.3   1 <1>   0.0210 
 17 C       -4.2380    -5.3580    -0.7060 C.2   1 <1>   0.1080 
 18 N       -3.5700    -4.3530    -1.1900 N.2   1 <1>  -0.7070 
 19 C       -3.4020    -6.3110    -0.1350 C.2   1 <1>  -0.1500 
 20 N       -2.2720    -4.6690    -0.9780 N.pl3 1 <1>   0.3000 
 21 C       -2.1520    -5.8390    -0.3210 C.2   1 <1>  -0.3320 
 22 C       -0.8240    -6.4520     0.0850 C.3   1 <1>  -0.0600 
 23 H       -0.0350    -1.1130     0.7280 H     1 <1>   0.1500 
 24 H       -4.6030     0.7730     0.4850 H     1 <1>   0.1500 
 25 H       -5.3750    -1.0700     1.9290 H     1 <1>   0.0800 
 26 H       -4.2420    -2.2570     2.5310 H     1 <1>   0.0800 
 27 H       -2.6790     2.0390    -0.3990 H     1 <1>   0.1500 
 28 H       -4.1900    -3.2290     0.2870 H     1 <1>   0.4500 
 29 H       -6.0370    -1.1490    -0.4580 H     1 <1>   0.0800 
 30 H       -4.7450    -1.9510    -1.3470 H     1 <1>   0.0800 
 31 H       -5.5070    -4.4770     1.6560 H     1 <1>   0.0800 
 32 H       -6.7730    -3.2520     1.6370 H     1 <1>   0.0800 
 33 H       -6.3230    -3.3790    -2.2110 H     1 <1>   0.0800 
 34 H       -7.5720    -4.6370    -0.0630 H     1 <1>   0.0800 
 35 H       -8.2200    -2.4370    -0.3170 H     1 <1>   0.4000 
 36 H       -6.0370    -5.6970    -1.7820 H     1 <1>   0.0800 
 37 H       -6.0260    -6.3650    -0.1920 H     1 <1>   0.0800 
 38 H       -3.7020    -7.2300     0.3380 H     1 <1>   0.1500 
 39 H       -1.4900    -4.0800    -1.2960 H     1 <1>   0.2700 
 40 H       -0.9860    -7.3880     0.5900 H     1 <1>   0.0800 
 41 H       -0.2950    -5.7940     0.7510 H     1 <1>   0.0800 
 42 H       -0.2160    -6.6360    -0.7840 H     1 <1>   0.0800 
@<TRIPOS>BOND
  1   1   2  1   
  2   2   3  ar  
  3   2   4  ar  
  4   3   5  ar  
  5   3   6  1   
  6   4   7  ar  
  7   4  23  1   
  8   5   8  ar  
  9   5  24  1   
 10   6   9  1   
 11   6  25  1   
 12   6  26  1   
 13   7   8  ar  
 14   7  10  1   
 15   8  27  1   
 16   9  11  1   
 17   9  12  1   
 18   9  28  1   
 19  11  13  1   
 20  11  29  1   
 21  11  30  1   
 22  12  14  1   
 23  12  31  1   
 24  12  32  1   
 25  13  14  1   
 26  13  15  1   
 27  13  33  1   
 28  14  16  1   
 29  14  34  1   
 30  15  35  1   
 31  16  17  1   
 32  16  36  1   
 33  16  37  1   
 34  17  18  2   
 35  17  19  1   
 36  18  20  1   
 37  19  21  2   
 38  19  38  1   
 39  20  21  1   
 40  20  39  1   
 41  21  22  1   
 42  22  40  1   
 43  22  41  1   
 44  22  42  1   
@<TRIPOS>SUBSTRUCTURE
  1 ****   9 GROUP 4 **** **** 0

# MOE 2024.06 (io_trps.svl 2023.06)
