@<TRIPOS>MOLECULE
NONAME
52 54 1 0 0 
SMALL
USER_CHARGES


@<TRIPOS>ATOM
  1 O       -1.4190     0.7290    -1.5010 O.2   1 <1>  -0.5700 
  2 C       -1.5540     1.5490    -0.6030 C.2   1 <1>   0.7160 
  3 N       -2.4900     1.2480     0.3770 N.am  1 <1>  -0.6600 
  4 C       -0.7440     2.7690    -0.6230 C.2   1 <1>   0.2030 
  5 C       -2.9320    -0.1610     0.5710 C.3   1 <1>   0.1400 
  6 C       -3.1000     2.2880     1.2540 C.3   1 <1>   0.1400 
  7 N       -0.5560     3.6380     0.3600 N.2   1 <1>  -0.7070 
  8 C       -0.0140     3.1740    -1.7500 C.2   1 <1>  -0.1500 
  9 C       -4.1370    -0.4860    -0.3250 C.3   1 <1>   0.1400 
 10 C       -4.5970     2.0670     1.5160 C.3   1 <1>  -0.1600 
 11 N        0.2740     4.5700    -0.1320 N.pl3 1 <1>   0.3000 
 12 C        0.6140     4.3140    -1.4060 C.2   1 <1>  -0.3020 
 13 N       -5.4110     0.1400     0.1690 N.am  1 <1>  -0.6600 
 14 C       -5.3830     1.6330     0.2740 C.3   1 <1>   0.1400 
 15 C       -6.5480    -0.5540     0.5030 C.2   1 <1>   0.5690 
 16 O       -7.5200    -0.0090     0.9770 O.2   1 <1>  -0.5700 
 17 C       -6.6680    -2.0740     0.2820 C.3   1 <1>   0.4040 
 18 N       -8.1010    -2.5640     0.2090 N.4   1 <1>  -0.9590 
 19 C       -8.2800    -4.0340     0.3690 C.3   1 <1>   0.4230 
 20 C       -8.7580    -2.0290    -1.0220 C.3   1 <1>   0.3430 
 21 C       -9.7790    -4.3650     0.3990 C.3   1 <1>  -0.1600 
 22 C       -7.6240    -4.5170     1.6630 C.3   1 <1>  -0.2400 
 23 C      -10.2550    -2.3340    -0.9960 C.3   1 <1>  -0.1600 
 24 C      -10.5190    -3.8330    -0.8340 C.3   1 <1>  -0.1600 
 25 H       -3.1660    -0.3420     1.6060 H     1 <1>   0.0800 
 26 H       -2.1190    -0.8160     0.3070 H     1 <1>   0.0800 
 27 H       -2.9970     3.2480     0.7790 H     1 <1>   0.0800 
 28 H       -2.5630     2.3260     2.1860 H     1 <1>   0.0800 
 29 H        0.0130     2.6450    -2.6880 H     1 <1>   0.1500 
 30 H       -4.2330    -1.5540    -0.3650 H     1 <1>   0.0800 
 31 H       -3.9320    -0.1430    -1.3250 H     1 <1>   0.0800 
 32 H       -4.9980     3.0040     1.8580 H     1 <1>   0.0800 
 33 H       -4.7410     1.3630     2.3150 H     1 <1>   0.0800 
 34 H        0.5970     5.3710     0.4260 H     1 <1>   0.2700 
 35 H        1.2710     4.9410    -1.9810 H     1 <1>   0.1500 
 36 H       -4.9500     2.0590    -0.6160 H     1 <1>   0.0800 
 37 H       -6.3890     2.0110     0.3520 H     1 <1>   0.0800 
 38 H       -6.1620    -2.5450     1.1040 H     1 <1>   0.0800 
 39 H       -6.1530    -2.3360    -0.6250 H     1 <1>   0.0800 
 40 H       -8.5820    -2.1000     0.9960 H     1 <1>   0.4500 
 41 H       -7.8310    -4.5440    -0.4690 H     1 <1>   0.0800 
 42 H       -8.3170    -2.4770    -1.8970 H     1 <1>   0.0800 
 43 H       -8.6200    -0.9600    -1.0800 H     1 <1>   0.0800 
 44 H      -10.2230    -3.9520     1.2890 H     1 <1>   0.0800 
 45 H       -9.9060    -5.4330     0.4440 H     1 <1>   0.0800 
 46 H       -7.9660    -3.9450     2.5080 H     1 <1>   0.0800 
 47 H       -6.5530    -4.4750     1.6010 H     1 <1>   0.0800 
 48 H       -7.8840    -5.5470     1.8340 H     1 <1>   0.0800 
 49 H      -10.7000    -1.9890    -1.9140 H     1 <1>   0.0800 
 50 H      -10.7160    -1.7860    -0.1910 H     1 <1>   0.0800 
 51 H      -11.5780    -4.0090    -0.7290 H     1 <1>   0.0800 
 52 H      -10.1850    -4.3580    -1.7130 H     1 <1>   0.0800 
@<TRIPOS>BOND
  1   1   2  2   
  2   2   3  am  
  3   2   4  1   
  4   3   5  1   
  5   3   6  1   
  6   4   7  2   
  7   4   8  1   
  8   5   9  1   
  9   5  25  1   
 10   5  26  1   
 11   6  10  1   
 12   6  27  1   
 13   6  28  1   
 14   7  11  1   
 15   8  12  2   
 16   8  29  1   
 17   9  13  1   
 18   9  30  1   
 19   9  31  1   
 20  10  14  1   
 21  10  32  1   
 22  10  33  1   
 23  11  12  1   
 24  11  34  1   
 25  12  35  1   
 26  13  14  1   
 27  13  15  am  
 28  14  36  1   
 29  14  37  1   
 30  15  16  2   
 31  15  17  1   
 32  17  18  1   
 33  17  38  1   
 34  17  39  1   
 35  18  19  1   
 36  18  20  1   
 37  18  40  1   
 38  19  21  1   
 39  19  22  1   
 40  19  41  1   
 41  20  23  1   
 42  20  42  1   
 43  20  43  1   
 44  21  24  1   
 45  21  44  1   
 46  21  45  1   
 47  22  46  1   
 48  22  47  1   
 49  22  48  1   
 50  23  24  1   
 51  23  49  1   
 52  23  50  1   
 53  24  51  1   
 54  24  52  1   
@<TRIPOS>SUBSTRUCTURE
  1 ****  13 GROUP 4 **** **** 0

# MOE 2024.06 (io_trps.svl 2023.06)
