@<TRIPOS>MOLECULE
NONAME
45 46 1 0 0 
SMALL
USER_CHARGES


@<TRIPOS>ATOM
  1 O       -1.4010     0.5440    -2.2200 O.2   1 <1>  -0.5700 
  2 C       -1.6930     1.0610    -1.1560 C.2   1 <1>   0.5440 
  3 N       -2.1150     0.2470    -0.1200 N.am  1 <1>  -0.6600 
  4 C       -1.6130     2.4990    -1.0170 C.ar  1 <1>   0.0860 
  5 C       -2.0060    -1.2370    -0.2090 C.3   1 <1>   0.1400 
  6 C       -2.9880     0.7670     0.9780 C.3   1 <1>   0.1400 
  7 C       -0.8690     3.1010     0.0140 C.ar  1 <1>   0.1000 
  8 C       -2.2760     3.3260    -1.9250 C.ar  1 <1>  -0.1500 
  9 C       -3.3850    -1.8500    -0.5240 C.3   1 <1>  -0.0800 
 10 C       -4.0340    -0.2720     1.4020 C.3   1 <1>  -0.1600 
 11 N       -0.1540     2.3370     0.9270 N.pl3 1 <1>  -0.8690 
 12 C       -0.8460     4.4880     0.1190 C.ar  1 <1>  -0.1500 
 13 C       -2.2360     4.7010    -1.8140 C.ar  1 <1>  -0.1500 
 14 C       -4.5220    -1.0720     0.1910 C.3   1 <1>   0.2000 
 15 C       -3.3800    -3.3620    -0.2320 C.3   1 <1>   0.1200 
 16 C        1.3140     2.4750     0.9880 C.3   1 <1>   0.2090 
 17 C       -1.5200     5.2860    -0.7830 C.ar  1 <1>  -0.1500 
 18 O       -5.5330    -1.9130     0.6220 O.3   1 <1>  -0.6800 
 19 O       -2.3060    -3.9670    -0.8640 O.3   1 <1>  -0.6800 
 20 C        1.9400     1.2550     0.3120 C.3   1 <1>  -0.1600 
 21 C        3.4710     1.3250     0.3290 C.3   1 <1>  -0.2400 
 22 H       -1.2940    -1.5200    -0.9660 H     1 <1>   0.0800 
 23 H       -1.6410    -1.6120     0.7310 H     1 <1>   0.0800 
 24 H       -2.3830     1.0440     1.8250 H     1 <1>   0.0800 
 25 H       -3.4980     1.6510     0.6320 H     1 <1>   0.0800 
 26 H       -2.8260     2.8690    -2.7300 H     1 <1>   0.1500 
 27 H       -3.5500    -1.7270    -1.5790 H     1 <1>   0.0800 
 28 H       -4.8590     0.2390     1.8660 H     1 <1>   0.0800 
 29 H       -3.5940    -0.9330     2.1270 H     1 <1>   0.0800 
 30 H       -0.4100     1.3390     0.8940 H     1 <1>   0.4000 
 31 H       -0.2920     4.9370     0.9230 H     1 <1>   0.1500 
 32 H       -2.7570     5.3190    -2.5250 H     1 <1>   0.1500 
 33 H       -4.9650    -0.3890    -0.5160 H     1 <1>   0.0800 
 34 H       -4.2840    -3.8270    -0.5900 H     1 <1>   0.0800 
 35 H       -3.2820    -3.5470     0.8240 H     1 <1>   0.0800 
 36 H        1.6250     3.3750     0.4830 H     1 <1>   0.0800 
 37 H        1.6230     2.5330     2.0170 H     1 <1>   0.0800 
 38 H       -1.4890     6.3570    -0.6880 H     1 <1>   0.1500 
 39 H       -5.2490    -2.4040     1.4150 H     1 <1>   0.4000 
 40 H       -2.3680    -3.8500    -1.8330 H     1 <1>   0.4000 
 41 H        1.6230     0.3620     0.8220 H     1 <1>   0.0800 
 42 H        1.6010     1.2040    -0.7090 H     1 <1>   0.0800 
 43 H        3.8370     1.3590     1.3400 H     1 <1>   0.0800 
 44 H        3.8120     2.2000    -0.1960 H     1 <1>   0.0800 
 45 H        3.8820     0.4560    -0.1550 H     1 <1>   0.0800 
@<TRIPOS>BOND
  1   1   2  2   
  2   2   3  am  
  3   2   4  1   
  4   3   5  1   
  5   3   6  1   
  6   4   7  ar  
  7   4   8  ar  
  8   5   9  1   
  9   5  22  1   
 10   5  23  1   
 11   6  10  1   
 12   6  24  1   
 13   6  25  1   
 14   7  11  1   
 15   7  12  ar  
 16   8  13  ar  
 17   8  26  1   
 18   9  14  1   
 19   9  15  1   
 20   9  27  1   
 21  10  14  1   
 22  10  28  1   
 23  10  29  1   
 24  11  16  1   
 25  11  30  1   
 26  12  17  ar  
 27  12  31  1   
 28  13  17  ar  
 29  13  32  1   
 30  14  18  1   
 31  14  33  1   
 32  15  19  1   
 33  15  34  1   
 34  15  35  1   
 35  16  20  1   
 36  16  36  1   
 37  16  37  1   
 38  17  38  1   
 39  18  39  1   
 40  19  40  1   
 41  20  21  1   
 42  20  41  1   
 43  20  42  1   
 44  21  43  1   
 45  21  44  1   
 46  21  45  1   
@<TRIPOS>SUBSTRUCTURE
  1 ****   3 GROUP 4 **** **** 0

# MOE 2024.06 (io_trps.svl 2023.06)
