@<TRIPOS>MOLECULE
NONAME
56 60 1 0 0 
SMALL
USER_CHARGES


@<TRIPOS>ATOM
  1 O       -2.6510     1.7580     2.1850 O.2   1 <1>  -0.5700 
  2 C       -2.5960     1.7250     0.9780 C.2   1 <1>   0.5690 
  3 N       -3.6540     1.2470     0.2440 N.am  1 <1>  -0.6600 
  4 C       -1.2750     2.2040     0.3570 C.3   1 <1>   0.0610 
  5 C       -4.9730     0.9710     0.9100 C.3   1 <1>   0.1400 
  6 C       -3.5930     0.6280    -1.1240 C.3   1 <1>   0.1400 
  7 C       -0.6430     3.3140     1.2430 C.3   1 <1>   0.4230 
  8 C       -1.3950     2.9820    -0.9870 C.3   1 <1>  -0.1600 
  9 C       -0.3510     0.9510     0.2610 C.3   1 <1>  -0.0170 
 10 C       -5.2550    -0.5380     0.9840 C.3   1 <1>   0.2090 
 11 C       -3.8870    -0.8810    -1.0690 C.3   1 <1>   0.2090 
 12 N        0.2760     3.9640     0.2990 N.4   1 <1>  -0.9060 
 13 C       -1.5870     4.5050     1.5020 C.3   1 <1>  -0.1600 
 14 C       -0.7100     4.3290    -0.7080 C.3   1 <1>   0.4230 
 15 C        1.1130     1.2490    -0.0470 C.ar  1 <1>  -0.1440 
 16 N       -5.1780    -1.1630    -0.3710 N.pl3 1 <1>  -0.8380 
 17 C       -1.6460     5.1970     0.1320 C.3   1 <1>  -0.1600 
 18 C        2.0070     1.4490     0.9950 C.ar  1 <1>  -0.1500 
 19 C        1.5640     1.3450    -1.3550 C.ar  1 <1>  -0.1500 
 20 C       -5.7260    -2.4310    -0.5050 C.ar  1 <1>   0.4100 
 21 C        3.3240     1.7830     0.7330 C.ar  1 <1>  -0.1500 
 22 C        2.8800     1.6800    -1.6180 C.ar  1 <1>  -0.1500 
 23 N       -4.8760    -3.4330    -0.7000 N.ar  1 <1>  -0.6200 
 24 C       -7.1150    -2.6320    -0.4230 C.ar  1 <1>   0.1600 
 25 C        3.7590     1.9060    -0.5740 C.ar  1 <1>  -0.1500 
 26 C       -5.4850    -4.6030    -0.7950 C.ar  1 <1>   0.1600 
 27 N       -7.7250    -3.8000    -0.5140 N.ar  1 <1>  -0.6200 
 28 C       -6.8590    -4.7840    -0.7040 C.ar  1 <1>   0.1600 
 29 H       -4.9940     1.3820     1.9040 H     1 <1>   0.0800 
 30 H       -5.7580     1.4450     0.3480 H     1 <1>   0.0800 
 31 H       -4.3280     1.0980    -1.7550 H     1 <1>   0.0800 
 32 H       -2.6330     0.7670    -1.5780 H     1 <1>   0.0800 
 33 H       -0.1710     2.9340     2.1360 H     1 <1>   0.0800 
 34 H       -2.4170     3.1480    -1.2780 H     1 <1>   0.0800 
 35 H       -0.9020     2.4790    -1.7970 H     1 <1>   0.0800 
 36 H       -0.3910     0.4180     1.1970 H     1 <1>   0.0800 
 37 H       -0.7290     0.2710    -0.4820 H     1 <1>   0.0800 
 38 H       -6.2320    -0.6970     1.4060 H     1 <1>   0.0800 
 39 H       -4.5330    -1.0040     1.6340 H     1 <1>   0.0800 
 40 H       -3.0880    -1.3860    -0.5540 H     1 <1>   0.0800 
 41 H       -3.9350    -1.2740    -2.0710 H     1 <1>   0.0800 
 42 H        0.7370     4.7790     0.7130 H     1 <1>   0.4500 
 43 H        0.9790     3.2890    -0.0490 H     1 <1>   0.4500 
 44 H       -2.5640     4.2200     1.8500 H     1 <1>   0.0800 
 45 H       -1.1550     5.1580     2.2410 H     1 <1>   0.0800 
 46 H       -0.3060     4.8200    -1.5800 H     1 <1>   0.0800 
 47 H       -1.2750     6.2060     0.1900 H     1 <1>   0.0800 
 48 H       -2.6450     5.2220    -0.2710 H     1 <1>   0.0800 
 49 H        1.6930     1.3420     2.0210 H     1 <1>   0.1500 
 50 H        0.9050     1.1510    -2.1840 H     1 <1>   0.1500 
 51 H        4.0170     1.9380     1.5440 H     1 <1>   0.1500 
 52 H        3.2280     1.7540    -2.6350 H     1 <1>   0.1500 
 53 H       -7.7270    -1.7630    -0.2790 H     1 <1>   0.1500 
 54 H        4.7850     2.1620    -0.7790 H     1 <1>   0.1500 
 55 H       -4.8630    -5.4660    -0.9520 H     1 <1>   0.1500 
 56 H       -7.2590    -5.7780    -0.7920 H     1 <1>   0.1500 
@<TRIPOS>BOND
  1   1   2  2   
  2   2   3  am  
  3   2   4  1   
  4   3   5  1   
  5   3   6  1   
  6   4   7  1   
  7   4   8  1   
  8   4   9  1   
  9   5  10  1   
 10   5  29  1   
 11   5  30  1   
 12   6  11  1   
 13   6  31  1   
 14   6  32  1   
 15   7  12  1   
 16   7  13  1   
 17   7  33  1   
 18   8  14  1   
 19   8  34  1   
 20   8  35  1   
 21   9  15  1   
 22   9  36  1   
 23   9  37  1   
 24  10  16  1   
 25  10  38  1   
 26  10  39  1   
 27  11  16  1   
 28  11  40  1   
 29  11  41  1   
 30  12  14  1   
 31  12  42  1   
 32  12  43  1   
 33  13  17  1   
 34  13  44  1   
 35  13  45  1   
 36  14  17  1   
 37  14  46  1   
 38  15  18  ar  
 39  15  19  ar  
 40  16  20  1   
 41  17  47  1   
 42  17  48  1   
 43  18  21  ar  
 44  18  49  1   
 45  19  22  ar  
 46  19  50  1   
 47  20  23  ar  
 48  20  24  ar  
 49  21  25  ar  
 50  21  51  1   
 51  22  25  ar  
 52  22  52  1   
 53  23  26  ar  
 54  24  27  ar  
 55  24  53  1   
 56  25  54  1   
 57  26  28  ar  
 58  26  55  1   
 59  27  28  ar  
 60  28  56  1   
@<TRIPOS>SUBSTRUCTURE
  1 ****   2 GROUP 4 **** **** 0

# MOE 2024.06 (io_trps.svl 2023.06)
