@<TRIPOS>MOLECULE
NONAME
43 47 1 0 0 
SMALL
USER_CHARGES


@<TRIPOS>ATOM
  1 S       -0.5210    -0.1880    -1.6710 S.3   1 <1>  -0.0800 
  2 C       -1.3150     0.9260    -0.5680 C.2   1 <1>  -0.1400 
  3 C       -1.9420    -1.2240    -1.6990 C.2   1 <1>  -0.1100 
  4 C       -2.5560     0.5090    -0.2860 C.2   1 <1>  -0.1810 
  5 C       -0.6380     2.1840    -0.0350 C.3   1 <1>   0.4600 
  6 C       -2.9200    -0.7200    -0.9220 C.2   1 <1>  -0.1500 
  7 C       -3.4290     1.3300     0.6360 C.3   1 <1>   0.0210 
  8 O       -1.4770     2.7580     0.9500 O.3   1 <1>  -0.5600 
  9 C       -0.3950     3.2090    -1.1510 C.3   1 <1>  -0.1600 
 10 C        0.6760     1.8360     0.6730 C.3   1 <1>  -0.1600 
 11 C       -2.8670     2.7630     0.7180 C.3   1 <1>   0.1200 
 12 C        0.3380     4.4430    -0.6290 C.3   1 <1>   0.2090 
 13 C        1.3830     3.0930     1.1750 C.3   1 <1>   0.2090 
 14 N        1.6010     4.0080     0.0250 N.pl3 1 <1>  -0.8380 
 15 C        2.7190     4.8270    -0.0010 C.ar  1 <1>   0.4100 
 16 N        2.5310     6.1120    -0.1240 N.ar  1 <1>  -0.6200 
 17 C        4.0220     4.2590     0.1060 C.ar  1 <1>   0.1600 
 18 C        3.6700     6.8470    -0.1170 C.ar  1 <1>   0.3100 
 19 N        5.1340     4.9230     0.1200 N.ar  1 <1>  -0.6200 
 20 C        4.9590     6.2670     0.0070 C.ar  1 <1>   0.3100 
 21 C        3.5750     8.2430    -0.2350 C.ar  1 <1>  -0.1500 
 22 C        6.0820     7.1060     0.0080 C.ar  1 <1>  -0.1500 
 23 C        4.6900     9.0410    -0.2310 C.ar  1 <1>  -0.1500 
 24 C        5.9580     8.4670    -0.1080 C.ar  1 <1>  -0.1500 
 25 H       -1.8930    -2.1130    -2.3020 H     1 <1>   0.1500 
 26 H       -3.8880    -1.1640    -0.7670 H     1 <1>   0.1500 
 27 H       -3.4430     0.8860     1.6150 H     1 <1>   0.0800 
 28 H       -4.4350     1.3640     0.2610 H     1 <1>   0.0800 
 29 H       -1.3220     3.4940    -1.6070 H     1 <1>   0.0800 
 30 H        0.2110     2.7590    -1.9160 H     1 <1>   0.0800 
 31 H        1.3310     1.3250    -0.0070 H     1 <1>   0.0800 
 32 H        0.4720     1.1740     1.4940 H     1 <1>   0.0800 
 33 H       -3.3320     3.2980     1.5270 H     1 <1>   0.0800 
 34 H       -3.0570     3.2930    -0.1990 H     1 <1>   0.0800 
 35 H       -0.2710     4.9700     0.0860 H     1 <1>   0.0800 
 36 H        0.5560     5.1080    -1.4480 H     1 <1>   0.0800 
 37 H        2.3190     2.8290     1.6360 H     1 <1>   0.0800 
 38 H        0.7740     3.5890     1.9120 H     1 <1>   0.0800 
 39 H        4.0660     3.1890     0.1720 H     1 <1>   0.1500 
 40 H        2.5920     8.6670    -0.3280 H     1 <1>   0.1500 
 41 H        7.0480     6.6440     0.1030 H     1 <1>   0.1500 
 42 H        4.6020    10.1110    -0.3220 H     1 <1>   0.1500 
 43 H        6.8280     9.1020    -0.1060 H     1 <1>   0.1500 
@<TRIPOS>BOND
  1   1   2  1   
  2   1   3  1   
  3   2   4  2   
  4   2   5  1   
  5   3   6  2   
  6   3  25  1   
  7   4   6  1   
  8   4   7  1   
  9   5   8  1   
 10   5   9  1   
 11   5  10  1   
 12   6  26  1   
 13   7  11  1   
 14   7  27  1   
 15   7  28  1   
 16   8  11  1   
 17   9  12  1   
 18   9  29  1   
 19   9  30  1   
 20  10  13  1   
 21  10  31  1   
 22  10  32  1   
 23  11  33  1   
 24  11  34  1   
 25  12  14  1   
 26  12  35  1   
 27  12  36  1   
 28  13  14  1   
 29  13  37  1   
 30  13  38  1   
 31  14  15  1   
 32  15  16  ar  
 33  15  17  ar  
 34  16  18  ar  
 35  17  19  ar  
 36  17  39  1   
 37  18  20  ar  
 38  18  21  ar  
 39  19  20  ar  
 40  20  22  ar  
 41  21  23  ar  
 42  21  40  1   
 43  22  24  ar  
 44  22  41  1   
 45  23  24  ar  
 46  23  42  1   
 47  24  43  1   
@<TRIPOS>SUBSTRUCTURE
  1 ****  14 GROUP 4 **** **** 0

# MOE 2024.06 (io_trps.svl 2023.06)
