@<TRIPOS>MOLECULE
NONAME
48 51 1 0 0 
SMALL
USER_CHARGES


@<TRIPOS>ATOM
  1 S       -0.6030    -0.4140     1.0240 S.3   1 <1>  -0.0800 
  2 C       -1.0990     0.8810    -0.0640 C.2   1 <1>   0.3250 
  3 C       -1.1970    -1.5930    -0.0980 C.2   1 <1>  -0.1100 
  4 N       -1.6520     0.4270    -1.1360 N.2   1 <1>  -0.5650 
  5 C       -0.8650     2.2620     0.3100 C.ar  1 <1>   0.0530 
  6 C       -1.7070    -0.9520    -1.1610 C.2   1 <1>   0.0460 
  7 C       -1.2820     3.2920    -0.5370 C.ar  1 <1>  -0.1500 
  8 C       -0.2300     2.6410     1.4980 C.ar  1 <1>  -0.1500 
  9 C       -2.3390    -1.5920    -2.3840 C.3   1 <1>   0.0820 
 10 C       -1.0820     4.6240    -0.2220 C.ar  1 <1>  -0.1500 
 11 C       -0.0260     3.9710     1.8190 C.ar  1 <1>  -0.1500 
 12 C       -2.8350    -2.9990    -2.1000 C.2   1 <1>   0.5690 
 13 C       -0.4520     4.9660     0.9600 C.ar  1 <1>  -0.1500 
 14 O       -2.2150    -3.9280    -2.5610 O.2   1 <1>  -0.5700 
 15 N       -3.9550    -3.2010    -1.3370 N.am  1 <1>  -0.6600 
 16 C       -4.7830    -2.1490    -0.6900 C.3   1 <1>   0.1400 
 17 C       -4.4270    -4.5520    -0.9550 C.3   1 <1>   0.1400 
 18 C       -5.8980    -2.9150     0.0230 C.3   1 <1>   0.2000 
 19 C       -5.3490    -4.3230     0.2430 C.3   1 <1>  -0.0800 
 20 O       -6.2230    -2.3340     1.2380 O.3   1 <1>  -0.6800 
 21 C       -6.4500    -5.3840     0.3860 C.3   1 <1>   0.0200 
 22 C       -5.8520    -6.7710     0.5150 C.2   1 <1>  -0.0400 
 23 O       -5.0700    -7.0540     1.5220 O.3   1 <1>  -0.0190 
 24 C       -5.9530    -7.8680    -0.2500 C.2   1 <1>  -0.1500 
 25 N       -4.6370    -8.2800     1.4700 N.2   1 <1>  -0.4100 
 26 C       -5.1540    -8.7960     0.4130 C.2   1 <1>   0.1080 
 27 C       -4.9170   -10.2190    -0.0420 C.3   1 <1>  -0.0590 
 28 H       -1.1000    -2.6340     0.1540 H     1 <1>   0.1500 
 29 H       -1.7730     3.0410    -1.4610 H     1 <1>   0.1500 
 30 H        0.1160     1.8960     2.1900 H     1 <1>   0.1500 
 31 H       -1.6150    -1.6200    -3.1770 H     1 <1>   0.0800 
 32 H       -3.1660    -0.9950    -2.7170 H     1 <1>   0.0800 
 33 H       -1.4150     5.3940    -0.8960 H     1 <1>   0.1500 
 34 H        0.4650     4.2340     2.7400 H     1 <1>   0.1500 
 35 H       -0.2950     6.0020     1.2090 H     1 <1>   0.1500 
 36 H       -4.1820    -1.6020     0.0150 H     1 <1>   0.0800 
 37 H       -5.1930    -1.4820    -1.4280 H     1 <1>   0.0800 
 38 H       -4.9650    -4.9800    -1.7840 H     1 <1>   0.0800 
 39 H       -3.6000    -5.1950    -0.6990 H     1 <1>   0.0800 
 40 H       -6.7810    -2.9280    -0.5930 H     1 <1>   0.0800 
 41 H       -4.7300    -4.3330     1.1230 H     1 <1>   0.0800 
 42 H       -5.4520    -2.3380     1.8380 H     1 <1>   0.4000 
 43 H       -7.1020    -5.3580    -0.4690 H     1 <1>   0.0800 
 44 H       -7.0410    -5.1740     1.2610 H     1 <1>   0.0800 
 45 H       -6.5020    -8.0320    -1.1590 H     1 <1>   0.1500 
 46 H       -5.8530   -10.7390    -0.1170 H     1 <1>   0.0800 
 47 H       -4.2900   -10.7300     0.6660 H     1 <1>   0.0800 
 48 H       -4.4310   -10.2190    -1.0000 H     1 <1>   0.0800 
@<TRIPOS>BOND
  1   1   2  1   
  2   1   3  1   
  3   2   4  2   
  4   2   5  1   
  5   3   6  2   
  6   3  28  1   
  7   4   6  1   
  8   5   7  ar  
  9   5   8  ar  
 10   6   9  1   
 11   7  10  ar  
 12   7  29  1   
 13   8  11  ar  
 14   8  30  1   
 15   9  12  1   
 16   9  31  1   
 17   9  32  1   
 18  10  13  ar  
 19  10  33  1   
 20  11  13  ar  
 21  11  34  1   
 22  12  14  2   
 23  12  15  am  
 24  13  35  1   
 25  15  16  1   
 26  15  17  1   
 27  16  18  1   
 28  16  36  1   
 29  16  37  1   
 30  17  19  1   
 31  17  38  1   
 32  17  39  1   
 33  18  19  1   
 34  18  20  1   
 35  18  40  1   
 36  19  21  1   
 37  19  41  1   
 38  20  42  1   
 39  21  22  1   
 40  21  43  1   
 41  21  44  1   
 42  22  23  1   
 43  22  24  2   
 44  23  25  1   
 45  24  26  1   
 46  24  45  1   
 47  25  26  2   
 48  26  27  1   
 49  27  46  1   
 50  27  47  1   
 51  27  48  1   
@<TRIPOS>SUBSTRUCTURE
  1 ****  16 GROUP 4 **** **** 0

# MOE 2024.06 (io_trps.svl 2023.06)
