@<TRIPOS>MOLECULE
NONAME
45 47 1 0 0 
SMALL
USER_CHARGES


@<TRIPOS>ATOM
  1 S       -0.1150    -0.3590     0.7530 S.3   1 <1>  -0.0800 
  2 C       -1.4330    -0.9460    -0.2110 C.2   1 <1>   0.4420 
  3 C       -0.4460     1.2140     0.1140 C.2   1 <1>   0.1980 
  4 N       -1.9810    -0.0080    -0.8960 N.2   1 <1>  -0.3380 
  5 N       -1.7060    -2.2960    -0.1330 N.am  1 <1>  -0.4940 
  6 N       -1.4150     1.2200    -0.7050 N.2   1 <1>  -0.3380 
  7 C        0.4020     2.3820     0.5670 C.3   1 <1>   0.0200 
  8 C       -2.7760    -2.9970    -0.6350 C.2   1 <1>   0.5440 
  9 C       -0.1340     3.6640    -0.0820 C.3   1 <1>   0.3430 
 10 O       -3.7480    -2.4090    -1.0540 O.2   1 <1>  -0.5700 
 11 C       -2.7560    -4.4420    -0.6120 C.ar  1 <1>   0.0860 
 12 N        0.6010     4.8980     0.3560 N.4   1 <1>  -0.9590 
 13 C       -1.6030    -5.1590    -0.9220 C.ar  1 <1>   0.1600 
 14 C       -3.8800    -5.1810    -0.2770 C.ar  1 <1>  -0.1500 
 15 C       -0.1480     6.1120    -0.0990 C.3   1 <1>   0.2630 
 16 C        2.0070     4.9440    -0.1600 C.3   1 <1>   0.2630 
 17 N       -1.4760    -6.4720    -0.8870 N.ar  1 <1>  -0.6200 
 18 C       -3.7820    -6.5570    -0.2420 C.ar  1 <1>  -0.1430 
 19 C       -2.5620    -7.1520    -0.5510 C.ar  1 <1>   0.1670 
 20 C       -5.0190    -7.3720     0.1200 C.3   1 <1>  -0.0170 
 21 C       -2.3880    -8.6650    -0.5090 C.3   1 <1>  -0.0170 
 22 C       -4.6740    -8.8040     0.5400 C.3   1 <1>  -0.1600 
 23 C       -3.7140    -9.4370    -0.4700 C.3   1 <1>  -0.1600 
 24 H       -1.0520    -2.8350     0.4270 H     1 <1>   0.3700 
 25 H        1.4180     2.1990     0.2710 H     1 <1>   0.0800 
 26 H        0.3440     2.4560     1.6380 H     1 <1>   0.0800 
 27 H       -1.1770     3.7580     0.1760 H     1 <1>   0.0800 
 28 H       -0.0780     3.5660    -1.1550 H     1 <1>   0.0800 
 29 H        0.6250     4.9170     1.3880 H     1 <1>   0.4500 
 30 H       -0.7270    -4.6100    -1.2220 H     1 <1>   0.1500 
 31 H       -4.8050    -4.6770    -0.0520 H     1 <1>   0.1500 
 32 H       -0.2060     6.1360    -1.1760 H     1 <1>   0.0800 
 33 H        0.3460     7.0080     0.2390 H     1 <1>   0.0800 
 34 H       -1.1510     6.1040     0.2970 H     1 <1>   0.0800 
 35 H        2.0130     4.9120    -1.2380 H     1 <1>   0.0800 
 36 H        2.5760     4.1080     0.2130 H     1 <1>   0.0800 
 37 H        2.4920     5.8530     0.1580 H     1 <1>   0.0800 
 38 H       -5.6660    -7.4030    -0.7400 H     1 <1>   0.0800 
 39 H       -5.5550    -6.8890     0.9180 H     1 <1>   0.0800 
 40 H       -1.8110    -8.9040     0.3660 H     1 <1>   0.0800 
 41 H       -1.8220    -8.9800    -1.3680 H     1 <1>   0.0800 
 42 H       -5.5770    -9.3880     0.6040 H     1 <1>   0.0800 
 43 H       -4.2150    -8.7930     1.5140 H     1 <1>   0.0800 
 44 H       -3.5240   -10.4630    -0.2070 H     1 <1>   0.0800 
 45 H       -4.1630    -9.4220    -1.4480 H     1 <1>   0.0800 
@<TRIPOS>BOND
  1   1   2  1   
  2   1   3  1   
  3   2   4  2   
  4   2   5  1   
  5   3   6  2   
  6   3   7  1   
  7   4   6  1   
  8   5   8  am  
  9   5  24  1   
 10   7   9  1   
 11   7  25  1   
 12   7  26  1   
 13   8  10  2   
 14   8  11  1   
 15   9  12  1   
 16   9  27  1   
 17   9  28  1   
 18  11  13  ar  
 19  11  14  ar  
 20  12  15  1   
 21  12  16  1   
 22  12  29  1   
 23  13  17  ar  
 24  13  30  1   
 25  14  18  ar  
 26  14  31  1   
 27  15  32  1   
 28  15  33  1   
 29  15  34  1   
 30  16  35  1   
 31  16  36  1   
 32  16  37  1   
 33  17  19  ar  
 34  18  19  ar  
 35  18  20  1   
 36  19  21  1   
 37  20  22  1   
 38  20  38  1   
 39  20  39  1   
 40  21  23  1   
 41  21  40  1   
 42  21  41  1   
 43  22  23  1   
 44  22  42  1   
 45  22  43  1   
 46  23  44  1   
 47  23  45  1   
@<TRIPOS>SUBSTRUCTURE
  1 ****   5 GROUP 4 **** **** 0

# MOE 2024.06 (io_trps.svl 2023.06)
