@<TRIPOS>MOLECULE
NONAME
41 43 1 0 0 
SMALL
USER_CHARGES


@<TRIPOS>ATOM
  1 O       -2.3220     0.7350    -1.6670 O.2   1 <1>  -0.5700 
  2 C       -2.0220     0.5860    -0.5090 C.2   1 <1>   0.5690 
  3 N       -1.9150    -0.6410     0.0500 N.am  1 <1>  -0.7300 
  4 C       -1.7710     1.8020     0.3540 C.3   1 <1>  -0.0990 
  5 C       -2.0930    -1.9230    -0.6730 C.3   1 <1>   0.2200 
  6 C       -1.1390     2.9370    -0.4620 C.3   1 <1>   0.0960 
  7 C       -3.4170    -2.5850    -0.3110 C.3   1 <1>  -0.0800 
  8 C       -1.1130    -2.9380    -0.1030 C.3   1 <1>   0.1200 
  9 N       -0.8650     4.0960     0.4050 N.pl3 1 <1>   0.0480 
 10 C       -3.0850    -3.3520     0.9760 C.3   1 <1>   0.1200 
 11 C       -4.6310    -1.6450    -0.1950 C.3   1 <1>  -0.0170 
 12 O       -1.6910    -3.3470     1.0970 O.3   1 <1>  -0.5600 
 13 C        0.2540     4.3990     1.0650 C.2   1 <1>   0.0360 
 14 C       -1.6820     5.0930     0.7440 C.2   1 <1>   0.0360 
 15 C       -5.9060    -2.4340     0.0560 C.ar  1 <1>  -0.1440 
 16 N        0.1280     5.4830     1.7490 N.2   1 <1>  -0.3380 
 17 N       -1.1140     5.9280     1.5430 N.2   1 <1>  -0.3380 
 18 C       -6.5980    -3.0370    -0.9750 C.ar  1 <1>  -0.1500 
 19 C       -6.4380    -2.5920     1.3200 C.ar  1 <1>  -0.1500 
 20 C       -7.7510    -3.7530    -0.7000 C.ar  1 <1>   0.1600 
 21 C       -7.5990    -3.3290     1.4870 C.ar  1 <1>   0.1600 
 22 N       -8.2670    -3.9160     0.5070 N.ar  1 <1>  -0.6200 
 23 H       -1.6980    -0.7650     1.0420 H     1 <1>   0.3700 
 24 H       -2.7130     2.1250     0.7580 H     1 <1>   0.0800 
 25 H       -1.1170     1.5320     1.1620 H     1 <1>   0.0800 
 26 H       -1.9720    -1.7850    -1.7350 H     1 <1>   0.0800 
 27 H       -1.8040     3.2430    -1.2520 H     1 <1>   0.0800 
 28 H       -0.2170     2.6050    -0.9060 H     1 <1>   0.0800 
 29 H       -3.6340    -3.3160    -1.0700 H     1 <1>   0.0800 
 30 H       -0.1380    -2.5230     0.0830 H     1 <1>   0.0800 
 31 H       -1.0320    -3.7990    -0.7440 H     1 <1>   0.0800 
 32 H       -3.4280    -4.3710     0.9300 H     1 <1>   0.0800 
 33 H       -3.4900    -2.8710     1.8480 H     1 <1>   0.0800 
 34 H       -4.7350    -1.0820    -1.1060 H     1 <1>   0.0800 
 35 H       -4.4870    -0.9400     0.6050 H     1 <1>   0.0800 
 36 H        1.1460     3.8020     1.0240 H     1 <1>   0.1500 
 37 H       -2.6930     5.1770     0.3880 H     1 <1>   0.1500 
 38 H       -6.2520    -2.9570    -1.9890 H     1 <1>   0.1500 
 39 H       -5.9650    -2.1510     2.1770 H     1 <1>   0.1500 
 40 H       -8.2770    -4.2160    -1.5170 H     1 <1>   0.1500 
 41 H       -8.0000    -3.4420     2.4800 H     1 <1>   0.1500 
@<TRIPOS>BOND
  1   1   2  2   
  2   2   3  am  
  3   2   4  1   
  4   3   5  1   
  5   3  23  1   
  6   4   6  1   
  7   4  24  1   
  8   4  25  1   
  9   5   7  1   
 10   5   8  1   
 11   5  26  1   
 12   6   9  1   
 13   6  27  1   
 14   6  28  1   
 15   7  10  1   
 16   7  11  1   
 17   7  29  1   
 18   8  12  1   
 19   8  30  1   
 20   8  31  1   
 21   9  13  1   
 22   9  14  1   
 23  10  12  1   
 24  10  32  1   
 25  10  33  1   
 26  11  15  1   
 27  11  34  1   
 28  11  35  1   
 29  13  16  2   
 30  13  36  1   
 31  14  17  2   
 32  14  37  1   
 33  15  18  ar  
 34  15  19  ar  
 35  16  17  1   
 36  18  20  ar  
 37  18  38  1   
 38  19  21  ar  
 39  19  39  1   
 40  20  22  ar  
 41  20  40  1   
 42  21  22  ar  
 43  21  41  1   
@<TRIPOS>SUBSTRUCTURE
  1 ****   3 GROUP 4 **** **** 0

# MOE 2024.06 (io_trps.svl 2023.06)
