@<TRIPOS>MOLECULE
NONAME
51 53 1 0 0 
SMALL
USER_CHARGES


@<TRIPOS>ATOM
  1 CL      -6.9630    -5.2310     3.3860 Cl    1 <1>  -0.1240 
  2 C       -6.0910    -3.9410     2.5950 C.2   1 <1>   0.2640 
  3 O       -5.9290    -4.0220     1.2920 O.3   1 <1>  -0.2800 
  4 C       -5.5330    -2.8270     3.1060 C.2   1 <1>  -0.1500 
  5 C       -5.2570    -2.9420     0.9240 C.2   1 <1>  -0.0400 
  6 C       -4.9810    -2.1640     1.9990 C.2   1 <1>  -0.1500 
  7 C       -4.9630    -2.7750    -0.5550 C.3   1 <1>   0.5230 
  8 N       -6.2550    -3.0050    -1.2490 N.4   1 <1>  -0.9590 
  9 C       -6.1920    -3.9250    -2.4270 C.3   1 <1>   0.3430 
 10 C       -7.0450    -1.7710    -1.4740 C.3   1 <1>   0.3430 
 11 C       -7.5590    -4.6030    -2.6950 C.3   1 <1>   0.1400 
 12 C       -8.4470    -1.9830    -0.9040 C.3   1 <1>  -0.1600 
 13 N       -8.5210    -4.4090    -1.5560 N.am  1 <1>  -0.6600 
 14 C       -9.2530    -3.1040    -1.5760 C.3   1 <1>   0.1400 
 15 C       -8.7010    -5.2740    -0.5060 C.2   1 <1>   0.5690 
 16 O       -9.0540    -4.8600     0.5720 O.2   1 <1>  -0.5700 
 17 C       -8.4380    -6.7730    -0.6270 C.3   1 <1>  -0.0190 
 18 C       -9.4530    -7.5220     0.2590 C.3   1 <1>   0.3430 
 19 C       -6.9720    -7.1270    -0.2620 C.3   1 <1>  -0.1600 
 20 N       -8.9850    -7.5080     1.6760 N.4   1 <1>  -0.9590 
 21 C       -6.8830    -8.3920     0.6090 C.3   1 <1>  -0.1600 
 22 C       -7.7290    -8.2960     1.8910 C.3   1 <1>   0.3430 
 23 C      -10.0600    -7.9030     2.6310 C.3   1 <1>   0.2630 
 24 H       -5.5060    -2.4970     4.1300 H     1 <1>   0.1500 
 25 H       -4.4570    -1.2240     2.0510 H     1 <1>   0.1500 
 26 H       -4.2400    -3.5160    -0.8530 H     1 <1>   0.0800 
 27 H       -4.5720    -1.7930    -0.7650 H     1 <1>   0.0800 
 28 H       -6.8150    -3.5240    -0.5470 H     1 <1>   0.4500 
 29 H       -5.4710    -4.7010    -2.2310 H     1 <1>   0.0800 
 30 H       -5.8650    -3.3940    -3.3060 H     1 <1>   0.0800 
 31 H       -7.0970    -1.5390    -2.5260 H     1 <1>   0.0800 
 32 H       -6.5860    -0.9380    -0.9640 H     1 <1>   0.0800 
 33 H       -7.3980    -5.6490    -2.8850 H     1 <1>   0.0800 
 34 H       -7.9850    -4.1910    -3.5940 H     1 <1>   0.0800 
 35 H       -8.9980    -1.0670    -1.0200 H     1 <1>   0.0800 
 36 H       -8.3860    -2.1710     0.1540 H     1 <1>   0.0800 
 37 H       -9.4850    -2.8330    -2.5930 H     1 <1>   0.0800 
 38 H      -10.1920    -3.2150    -1.0570 H     1 <1>   0.0800 
 39 H       -8.6390    -7.0720    -1.6390 H     1 <1>   0.0800 
 40 H       -9.5500    -8.5420    -0.0770 H     1 <1>   0.0800 
 41 H      -10.4170    -7.0440     0.1800 H     1 <1>   0.0800 
 42 H       -6.5300    -6.3170     0.2920 H     1 <1>   0.0800 
 43 H       -6.3910    -7.2630    -1.1580 H     1 <1>   0.0800 
 44 H       -8.7650    -6.5070     1.8590 H     1 <1>   0.4500 
 45 H       -5.8590    -8.5770     0.8840 H     1 <1>   0.0800 
 46 H       -7.2110    -9.2450     0.0400 H     1 <1>   0.0800 
 47 H       -7.9700    -9.2930     2.2220 H     1 <1>   0.0800 
 48 H       -7.1490    -7.8240     2.6680 H     1 <1>   0.0800 
 49 H      -10.3530    -8.9270     2.4650 H     1 <1>   0.0800 
 50 H      -10.9240    -7.2700     2.5030 H     1 <1>   0.0800 
 51 H       -9.7120    -7.8020     3.6470 H     1 <1>   0.0800 
@<TRIPOS>BOND
  1   1   2  1   
  2   2   3  1   
  3   2   4  2   
  4   3   5  1   
  5   4   6  1   
  6   4  24  1   
  7   5   6  2   
  8   5   7  1   
  9   6  25  1   
 10   7   8  1   
 11   7  26  1   
 12   7  27  1   
 13   8   9  1   
 14   8  10  1   
 15   8  28  1   
 16   9  11  1   
 17   9  29  1   
 18   9  30  1   
 19  10  12  1   
 20  10  31  1   
 21  10  32  1   
 22  11  13  1   
 23  11  33  1   
 24  11  34  1   
 25  12  14  1   
 26  12  35  1   
 27  12  36  1   
 28  13  14  1   
 29  13  15  am  
 30  14  37  1   
 31  14  38  1   
 32  15  16  2   
 33  15  17  1   
 34  17  18  1   
 35  17  19  1   
 36  17  39  1   
 37  18  20  1   
 38  18  40  1   
 39  18  41  1   
 40  19  21  1   
 41  19  42  1   
 42  19  43  1   
 43  20  22  1   
 44  20  23  1   
 45  20  44  1   
 46  21  22  1   
 47  21  45  1   
 48  21  46  1   
 49  22  47  1   
 50  22  48  1   
 51  23  49  1   
 52  23  50  1   
 53  23  51  1   
@<TRIPOS>SUBSTRUCTURE
  1 ****  15 GROUP 4 **** **** 0

# MOE 2024.06 (io_trps.svl 2023.06)
