@<TRIPOS>MOLECULE
NONAME
53 57 1 0 0 
SMALL
USER_CHARGES


@<TRIPOS>ATOM
  1 S       -2.5380     1.3790    -0.9850 S.3   1 <1>  -0.2820 
  2 C       -3.3690     0.7100     0.3920 C.2   1 <1>   0.6510 
  3 C       -1.6310     2.4470     0.0840 C.2   1 <1>   0.5300 
  4 N       -4.2700    -0.2160     0.2940 N.2   1 <1>  -0.6210 
  5 N       -2.9120     1.3380     1.5180 N.am  1 <1>  -0.0580 
  6 N       -1.9270     2.3170     1.3110 N.2   1 <1>  -0.5120 
  7 C       -0.6290     3.3710    -0.5890 C.3   1 <1>  -0.0990 
  8 C       -4.8260    -0.6240     1.4790 C.2   1 <1>   0.0330 
  9 C       -3.4760     0.9500     2.7240 C.2   1 <1>   0.6160 
 10 C        0.1220     4.2850     0.3920 C.3   1 <1>  -0.2400 
 11 C       -4.4600    -0.0720     2.6660 C.2   1 <1>  -0.1360 
 12 C       -5.8840    -1.7250     1.3770 C.3   1 <1>   0.4810 
 13 O       -3.1600     1.4540     3.7900 O.2   1 <1>  -0.5700 
 14 N       -6.7380    -1.4370     0.1930 N.4   1 <1>  -0.9590 
 15 C       -7.6250    -0.2490     0.4250 C.3   1 <1>   0.3430 
 16 C       -7.5030    -2.6220    -0.2830 C.3   1 <1>   0.3430 
 17 C       -8.3570     0.1700    -0.8590 C.3   1 <1>   0.1430 
 18 C       -8.2270    -2.2770    -1.5880 C.3   1 <1>  -0.1600 
 19 C       -9.3100     1.2880    -0.5130 C.ar  1 <1>   0.1670 
 20 C       -9.1240    -1.0320    -1.4500 C.3   1 <1>  -0.1600 
 21 C       -7.4220     0.8400    -1.9030 C.3   1 <1>  -0.1600 
 22 N      -10.1240     1.2770     0.5160 N.ar  1 <1>  -0.6200 
 23 C       -9.2140     2.3270    -1.3860 C.ar  1 <1>  -0.1430 
 24 C       -8.1800     2.0640    -2.4530 C.3   1 <1>  -0.0170 
 25 C      -10.8700     2.3700     0.6260 C.ar  1 <1>   0.4770 
 26 C      -10.0290     3.4110    -1.1750 C.ar  1 <1>   0.1600 
 27 N      -10.8670     3.4390    -0.1590 N.ar  1 <1>  -0.6200 
 28 C      -11.8330     2.4070     1.7880 C.3   1 <1>  -0.0970 
 29 H       -1.1530     3.9790    -1.3050 H     1 <1>   0.0800 
 30 H        0.0830     2.7690    -1.1240 H     1 <1>   0.0800 
 31 H       -0.5700     4.9120     0.9270 H     1 <1>   0.0800 
 32 H        0.8150     4.9140    -0.1390 H     1 <1>   0.0800 
 33 H        0.6720     3.6970     1.1070 H     1 <1>   0.0800 
 34 H       -4.8790    -0.3660     3.6110 H     1 <1>   0.1500 
 35 H       -6.4760    -1.7740     2.2750 H     1 <1>   0.0800 
 36 H       -5.3820    -2.6680     1.2380 H     1 <1>   0.0800 
 37 H       -6.0540    -1.1600    -0.5310 H     1 <1>   0.4500 
 38 H       -7.0460     0.5880     0.7820 H     1 <1>   0.0800 
 39 H       -8.3620    -0.4860     1.1750 H     1 <1>   0.0800 
 40 H       -8.2270    -2.9120     0.4620 H     1 <1>   0.0800 
 41 H       -6.8360    -3.4530    -0.4520 H     1 <1>   0.0800 
 42 H       -8.8360    -3.1160    -1.8790 H     1 <1>   0.0800 
 43 H       -7.5010    -2.1310    -2.3690 H     1 <1>   0.0800 
 44 H       -9.5440    -0.7690    -2.4060 H     1 <1>   0.0800 
 45 H       -9.9480    -1.2710    -0.7980 H     1 <1>   0.0800 
 46 H       -7.1320     0.1770    -2.6990 H     1 <1>   0.0800 
 47 H       -6.5290     1.1940    -1.4160 H     1 <1>   0.0800 
 48 H       -8.6720     1.8260    -3.3800 H     1 <1>   0.0800 
 49 H       -7.5270     2.9090    -2.5930 H     1 <1>   0.0800 
 50 H       -9.9990     4.2610    -1.8350 H     1 <1>   0.1500 
 51 H      -12.1600     1.4130     2.0320 H     1 <1>   0.0800 
 52 H      -12.6910     3.0010     1.5350 H     1 <1>   0.0800 
 53 H      -11.3460     2.8400     2.6410 H     1 <1>   0.0800 
@<TRIPOS>BOND
  1   1   2  1   
  2   1   3  1   
  3   2   4  2   
  4   2   5  1   
  5   3   6  2   
  6   3   7  1   
  7   4   8  1   
  8   5   6  1   
  9   5   9  am  
 10   7  10  1   
 11   7  29  1   
 12   7  30  1   
 13   8  11  2   
 14   8  12  1   
 15   9  11  1   
 16   9  13  2   
 17  10  31  1   
 18  10  32  1   
 19  10  33  1   
 20  11  34  1   
 21  12  14  1   
 22  12  35  1   
 23  12  36  1   
 24  14  15  1   
 25  14  16  1   
 26  14  37  1   
 27  15  17  1   
 28  15  38  1   
 29  15  39  1   
 30  16  18  1   
 31  16  40  1   
 32  16  41  1   
 33  17  19  1   
 34  17  20  1   
 35  17  21  1   
 36  18  20  1   
 37  18  42  1   
 38  18  43  1   
 39  19  22  ar  
 40  19  23  ar  
 41  20  44  1   
 42  20  45  1   
 43  21  24  1   
 44  21  46  1   
 45  21  47  1   
 46  22  25  ar  
 47  23  24  1   
 48  23  26  ar  
 49  24  48  1   
 50  24  49  1   
 51  25  27  ar  
 52  25  28  1   
 53  26  27  ar  
 54  26  50  1   
 55  28  51  1   
 56  28  52  1   
 57  28  53  1   
@<TRIPOS>SUBSTRUCTURE
  1 ****  15 GROUP 4 **** **** 0

# MOE 2024.06 (io_trps.svl 2023.06)
