@<TRIPOS>MOLECULE
NONAME
47 49 1 0 0 
SMALL
USER_CHARGES


@<TRIPOS>ATOM
  1 S        0.9160    -0.5990     0.7710 S.3   1 <1>  -0.2860 
  2 C        1.1520     0.4630    -0.6650 C.2   1 <1>  -0.0960 
  3 C        0.0300    -2.0730     0.0930 C.3   1 <1>   0.0700 
  4 N        1.7930     1.6250    -0.5910 N.pl3 1 <1>   0.3000 
  5 C        0.7810     0.3270    -1.9450 C.2   1 <1>   0.0770 
  6 C       -0.3460    -2.9830     1.2610 C.3   1 <1>   0.1400 
  7 N        1.8160     2.1870    -1.8090 N.2   1 <1>  -0.4180 
  8 N        1.2010     1.4000    -2.6310 N.2   1 <1>  -0.2270 
  9 N       -0.9480    -4.2410     0.7580 N.am  1 <1>  -0.7300 
 10 C       -2.1840    -4.3630     0.2020 C.2   1 <1>   0.5690 
 11 O       -2.8910    -3.3970     0.0450 O.2   1 <1>  -0.5700 
 12 C       -2.6710    -5.7510    -0.2300 C.3   1 <1>   0.2610 
 13 O       -1.5780    -6.6610    -0.2410 O.3   1 <1>  -0.5600 
 14 C       -3.8140    -6.2160     0.7130 C.3   1 <1>   0.3640 
 15 C       -1.9220    -7.9760    -0.5980 C.3   1 <1>   0.1810 
 16 N       -3.8990    -7.7010     0.9080 N.am  1 <1>  -0.6600 
 17 C       -5.1730    -5.6420     0.2740 C.ar  1 <1>  -0.1430 
 18 C       -3.0240    -8.5530     0.2910 C.2   1 <1>   0.5690 
 19 C       -4.9580    -8.1830     1.8420 C.3   1 <1>   0.0600 
 20 C       -5.9290    -6.1130    -0.8060 C.ar  1 <1>  -0.1430 
 21 C       -5.6660    -4.5760     1.0190 C.ar  1 <1>  -0.1500 
 22 O       -3.0960    -9.7540     0.4030 O.2   1 <1>  -0.5700 
 23 C       -7.1460    -5.5140    -1.0990 C.ar  1 <1>  -0.1500 
 24 C       -5.5030    -7.2740    -1.6980 C.3   1 <1>  -0.0970 
 25 C       -6.8780    -3.9870     0.7160 C.ar  1 <1>  -0.1500 
 26 C       -7.6220    -4.4580    -0.3460 C.ar  1 <1>  -0.1500 
 27 H       -0.8460    -1.7140    -0.4170 H     1 <1>   0.0800 
 28 H        0.7020    -2.5610    -0.5900 H     1 <1>   0.0800 
 29 H        2.2110     2.0470     0.2430 H     1 <1>   0.2700 
 30 H        0.2380    -0.4720    -2.4160 H     1 <1>   0.1500 
 31 H       -1.0570    -2.4770     1.8920 H     1 <1>   0.0800 
 32 H        0.5290    -3.2160     1.8430 H     1 <1>   0.0800 
 33 H       -0.3700    -5.0890     0.7940 H     1 <1>   0.3700 
 34 H       -3.0380    -5.6680    -1.2360 H     1 <1>   0.0800 
 35 H       -3.5870    -5.8080     1.6820 H     1 <1>   0.0800 
 36 H       -2.2390    -7.9840    -1.6240 H     1 <1>   0.0800 
 37 H       -1.0400    -8.5820    -0.5030 H     1 <1>   0.0800 
 38 H       -4.8750    -7.6730     2.7850 H     1 <1>   0.0800 
 39 H       -4.8610    -9.2410     2.0150 H     1 <1>   0.0800 
 40 H       -5.9320    -7.9920     1.4240 H     1 <1>   0.0800 
 41 H       -5.1030    -4.1820     1.8470 H     1 <1>   0.1500 
 42 H       -7.7410    -5.8670    -1.9220 H     1 <1>   0.1500 
 43 H       -6.1200    -7.3300    -2.5760 H     1 <1>   0.0800 
 44 H       -5.6010    -8.2030    -1.1660 H     1 <1>   0.0800 
 45 H       -4.4880    -7.1580    -2.0240 H     1 <1>   0.0800 
 46 H       -7.2380    -3.1600     1.3030 H     1 <1>   0.1500 
 47 H       -8.5670    -4.0030    -0.5880 H     1 <1>   0.1500 
@<TRIPOS>BOND
  1   1   2  1   
  2   1   3  1   
  3   2   4  1   
  4   2   5  2   
  5   3   6  1   
  6   3  27  1   
  7   3  28  1   
  8   4   7  1   
  9   4  29  1   
 10   5   8  1   
 11   5  30  1   
 12   6   9  1   
 13   6  31  1   
 14   6  32  1   
 15   7   8  2   
 16   9  10  am  
 17   9  33  1   
 18  10  11  2   
 19  10  12  1   
 20  12  13  1   
 21  12  14  1   
 22  12  34  1   
 23  13  15  1   
 24  14  16  1   
 25  14  17  1   
 26  14  35  1   
 27  15  18  1   
 28  15  36  1   
 29  15  37  1   
 30  16  18  am  
 31  16  19  1   
 32  17  20  ar  
 33  17  21  ar  
 34  18  22  2   
 35  19  38  1   
 36  19  39  1   
 37  19  40  1   
 38  20  23  ar  
 39  20  24  1   
 40  21  25  ar  
 41  21  41  1   
 42  23  26  ar  
 43  23  42  1   
 44  24  43  1   
 45  24  44  1   
 46  24  45  1   
 47  25  26  ar  
 48  25  46  1   
 49  26  47  1   
@<TRIPOS>SUBSTRUCTURE
  1 ****  10 GROUP 4 **** **** 0

# MOE 2024.06 (io_trps.svl 2023.06)
