@<TRIPOS>MOLECULE
NONAME
55 58 1 0 0 
SMALL
USER_CHARGES


@<TRIPOS>ATOM
  1 O       -0.3520     0.0840    -0.6730 O.2   1 <1>  -0.5700 
  2 C       -1.3940     0.6970    -0.6290 C.2   1 <1>   0.5690 
  3 N       -2.5830     0.1160    -0.9880 N.am  1 <1>  -0.6600 
  4 C       -1.3680     2.1420    -0.1630 C.3   1 <1>  -0.0990 
  5 C       -3.9190     0.7900    -1.0050 C.3   1 <1>   0.1400 
  6 C       -2.6870    -1.3480    -1.2680 C.3   1 <1>   0.1400 
  7 C       -0.0400     2.5700     0.4770 C.3   1 <1>   0.0210 
  8 C       -4.8760     0.0980    -0.0180 C.3   1 <1>   0.1900 
  9 C       -3.6910    -2.0110    -0.3090 C.3   1 <1>   0.1100 
 10 C       -0.1300     4.0150     0.9320 C.2   1 <1>   0.1080 
 11 N       -5.0140    -1.3430    -0.3500 N.3   1 <1>  -0.8100 
 12 C       -6.2530     0.7900    -0.0250 C.3   1 <1>   0.1200 
 13 N       -0.9350     4.3800     1.8810 N.2   1 <1>  -0.7070 
 14 C        0.5930     5.0880     0.4110 C.2   1 <1>  -0.1810 
 15 C       -5.9840    -1.9780     0.5740 C.3   1 <1>   0.3330 
 16 O       -7.1210     0.1580     0.8710 O.3   1 <1>  -0.5600 
 17 N       -0.7430     5.7050     1.9970 N.pl3 1 <1>   0.3000 
 18 C        0.1750     6.1610     1.1190 C.2   1 <1>  -0.3320 
 19 C        1.6170     5.0190    -0.7080 C.3   1 <1>  -0.0590 
 20 C       -6.2480    -3.4310     0.1820 C.ar  1 <1>  -0.1440 
 21 C       -7.3190    -1.2020     0.5840 C.3   1 <1>   0.1200 
 22 C        0.5750     7.6250     1.0430 C.3   1 <1>  -0.0600 
 23 C       -6.5210    -3.7760    -1.1350 C.ar  1 <1>  -0.1500 
 24 C       -6.2230    -4.4280     1.1470 C.ar  1 <1>  -0.1500 
 25 C       -6.7670    -5.0920    -1.4830 C.ar  1 <1>  -0.1500 
 26 C       -6.4680    -5.7460     0.8010 C.ar  1 <1>  -0.1500 
 27 C       -6.7400    -6.0790    -0.5140 C.ar  1 <1>  -0.1500 
 28 H       -1.5740     2.7790    -1.0020 H     1 <1>   0.0800 
 29 H       -2.1400     2.2800     0.5710 H     1 <1>   0.0800 
 30 H       -3.8360     1.8310    -0.7560 H     1 <1>   0.0800 
 31 H       -4.3290     0.7230    -1.9980 H     1 <1>   0.0800 
 32 H       -3.0150    -1.4920    -2.2820 H     1 <1>   0.0800 
 33 H       -1.7280    -1.8240    -1.1600 H     1 <1>   0.0800 
 34 H        0.7630     2.4460    -0.2250 H     1 <1>   0.0800 
 35 H        0.1660     1.9510     1.3320 H     1 <1>   0.0800 
 36 H       -4.4620     0.2010     0.9710 H     1 <1>   0.0800 
 37 H       -3.2930    -1.9800     0.6900 H     1 <1>   0.0800 
 38 H       -3.7960    -3.0440    -0.5930 H     1 <1>   0.0800 
 39 H       -6.6900     0.7590    -1.0080 H     1 <1>   0.0800 
 40 H       -6.1580     1.8160     0.2850 H     1 <1>   0.0800 
 41 H       -5.5820    -1.9540     1.5720 H     1 <1>   0.0800 
 42 H       -1.2520     6.2690     2.6870 H     1 <1>   0.2700 
 43 H        1.1680     4.5950    -1.5880 H     1 <1>   0.0800 
 44 H        2.4440     4.4020    -0.4060 H     1 <1>   0.0800 
 45 H        1.9900     5.9950    -0.9520 H     1 <1>   0.0800 
 46 H       -7.9720    -1.6060     1.3350 H     1 <1>   0.0800 
 47 H       -7.8040    -1.2830    -0.3730 H     1 <1>   0.0800 
 48 H        1.3250     7.7800     0.2900 H     1 <1>   0.0800 
 49 H        0.9740     7.9480     1.9880 H     1 <1>   0.0800 
 50 H       -0.2800     8.2290     0.7990 H     1 <1>   0.0800 
 51 H       -6.5370    -3.0110    -1.8940 H     1 <1>   0.1500 
 52 H       -6.0140    -4.1850     2.1740 H     1 <1>   0.1500 
 53 H       -6.9760    -5.3480    -2.5070 H     1 <1>   0.1500 
 54 H       -6.4470    -6.5130     1.5560 H     1 <1>   0.1500 
 55 H       -6.9310    -7.1030    -0.7820 H     1 <1>   0.1500 
@<TRIPOS>BOND
  1   1   2  2   
  2   2   3  am  
  3   2   4  1   
  4   3   5  1   
  5   3   6  1   
  6   4   7  1   
  7   4  28  1   
  8   4  29  1   
  9   5   8  1   
 10   5  30  1   
 11   5  31  1   
 12   6   9  1   
 13   6  32  1   
 14   6  33  1   
 15   7  10  1   
 16   7  34  1   
 17   7  35  1   
 18   8  11  1   
 19   8  12  1   
 20   8  36  1   
 21   9  11  1   
 22   9  37  1   
 23   9  38  1   
 24  10  13  2   
 25  10  14  1   
 26  11  15  1   
 27  12  16  1   
 28  12  39  1   
 29  12  40  1   
 30  13  17  1   
 31  14  18  2   
 32  14  19  1   
 33  15  20  1   
 34  15  21  1   
 35  15  41  1   
 36  16  21  1   
 37  17  18  1   
 38  17  42  1   
 39  18  22  1   
 40  19  43  1   
 41  19  44  1   
 42  19  45  1   
 43  20  23  ar  
 44  20  24  ar  
 45  21  46  1   
 46  21  47  1   
 47  22  48  1   
 48  22  49  1   
 49  22  50  1   
 50  23  25  ar  
 51  23  51  1   
 52  24  26  ar  
 53  24  52  1   
 54  25  27  ar  
 55  25  53  1   
 56  26  27  ar  
 57  26  54  1   
 58  27  55  1   
@<TRIPOS>SUBSTRUCTURE
  1 ****   5 GROUP 4 **** **** 0

# MOE 2024.06 (io_trps.svl 2023.06)
