@<TRIPOS>MOLECULE
NONAME
51 53 1 0 0 
SMALL
USER_CHARGES


@<TRIPOS>ATOM
  1 O       -0.1920     0.6580     0.1760 O.2   1 <1>  -0.5700 
  2 C       -0.3130     1.7830    -0.2460 C.2   1 <1>   0.5690 
  3 N       -0.6550     2.8350     0.5610 N.am  1 <1>  -0.6600 
  4 C       -0.0890     2.0220    -1.7410 C.3   1 <1>   0.1810 
  5 C       -0.7960     4.2220     0.0070 C.3   1 <1>   0.3640 
  6 C       -0.8090     2.6960     2.0380 C.3   1 <1>   0.0600 
  7 O        0.2930     3.3450    -2.0250 O.3   1 <1>  -0.5600 
  8 C       -2.1090     4.8870     0.4470 C.ar  1 <1>  -0.1430 
  9 C       -0.6090     4.3190    -1.5280 C.3   1 <1>   0.2610 
 10 C       -3.3760     4.3070     0.3290 C.ar  1 <1>  -0.1430 
 11 C       -2.0030     6.1620     0.9920 C.ar  1 <1>  -0.1500 
 12 C       -0.1820     5.7460    -1.9000 C.2   1 <1>   0.5690 
 13 C       -4.4900     5.0100     0.7680 C.ar  1 <1>  -0.1500 
 14 C       -3.6210     2.9210    -0.2580 C.3   1 <1>  -0.0960 
 15 C       -3.1200     6.8520     1.4220 C.ar  1 <1>  -0.1500 
 16 O       -0.9880     6.4020    -2.5210 O.2   1 <1>  -0.5700 
 17 N        1.0330     6.2900    -1.5280 N.am  1 <1>  -0.6600 
 18 C       -4.3670     6.2740     1.3120 C.ar  1 <1>  -0.1500 
 19 C        1.3350     7.7270    -1.7840 C.3   1 <1>   0.1400 
 20 C        2.1930     5.5320    -0.9760 C.3   1 <1>   0.1400 
 21 C        1.7880     8.3960    -0.4830 C.3   1 <1>  -0.1600 
 22 C        2.6570     6.1770     0.3340 C.3   1 <1>  -0.1600 
 23 C        2.9900     7.6670     0.1510 C.3   1 <1>  -0.0800 
 24 C        3.3900     8.2840     1.5000 C.3   1 <1>   0.1200 
 25 O        3.7540     9.6070     1.3230 O.3   1 <1>  -0.6800 
 26 H       -0.9900     1.8010    -2.2840 H     1 <1>   0.0800 
 27 H        0.6940     1.3740    -2.0900 H     1 <1>   0.0800 
 28 H        0.0010     4.7860     0.4520 H     1 <1>   0.0800 
 29 H       -0.1270     3.3580     2.5410 H     1 <1>   0.0800 
 30 H       -0.6010     1.6870     2.3500 H     1 <1>   0.0800 
 31 H       -1.8150     2.9420     2.3290 H     1 <1>   0.0800 
 32 H       -1.5540     4.1430    -2.0070 H     1 <1>   0.0800 
 33 H       -1.0430     6.6400     1.0820 H     1 <1>   0.1500 
 34 H       -5.4710     4.5760     0.6890 H     1 <1>   0.1500 
 35 H       -4.6640     2.7760    -0.4780 H     1 <1>   0.0800 
 36 H       -3.3220     2.1640     0.4440 H     1 <1>   0.0800 
 37 H       -3.0780     2.7850    -1.1720 H     1 <1>   0.0800 
 38 H       -3.0180     7.8390     1.8390 H     1 <1>   0.1500 
 39 H       -5.2410     6.8050     1.6450 H     1 <1>   0.1500 
 40 H        2.1120     7.7960    -2.5250 H     1 <1>   0.0800 
 41 H        0.4690     8.2410    -2.1630 H     1 <1>   0.0800 
 42 H        1.9490     4.5030    -0.7930 H     1 <1>   0.0800 
 43 H        2.9940     5.5530    -1.6970 H     1 <1>   0.0800 
 44 H        2.0500     9.4180    -0.6950 H     1 <1>   0.0800 
 45 H        0.9610     8.4120     0.2040 H     1 <1>   0.0800 
 46 H        1.8840     6.0620     1.0720 H     1 <1>   0.0800 
 47 H        3.5270     5.6530     0.6880 H     1 <1>   0.0800 
 48 H        3.8310     7.7380    -0.5180 H     1 <1>   0.0800 
 49 H        4.2270     7.7620     1.9320 H     1 <1>   0.0800 
 50 H        2.5650     8.2600     2.1930 H     1 <1>   0.0800 
 51 H        4.5110     9.6770     0.7100 H     1 <1>   0.4000 
@<TRIPOS>BOND
  1   1   2  2   
  2   2   3  am  
  3   2   4  1   
  4   3   5  1   
  5   3   6  1   
  6   4   7  1   
  7   4  26  1   
  8   4  27  1   
  9   5   8  1   
 10   5   9  1   
 11   5  28  1   
 12   6  29  1   
 13   6  30  1   
 14   6  31  1   
 15   7   9  1   
 16   8  10  ar  
 17   8  11  ar  
 18   9  12  1   
 19   9  32  1   
 20  10  13  ar  
 21  10  14  1   
 22  11  15  ar  
 23  11  33  1   
 24  12  16  2   
 25  12  17  am  
 26  13  18  ar  
 27  13  34  1   
 28  14  35  1   
 29  14  36  1   
 30  14  37  1   
 31  15  18  ar  
 32  15  38  1   
 33  17  19  1   
 34  17  20  1   
 35  18  39  1   
 36  19  21  1   
 37  19  40  1   
 38  19  41  1   
 39  20  22  1   
 40  20  42  1   
 41  20  43  1   
 42  21  23  1   
 43  21  44  1   
 44  21  45  1   
 45  22  23  1   
 46  22  46  1   
 47  22  47  1   
 48  23  24  1   
 49  23  48  1   
 50  24  25  1   
 51  24  49  1   
 52  24  50  1   
 53  25  51  1   
@<TRIPOS>SUBSTRUCTURE
  1 ****   5 GROUP 4 **** **** 0

# MOE 2024.06 (io_trps.svl 2023.06)
