@<TRIPOS>MOLECULE
NONAME
41 42 1 0 0 
SMALL
USER_CHARGES


@<TRIPOS>ATOM
  1 F       -2.0620    -0.9420    -1.2540 F     1 <1>  -0.1900 
  2 C       -2.4130     0.0630    -0.4960 C.ar  1 <1>   0.1900 
  3 C       -2.9940    -0.1840     0.7380 C.ar  1 <1>  -0.1440 
  4 C       -2.1690     1.3390    -0.9740 C.ar  1 <1>  -0.1500 
  5 C       -3.3110     0.9320     1.4970 C.ar  1 <1>   0.1900 
  6 C       -3.2590    -1.6010     1.2290 C.3   1 <1>   0.2540 
  7 C       -2.5100     2.4340    -0.1840 C.ar  1 <1>   0.0830 
  8 F       -3.8500     0.7740     2.6770 F     1 <1>  -0.1900 
  9 C       -3.0820     2.2250     1.0610 C.ar  1 <1>  -0.1500 
 10 N       -4.4230    -2.1970     0.5480 N.3   1 <1>  -0.8100 
 11 O       -2.3130     3.7220    -0.5580 O.3   1 <1>  -0.3630 
 12 C       -4.4810    -3.6510     0.7770 C.3   1 <1>   0.2900 
 13 C       -5.6890    -1.5070     0.8960 C.3   1 <1>   0.1100 
 14 C       -1.7720     4.0440    -1.8210 C.3   1 <1>   0.0400 
 15 C       -4.9190    -4.3600    -0.4900 C.2   1 <1>  -0.3320 
 16 C       -6.8430    -1.8620    -0.0510 C.3   1 <1>   0.1200 
 17 N       -5.4100    -5.6150    -0.5350 N.pl3 1 <1>   0.0480 
 18 C       -4.8970    -3.9150    -1.7670 C.2   1 <1>   0.0770 
 19 O       -7.9810    -1.1620     0.3350 O.3   1 <1>  -0.6800 
 20 C       -5.6610    -5.8390    -1.8450 C.2   1 <1>   0.0360 
 21 C       -5.6290    -6.5510     0.5810 C.3   1 <1>   0.0160 
 22 N       -5.3690    -4.8450    -2.6170 N.2   1 <1>  -0.5650 
 23 H       -1.7200     1.4470    -1.9420 H     1 <1>   0.1500 
 24 H       -3.4120    -1.6160     2.2950 H     1 <1>   0.0800 
 25 H       -2.3820    -2.1900     1.0160 H     1 <1>   0.0800 
 26 H       -3.3460     3.0620     1.6790 H     1 <1>   0.1500 
 27 H       -5.1560    -3.8690     1.5870 H     1 <1>   0.0800 
 28 H       -3.5090    -4.0320     1.0420 H     1 <1>   0.0800 
 29 H       -5.5480    -0.4430     0.8200 H     1 <1>   0.0800 
 30 H       -5.9600    -1.7400     1.9110 H     1 <1>   0.0800 
 31 H       -1.7260     5.1150    -1.9010 H     1 <1>   0.0800 
 32 H       -2.4130     3.6480    -2.5880 H     1 <1>   0.0800 
 33 H       -0.7820     3.6310    -1.8930 H     1 <1>   0.0800 
 34 H       -7.0750    -2.9110    -0.0250 H     1 <1>   0.0800 
 35 H       -6.6000    -1.5700    -1.0580 H     1 <1>   0.0800 
 36 H       -4.5560    -2.9520    -2.1130 H     1 <1>   0.1500 
 37 H       -8.3010    -1.4720     1.2020 H     1 <1>   0.4000 
 38 H       -6.0690    -6.7700    -2.1970 H     1 <1>   0.1500 
 39 H       -4.7030    -6.7060     1.1020 H     1 <1>   0.0800 
 40 H       -5.9850    -7.4910     0.1980 H     1 <1>   0.0800 
 41 H       -6.3600    -6.1390     1.2520 H     1 <1>   0.0800 
@<TRIPOS>BOND
  1   1   2  1   
  2   2   3  ar  
  3   2   4  ar  
  4   3   5  ar  
  5   3   6  1   
  6   4   7  ar  
  7   4  23  1   
  8   5   8  1   
  9   5   9  ar  
 10   6  10  1   
 11   6  24  1   
 12   6  25  1   
 13   7   9  ar  
 14   7  11  1   
 15   9  26  1   
 16  10  12  1   
 17  10  13  1   
 18  11  14  1   
 19  12  15  1   
 20  12  27  1   
 21  12  28  1   
 22  13  16  1   
 23  13  29  1   
 24  13  30  1   
 25  14  31  1   
 26  14  32  1   
 27  14  33  1   
 28  15  17  1   
 29  15  18  2   
 30  16  19  1   
 31  16  34  1   
 32  16  35  1   
 33  17  20  1   
 34  17  21  1   
 35  18  22  1   
 36  18  36  1   
 37  19  37  1   
 38  20  22  2   
 39  20  38  1   
 40  21  39  1   
 41  21  40  1   
 42  21  41  1   
@<TRIPOS>SUBSTRUCTURE
  1 ****  10 GROUP 4 **** **** 0

# MOE 2024.06 (io_trps.svl 2023.06)
