@<TRIPOS>MOLECULE
NONAME
46 48 1 0 0 
SMALL
USER_CHARGES


@<TRIPOS>ATOM
  1 F        2.2360     0.2910    -1.0630 F     1 <1>  -0.1900 
  2 C        2.5360    -0.6610    -0.2220 C.ar  1 <1>   0.1900 
  3 C        3.2360    -0.3370     0.9220 C.ar  1 <1>  -0.1500 
  4 C        2.1380    -1.9530    -0.5130 C.ar  1 <1>  -0.1500 
  5 C        3.5300    -1.3780     1.7780 C.ar  1 <1>   0.1900 
  6 C        2.4330    -2.9980     0.3660 C.ar  1 <1>   0.0860 
  7 F        4.1920    -1.1190     2.8720 F     1 <1>  -0.1900 
  8 C        3.1500    -2.6830     1.5240 C.ar  1 <1>  -0.1500 
  9 C        2.0250    -4.3650     0.0920 C.2   1 <1>   0.5440 
 10 O        2.7050    -5.3000     0.4750 O.2   1 <1>  -0.5700 
 11 N        0.8540    -4.6640    -0.5690 N.am  1 <1>  -0.6600 
 12 C        0.6730    -6.0160    -1.1580 C.3   1 <1>   0.1400 
 13 C       -0.4350    -4.0340    -0.1820 C.3   1 <1>   0.1400 
 14 C        0.0630    -6.9410    -0.0820 C.3   1 <1>   0.4230 
 15 C       -1.0820    -4.8950     0.9160 C.3   1 <1>  -0.1600 
 16 N        0.0090    -8.4090    -0.4680 N.4   1 <1>  -0.9590 
 17 C       -1.2600    -6.3990     0.5450 C.3   1 <1>   0.0000 
 18 C       -0.8330    -9.2390     0.4520 C.3   1 <1>   0.3430 
 19 C       -0.3930    -8.6470    -1.8920 C.3   1 <1>   0.2630 
 20 C       -1.5200    -7.2000     1.8550 C.3   1 <1>  -0.1600 
 21 C       -2.5210    -6.5600    -0.3550 C.3   1 <1>   0.1200 
 22 C       -0.9100    -8.6200     1.8500 C.3   1 <1>  -0.1600 
 23 O       -2.3140    -6.1180    -1.6510 O.3   1 <1>  -0.6800 
 24 H        3.5380     0.6720     1.1340 H     1 <1>   0.1500 
 25 H        1.6040    -2.1460    -1.4260 H     1 <1>   0.1500 
 26 H        3.4120    -3.4570     2.2230 H     1 <1>   0.1500 
 27 H        0.0500    -5.9370    -2.0290 H     1 <1>   0.0800 
 28 H        1.6310    -6.3990    -1.4630 H     1 <1>   0.0800 
 29 H       -0.2720    -3.0370     0.1920 H     1 <1>   0.0800 
 30 H       -1.0760    -3.9630    -1.0440 H     1 <1>   0.0800 
 31 H        0.7770    -6.8850     0.7250 H     1 <1>   0.0800 
 32 H       -0.4500    -4.8040     1.7820 H     1 <1>   0.0800 
 33 H       -2.0310    -4.4630     1.1820 H     1 <1>   0.0800 
 34 H        0.9790    -8.7380    -0.3620 H     1 <1>   0.4500 
 35 H       -1.8330    -9.3150     0.0570 H     1 <1>   0.0800 
 36 H       -0.4290   -10.2370     0.5160 H     1 <1>   0.0800 
 37 H       -1.3890    -8.2780    -2.0690 H     1 <1>   0.0800 
 38 H       -0.3710    -9.7010    -2.1160 H     1 <1>   0.0800 
 39 H        0.2820    -8.1440    -2.5650 H     1 <1>   0.0800 
 40 H       -1.1050    -6.6870     2.7060 H     1 <1>   0.0800 
 41 H       -2.5800    -7.2670     2.0400 H     1 <1>   0.0800 
 42 H       -3.3410    -5.9950     0.0570 H     1 <1>   0.0800 
 43 H       -2.8300    -7.5880    -0.4150 H     1 <1>   0.0800 
 44 H       -1.4980    -9.2580     2.4880 H     1 <1>   0.0800 
 45 H        0.0820    -8.5920     2.2680 H     1 <1>   0.0800 
 46 H       -3.1700    -5.9640    -2.1070 H     1 <1>   0.4000 
@<TRIPOS>BOND
  1   1   2  1   
  2   2   3  ar  
  3   2   4  ar  
  4   3   5  ar  
  5   3  24  1   
  6   4   6  ar  
  7   4  25  1   
  8   5   7  1   
  9   5   8  ar  
 10   6   8  ar  
 11   6   9  1   
 12   8  26  1   
 13   9  10  2   
 14   9  11  am  
 15  11  12  1   
 16  11  13  1   
 17  12  14  1   
 18  12  27  1   
 19  12  28  1   
 20  13  15  1   
 21  13  29  1   
 22  13  30  1   
 23  14  16  1   
 24  14  17  1   
 25  14  31  1   
 26  15  17  1   
 27  15  32  1   
 28  15  33  1   
 29  16  18  1   
 30  16  19  1   
 31  16  34  1   
 32  17  20  1   
 33  17  21  1   
 34  18  22  1   
 35  18  35  1   
 36  18  36  1   
 37  19  37  1   
 38  19  38  1   
 39  19  39  1   
 40  20  22  1   
 41  20  40  1   
 42  20  41  1   
 43  21  23  1   
 44  21  42  1   
 45  21  43  1   
 46  22  44  1   
 47  22  45  1   
 48  23  46  1   
@<TRIPOS>SUBSTRUCTURE
  1 ****  11 GROUP 4 **** **** 0

# MOE 2024.06 (io_trps.svl 2023.06)
