@<TRIPOS>MOLECULE
NONAME
48 51 1 0 0 
SMALL
USER_CHARGES


@<TRIPOS>ATOM
  1 O        0.4140    -0.3960     0.6510 O.3   1 <1>  -0.6800 
  2 C       -0.0600    -1.7050     0.6170 C.3   1 <1>   0.4240 
  3 C        1.0070    -2.0270    -0.4760 C.ar  1 <1>  -0.1440 
  4 C       -1.5390    -1.1080     0.2850 C.3   1 <1>  -0.0800 
  5 C       -0.5210    -3.2010     0.7030 C.3   1 <1>  -0.1600 
  6 C        2.2930    -2.3240    -0.0230 C.ar  1 <1>  -0.1500 
  7 C        0.8070    -2.0420    -1.8570 C.ar  1 <1>  -0.1500 
  8 C       -2.8570    -1.9430     0.4560 C.3   1 <1>   0.2890 
  9 C       -1.7200    -0.2460    -1.0080 C.3   1 <1>  -0.1600 
 10 C       -1.4100    -3.8030    -0.3860 C.3   1 <1>   0.2090 
 11 C        3.3220    -2.6360    -0.8940 C.ar  1 <1>  -0.1500 
 12 C        1.8320    -2.3510    -2.7340 C.ar  1 <1>  -0.1500 
 13 N       -2.7600    -3.2680    -0.2110 N.pl3 1 <1>  -0.8380 
 14 C       -4.1300    -1.2080    -0.0380 C.3   1 <1>  -0.1600 
 15 C       -2.8340     0.8060    -0.8450 C.3   1 <1>  -0.1600 
 16 C        3.0920    -2.6510    -2.2550 C.ar  1 <1>  -0.1500 
 17 C       -3.8310    -4.0320    -0.6460 C.ar  1 <1>   0.4100 
 18 C       -4.0040     0.3190     0.0250 C.3   1 <1>  -0.1600 
 19 N       -3.8200    -4.2920    -1.9500 N.ar  1 <1>  -0.6200 
 20 C       -4.8280    -4.5010     0.2250 C.ar  1 <1>   0.0730 
 21 C       -4.8260    -5.0020    -2.4220 C.ar  1 <1>   0.1600 
 22 C       -4.7650    -4.2380     1.6290 C.1   1 <1>   0.4840 
 23 C       -5.8710    -5.2430    -0.2980 C.ar  1 <1>  -0.1500 
 24 C       -5.8650    -5.4930    -1.6540 C.ar  1 <1>  -0.1500 
 25 N       -4.7370    -4.0180     2.7490 N.1   1 <1>  -0.5570 
 26 H       -0.0080     0.0900     1.3780 H     1 <1>   0.4000 
 27 H       -1.7080    -0.4100     1.0920 H     1 <1>   0.0800 
 28 H        0.3310    -3.8530     0.7760 H     1 <1>   0.0800 
 29 H       -1.0140    -3.3530     1.6460 H     1 <1>   0.0800 
 30 H        2.4950    -2.3060     1.0330 H     1 <1>   0.1500 
 31 H       -0.1480    -1.8230    -2.2820 H     1 <1>   0.1500 
 32 H       -2.9770    -2.1170     1.5130 H     1 <1>   0.0800 
 33 H       -0.8210     0.2600    -1.3120 H     1 <1>   0.0800 
 34 H       -2.0030    -0.9000    -1.8150 H     1 <1>   0.0800 
 35 H       -1.4420    -4.8730    -0.2710 H     1 <1>   0.0800 
 36 H       -1.0650    -3.5960    -1.3800 H     1 <1>   0.0800 
 37 H        4.3010    -2.8610    -0.5100 H     1 <1>   0.1500 
 38 H        1.6450    -2.3560    -3.7940 H     1 <1>   0.1500 
 39 H       -4.3240    -1.4690    -1.0650 H     1 <1>   0.0800 
 40 H       -4.9740    -1.5180     0.5500 H     1 <1>   0.0800 
 41 H       -2.4240     1.7010    -0.4080 H     1 <1>   0.0800 
 42 H       -3.1990     1.0660    -1.8240 H     1 <1>   0.0800 
 43 H        3.8880    -2.8910    -2.9370 H     1 <1>   0.1500 
 44 H       -4.9190     0.7780    -0.3090 H     1 <1>   0.0800 
 45 H       -3.8460     0.6170     1.0470 H     1 <1>   0.0800 
 46 H       -4.8220    -5.2050    -3.4800 H     1 <1>   0.1500 
 47 H       -6.6610    -5.6170     0.3300 H     1 <1>   0.1500 
 48 H       -6.6530    -6.0640    -2.1120 H     1 <1>   0.1500 
@<TRIPOS>BOND
  1   1   2  1   
  2   1  26  1   
  3   2   3  1   
  4   2   4  1   
  5   2   5  1   
  6   3   6  ar  
  7   3   7  ar  
  8   4   8  1   
  9   4   9  1   
 10   4  27  1   
 11   5  10  1   
 12   5  28  1   
 13   5  29  1   
 14   6  11  ar  
 15   6  30  1   
 16   7  12  ar  
 17   7  31  1   
 18   8  13  1   
 19   8  14  1   
 20   8  32  1   
 21   9  15  1   
 22   9  33  1   
 23   9  34  1   
 24  10  13  1   
 25  10  35  1   
 26  10  36  1   
 27  11  16  ar  
 28  11  37  1   
 29  12  16  ar  
 30  12  38  1   
 31  13  17  1   
 32  14  18  1   
 33  14  39  1   
 34  14  40  1   
 35  15  18  1   
 36  15  41  1   
 37  15  42  1   
 38  16  43  1   
 39  17  19  ar  
 40  17  20  ar  
 41  18  44  1   
 42  18  45  1   
 43  19  21  ar  
 44  20  22  1   
 45  20  23  ar  
 46  21  24  ar  
 47  21  46  1   
 48  22  25  3   
 49  23  24  ar  
 50  23  47  1   
 51  24  48  1   
@<TRIPOS>SUBSTRUCTURE
  1 ****  13 GROUP 4 **** **** 0

# MOE 2024.06 (io_trps.svl 2023.06)
