@<TRIPOS>MOLECULE
NONAME
50 52 1 0 0 
SMALL
USER_CHARGES


@<TRIPOS>ATOM
  1 O       -0.6960    -1.2390    -0.6540 O.3   1 <1>  -0.6800 
  2 C        0.5340    -1.8230    -0.9160 C.3   1 <1>   0.1200 
  3 C        1.4180    -1.8480     0.3660 C.3   1 <1>   0.0000 
  4 C        2.8110    -2.4640     0.0650 C.3   1 <1>   0.4230 
  5 C        1.6580    -0.4000     0.8650 C.3   1 <1>  -0.1600 
  6 C        0.7380    -2.6650     1.5060 C.3   1 <1>  -0.1600 
  7 N        2.7650    -3.9320    -0.3460 N.4   1 <1>  -0.9590 
  8 C        3.6550    -1.5720    -0.8780 C.3   1 <1>   0.1100 
  9 C        2.5120     0.4400    -0.0920 C.3   1 <1>   0.1100 
 10 C        1.2440    -4.1150     1.6230 C.3   1 <1>  -0.1600 
 11 C        1.6240    -4.6940     0.2630 C.3   1 <1>   0.3430 
 12 C        2.8170    -4.1930    -1.8210 C.3   1 <1>   0.2630 
 13 N        3.8140    -0.2190    -0.3220 N.3   1 <1>  -0.8100 
 14 C        4.6680     0.6100    -1.2130 C.3   1 <1>   0.2900 
 15 C        4.8690     2.0300    -0.7010 C.2   1 <1>   0.0060 
 16 N        4.4500     3.0710    -1.3500 N.2   1 <1>  -0.5650 
 17 N        5.4970     2.3310     0.4640 N.pl3 1 <1>   0.0480 
 18 C        4.8190     4.1050    -0.5740 C.2   1 <1>   0.0770 
 19 C        5.4570     3.6740     0.5340 C.2   1 <1>  -0.3020 
 20 C        6.0920     1.4280     1.4720 C.3   1 <1>   0.0960 
 21 C        7.5550     1.1290     1.1320 C.3   1 <1>  -0.2400 
 22 H       -1.2190    -1.1030    -1.4700 H     1 <1>   0.4000 
 23 H        0.3400    -2.8150    -1.2790 H     1 <1>   0.0800 
 24 H        0.9970    -1.2520    -1.7010 H     1 <1>   0.0800 
 25 H        3.3320    -2.4340     1.0080 H     1 <1>   0.0800 
 26 H        2.1650    -0.4130     1.8150 H     1 <1>   0.0800 
 27 H        0.7190     0.1010     1.0230 H     1 <1>   0.0800 
 28 H        0.8990    -2.1910     2.4590 H     1 <1>   0.0800 
 29 H       -0.3290    -2.6780     1.3640 H     1 <1>   0.0800 
 30 H        3.6190    -4.3390     0.0610 H     1 <1>   0.4500 
 31 H        3.1930    -1.5010    -1.8470 H     1 <1>   0.0800 
 32 H        4.6320    -2.0100    -0.9880 H     1 <1>   0.0800 
 33 H        2.6630     1.4070     0.3590 H     1 <1>   0.0800 
 34 H        1.9990     0.5980    -1.0260 H     1 <1>   0.0800 
 35 H        0.4720    -4.7210     2.0650 H     1 <1>   0.0800 
 36 H        2.0960    -4.1610     2.2790 H     1 <1>   0.0800 
 37 H        0.7610    -4.6390    -0.3810 H     1 <1>   0.0800 
 38 H        1.8920    -5.7340     0.3700 H     1 <1>   0.0800 
 39 H        1.9640    -3.7540    -2.3120 H     1 <1>   0.0800 
 40 H        2.8140    -5.2540    -2.0120 H     1 <1>   0.0800 
 41 H        3.7150    -3.7760    -2.2480 H     1 <1>   0.0800 
 42 H        5.6330     0.1480    -1.3200 H     1 <1>   0.0800 
 43 H        4.2190     0.6690    -2.1900 H     1 <1>   0.0800 
 44 H        4.6030     5.1210    -0.8590 H     1 <1>   0.1500 
 45 H        5.8740     4.2380     1.3470 H     1 <1>   0.1500 
 46 H        6.0290     1.9020     2.4350 H     1 <1>   0.0800 
 47 H        5.5240     0.5170     1.5090 H     1 <1>   0.0800 
 48 H        8.1250     2.0410     1.1080 H     1 <1>   0.0800 
 49 H        7.6280     0.6410     0.1760 H     1 <1>   0.0800 
 50 H        7.9790     0.4820     1.8790 H     1 <1>   0.0800 
@<TRIPOS>BOND
  1   1   2  1   
  2   1  22  1   
  3   2   3  1   
  4   2  23  1   
  5   2  24  1   
  6   3   4  1   
  7   3   5  1   
  8   3   6  1   
  9   4   7  1   
 10   4   8  1   
 11   4  25  1   
 12   5   9  1   
 13   5  26  1   
 14   5  27  1   
 15   6  10  1   
 16   6  28  1   
 17   6  29  1   
 18   7  11  1   
 19   7  12  1   
 20   7  30  1   
 21   8  13  1   
 22   8  31  1   
 23   8  32  1   
 24   9  13  1   
 25   9  33  1   
 26   9  34  1   
 27  10  11  1   
 28  10  35  1   
 29  10  36  1   
 30  11  37  1   
 31  11  38  1   
 32  12  39  1   
 33  12  40  1   
 34  12  41  1   
 35  13  14  1   
 36  14  15  1   
 37  14  42  1   
 38  14  43  1   
 39  15  16  2   
 40  15  17  1   
 41  16  18  1   
 42  17  19  1   
 43  17  20  1   
 44  18  19  2   
 45  18  44  1   
 46  19  45  1   
 47  20  21  1   
 48  20  46  1   
 49  20  47  1   
 50  21  48  1   
 51  21  49  1   
 52  21  50  1   
@<TRIPOS>SUBSTRUCTURE
  1 ****  13 GROUP 4 **** **** 0

# MOE 2024.06 (io_trps.svl 2023.06)
