@<TRIPOS>MOLECULE
NONAME
46 48 1 0 0 
SMALL
USER_CHARGES


@<TRIPOS>ATOM
  1 F        0.4440    -1.1980     1.0730 F     1 <1>  -0.1900 
  2 C       -0.3190    -2.1410     0.5790 C.ar  1 <1>   0.1900 
  3 C        0.1020    -2.9600    -0.4740 C.ar  1 <1>   0.0820 
  4 C       -1.5680    -2.2830     1.1510 C.ar  1 <1>  -0.1500 
  5 O        1.3050    -2.9170    -1.1180 O.3   1 <1>  -0.3630 
  6 C       -0.7810    -3.9270    -0.9280 C.ar  1 <1>  -0.1500 
  7 C       -2.4240    -3.2570     0.6720 C.ar  1 <1>  -0.1500 
  8 C        2.3450    -2.0400    -0.7460 C.3   1 <1>   0.0400 
  9 C       -2.0520    -4.1040    -0.3750 C.ar  1 <1>   0.0530 
 10 C       -2.9410    -5.1250    -0.8790 C.2   1 <1>   0.0870 
 11 O       -2.7860    -5.6000    -2.0940 O.3   1 <1>  -0.0190 
 12 C       -4.0040    -5.7750    -0.3440 C.2   1 <1>  -0.2330 
 13 N       -3.6740    -6.5100    -2.4020 N.2   1 <1>  -0.4100 
 14 C       -4.4210    -6.6320    -1.3620 C.2   1 <1>   0.3720 
 15 C       -4.5980    -5.6630     0.9450 C.2   1 <1>   1.0330 
 16 N       -5.5010    -7.5180    -1.3230 N.pl3 1 <1>  -0.8210 
 17 O       -5.4800    -4.8130     1.1580 O.co2 1 <1>  -0.9000 
 18 O       -4.2360    -6.4000     1.8780 O.co2 1 <1>  -0.9000 
 19 C       -5.3740    -8.5680    -0.2770 C.3   1 <1>   0.2090 
 20 C       -6.8160    -6.8370    -1.2450 C.3   1 <1>   0.2090 
 21 C       -6.4400    -9.6530    -0.4840 C.3   1 <1>  -0.0800 
 22 C       -7.9240    -7.8640    -1.4990 C.3   1 <1>  -0.1600 
 23 C       -7.8510    -9.0290    -0.4990 C.3   1 <1>  -0.1600 
 24 C       -6.2960   -10.7080     0.6190 C.3   1 <1>   0.1200 
 25 O       -7.2180   -11.7320     0.4120 O.3   1 <1>  -0.5600 
 26 C       -7.1900   -12.7180     1.3910 C.3   1 <1>   0.0400 
 27 H       -1.8700    -1.6430     1.9590 H     1 <1>   0.1500 
 28 H       -0.4680    -4.5650    -1.7340 H     1 <1>   0.1500 
 29 H       -3.3990    -3.3560     1.1200 H     1 <1>   0.1500 
 30 H        3.1880    -2.2300    -1.3850 H     1 <1>   0.0800 
 31 H        2.6130    -2.2300     0.2780 H     1 <1>   0.0800 
 32 H        2.0100    -1.0260    -0.8770 H     1 <1>   0.0800 
 33 H       -5.5040    -8.1300     0.6980 H     1 <1>   0.0800 
 34 H       -4.3880    -8.9980    -0.3260 H     1 <1>   0.0800 
 35 H       -6.8580    -6.0550    -1.9840 H     1 <1>   0.0800 
 36 H       -6.9440    -6.3910    -0.2720 H     1 <1>   0.0800 
 37 H       -6.2440   -10.1240    -1.4310 H     1 <1>   0.0800 
 38 H       -7.8190    -8.2380    -2.5030 H     1 <1>   0.0800 
 39 H       -8.8800    -7.3790    -1.4220 H     1 <1>   0.0800 
 40 H       -8.0860    -8.6600     0.4840 H     1 <1>   0.0800 
 41 H       -8.5780    -9.7770    -0.7600 H     1 <1>   0.0800 
 42 H       -6.4820   -10.2650     1.5840 H     1 <1>   0.0800 
 43 H       -5.3060   -11.1320     0.6020 H     1 <1>   0.0800 
 44 H       -7.9270   -13.4600     1.1400 H     1 <1>   0.0800 
 45 H       -7.4260   -12.2780     2.3440 H     1 <1>   0.0800 
 46 H       -6.2130   -13.1690     1.4110 H     1 <1>   0.0800 
@<TRIPOS>BOND
  1   1   2  1   
  2   2   3  ar  
  3   2   4  ar  
  4   3   5  1   
  5   3   6  ar  
  6   4   7  ar  
  7   4  27  1   
  8   5   8  1   
  9   6   9  ar  
 10   6  28  1   
 11   7   9  ar  
 12   7  29  1   
 13   8  30  1   
 14   8  31  1   
 15   8  32  1   
 16   9  10  1   
 17  10  11  1   
 18  10  12  2   
 19  11  13  1   
 20  12  14  1   
 21  12  15  1   
 22  13  14  2   
 23  14  16  1   
 24  15  17  ar  
 25  15  18  ar  
 26  16  19  1   
 27  16  20  1   
 28  19  21  1   
 29  19  33  1   
 30  19  34  1   
 31  20  22  1   
 32  20  35  1   
 33  20  36  1   
 34  21  23  1   
 35  21  24  1   
 36  21  37  1   
 37  22  23  1   
 38  22  38  1   
 39  22  39  1   
 40  23  40  1   
 41  23  41  1   
 42  24  25  1   
 43  24  42  1   
 44  24  43  1   
 45  25  26  1   
 46  26  44  1   
 47  26  45  1   
 48  26  46  1   
@<TRIPOS>SUBSTRUCTURE
  1 ****  12 GROUP 4 **** **** 0

# MOE 2024.06 (io_trps.svl 2023.06)
