@<TRIPOS>MOLECULE
NONAME
48 51 1 0 0 
SMALL
USER_CHARGES


@<TRIPOS>ATOM
  1 O       -1.3980     0.7610    -1.9950 O.2   1 <1>  -0.5700 
  2 C       -2.2760     1.2280    -1.2950 C.2   1 <1>   0.5440 
  3 N       -3.5290     0.6500    -1.2980 N.am  1 <1>  -0.6600 
  4 C       -1.9650     2.3780    -0.4770 C.ar  1 <1>   0.0860 
  5 C       -3.8920    -0.4300    -2.2600 C.3   1 <1>   0.1400 
  6 C       -4.5570     0.8670    -0.2410 C.3   1 <1>   0.1400 
  7 C       -2.7060     3.5510    -0.5780 C.ar  1 <1>   0.1600 
  8 C       -0.9170     2.3730     0.4300 C.ar  1 <1>  -0.1500 
  9 C       -4.0840    -1.7460    -1.5010 C.3   1 <1>  -0.1600 
 10 C       -4.7490    -0.4290     0.5500 C.3   1 <1>  -0.1600 
 11 N       -2.5140     4.6520     0.1310 N.ar  1 <1>  -0.6200 
 12 C       -0.6950     3.5130     1.1710 C.ar  1 <1>  -0.1500 
 13 C       -5.1130    -1.6160    -0.3640 C.3   1 <1>   0.4240 
 14 C       -1.5040     4.6340     1.0060 C.ar  1 <1>   0.3830 
 15 O       -6.3060    -1.2590    -1.0300 O.3   1 <1>  -0.5600 
 16 C       -5.2690    -2.9490     0.4220 C.ar  1 <1>  -0.1430 
 17 C       -1.2440     5.8060     1.8020 C.1   1 <1>   0.4840 
 18 C       -7.5120    -1.4960    -0.3790 C.3   1 <1>   0.1200 
 19 C       -4.2030    -3.5340     1.1190 C.ar  1 <1>   0.0830 
 20 C       -6.5030    -3.6000     0.4480 C.ar  1 <1>  -0.1440 
 21 N       -0.9990     6.7080     2.4600 N.1   1 <1>  -0.5570 
 22 C       -7.6970    -3.0010    -0.2650 C.3   1 <1>  -0.0170 
 23 O       -2.9960    -2.9100     1.1270 O.3   1 <1>  -0.3630 
 24 C       -4.3830    -4.7370     1.8000 C.ar  1 <1>  -0.1500 
 25 C       -6.6690    -4.7980     1.1230 C.ar  1 <1>  -0.1500 
 26 C       -1.8070    -3.5700     1.5050 C.3   1 <1>   0.0400 
 27 C       -5.6100    -5.3670     1.7990 C.ar  1 <1>  -0.1500 
 28 H       -3.1260    -0.5520    -3.0060 H     1 <1>   0.0800 
 29 H       -4.8030    -0.1600    -2.7650 H     1 <1>   0.0800 
 30 H       -5.4850     1.1550    -0.7060 H     1 <1>   0.0800 
 31 H       -4.2650     1.6490     0.4360 H     1 <1>   0.0800 
 32 H       -3.5100     3.5690    -1.2950 H     1 <1>   0.1500 
 33 H       -0.3010     1.4960     0.5360 H     1 <1>   0.1500 
 34 H       -3.1260    -2.0410    -1.1230 H     1 <1>   0.0800 
 35 H       -4.4070    -2.5140    -2.1790 H     1 <1>   0.0800 
 36 H       -5.5060    -0.2980     1.2990 H     1 <1>   0.0800 
 37 H       -3.8330    -0.6300     1.0690 H     1 <1>   0.0800 
 38 H        0.1120     3.5390     1.8830 H     1 <1>   0.1500 
 39 H       -8.2980    -1.0620    -0.9710 H     1 <1>   0.0800 
 40 H       -7.4950    -1.0300     0.5900 H     1 <1>   0.0800 
 41 H       -7.7900    -3.4290    -1.2470 H     1 <1>   0.0800 
 42 H       -8.6000    -3.2040     0.2820 H     1 <1>   0.0800 
 43 H       -3.5820    -5.1970     2.3430 H     1 <1>   0.1500 
 44 H       -7.6250    -5.2920     1.1270 H     1 <1>   0.1500 
 45 H       -0.9800    -2.9220     1.2780 H     1 <1>   0.0800 
 46 H       -1.7200    -4.4830     0.9430 H     1 <1>   0.0800 
 47 H       -1.8370    -3.7660     2.5620 H     1 <1>   0.0800 
 48 H       -5.7430    -6.2970     2.3240 H     1 <1>   0.1500 
@<TRIPOS>BOND
  1   1   2  2   
  2   2   3  am  
  3   2   4  1   
  4   3   5  1   
  5   3   6  1   
  6   4   7  ar  
  7   4   8  ar  
  8   5   9  1   
  9   5  28  1   
 10   5  29  1   
 11   6  10  1   
 12   6  30  1   
 13   6  31  1   
 14   7  11  ar  
 15   7  32  1   
 16   8  12  ar  
 17   8  33  1   
 18   9  13  1   
 19   9  34  1   
 20   9  35  1   
 21  10  13  1   
 22  10  36  1   
 23  10  37  1   
 24  11  14  ar  
 25  12  14  ar  
 26  12  38  1   
 27  13  15  1   
 28  13  16  1   
 29  14  17  1   
 30  15  18  1   
 31  16  19  ar  
 32  16  20  ar  
 33  17  21  3   
 34  18  22  1   
 35  18  39  1   
 36  18  40  1   
 37  19  23  1   
 38  19  24  ar  
 39  20  22  1   
 40  20  25  ar  
 41  22  41  1   
 42  22  42  1   
 43  23  26  1   
 44  24  27  ar  
 45  24  43  1   
 46  25  27  ar  
 47  25  44  1   
 48  26  45  1   
 49  26  46  1   
 50  26  47  1   
 51  27  48  1   
@<TRIPOS>SUBSTRUCTURE
  1 ****  10 GROUP 4 **** **** 0

# MOE 2024.06 (io_trps.svl 2023.06)
