@<TRIPOS>MOLECULE
NONAME
42 44 1 0 0 
SMALL
USER_CHARGES


@<TRIPOS>ATOM
  1 S        1.0410     0.3840     0.4540 S.3   1 <1>  -0.3320 
  2 C        0.4960     2.0740     0.3080 C.ar  1 <1>   0.7720 
  3 C       -0.3550    -0.7480     0.0010 C.3   1 <1>  -0.0100 
  4 N        1.3460     3.0030     0.5830 N.ar  1 <1>  -0.6200 
  5 N       -0.7780     2.2800    -0.0830 N.ar  1 <1>  -0.1790 
  6 C        0.9170     4.2660     0.4660 C.ar  1 <1>   0.4100 
  7 C       -1.2500     3.5300    -0.2100 C.ar  1 <1>   0.4610 
  8 N        1.8420     5.1870     0.7620 N.pl3 1 <1>  -0.8690 
  9 C       -0.3750     4.5580     0.0750 C.ar  1 <1>  -0.1500 
 10 N       -2.5270     3.7320    -0.6000 N.pl3 1 <1>  -0.9000 
 11 C        1.8820     6.6500     0.5250 C.3   1 <1>   0.3900 
 12 C        3.3320     7.0960     0.3370 C.2   1 <1>   0.1080 
 13 N        4.3530     6.3360     0.6170 N.2   1 <1>  -0.7070 
 14 C        3.7310     8.3440    -0.1460 C.2   1 <1>  -0.1810 
 15 N        5.4290     7.0830     0.3160 N.pl3 1 <1>   0.3000 
 16 C        5.0780     8.2990    -0.1470 C.2   1 <1>  -0.3320 
 17 C        2.8660     9.5120    -0.5860 C.3   1 <1>   0.0210 
 18 C        6.0700     9.3650    -0.5710 C.3   1 <1>   0.0200 
 19 C        3.2320    10.8060     0.1540 C.3   1 <1>  -0.1600 
 20 C        5.8220    10.6900     0.1620 C.3   1 <1>  -0.1600 
 21 C        4.5590    11.4410    -0.2960 C.3   1 <1>  -0.1600 
 22 H        0.0120    -1.7550     0.1000 H     1 <1>   0.0800 
 23 H       -0.6360    -0.5590    -1.0200 H     1 <1>   0.0800 
 24 H       -1.1680    -0.5850     0.6860 H     1 <1>   0.0800 
 25 H       -1.3650     1.4830    -0.2760 H     1 <1>   0.4570 
 26 H        2.8060     4.8690     0.9600 H     1 <1>   0.4000 
 27 H       -0.6960     5.5770    -0.0020 H     1 <1>   0.1500 
 28 H       -2.9140     4.6800    -0.7010 H     1 <1>   0.4000 
 29 H       -3.2300     3.0190    -0.8280 H     1 <1>   0.4000 
 30 H        1.4670     7.1610     1.3760 H     1 <1>   0.0800 
 31 H        1.3150     6.8960    -0.3540 H     1 <1>   0.0800 
 32 H        6.3880     6.7350     0.4390 H     1 <1>   0.2700 
 33 H        1.8340     9.2890    -0.3890 H     1 <1>   0.0800 
 34 H        2.9730     9.6530    -1.6470 H     1 <1>   0.0800 
 35 H        6.0060     9.5140    -1.6350 H     1 <1>   0.0800 
 36 H        7.0680     9.0310    -0.3470 H     1 <1>   0.0800 
 37 H        3.2580    10.6190     1.2140 H     1 <1>   0.0800 
 38 H        2.4480    11.5210    -0.0260 H     1 <1>   0.0800 
 39 H        6.6690    11.3280    -0.0160 H     1 <1>   0.0800 
 40 H        5.7740    10.5090     1.2220 H     1 <1>   0.0800 
 41 H        4.6030    12.4320     0.1230 H     1 <1>   0.0800 
 42 H        4.5680    11.5520    -1.3670 H     1 <1>   0.0800 
@<TRIPOS>BOND
  1   1   2  1   
  2   1   3  1   
  3   2   4  ar  
  4   2   5  ar  
  5   3  22  1   
  6   3  23  1   
  7   3  24  1   
  8   4   6  ar  
  9   5   7  ar  
 10   5  25  1   
 11   6   8  1   
 12   6   9  ar  
 13   7   9  ar  
 14   7  10  1   
 15   8  11  1   
 16   8  26  1   
 17   9  27  1   
 18  10  28  1   
 19  10  29  1   
 20  11  12  1   
 21  11  30  1   
 22  11  31  1   
 23  12  13  2   
 24  12  14  1   
 25  13  15  1   
 26  14  16  2   
 27  14  17  1   
 28  15  16  1   
 29  15  32  1   
 30  16  18  1   
 31  17  19  1   
 32  17  33  1   
 33  17  34  1   
 34  18  20  1   
 35  18  35  1   
 36  18  36  1   
 37  19  21  1   
 38  19  37  1   
 39  19  38  1   
 40  20  21  1   
 41  20  39  1   
 42  20  40  1   
 43  21  41  1   
 44  21  42  1   
@<TRIPOS>SUBSTRUCTURE
  1 ****  11 GROUP 4 **** **** 0

# MOE 2024.06 (io_trps.svl 2023.06)
