@<TRIPOS>MOLECULE
NONAME
51 56 1 0 0 
SMALL
USER_CHARGES


@<TRIPOS>ATOM
  1 O        0.4440    -0.5090    -1.3500 O.3   1 <1>  -0.5600 
  2 C        1.6050    -0.8620    -0.6260 C.3   1 <1>   0.4600 
  3 C       -0.8100    -0.8090    -0.7840 C.3   1 <1>   0.1200 
  4 C        1.3960    -2.2250     0.0240 C.2   1 <1>  -0.3320 
  5 C        1.8860     0.2110     0.4330 C.3   1 <1>  -0.1600 
  6 C        2.7450    -0.9350    -1.6440 C.3   1 <1>  -0.1600 
  7 C       -1.0040    -2.3270    -0.6300 C.3   1 <1>   0.0210 
  8 N        2.3400    -2.9570     0.6870 N.pl3 1 <1>   0.0330 
  9 C        0.2280    -2.8970     0.0260 C.2   1 <1>  -0.1810 
 10 C        2.1780     1.5650    -0.2080 C.3   1 <1>   0.2090 
 11 C        3.0470     0.4340    -2.2490 C.3   1 <1>   0.2090 
 12 C        1.7510    -4.1220     1.1140 C.ar  1 <1>  -0.1520 
 13 C        0.4180    -4.1160     0.7100 C.ar  1 <1>   0.0000 
 14 N        3.3110     1.4100    -1.1550 N.pl3 1 <1>  -0.8380 
 15 C        2.2760    -5.2000     1.8300 C.ar  1 <1>  -0.1500 
 16 C       -0.4050    -5.2020     1.0220 C.ar  1 <1>  -0.1500 
 17 C        4.5980     1.7380    -0.7830 C.ar  1 <1>   0.4100 
 18 C        1.4550    -6.2630     2.1320 C.ar  1 <1>  -0.1500 
 19 C        0.1140    -6.2640     1.7280 C.ar  1 <1>  -0.1500 
 20 N        5.5440     0.8350    -0.9520 N.ar  1 <1>  -0.6200 
 21 C        4.8920     2.9730    -0.2400 C.ar  1 <1>  -0.1500 
 22 C        6.7530     1.1940    -0.5670 C.ar  1 <1>   0.4700 
 23 C        6.1830     3.2290     0.1310 C.ar  1 <1>   0.2780 
 24 N        7.1400     2.3360    -0.0290 N.ar  1 <1>  -0.6200 
 25 C        6.5800     4.5650     0.7390 C.3   1 <1>  -0.0680 
 26 C        6.9160     4.6490     2.1970 C.3   1 <1>  -0.2000 
 27 C        5.6830     5.3220     1.6740 C.3   1 <1>  -0.2000 
 28 H       -1.5670    -0.4020    -1.4310 H     1 <1>   0.0800 
 29 H       -0.8770    -0.3250     0.1740 H     1 <1>   0.0800 
 30 H        2.7450    -0.0790     1.0100 H     1 <1>   0.0800 
 31 H        1.0590     0.2900     1.1110 H     1 <1>   0.0800 
 32 H        2.4860    -1.6310    -2.4190 H     1 <1>   0.0800 
 33 H        3.6380    -1.2930    -1.1670 H     1 <1>   0.0800 
 34 H       -1.1450    -2.7800    -1.5940 H     1 <1>   0.0800 
 35 H       -1.8710    -2.5220    -0.0260 H     1 <1>   0.0800 
 36 H        3.3210    -2.6980     0.8340 H     1 <1>   0.2700 
 37 H        2.4200     2.2820     0.5570 H     1 <1>   0.0800 
 38 H        1.3130     1.9180    -0.7440 H     1 <1>   0.0800 
 39 H        2.2060     0.7730    -2.8300 H     1 <1>   0.0800 
 40 H        3.9000     0.3700    -2.9030 H     1 <1>   0.0800 
 41 H        3.3070    -5.1910     2.1360 H     1 <1>   0.1500 
 42 H       -1.4310    -5.1900     0.7050 H     1 <1>   0.1500 
 43 H        1.8360    -7.1050     2.6820 H     1 <1>   0.1500 
 44 H       -0.5070    -7.1070     1.9750 H     1 <1>   0.1500 
 45 H        4.1210     3.7060    -0.1290 H     1 <1>   0.1500 
 46 H        7.5260     0.4590    -0.7080 H     1 <1>   0.1500 
 47 H        7.2000     5.1340     0.0680 H     1 <1>   0.1000 
 48 H        7.7600     5.2470     2.4910 H     1 <1>   0.1000 
 49 H        6.8160     3.7560     2.7900 H     1 <1>   0.1000 
 50 H        4.7300     4.9110     1.9570 H     1 <1>   0.1000 
 51 H        5.6680     6.3960     1.6140 H     1 <1>   0.1000 
@<TRIPOS>BOND
  1   1   2  1   
  2   1   3  1   
  3   2   4  1   
  4   2   5  1   
  5   2   6  1   
  6   3   7  1   
  7   3  28  1   
  8   3  29  1   
  9   4   8  1   
 10   4   9  2   
 11   5  10  1   
 12   5  30  1   
 13   5  31  1   
 14   6  11  1   
 15   6  32  1   
 16   6  33  1   
 17   7   9  1   
 18   7  34  1   
 19   7  35  1   
 20   8  12  1   
 21   8  36  1   
 22   9  13  1   
 23  10  14  1   
 24  10  37  1   
 25  10  38  1   
 26  11  14  1   
 27  11  39  1   
 28  11  40  1   
 29  12  13  ar  
 30  12  15  ar  
 31  13  16  ar  
 32  14  17  1   
 33  15  18  ar  
 34  15  41  1   
 35  16  19  ar  
 36  16  42  1   
 37  17  20  ar  
 38  17  21  ar  
 39  18  19  ar  
 40  18  43  1   
 41  19  44  1   
 42  20  22  ar  
 43  21  23  ar  
 44  21  45  1   
 45  22  24  ar  
 46  22  46  1   
 47  23  24  ar  
 48  23  25  1   
 49  25  26  1   
 50  25  27  1   
 51  25  47  1   
 52  26  27  1   
 53  26  48  1   
 54  26  49  1   
 55  27  50  1   
 56  27  51  1   
@<TRIPOS>SUBSTRUCTURE
  1 ****   5 GROUP 4 **** **** 0

# MOE 2024.06 (io_trps.svl 2023.06)
