@<TRIPOS>MOLECULE
NONAME
56 60 1 0 0 
SMALL
USER_CHARGES


@<TRIPOS>ATOM
  1 O       -0.5180     0.0830     0.4770 O.2   1 <1>  -0.5700 
  2 C       -0.1550    -1.0540     0.2440 C.2   1 <1>   0.5440 
  3 N        1.1570    -1.4020     0.4860 N.am  1 <1>  -0.6600 
  4 C       -1.1140    -2.0070    -0.2750 C.ar  1 <1>   0.0860 
  5 C        2.2020    -0.3840     0.8130 C.3   1 <1>   0.1400 
  6 C        1.6230    -2.8070     0.6930 C.3   1 <1>   0.1400 
  7 C       -2.3390    -2.2190     0.3260 C.ar  1 <1>  -0.1500 
  8 C       -0.8780    -2.7650    -1.4140 C.ar  1 <1>  -0.1500 
  9 C        2.8370    -0.6790     2.1810 C.3   1 <1>   0.1200 
 10 C        2.3000    -2.9580     2.0660 C.3   1 <1>   0.1200 
 11 C       -3.2450    -3.1370    -0.1880 C.ar  1 <1>   0.4100 
 12 C       -1.8300    -3.6610    -1.8540 C.ar  1 <1>   0.1600 
 13 O        3.3040    -1.9980     2.2330 O.3   1 <1>  -0.5600 
 14 N       -2.9950    -3.8670    -1.2690 N.ar  1 <1>  -0.6200 
 15 N       -4.4740    -3.3100     0.4250 N.pl3 1 <1>  -0.8380 
 16 C       -5.3610    -2.1280     0.6770 C.3   1 <1>   0.2090 
 17 C       -5.1900    -4.6150     0.3490 C.3   1 <1>   0.2090 
 18 C       -6.5030    -2.0330    -0.3570 C.3   1 <1>   0.1430 
 19 C       -6.3180    -4.5480    -0.6880 C.3   1 <1>  -0.1600 
 20 C       -7.3990    -0.8710     0.0330 C.ar  1 <1>   0.1670 
 21 C       -7.2710    -3.3710    -0.4210 C.3   1 <1>  -0.1600 
 22 C       -5.9850    -1.5940    -1.7540 C.3   1 <1>  -0.1600 
 23 N       -8.2400    -0.8600     1.0440 N.ar  1 <1>  -0.6200 
 24 C       -7.2230     0.1990    -0.7930 C.ar  1 <1>  -0.1430 
 25 C       -6.1860    -0.0730    -1.8530 C.3   1 <1>  -0.0170 
 26 C       -8.9130     0.2730     1.1850 C.ar  1 <1>   0.4770 
 27 C       -7.9730     1.3240    -0.5530 C.ar  1 <1>   0.1600 
 28 N       -8.8320     1.3700     0.4440 N.ar  1 <1>  -0.6200 
 29 C       -9.8990     0.3250     2.3270 C.3   1 <1>  -0.0970 
 30 H        1.7830     0.6070     0.8220 H     1 <1>   0.0800 
 31 H        2.9670    -0.4090     0.0570 H     1 <1>   0.0800 
 32 H        2.3290    -3.0640    -0.0780 H     1 <1>   0.0800 
 33 H        0.8000    -3.4970     0.6370 H     1 <1>   0.0800 
 34 H       -2.5950    -1.6680     1.2100 H     1 <1>   0.1500 
 35 H        0.0460    -2.6470    -1.9500 H     1 <1>   0.1500 
 36 H        2.1190    -0.5320     2.9690 H     1 <1>   0.0800 
 37 H        3.6750    -0.0260     2.3490 H     1 <1>   0.0800 
 38 H        2.7560    -3.9280     2.1520 H     1 <1>   0.0800 
 39 H        1.5790    -2.8440     2.8580 H     1 <1>   0.0800 
 40 H       -1.6260    -4.2420    -2.7380 H     1 <1>   0.1500 
 41 H       -4.7890    -1.2170     0.6540 H     1 <1>   0.0800 
 42 H       -5.7860    -2.2220     1.6610 H     1 <1>   0.0800 
 43 H       -5.6020    -4.8400     1.3180 H     1 <1>   0.0800 
 44 H       -4.5020    -5.4030     0.0930 H     1 <1>   0.0800 
 45 H       -6.8690    -5.4710    -0.6660 H     1 <1>   0.0800 
 46 H       -5.8770    -4.4560    -1.6650 H     1 <1>   0.0800 
 47 H       -8.0310    -3.3270    -1.1800 H     1 <1>   0.0800 
 48 H       -7.7650    -3.5340     0.5220 H     1 <1>   0.0800 
 49 H       -6.5820    -2.0590    -2.5190 H     1 <1>   0.0800 
 50 H       -4.9600    -1.8700    -1.9220 H     1 <1>   0.0800 
 51 H       -6.5250     0.2190    -2.8310 H     1 <1>   0.0800 
 52 H       -5.2740     0.4460    -1.6100 H     1 <1>   0.0800 
 53 H       -7.8690     2.1930    -1.1800 H     1 <1>   0.1500 
 54 H       -9.7180    -0.4780     3.0160 H     1 <1>   0.0800 
 55 H      -10.8960     0.2400     1.9380 H     1 <1>   0.0800 
 56 H       -9.8010     1.2600     2.8470 H     1 <1>   0.0800 
@<TRIPOS>BOND
  1   1   2  2   
  2   2   3  am  
  3   2   4  1   
  4   3   5  1   
  5   3   6  1   
  6   4   7  ar  
  7   4   8  ar  
  8   5   9  1   
  9   5  30  1   
 10   5  31  1   
 11   6  10  1   
 12   6  32  1   
 13   6  33  1   
 14   7  11  ar  
 15   7  34  1   
 16   8  12  ar  
 17   8  35  1   
 18   9  13  1   
 19   9  36  1   
 20   9  37  1   
 21  10  13  1   
 22  10  38  1   
 23  10  39  1   
 24  11  14  ar  
 25  11  15  1   
 26  12  14  ar  
 27  12  40  1   
 28  15  16  1   
 29  15  17  1   
 30  16  18  1   
 31  16  41  1   
 32  16  42  1   
 33  17  19  1   
 34  17  43  1   
 35  17  44  1   
 36  18  20  1   
 37  18  21  1   
 38  18  22  1   
 39  19  21  1   
 40  19  45  1   
 41  19  46  1   
 42  20  23  ar  
 43  20  24  ar  
 44  21  47  1   
 45  21  48  1   
 46  22  25  1   
 47  22  49  1   
 48  22  50  1   
 49  23  26  ar  
 50  24  25  1   
 51  24  27  ar  
 52  25  51  1   
 53  25  52  1   
 54  26  28  ar  
 55  26  29  1   
 56  27  28  ar  
 57  27  53  1   
 58  29  54  1   
 59  29  55  1   
 60  29  56  1   
@<TRIPOS>SUBSTRUCTURE
  1 ****   7 GROUP 4 **** **** 0

# MOE 2024.06 (io_trps.svl 2023.06)
