@<TRIPOS>MOLECULE
NONAME
48 50 1 0 0 
SMALL
USER_CHARGES


@<TRIPOS>ATOM
  1 CL       1.9380     1.7080    -3.4500 Cl    1 <1>  -0.1770 
  2 C        1.6190     3.1350    -2.5010 C.ar  1 <1>   0.1770 
  3 C        2.6670     3.8780    -1.9850 C.ar  1 <1>   0.1600 
  4 C        0.3210     3.5250    -2.2670 C.ar  1 <1>  -0.1500 
  5 N        2.5170     4.9730    -1.2560 N.ar  1 <1>  -0.6200 
  6 C        0.1540     4.6620    -1.5050 C.ar  1 <1>  -0.1500 
  7 C        1.2520     5.3670    -1.0030 C.ar  1 <1>   0.3960 
  8 C        0.9960     6.5640    -0.2030 C.2   1 <1>   0.5440 
  9 O        0.4570     7.5170    -0.7420 O.2   1 <1>  -0.5700 
 10 N        1.3080     6.6740     1.1460 N.am  1 <1>  -0.6600 
 11 C        2.1560     5.6830     1.8910 C.3   1 <1>   0.1400 
 12 C        0.8560     7.8530     1.9370 C.3   1 <1>   0.1400 
 13 C        3.3380     6.3350     2.6360 C.3   1 <1>   0.1400 
 14 C        1.8250     9.0300     1.7580 C.3   1 <1>  -0.1600 
 15 N        3.8460     7.5400     1.9110 N.am  1 <1>  -0.6600 
 16 C        3.2250     8.8210     2.3510 C.3   1 <1>   0.1400 
 17 C        4.6310     7.3690     0.7980 C.2   1 <1>   0.5690 
 18 O        5.2480     6.3420     0.6100 O.2   1 <1>  -0.5700 
 19 C        4.8120     8.4800    -0.2630 C.3   1 <1>   0.4840 
 20 N        6.1710     8.4600    -0.8970 N.4   1 <1>  -0.9590 
 21 C        3.8880     8.3220    -1.4660 C.3   1 <1>  -0.1600 
 22 C        6.0730     9.0770    -2.2450 C.3   1 <1>   0.3430 
 23 C        7.2480     9.0160    -0.0290 C.3   1 <1>   0.2630 
 24 C        4.5900     9.0590    -2.6040 C.3   1 <1>  -0.1600 
 25 H        3.6710     3.5460    -2.1880 H     1 <1>   0.1500 
 26 H       -0.5100     2.9670    -2.6620 H     1 <1>   0.1500 
 27 H       -0.8350     5.0270    -1.2890 H     1 <1>   0.1500 
 28 H        1.5430     5.1520     2.5980 H     1 <1>   0.0800 
 29 H        2.5620     4.9510     1.2190 H     1 <1>   0.0800 
 30 H       -0.1230     8.1490     1.5970 H     1 <1>   0.0800 
 31 H        0.7700     7.5900     2.9770 H     1 <1>   0.0800 
 32 H        4.1280     5.6110     2.7450 H     1 <1>   0.0800 
 33 H        3.0240     6.6110     3.6270 H     1 <1>   0.0800 
 34 H        1.8950     9.2720     0.7150 H     1 <1>   0.0800 
 35 H        1.3910     9.8880     2.2380 H     1 <1>   0.0800 
 36 H        3.1550     8.8200     3.4260 H     1 <1>   0.0800 
 37 H        3.8570     9.6490     2.0820 H     1 <1>   0.0800 
 38 H        4.6410     9.4410     0.1860 H     1 <1>   0.0800 
 39 H        6.3420     7.4430    -1.0070 H     1 <1>   0.4500 
 40 H        3.8000     7.2780    -1.7100 H     1 <1>   0.0800 
 41 H        2.9040     8.7090    -1.2760 H     1 <1>   0.0800 
 42 H        6.4290    10.0950    -2.2240 H     1 <1>   0.0800 
 43 H        6.6500     8.5140    -2.9610 H     1 <1>   0.0800 
 44 H        7.0730    10.0610     0.1660 H     1 <1>   0.0800 
 45 H        8.2070     8.9080    -0.5100 H     1 <1>   0.0800 
 46 H        7.2760     8.4860     0.9110 H     1 <1>   0.0800 
 47 H        4.2310    10.0720    -2.6730 H     1 <1>   0.0800 
 48 H        4.4230     8.5740    -3.5510 H     1 <1>   0.0800 
@<TRIPOS>BOND
  1   1   2  1   
  2   2   3  ar  
  3   2   4  ar  
  4   3   5  ar  
  5   3  25  1   
  6   4   6  ar  
  7   4  26  1   
  8   5   7  ar  
  9   6   7  ar  
 10   6  27  1   
 11   7   8  1   
 12   8   9  2   
 13   8  10  am  
 14  10  11  1   
 15  10  12  1   
 16  11  13  1   
 17  11  28  1   
 18  11  29  1   
 19  12  14  1   
 20  12  30  1   
 21  12  31  1   
 22  13  15  1   
 23  13  32  1   
 24  13  33  1   
 25  14  16  1   
 26  14  34  1   
 27  14  35  1   
 28  15  16  1   
 29  15  17  am  
 30  16  36  1   
 31  16  37  1   
 32  17  18  2   
 33  17  19  1   
 34  19  20  1   
 35  19  21  1   
 36  19  38  1   
 37  20  22  1   
 38  20  23  1   
 39  20  39  1   
 40  21  24  1   
 41  21  40  1   
 42  21  41  1   
 43  22  24  1   
 44  22  42  1   
 45  22  43  1   
 46  23  44  1   
 47  23  45  1   
 48  23  46  1   
 49  24  47  1   
 50  24  48  1   
@<TRIPOS>SUBSTRUCTURE
  1 ****   5 GROUP 4 **** **** 0

# MOE 2024.06 (io_trps.svl 2023.06)
