@<TRIPOS>MOLECULE
NONAME
34 36 1 0 0 
SMALL
USER_CHARGES


@<TRIPOS>ATOM
  1 S        0.1350    -0.5790     0.1840 S.3   1 <1>  -0.4600 
  2 C       -1.3240     0.5120     0.1780 C.3   1 <1>   0.2510 
  3 C       -0.7120    -2.1830     0.0640 C.3   1 <1>   0.2510 
  4 C       -2.4750    -0.4560     0.0450 C.2   1 <1>   0.1080 
  5 C       -2.1710    -1.8000    -0.0150 C.2   1 <1>  -0.1810 
  6 N       -3.7450    -0.2200    -0.0260 N.2   1 <1>  -0.7070 
  7 C       -3.3600    -2.4370    -0.1270 C.2   1 <1>  -0.0880 
  8 N       -4.3090    -1.4500    -0.1280 N.pl3 1 <1>   0.3140 
  9 N       -3.5480    -3.8360    -0.2450 N.am  1 <1>  -0.4940 
 10 C       -5.7620    -1.5660    -0.3090 C.3   1 <1>   0.0160 
 11 C       -4.5120    -4.6680     0.2780 C.2   1 <1>   0.6160 
 12 O       -5.4500    -4.1920     0.8900 O.2   1 <1>  -0.5700 
 13 C       -4.4190    -6.0990     0.0910 C.2   1 <1>   0.0140 
 14 C       -5.5270    -6.9060     0.1910 C.2   1 <1>  -0.0410 
 15 C       -3.1740    -6.7430    -0.2000 C.2   1 <1>  -0.1500 
 16 N       -5.4840    -8.2670     0.0000 N.am  1 <1>  -0.4690 
 17 C       -3.1230    -8.0880    -0.3920 C.2   1 <1>  -0.1360 
 18 C       -4.2870    -8.8970    -0.3050 C.2   1 <1>   0.6160 
 19 C       -6.7190    -9.0840     0.1250 C.3   1 <1>   0.0600 
 20 O       -4.2420   -10.1040    -0.4910 O.2   1 <1>  -0.5700 
 21 H       -1.2530     1.1750    -0.6650 H     1 <1>   0.0800 
 22 H       -1.3540     1.0490     1.1080 H     1 <1>   0.0800 
 23 H       -0.4850    -2.7470     0.9510 H     1 <1>   0.0800 
 24 H       -0.3650    -2.6770    -0.8250 H     1 <1>   0.0800 
 25 H       -2.8090    -4.3170    -0.7530 H     1 <1>   0.3700 
 26 H       -6.1400    -0.6500    -0.7230 H     1 <1>   0.0800 
 27 H       -6.2190    -1.7440     0.6460 H     1 <1>   0.0800 
 28 H       -5.9770    -2.3790    -0.9750 H     1 <1>   0.0800 
 29 H       -6.4850    -6.4710     0.4280 H     1 <1>   0.1500 
 30 H       -2.2740    -6.1570    -0.2530 H     1 <1>   0.1500 
 31 H       -2.2090    -8.6060    -0.6120 H     1 <1>   0.1500 
 32 H       -7.5620    -8.4640     0.3720 H     1 <1>   0.0800 
 33 H       -6.5840    -9.8210     0.8990 H     1 <1>   0.0800 
 34 H       -6.9110    -9.5890    -0.8050 H     1 <1>   0.0800 
@<TRIPOS>BOND
  1   1   2  1   
  2   1   3  1   
  3   2   4  1   
  4   2  21  1   
  5   2  22  1   
  6   3   5  1   
  7   3  23  1   
  8   3  24  1   
  9   4   5  1   
 10   4   6  2   
 11   5   7  2   
 12   6   8  1   
 13   7   8  1   
 14   7   9  1   
 15   8  10  1   
 16   9  11  am  
 17   9  25  1   
 18  10  26  1   
 19  10  27  1   
 20  10  28  1   
 21  11  12  2   
 22  11  13  1   
 23  13  14  2   
 24  13  15  1   
 25  14  16  1   
 26  14  29  1   
 27  15  17  2   
 28  15  30  1   
 29  16  18  am  
 30  16  19  1   
 31  17  18  1   
 32  17  31  1   
 33  18  20  2   
 34  19  32  1   
 35  19  33  1   
 36  19  34  1   
@<TRIPOS>SUBSTRUCTURE
  1 ****   9 GROUP 4 **** **** 0

# MOE 2024.06 (io_trps.svl 2023.06)
