@<TRIPOS>MOLECULE
NONAME
11 10 1 0 0 
SMALL
USER_CHARGES


@<TRIPOS>ATOM
  1 CL      -0.5590    -0.9100     1.5530 Cl    1 <1>  -0.2900 
  2 C       -0.0250    -1.5690     0.0190 C.3   1 <1>   0.8700 
  3 CL       1.5360    -0.8560    -0.3300 Cl    1 <1>  -0.2900 
  4 CL      -1.1340    -1.0060    -1.2170 Cl    1 <1>  -0.2900 
  5 C        0.0860    -3.0820     0.0480 C.3   1 <1>  -0.2400 
  6 SI      -1.4680    -3.8910     0.3980 Si    1 <1>   0.6810 
  7 H       -2.0150    -3.5400     1.6600 H     1 <1>  -0.2000 
  8 H       -1.3410    -5.3070     0.4210 H     1 <1>  -0.2000 
  9 H       -2.4760    -3.6170    -0.5630 H     1 <1>  -0.2000 
 10 H        0.8310    -3.3250     0.7810 H     1 <1>   0.0800 
 11 H        0.4820    -3.3830    -0.9030 H     1 <1>   0.0800 
@<TRIPOS>BOND
  1   1   2  1   
  2   2   3  1   
  3   2   4  1   
  4   2   5  1   
  5   5   6  1   
  6   5  10  1   
  7   5  11  1   
  8   6   7  1   
  9   6   8  1   
 10   6   9  1   
@<TRIPOS>SUBSTRUCTURE
  1 ****   2 GROUP 4 **** **** 0

# MOE 2024.06 (io_trps.svl 2023.06)
