@<TRIPOS>MOLECULE
NONAME
52 53 1 0 0 
SMALL
USER_CHARGES


@<TRIPOS>ATOM
  1 S        0.2380     0.1760    -0.8520 S.o2  1 <1>   1.3330 
  2 O        1.3820     0.5340    -1.6600 O.2   1 <1>  -0.6500 
  3 O       -1.0780     0.1620    -1.4430 O.2   1 <1>  -0.6500 
  4 N        0.5300    -1.3040    -0.0790 N.am  1 <1>  -0.8490 
  5 C        0.2130     1.3520     0.4990 C.3   1 <1>  -0.0550 
  6 C        1.3170    -2.2250    -0.9080 C.3   1 <1>   0.1160 
  7 C       -0.6920    -1.9760     0.3790 C.3   1 <1>   0.1160 
  8 C       -0.0840     2.7910     0.0200 C.3   1 <1>  -0.0800 
  9 C       -0.1070     3.8570     1.1170 C.3   1 <1>   0.2000 
 10 C        0.9340     3.3200    -1.0050 C.3   1 <1>   0.3430 
 11 O        0.9800     3.6700     1.9690 O.3   1 <1>  -0.6800 
 12 C        0.1130     5.1490     0.3270 C.3   1 <1>   0.3430 
 13 N        1.0670     4.7820    -0.7570 N.4   1 <1>  -0.9590 
 14 C        2.4550     5.1730    -0.3790 C.3   1 <1>   0.5240 
 15 C        2.5920     6.6740    -0.6090 C.2   1 <1>   0.1080 
 16 N        1.8640     7.3240    -1.4730 N.2   1 <1>  -0.7070 
 17 C        3.4800     7.5080     0.0610 C.2   1 <1>  -0.1500 
 18 N        2.2880     8.6030    -1.3750 N.pl3 1 <1>   0.3000 
 19 C        3.2620     8.7410    -0.4500 C.2   1 <1>  -0.3320 
 20 C        3.9170    10.0810    -0.1320 C.3   1 <1>   0.1800 
 21 C        4.5810    10.6370    -1.3960 C.3   1 <1>  -0.2400 
 22 C        4.9850     9.9090     0.9550 C.3   1 <1>  -0.2400 
 23 C        2.8520    11.0610     0.3700 C.3   1 <1>  -0.2400 
 24 H       -0.5360     1.0550     1.2070 H     1 <1>   0.0800 
 25 H        1.1650     1.3180     0.9950 H     1 <1>   0.0800 
 26 H        1.5020    -3.1420    -0.3750 H     1 <1>   0.0800 
 27 H        2.2680    -1.7830    -1.1530 H     1 <1>   0.0800 
 28 H        0.7930    -2.4480    -1.8230 H     1 <1>   0.0800 
 29 H       -0.4410    -2.8630     0.9350 H     1 <1>   0.0800 
 30 H       -1.3080    -2.2530    -0.4620 H     1 <1>   0.0800 
 31 H       -1.2590    -1.3230     1.0210 H     1 <1>   0.0800 
 32 H       -1.0470     2.7890    -0.4630 H     1 <1>   0.0800 
 33 H       -1.0150     3.8760     1.6980 H     1 <1>   0.0800 
 34 H        0.5980     3.1240    -2.0120 H     1 <1>   0.0800 
 35 H        1.8860     2.8330    -0.8610 H     1 <1>   0.0800 
 36 H        0.7440     3.0960     2.7280 H     1 <1>   0.4000 
 37 H        0.4880     5.9420     0.9530 H     1 <1>   0.0800 
 38 H       -0.8210     5.4600    -0.1120 H     1 <1>   0.0800 
 39 H        0.8820     5.3770    -1.5860 H     1 <1>   0.4500 
 40 H        2.6540     4.9260     0.6510 H     1 <1>   0.0800 
 41 H        3.1660     4.6630    -1.0070 H     1 <1>   0.0800 
 42 H        4.1830     7.2140     0.8210 H     1 <1>   0.1500 
 43 H        1.9020     9.3640    -1.9490 H     1 <1>   0.2700 
 44 H        5.0830    11.5640    -1.1820 H     1 <1>   0.0800 
 45 H        3.8540    10.8190    -2.1660 H     1 <1>   0.0800 
 46 H        5.3060     9.9360    -1.7710 H     1 <1>   0.0800 
 47 H        5.4490    10.8520     1.1820 H     1 <1>   0.0800 
 48 H        5.7500     9.2280     0.6260 H     1 <1>   0.0800 
 49 H        4.5450     9.5230     1.8570 H     1 <1>   0.0800 
 50 H        3.3020    12.0010     0.6370 H     1 <1>   0.0800 
 51 H        2.3610    10.6610     1.2390 H     1 <1>   0.0800 
 52 H        2.1110    11.2470    -0.3850 H     1 <1>   0.0800 
@<TRIPOS>BOND
  1   1   2  2   
  2   1   3  2   
  3   1   4  am  
  4   1   5  1   
  5   4   6  1   
  6   4   7  1   
  7   5   8  1   
  8   5  24  1   
  9   5  25  1   
 10   6  26  1   
 11   6  27  1   
 12   6  28  1   
 13   7  29  1   
 14   7  30  1   
 15   7  31  1   
 16   8   9  1   
 17   8  10  1   
 18   8  32  1   
 19   9  11  1   
 20   9  12  1   
 21   9  33  1   
 22  10  13  1   
 23  10  34  1   
 24  10  35  1   
 25  11  36  1   
 26  12  13  1   
 27  12  37  1   
 28  12  38  1   
 29  13  14  1   
 30  13  39  1   
 31  14  15  1   
 32  14  40  1   
 33  14  41  1   
 34  15  16  2   
 35  15  17  1   
 36  16  18  1   
 37  17  19  2   
 38  17  42  1   
 39  18  19  1   
 40  18  43  1   
 41  19  20  1   
 42  20  21  1   
 43  20  22  1   
 44  20  23  1   
 45  21  44  1   
 46  21  45  1   
 47  21  46  1   
 48  22  47  1   
 49  22  48  1   
 50  22  49  1   
 51  23  50  1   
 52  23  51  1   
 53  23  52  1   
@<TRIPOS>SUBSTRUCTURE
  1 ****  13 GROUP 4 **** **** 0

# MOE 2024.06 (io_trps.svl 2023.06)
