@<TRIPOS>MOLECULE
NONAME
47 49 1 0 0 
SMALL
USER_CHARGES


@<TRIPOS>ATOM
  1 F       -0.8150    -1.1950     1.6170 F     1 <1>  -0.1900 
  2 C       -1.9490    -1.5090     1.0260 C.ar  1 <1>   0.1900 
  3 C       -2.6900    -0.5740     0.3070 C.ar  1 <1>   0.4100 
  4 C       -2.4130    -2.7910     1.1160 C.ar  1 <1>   0.1600 
  5 N       -3.8140    -0.9280    -0.2710 N.ar  1 <1>  -0.6200 
  6 N       -2.3640     0.7480     0.1140 N.pl3 1 <1>  -0.8690 
  7 N       -3.5420    -3.1610     0.5360 N.ar  1 <1>  -0.6200 
  8 C       -4.1750    -2.1970    -0.1380 C.ar  1 <1>   0.7200 
  9 C       -1.6500     1.5810     1.1130 C.3   1 <1>   0.1290 
 10 N       -5.3500    -2.5640    -0.7540 N.pl3 1 <1>  -0.8380 
 11 C       -5.5770    -3.9720    -1.1620 C.3   1 <1>   0.2090 
 12 C       -6.5870    -1.7930    -0.4620 C.3   1 <1>   0.2090 
 13 C       -6.3370    -4.7180    -0.0400 C.3   1 <1>   0.4230 
 14 C       -7.3550    -2.5150     0.6530 C.3   1 <1>  -0.1600 
 15 N       -6.4770    -6.2210    -0.2700 N.4   1 <1>  -0.9590 
 16 C       -7.6730    -4.0070     0.3360 C.3   1 <1>   0.0000 
 17 C       -7.5440    -6.8710     0.5580 C.3   1 <1>   0.3430 
 18 C       -6.6120    -6.6430    -1.7030 C.3   1 <1>   0.2630 
 19 C       -8.2640    -4.6700     1.6160 C.3   1 <1>  -0.1600 
 20 C       -8.6810    -4.1000    -0.8450 C.3   1 <1>   0.1200 
 21 C       -7.7650    -6.1070     1.8620 C.3   1 <1>  -0.1600 
 22 O       -9.8140    -3.3370    -0.6170 O.3   1 <1>  -0.6800 
 23 H       -1.8510    -3.5220     1.6690 H     1 <1>   0.1500 
 24 H       -3.0770     1.2410    -0.4320 H     1 <1>   0.4000 
 25 H       -1.9270     1.2850     2.1100 H     1 <1>   0.0800 
 26 H       -1.9030     2.6170     0.9720 H     1 <1>   0.0800 
 27 H       -0.5870     1.4610     0.9910 H     1 <1>   0.0800 
 28 H       -6.1330    -3.9720    -2.0820 H     1 <1>   0.0800 
 29 H       -4.6290    -4.4480    -1.3450 H     1 <1>   0.0800 
 30 H       -6.3440    -0.7920    -0.1450 H     1 <1>   0.0800 
 31 H       -7.1870    -1.7150    -1.3540 H     1 <1>   0.0800 
 32 H       -5.7100    -4.6060     0.8290 H     1 <1>   0.0800 
 33 H       -6.7500    -2.4500     1.5410 H     1 <1>   0.0800 
 34 H       -8.2580    -1.9680     0.8560 H     1 <1>   0.0800 
 35 H       -5.5830    -6.6070     0.0700 H     1 <1>   0.4500 
 36 H       -8.4730    -6.8860     0.0110 H     1 <1>   0.0800 
 37 H       -7.2700    -7.8920     0.7740 H     1 <1>   0.0800 
 38 H       -7.5080    -6.2290    -2.1360 H     1 <1>   0.0800 
 39 H       -6.6630    -7.7180    -1.7720 H     1 <1>   0.0800 
 40 H       -5.7630    -6.3090    -2.2780 H     1 <1>   0.0800 
 41 H       -8.0140    -4.0930     2.4910 H     1 <1>   0.0800 
 42 H       -9.3390    -4.6790     1.5660 H     1 <1>   0.0800 
 43 H       -9.0060    -5.1120    -1.0080 H     1 <1>   0.0800 
 44 H       -8.2490    -3.7320    -1.7580 H     1 <1>   0.0800 
 45 H       -8.4870    -6.6330     2.4630 H     1 <1>   0.0800 
 46 H       -6.8440    -6.0890     2.4200 H     1 <1>   0.0800 
 47 H      -10.3150    -3.6370     0.1670 H     1 <1>   0.4000 
@<TRIPOS>BOND
  1   1   2  1   
  2   2   3  ar  
  3   2   4  ar  
  4   3   5  ar  
  5   3   6  1   
  6   4   7  ar  
  7   4  23  1   
  8   5   8  ar  
  9   6   9  1   
 10   6  24  1   
 11   7   8  ar  
 12   8  10  1   
 13   9  25  1   
 14   9  26  1   
 15   9  27  1   
 16  10  11  1   
 17  10  12  1   
 18  11  13  1   
 19  11  28  1   
 20  11  29  1   
 21  12  14  1   
 22  12  30  1   
 23  12  31  1   
 24  13  15  1   
 25  13  16  1   
 26  13  32  1   
 27  14  16  1   
 28  14  33  1   
 29  14  34  1   
 30  15  17  1   
 31  15  18  1   
 32  15  35  1   
 33  16  19  1   
 34  16  20  1   
 35  17  21  1   
 36  17  36  1   
 37  17  37  1   
 38  18  38  1   
 39  18  39  1   
 40  18  40  1   
 41  19  21  1   
 42  19  41  1   
 43  19  42  1   
 44  20  22  1   
 45  20  43  1   
 46  20  44  1   
 47  21  45  1   
 48  21  46  1   
 49  22  47  1   
@<TRIPOS>SUBSTRUCTURE
  1 ****  10 GROUP 4 **** **** 0

# MOE 2024.06 (io_trps.svl 2023.06)
