@<TRIPOS>MOLECULE
NONAME
46 48 1 0 0 
SMALL
USER_CHARGES


@<TRIPOS>ATOM
  1 F        1.1470    -1.4280     0.6940 F     1 <1>  -0.3400 
  2 C        0.4180    -1.8470    -0.3360 C.3   1 <1>   1.1640 
  3 F        1.1200    -1.5290    -1.4220 F     1 <1>  -0.3400 
  4 F       -0.6610    -1.0700    -0.3710 F     1 <1>  -0.3400 
  5 C        0.0680    -3.3640    -0.2560 C.ar  1 <1>   0.1660 
  6 N       -0.6260    -3.8140     0.7980 N.ar  1 <1>  -0.6200 
  7 C        0.4790    -4.2230    -1.2730 C.ar  1 <1>  -0.1500 
  8 C       -0.9010    -5.1080     0.8320 C.ar  1 <1>   0.1600 
  9 C        0.1780    -5.5670    -1.2200 C.ar  1 <1>  -0.1500 
 10 C       -0.5440    -6.0430    -0.1350 C.ar  1 <1>   0.0860 
 11 C       -0.8950    -7.4430    -0.0030 C.2   1 <1>   0.5440 
 12 O       -0.1440    -8.3000    -0.4340 O.2   1 <1>  -0.5700 
 13 N       -2.0680    -7.8560     0.5850 N.am  1 <1>  -0.6600 
 14 C       -2.2140    -9.2680     1.0480 C.3   1 <1>   0.1400 
 15 C       -3.3770    -7.2010     0.2950 C.3   1 <1>   0.1400 
 16 C       -2.8790   -10.0810    -0.0850 C.3   1 <1>   0.4230 
 17 C       -4.1270    -8.0200    -0.7700 C.3   1 <1>  -0.1600 
 18 N       -2.9600   -11.5620     0.1530 N.4   1 <1>  -0.9590 
 19 C       -4.2900    -9.5200    -0.3810 C.3   1 <1>  -0.1060 
 20 C       -3.5290   -12.3310    -0.9940 C.3   1 <1>   0.3430 
 21 C       -1.7340   -12.1890     0.7130 C.3   1 <1>   0.2630 
 22 C       -5.1330    -9.6770     0.8990 C.2   1 <1>   0.9060 
 23 C       -4.9690   -10.2960    -1.5480 C.3   1 <1>  -0.1600 
 24 C       -4.0860   -11.4260    -2.1030 C.3   1 <1>  -0.1600 
 25 O       -5.0360   -10.7350     1.5410 O.co2 1 <1>  -0.9000 
 26 O       -5.8620    -8.7600     1.2750 O.co2 1 <1>  -0.9000 
 27 H        1.0400    -3.8550    -2.1160 H     1 <1>   0.1500 
 28 H       -1.4480    -5.4610     1.6910 H     1 <1>   0.1500 
 29 H        0.4950    -6.2430    -1.9970 H     1 <1>   0.1500 
 30 H       -1.2400    -9.6620     1.2750 H     1 <1>   0.0800 
 31 H       -2.8080    -9.2920     1.9460 H     1 <1>   0.0800 
 32 H       -3.9580    -7.1450     1.2020 H     1 <1>   0.0800 
 33 H       -3.2340    -6.1970    -0.0650 H     1 <1>   0.0800 
 34 H       -2.2680    -9.9260    -0.9580 H     1 <1>   0.0800 
 35 H       -5.1000    -7.5810    -0.9110 H     1 <1>   0.0800 
 36 H       -3.5970    -7.9360    -1.7030 H     1 <1>   0.0800 
 37 H       -3.7180   -11.5840     0.8870 H     1 <1>   0.4500 
 38 H       -2.7740   -12.9730    -1.4170 H     1 <1>   0.0800 
 39 H       -4.3260   -12.9550    -0.6220 H     1 <1>   0.0800 
 40 H       -0.9100   -12.0730     0.0270 H     1 <1>   0.0800 
 41 H       -1.9020   -13.2390     0.8870 H     1 <1>   0.0800 
 42 H       -1.4750   -11.7280     1.6510 H     1 <1>   0.0800 
 43 H       -5.8920   -10.7270    -1.1930 H     1 <1>   0.0800 
 44 H       -5.2350    -9.6290    -2.3500 H     1 <1>   0.0800 
 45 H       -3.2670   -11.0070    -2.6620 H     1 <1>   0.0800 
 46 H       -4.6610   -12.0260    -2.7870 H     1 <1>   0.0800 
@<TRIPOS>BOND
  1   1   2  1   
  2   2   3  1   
  3   2   4  1   
  4   2   5  1   
  5   5   6  ar  
  6   5   7  ar  
  7   6   8  ar  
  8   7   9  ar  
  9   7  27  1   
 10   8  10  ar  
 11   8  28  1   
 12   9  10  ar  
 13   9  29  1   
 14  10  11  1   
 15  11  12  2   
 16  11  13  am  
 17  13  14  1   
 18  13  15  1   
 19  14  16  1   
 20  14  30  1   
 21  14  31  1   
 22  15  17  1   
 23  15  32  1   
 24  15  33  1   
 25  16  18  1   
 26  16  19  1   
 27  16  34  1   
 28  17  19  1   
 29  17  35  1   
 30  17  36  1   
 31  18  20  1   
 32  18  21  1   
 33  18  37  1   
 34  19  22  1   
 35  19  23  1   
 36  20  24  1   
 37  20  38  1   
 38  20  39  1   
 39  21  40  1   
 40  21  41  1   
 41  21  42  1   
 42  22  25  ar  
 43  22  26  ar  
 44  23  24  1   
 45  23  43  1   
 46  23  44  1   
 47  24  45  1   
 48  24  46  1   
@<TRIPOS>SUBSTRUCTURE
  1 ****  13 GROUP 4 **** **** 0

# MOE 2024.06 (io_trps.svl 2023.06)
