@<TRIPOS>MOLECULE
NONAME
51 53 1 0 0 
SMALL
USER_CHARGES


@<TRIPOS>ATOM
  1 O        0.7960    -0.8130     1.6220 O.2   1 <1>  -0.5700 
  2 C        1.4210    -1.0340     0.6150 C.2   1 <1>   0.5690 
  3 N        2.1680    -0.0990    -0.0450 N.am  1 <1>  -0.4940 
  4 C        1.3660    -2.4440     0.0760 C.3   1 <1>  -0.0990 
  5 C        2.3090     1.2800     0.2530 C.2   1 <1>  -0.0880 
  6 C       -0.0770    -2.9680     0.1830 C.3   1 <1>   0.4230 
  7 N        3.4920     1.9600     0.2540 N.pl3 1 <1>   0.3140 
  8 C        1.3520     2.1860     0.5730 C.2   1 <1>  -0.1810 
  9 N       -0.1680    -4.4510    -0.0640 N.4   1 <1>  -0.9590 
 10 C       -0.9840    -2.2320    -0.8230 C.3   1 <1>  -0.1600 
 11 N        3.3060     3.2700     0.5490 N.2   1 <1>  -0.7070 
 12 C        4.8480     1.3850     0.0100 C.3   1 <1>   0.1760 
 13 C        2.0310     3.3860     0.7440 C.2   1 <1>   0.1390 
 14 C       -0.1470     2.0110     0.7260 C.3   1 <1>  -0.0590 
 15 C       -1.5750    -4.9420     0.0620 C.3   1 <1>   0.3430 
 16 C        0.6920    -5.2620     0.8570 C.3   1 <1>   0.2630 
 17 C       -2.4330    -2.7280    -0.7820 C.3   1 <1>  -0.1600 
 18 C        5.8500     1.6830     1.1260 C.3   1 <1>  -0.1600 
 19 C        5.5200     1.9440    -1.2460 C.3   1 <1>  -0.1600 
 20 C       -2.4750    -4.2470    -0.9570 C.3   1 <1>  -0.1600 
 21 C        7.2180     1.4770     0.4740 C.3   1 <1>  -0.1600 
 22 C        7.0250     1.7480    -1.0240 C.3   1 <1>  -0.1600 
 23 H        2.7110    -0.4210    -0.8460 H     1 <1>   0.3700 
 24 H        2.0360    -3.0180     0.6850 H     1 <1>   0.0800 
 25 H        1.7030    -2.4680    -0.9430 H     1 <1>   0.0800 
 26 H       -0.4390    -2.7640     1.1800 H     1 <1>   0.0800 
 27 H        0.1200    -4.6200    -1.0370 H     1 <1>   0.4500 
 28 H       -0.5950    -2.3480    -1.8190 H     1 <1>   0.0800 
 29 H       -0.9880    -1.1790    -0.6020 H     1 <1>   0.0800 
 30 H        4.7650     0.3200    -0.0870 H     1 <1>   0.0800 
 31 H        1.5600     4.3180     1.0080 H     1 <1>   0.1500 
 32 H       -0.4900     1.1880     0.1290 H     1 <1>   0.0800 
 33 H       -0.6590     2.9020     0.4110 H     1 <1>   0.0800 
 34 H       -0.3840     1.8160     1.7560 H     1 <1>   0.0800 
 35 H       -1.9420    -4.7420     1.0560 H     1 <1>   0.0800 
 36 H       -1.6100    -6.0070    -0.1030 H     1 <1>   0.0800 
 37 H        0.4520    -5.0400     1.8840 H     1 <1>   0.0800 
 38 H        1.7350    -5.0520     0.6910 H     1 <1>   0.0800 
 39 H        0.5310    -6.3150     0.6870 H     1 <1>   0.0800 
 40 H       -3.0070    -2.2520    -1.5600 H     1 <1>   0.0800 
 41 H       -2.8780    -2.4600     0.1630 H     1 <1>   0.0800 
 42 H        5.7070     1.0420     1.9770 H     1 <1>   0.0800 
 43 H        5.7610     2.7120     1.4320 H     1 <1>   0.0800 
 44 H        5.3150     2.9990    -1.3230 H     1 <1>   0.0800 
 45 H        5.1800     1.4470    -2.1370 H     1 <1>   0.0800 
 46 H       -3.4860    -4.5910    -0.8250 H     1 <1>   0.0800 
 47 H       -2.1710    -4.5160    -1.9540 H     1 <1>   0.0800 
 48 H        7.5380     0.4590     0.6170 H     1 <1>   0.0800 
 49 H        7.9550     2.1340     0.9040 H     1 <1>   0.0800 
 50 H        7.5620     2.6320    -1.3250 H     1 <1>   0.0800 
 51 H        7.3870     0.9120    -1.5980 H     1 <1>   0.0800 
@<TRIPOS>BOND
  1   1   2  2   
  2   2   3  am  
  3   2   4  1   
  4   3   5  1   
  5   3  23  1   
  6   4   6  1   
  7   4  24  1   
  8   4  25  1   
  9   5   7  1   
 10   5   8  2   
 11   6   9  1   
 12   6  10  1   
 13   6  26  1   
 14   7  11  1   
 15   7  12  1   
 16   8  13  1   
 17   8  14  1   
 18   9  15  1   
 19   9  16  1   
 20   9  27  1   
 21  10  17  1   
 22  10  28  1   
 23  10  29  1   
 24  11  13  2   
 25  12  18  1   
 26  12  19  1   
 27  12  30  1   
 28  13  31  1   
 29  14  32  1   
 30  14  33  1   
 31  14  34  1   
 32  15  20  1   
 33  15  35  1   
 34  15  36  1   
 35  16  37  1   
 36  16  38  1   
 37  16  39  1   
 38  17  20  1   
 39  17  40  1   
 40  17  41  1   
 41  18  21  1   
 42  18  42  1   
 43  18  43  1   
 44  19  22  1   
 45  19  44  1   
 46  19  45  1   
 47  20  46  1   
 48  20  47  1   
 49  21  22  1   
 50  21  48  1   
 51  21  49  1   
 52  22  50  1   
 53  22  51  1   
@<TRIPOS>SUBSTRUCTURE
  1 ****   3 GROUP 4 **** **** 0

# MOE 2024.06 (io_trps.svl 2023.06)
