@<TRIPOS>MOLECULE
NONAME
48 51 1 0 0 
SMALL
USER_CHARGES


@<TRIPOS>ATOM
  1 F       -2.1940    -1.2370    -1.9110 F     1 <1>  -0.1900 
  2 C       -1.9470    -2.2340    -1.1000 C.ar  1 <1>   0.1900 
  3 C       -2.3610    -3.4960    -1.4510 C.ar  1 <1>  -0.1500 
  4 C       -1.2680    -1.9540     0.0900 C.ar  1 <1>  -0.1500 
  5 C       -2.0810    -4.5320    -0.5640 C.ar  1 <1>   0.2270 
  6 C       -0.9930    -2.9820     0.9660 C.ar  1 <1>  -0.1500 
  7 N       -2.3770    -5.8570    -0.6630 N.2   1 <1>  -0.5650 
  8 C       -1.4100    -4.2730     0.6200 C.ar  1 <1>  -0.1520 
  9 C       -1.9000    -6.3730     0.4150 C.2   1 <1>   0.0060 
 10 N       -1.3020    -5.4750     1.2390 N.pl3 1 <1>   0.0330 
 11 C       -2.0060    -7.8460     0.7470 C.3   1 <1>   0.0200 
 12 C       -3.2890    -8.1190     1.5380 C.3   1 <1>  -0.0990 
 13 C       -3.5240    -9.6090     1.6640 C.2   1 <1>   0.5690 
 14 O       -3.0860   -10.1660     2.6400 O.2   1 <1>  -0.5700 
 15 N       -4.1880   -10.2930     0.6850 N.am  1 <1>  -0.6600 
 16 C       -4.7260    -9.7470    -0.5910 C.3   1 <1>   0.1400 
 17 C       -4.3720   -11.7640     0.7330 C.3   1 <1>   0.1400 
 18 C       -5.6040   -10.8690    -1.1440 C.3   1 <1>   0.2000 
 19 C       -4.9140   -12.1450    -0.6500 C.3   1 <1>  -0.0800 
 20 O       -6.8570   -10.7630    -0.5590 O.3   1 <1>  -0.6800 
 21 C       -5.8030   -13.4030    -0.6480 C.3   1 <1>   0.0200 
 22 C       -5.0440   -14.6710    -0.2940 C.2   1 <1>  -0.0400 
 23 O       -5.7170   -15.7800    -0.1360 O.3   1 <1>  -0.0190 
 24 C       -3.7450   -14.9510    -0.0930 C.2   1 <1>  -0.1500 
 25 N       -4.9420   -16.7820     0.1630 N.2   1 <1>  -0.4100 
 26 C       -3.7480   -16.3120     0.1970 C.2   1 <1>   0.1080 
 27 C       -2.5190   -17.1350     0.5110 C.3   1 <1>  -0.0590 
 28 H       -2.8800    -3.6970    -2.3670 H     1 <1>   0.1500 
 29 H       -0.9730    -0.9420     0.3000 H     1 <1>   0.1500 
 30 H       -0.4730    -2.8050     1.8910 H     1 <1>   0.1500 
 31 H       -0.8600    -5.6600     2.1430 H     1 <1>   0.2700 
 32 H       -2.0250    -8.3990    -0.1750 H     1 <1>   0.0800 
 33 H       -1.1470    -8.1700     1.3080 H     1 <1>   0.0800 
 34 H       -4.1260    -7.6520     1.0570 H     1 <1>   0.0800 
 35 H       -3.2040    -7.6960     2.5220 H     1 <1>   0.0800 
 36 H       -5.2920    -8.8430    -0.4440 H     1 <1>   0.0800 
 37 H       -3.9090    -9.5560    -1.2650 H     1 <1>   0.0800 
 38 H       -3.4390   -12.2550     0.9490 H     1 <1>   0.0800 
 39 H       -5.0830   -12.0020     1.5070 H     1 <1>   0.0800 
 40 H       -5.7200   -10.8280    -2.2140 H     1 <1>   0.0800 
 41 H       -4.0720   -12.3250    -1.2940 H     1 <1>   0.0800 
 42 H       -6.7470   -10.6370     0.4050 H     1 <1>   0.4000 
 43 H       -6.2420   -13.5310    -1.6220 H     1 <1>   0.0800 
 44 H       -6.6090   -13.2840     0.0550 H     1 <1>   0.0800 
 45 H       -2.8790   -14.3190    -0.1340 H     1 <1>   0.1500 
 46 H       -2.0300   -16.7420     1.3840 H     1 <1>   0.0800 
 47 H       -1.8400   -17.1090    -0.3200 H     1 <1>   0.0800 
 48 H       -2.7990   -18.1560     0.6990 H     1 <1>   0.0800 
@<TRIPOS>BOND
  1   1   2  1   
  2   2   3  ar  
  3   2   4  ar  
  4   3   5  ar  
  5   3  28  1   
  6   4   6  ar  
  7   4  29  1   
  8   5   7  1   
  9   5   8  ar  
 10   6   8  ar  
 11   6  30  1   
 12   7   9  2   
 13   8  10  1   
 14   9  10  1   
 15   9  11  1   
 16  10  31  1   
 17  11  12  1   
 18  11  32  1   
 19  11  33  1   
 20  12  13  1   
 21  12  34  1   
 22  12  35  1   
 23  13  14  2   
 24  13  15  am  
 25  15  16  1   
 26  15  17  1   
 27  16  18  1   
 28  16  36  1   
 29  16  37  1   
 30  17  19  1   
 31  17  38  1   
 32  17  39  1   
 33  18  19  1   
 34  18  20  1   
 35  18  40  1   
 36  19  21  1   
 37  19  41  1   
 38  20  42  1   
 39  21  22  1   
 40  21  43  1   
 41  21  44  1   
 42  22  23  1   
 43  22  24  2   
 44  23  25  1   
 45  24  26  1   
 46  24  45  1   
 47  25  26  2   
 48  26  27  1   
 49  27  46  1   
 50  27  47  1   
 51  27  48  1   
@<TRIPOS>SUBSTRUCTURE
  1 ****  15 GROUP 4 **** **** 0

# MOE 2024.06 (io_trps.svl 2023.06)
