@<TRIPOS>MOLECULE
NONAME
55 58 1 0 0 
SMALL
USER_CHARGES


@<TRIPOS>ATOM
  1 S       -0.2190     0.0230    -0.3840 S.3   1 <1>  -0.0800 
  2 C        1.3930    -0.5500    -0.7470 C.2   1 <1>   0.1980 
  3 C        0.4450     1.0230     0.8760 C.2   1 <1>  -0.1400 
  4 N        2.3040    -0.0520    -0.0080 N.2   1 <1>  -0.5650 
  5 C        1.5390    -1.5700    -1.8660 C.3   1 <1>   0.3200 
  6 C        1.7770     0.8400     0.9110 C.2   1 <1>   0.0460 
  7 C       -0.5390     1.8710     1.6590 C.3   1 <1>  -0.0600 
  8 N        1.0470    -2.9220    -1.4420 N.am  1 <1>  -0.6600 
  9 C        2.7740     1.4980     1.8400 C.3   1 <1>  -0.0590 
 10 C        0.0310    -3.5300    -2.1330 C.2   1 <1>   0.5690 
 11 C        1.7070    -3.4600    -0.2100 C.3   1 <1>   0.1400 
 12 O       -0.4020    -3.0380    -3.1470 O.2   1 <1>  -0.5700 
 13 C       -0.6510    -4.8160    -1.6960 C.3   1 <1>  -0.0990 
 14 C        2.2680    -4.9050    -0.3400 C.3   1 <1>   0.2800 
 15 C       -0.0160    -5.6260    -0.5680 C.3   1 <1>   0.1200 
 16 O        1.3330    -5.8180    -0.8500 O.3   1 <1>  -0.5600 
 17 C        2.6850    -5.4240     1.0520 C.3   1 <1>  -0.1600 
 18 C        3.4460    -4.9510    -1.3380 C.3   1 <1>  -0.1600 
 19 C        3.7950    -6.4680     0.9540 C.3   1 <1>   0.1400 
 20 C        4.8100    -4.7840    -0.6620 C.3   1 <1>   0.1400 
 21 N        5.0210    -5.8340     0.3810 N.am  1 <1>  -0.6600 
 22 C        6.2830    -6.2620     0.7720 C.2   1 <1>   0.7160 
 23 O        6.3500    -7.2960     1.4180 O.2   1 <1>  -0.5700 
 24 C        7.5220    -5.5560     0.4590 C.2   1 <1>   0.2030 
 25 N        7.6780    -4.3380     0.0210 N.2   1 <1>  -0.4100 
 26 C        8.7850    -6.1130     0.6090 C.2   1 <1>  -0.1500 
 27 O        8.9500    -4.0610    -0.1320 O.3   1 <1>  -0.0190 
 28 C        9.6120    -5.1370     0.2270 C.2   1 <1>  -0.0400 
 29 C       11.1250    -5.1160     0.1610 C.3   1 <1>  -0.0600 
 30 H        2.5770    -1.6460    -2.1330 H     1 <1>   0.0800 
 31 H        1.0060    -1.2110    -2.7280 H     1 <1>   0.0800 
 32 H       -1.0520     2.5410     0.9930 H     1 <1>   0.0800 
 33 H       -0.0340     2.4500     2.4090 H     1 <1>   0.0800 
 34 H       -1.2630     1.2380     2.1400 H     1 <1>   0.0800 
 35 H        2.2840     2.1630     2.5250 H     1 <1>   0.0800 
 36 H        3.4880     2.0560     1.2620 H     1 <1>   0.0800 
 37 H        3.2960     0.7430     2.4000 H     1 <1>   0.0800 
 38 H        1.0140    -3.3980     0.6100 H     1 <1>   0.0800 
 39 H        2.5340    -2.8240     0.0550 H     1 <1>   0.0800 
 40 H       -0.7140    -5.4520    -2.5590 H     1 <1>   0.0800 
 41 H       -1.6580    -4.5720    -1.4160 H     1 <1>   0.0800 
 42 H       -0.4740    -6.5990    -0.5290 H     1 <1>   0.0800 
 43 H       -0.1420    -5.1610     0.3940 H     1 <1>   0.0800 
 44 H        1.8380    -5.8430     1.5640 H     1 <1>   0.0800 
 45 H        3.0560    -4.6150     1.6560 H     1 <1>   0.0800 
 46 H        3.3310    -4.1910    -2.0890 H     1 <1>   0.0800 
 47 H        3.4540    -5.8980    -1.8480 H     1 <1>   0.0800 
 48 H        3.4850    -7.2840     0.3230 H     1 <1>   0.0800 
 49 H        4.0060    -6.8600     1.9350 H     1 <1>   0.0800 
 50 H        4.8790    -3.8120    -0.2030 H     1 <1>   0.0800 
 51 H        5.5780    -4.8590    -1.4130 H     1 <1>   0.0800 
 52 H        8.9920    -7.1080     0.9590 H     1 <1>   0.1500 
 53 H       11.5260    -6.0590     0.4830 H     1 <1>   0.0800 
 54 H       11.5050    -4.3380     0.7980 H     1 <1>   0.0800 
 55 H       11.4430    -4.9270    -0.8490 H     1 <1>   0.0800 
@<TRIPOS>BOND
  1   1   2  1   
  2   1   3  1   
  3   2   4  2   
  4   2   5  1   
  5   3   6  2   
  6   3   7  1   
  7   4   6  1   
  8   5   8  1   
  9   5  30  1   
 10   5  31  1   
 11   6   9  1   
 12   7  32  1   
 13   7  33  1   
 14   7  34  1   
 15   8  10  am  
 16   8  11  1   
 17   9  35  1   
 18   9  36  1   
 19   9  37  1   
 20  10  12  2   
 21  10  13  1   
 22  11  14  1   
 23  11  38  1   
 24  11  39  1   
 25  13  15  1   
 26  13  40  1   
 27  13  41  1   
 28  14  16  1   
 29  14  17  1   
 30  14  18  1   
 31  15  16  1   
 32  15  42  1   
 33  15  43  1   
 34  17  19  1   
 35  17  44  1   
 36  17  45  1   
 37  18  20  1   
 38  18  46  1   
 39  18  47  1   
 40  19  21  1   
 41  19  48  1   
 42  19  49  1   
 43  20  21  1   
 44  20  50  1   
 45  20  51  1   
 46  21  22  am  
 47  22  23  2   
 48  22  24  1   
 49  24  25  2   
 50  24  26  1   
 51  25  27  1   
 52  26  28  2   
 53  26  52  1   
 54  27  28  1   
 55  28  29  1   
 56  29  53  1   
 57  29  54  1   
 58  29  55  1   
@<TRIPOS>SUBSTRUCTURE
  1 ****  11 GROUP 4 **** **** 0

# MOE 2024.06 (io_trps.svl 2023.06)
