@<TRIPOS>MOLECULE
NONAME
54 56 1 0 0 
SMALL
USER_CHARGES


@<TRIPOS>ATOM
  1 O        4.4770    -1.0890    -0.0300 O.2   1 <1>  -0.5700 
  2 C        3.2680    -1.0010    -0.0560 C.2   1 <1>   0.5690 
  3 N        2.7160    -0.0340    -0.8570 N.am  1 <1>  -0.6600 
  4 C        2.4570    -1.9360     0.8430 C.3   1 <1>   0.2370 
  5 C        3.2960     0.2370    -2.2100 C.3   1 <1>   0.1400 
  6 C        1.8680     1.0510    -0.3010 C.3   1 <1>   0.1400 
  7 N        1.1950    -2.3290     0.1630 N.pl3 1 <1>   0.3140 
  8 C        2.2390    -1.3720     2.2680 C.3   1 <1>  -0.1600 
  9 C        4.3200     1.3910    -2.2100 C.3   1 <1>   0.3430 
 10 C        2.7310     1.9800     0.5670 C.3   1 <1>  -0.1600 
 11 N        0.0360    -1.6380     0.2600 N.2   1 <1>  -0.7070 
 12 C        1.0390    -3.4130    -0.6260 C.2   1 <1>  -0.3020 
 13 C        1.6280    -2.4010     3.2310 C.3   1 <1>  -0.2400 
 14 N        4.8000     1.6930    -0.8270 N.4   1 <1>  -0.9590 
 15 C        3.9000     2.6720    -0.1480 C.3   1 <1>   0.3430 
 16 C       -0.8150    -2.3020    -0.4610 C.2   1 <1>   0.1390 
 17 C       -0.2430    -3.4250    -1.0440 C.2   1 <1>  -0.1500 
 18 C        6.2280     2.1230    -0.8320 C.3   1 <1>   0.3430 
 19 C        6.9120     1.8460     0.5110 C.3   1 <1>   0.0200 
 20 C        8.3220     2.4020     0.4720 C.2   1 <1>   0.0060 
 21 N        8.7190     3.2220    -0.4480 N.2   1 <1>  -0.5650 
 22 N        9.2800     2.1000     1.3840 N.pl3 1 <1>   0.0480 
 23 C       10.0020     3.4710    -0.1270 C.2   1 <1>   0.0770 
 24 C       10.3590     2.7950     0.9850 C.2   1 <1>  -0.3020 
 25 C        9.2090     1.2130     2.5600 C.3   1 <1>   0.0160 
 26 H        3.0380    -2.8330     0.9440 H     1 <1>   0.0800 
 27 H        2.5050     0.4490    -2.9090 H     1 <1>   0.0800 
 28 H        3.7900    -0.6550    -2.5590 H     1 <1>   0.0800 
 29 H        1.0770     0.6350     0.2970 H     1 <1>   0.0800 
 30 H        1.4050     1.6030    -1.1020 H     1 <1>   0.0800 
 31 H        1.6030    -0.5060     2.2280 H     1 <1>   0.0800 
 32 H        3.1900    -1.0630     2.6640 H     1 <1>   0.0800 
 33 H        3.8760     2.2700    -2.6460 H     1 <1>   0.0800 
 34 H        5.1500     1.1030    -2.8350 H     1 <1>   0.0800 
 35 H        3.1090     1.4360     1.4130 H     1 <1>   0.0800 
 36 H        2.0900     2.7470     0.9630 H     1 <1>   0.0800 
 37 H        1.8300    -4.1080    -0.8430 H     1 <1>   0.1500 
 38 H        0.6470    -2.6980     2.8980 H     1 <1>   0.0800 
 39 H        1.5300    -1.9740     4.2140 H     1 <1>   0.0800 
 40 H        2.2480    -3.2770     3.3010 H     1 <1>   0.0800 
 41 H        4.7290     0.7770    -0.3340 H     1 <1>   0.4500 
 42 H        4.4610     3.2290     0.5850 H     1 <1>   0.0800 
 43 H        3.5200     3.3760    -0.8700 H     1 <1>   0.0800 
 44 H       -1.8440    -2.0090    -0.5870 H     1 <1>   0.1500 
 45 H       -0.7430    -4.1310    -1.6830 H     1 <1>   0.1500 
 46 H        6.2980     3.1740    -1.0590 H     1 <1>   0.0800 
 47 H        6.7720     1.5880    -1.5930 H     1 <1>   0.0800 
 48 H        6.9480     0.7860     0.6820 H     1 <1>   0.0800 
 49 H        6.3800     2.3240     1.3130 H     1 <1>   0.0800 
 50 H       10.6120     4.1330    -0.7200 H     1 <1>   0.1500 
 51 H       11.3040     2.7760     1.4980 H     1 <1>   0.1500 
 52 H        8.3540     1.4750     3.1560 H     1 <1>   0.0800 
 53 H       10.1000     1.3270     3.1500 H     1 <1>   0.0800 
 54 H        9.1280     0.1930     2.2330 H     1 <1>   0.0800 
@<TRIPOS>BOND
  1   1   2  2   
  2   2   3  am  
  3   2   4  1   
  4   3   5  1   
  5   3   6  1   
  6   4   7  1   
  7   4   8  1   
  8   4  26  1   
  9   5   9  1   
 10   5  27  1   
 11   5  28  1   
 12   6  10  1   
 13   6  29  1   
 14   6  30  1   
 15   7  11  1   
 16   7  12  1   
 17   8  13  1   
 18   8  31  1   
 19   8  32  1   
 20   9  14  1   
 21   9  33  1   
 22   9  34  1   
 23  10  15  1   
 24  10  35  1   
 25  10  36  1   
 26  11  16  2   
 27  12  17  2   
 28  12  37  1   
 29  13  38  1   
 30  13  39  1   
 31  13  40  1   
 32  14  15  1   
 33  14  18  1   
 34  14  41  1   
 35  15  42  1   
 36  15  43  1   
 37  16  17  1   
 38  16  44  1   
 39  17  45  1   
 40  18  19  1   
 41  18  46  1   
 42  18  47  1   
 43  19  20  1   
 44  19  48  1   
 45  19  49  1   
 46  20  21  2   
 47  20  22  1   
 48  21  23  1   
 49  22  24  1   
 50  22  25  1   
 51  23  24  2   
 52  23  50  1   
 53  24  51  1   
 54  25  52  1   
 55  25  53  1   
 56  25  54  1   
@<TRIPOS>SUBSTRUCTURE
  1 ****   1 GROUP 4 **** **** 0

# MOE 2024.06 (io_trps.svl 2023.06)
