@<TRIPOS>MOLECULE
NONAME
46 48 1 0 0 
SMALL
USER_CHARGES


@<TRIPOS>ATOM
  1 O        0.5160    -0.5110    -0.7560 O.2   1 <1>  -0.5700 
  2 C        0.9240    -1.5820    -0.4040 C.2   1 <1>   0.6590 
  3 O        2.1720    -1.8190    -0.0520 O.3   1 <1>  -0.4300 
  4 C        0.0850    -2.8230    -0.2730 C.3   1 <1>  -0.0990 
  5 C        2.4070    -3.1920     0.1670 C.3   1 <1>   0.2800 
  6 C        1.0010    -3.6790     0.6050 C.3   1 <1>  -0.0190 
  7 C        2.9510    -3.7240    -1.1960 C.3   1 <1>  -0.1600 
  8 C        3.4550    -3.3280     1.2890 C.3   1 <1>  -0.1600 
  9 C        0.7210    -5.1860     0.6660 C.2   1 <1>   0.5690 
 10 C        4.4870    -3.8190    -1.2650 C.3   1 <1>  -0.1600 
 11 C        4.7930    -2.6340     0.9640 C.3   1 <1>  -0.1600 
 12 O        1.5670    -5.9560     0.2760 O.2   1 <1>  -0.5700 
 13 N       -0.4520    -5.6810     1.1830 N.am  1 <1>  -0.6600 
 14 C        5.1510    -2.6500    -0.5320 C.3   1 <1>  -0.1600 
 15 C       -0.6630    -7.1610     1.2500 C.3   1 <1>   0.3200 
 16 C       -1.6210    -4.8800     1.6580 C.3   1 <1>   0.1400 
 17 C       -1.1200    -7.6870    -0.0990 C.2   1 <1>   0.0070 
 18 C       -2.7070    -4.8080     0.5770 C.3   1 <1>   0.1200 
 19 N       -2.2980    -8.1600    -0.3550 N.2   1 <1>  -0.5650 
 20 N       -0.2920    -7.6900    -1.1640 N.pl3 1 <1>   0.0330 
 21 O       -3.6320    -3.8400     0.9370 O.3   1 <1>  -0.6800 
 22 C       -2.2320    -8.4920    -1.6590 C.2   1 <1>   0.0770 
 23 C       -1.0140    -8.2100    -2.1710 C.2   1 <1>  -0.3020 
 24 H       -0.0620    -3.2620    -1.2430 H     1 <1>   0.0800 
 25 H       -0.8570    -2.5840     0.1830 H     1 <1>   0.0800 
 26 H        0.8740    -3.3340     1.6150 H     1 <1>   0.0800 
 27 H        2.6190    -3.0780    -1.9910 H     1 <1>   0.0800 
 28 H        2.5680    -4.6950    -1.4330 H     1 <1>   0.0800 
 29 H        3.6410    -4.3780     1.4380 H     1 <1>   0.0800 
 30 H        3.0710    -2.9400     2.2150 H     1 <1>   0.0800 
 31 H        4.8020    -3.8320    -2.2950 H     1 <1>   0.0800 
 32 H        4.8100    -4.7420    -0.8140 H     1 <1>   0.0800 
 33 H        5.5750    -3.1160     1.5260 H     1 <1>   0.0800 
 34 H        4.7490    -1.6080     1.2900 H     1 <1>   0.0800 
 35 H        4.8180    -1.7300    -0.9830 H     1 <1>   0.0800 
 36 H        6.2200    -2.6990    -0.6480 H     1 <1>   0.0800 
 37 H       -1.4030    -7.4010     1.9930 H     1 <1>   0.0800 
 38 H        0.2530    -7.6510     1.5330 H     1 <1>   0.0800 
 39 H       -1.3080    -3.8860     1.9210 H     1 <1>   0.0800 
 40 H       -2.0300    -5.3340     2.5430 H     1 <1>   0.0800 
 41 H       -3.2190    -5.7480     0.4640 H     1 <1>   0.0800 
 42 H       -2.2830    -4.5170    -0.3680 H     1 <1>   0.0800 
 43 H        0.6750    -7.3360    -1.1610 H     1 <1>   0.2700 
 44 H       -4.3160    -4.2140     1.5270 H     1 <1>   0.4000 
 45 H       -3.0780    -8.9240    -2.1690 H     1 <1>   0.1500 
 46 H       -0.6340    -8.3470    -3.1670 H     1 <1>   0.1500 
@<TRIPOS>BOND
  1   1   2  2   
  2   2   3  1   
  3   2   4  1   
  4   3   5  1   
  5   4   6  1   
  6   4  24  1   
  7   4  25  1   
  8   5   6  1   
  9   5   7  1   
 10   5   8  1   
 11   6   9  1   
 12   6  26  1   
 13   7  10  1   
 14   7  27  1   
 15   7  28  1   
 16   8  11  1   
 17   8  29  1   
 18   8  30  1   
 19   9  12  2   
 20   9  13  am  
 21  10  14  1   
 22  10  31  1   
 23  10  32  1   
 24  11  14  1   
 25  11  33  1   
 26  11  34  1   
 27  13  15  1   
 28  13  16  1   
 29  14  35  1   
 30  14  36  1   
 31  15  17  1   
 32  15  37  1   
 33  15  38  1   
 34  16  18  1   
 35  16  39  1   
 36  16  40  1   
 37  17  19  2   
 38  17  20  1   
 39  18  21  1   
 40  18  41  1   
 41  18  42  1   
 42  19  22  1   
 43  20  23  1   
 44  20  43  1   
 45  21  44  1   
 46  22  23  2   
 47  22  45  1   
 48  23  46  1   
@<TRIPOS>SUBSTRUCTURE
  1 ****   9 GROUP 4 **** **** 0

# MOE 2024.06 (io_trps.svl 2023.06)
