@<TRIPOS>MOLECULE
NONAME
47 50 1 0 0 
SMALL
USER_CHARGES


@<TRIPOS>ATOM
  1 O        0.0810     0.6560    -0.6200 O.3   1 <1>  -0.0190 
  2 N        0.0970    -0.6170    -0.4840 N.2   1 <1>  -0.4100 
  3 C        1.2330     1.1620    -0.2710 C.2   1 <1>   0.4250 
  4 C        1.2740    -0.8530    -0.0510 C.2   1 <1>   0.3350 
  5 N        2.0390     0.2290     0.1030 N.2   1 <1>  -0.5650 
  6 C        1.4750     2.5840    -0.3340 C.ar  1 <1>   0.0530 
  7 C        1.8060    -2.2280     0.2760 C.3   1 <1>  -0.0590 
  8 C        2.6730     3.1470     0.0660 C.ar  1 <1>  -0.1500 
  9 C        0.5330     3.4960    -0.7980 C.ar  1 <1>  -0.1500 
 10 C        2.8920     4.5150    -0.0100 C.ar  1 <1>   0.4100 
 11 C        0.8300     4.8430    -0.8320 C.ar  1 <1>   0.1600 
 12 N        1.9790     5.3710    -0.4510 N.ar  1 <1>  -0.6200 
 13 N        4.1130     5.0280     0.3830 N.pl3 1 <1>  -0.8380 
 14 C        5.3130     4.6530    -0.4230 C.3   1 <1>   0.2090 
 15 C        4.1930     6.4630     0.8100 C.3   1 <1>   0.2090 
 16 C        6.6170     4.8920     0.3630 C.3   1 <1>   0.2090 
 17 C        5.4920     6.7590     1.5880 C.3   1 <1>   0.2090 
 18 N        6.7230     6.2970     0.8640 N.pl3 1 <1>  -0.8380 
 19 C        7.4210     7.1950     0.0880 C.ar  1 <1>   0.4100 
 20 N        6.7030     7.9550    -0.7130 N.ar  1 <1>  -0.6200 
 21 C        8.8110     7.2820     0.1250 C.ar  1 <1>  -0.1430 
 22 C        7.3860     8.7780    -1.4770 C.ar  1 <1>   0.4700 
 23 C        9.4030     8.1780    -0.7400 C.ar  1 <1>   0.1670 
 24 C        9.6240     6.4210     1.0940 C.3   1 <1>  -0.0970 
 25 N        8.6930     8.9390    -1.5480 N.ar  1 <1>  -0.6200 
 26 C       10.9060     8.3670    -0.8360 C.3   1 <1>  -0.0970 
 27 H        1.0520    -2.9700     0.0910 H     1 <1>   0.0800 
 28 H        2.0910    -2.2660     1.3110 H     1 <1>   0.0800 
 29 H        2.6640    -2.4360    -0.3350 H     1 <1>   0.0800 
 30 H        3.4560     2.5230     0.4520 H     1 <1>   0.1500 
 31 H       -0.4310     3.1580    -1.1320 H     1 <1>   0.1500 
 32 H        0.0830     5.5290    -1.1930 H     1 <1>   0.1500 
 33 H        5.3340     5.2480    -1.3210 H     1 <1>   0.0800 
 34 H        5.2560     3.6180    -0.7100 H     1 <1>   0.0800 
 35 H        3.3470     6.7010     1.4300 H     1 <1>   0.0800 
 36 H        4.1530     7.0950    -0.0600 H     1 <1>   0.0800 
 37 H        7.4550     4.6740    -0.2750 H     1 <1>   0.0800 
 38 H        6.6510     4.2170     1.2000 H     1 <1>   0.0800 
 39 H        5.4440     6.2650     2.5420 H     1 <1>   0.0800 
 40 H        5.5590     7.8170     1.7690 H     1 <1>   0.0800 
 41 H        6.8020     9.4010    -2.1320 H     1 <1>   0.1500 
 42 H        9.0460     6.1790     1.9670 H     1 <1>   0.0800 
 43 H       10.5030     6.9390     1.4300 H     1 <1>   0.0800 
 44 H        9.9170     5.5070     0.6110 H     1 <1>   0.0800 
 45 H       11.4220     7.4350    -0.7050 H     1 <1>   0.0800 
 46 H       11.2290     9.0650    -0.0870 H     1 <1>   0.0800 
 47 H       11.1670     8.7570    -1.8040 H     1 <1>   0.0800 
@<TRIPOS>BOND
  1   1   2  1   
  2   1   3  1   
  3   2   4  2   
  4   3   5  2   
  5   3   6  1   
  6   4   5  1   
  7   4   7  1   
  8   6   8  ar  
  9   6   9  ar  
 10   7  27  1   
 11   7  28  1   
 12   7  29  1   
 13   8  10  ar  
 14   8  30  1   
 15   9  11  ar  
 16   9  31  1   
 17  10  12  ar  
 18  10  13  1   
 19  11  12  ar  
 20  11  32  1   
 21  13  14  1   
 22  13  15  1   
 23  14  16  1   
 24  14  33  1   
 25  14  34  1   
 26  15  17  1   
 27  15  35  1   
 28  15  36  1   
 29  16  18  1   
 30  16  37  1   
 31  16  38  1   
 32  17  18  1   
 33  17  39  1   
 34  17  40  1   
 35  18  19  1   
 36  19  20  ar  
 37  19  21  ar  
 38  20  22  ar  
 39  21  23  ar  
 40  21  24  1   
 41  22  25  ar  
 42  22  41  1   
 43  23  25  ar  
 44  23  26  1   
 45  24  42  1   
 46  24  43  1   
 47  24  44  1   
 48  26  45  1   
 49  26  46  1   
 50  26  47  1   
@<TRIPOS>SUBSTRUCTURE
  1 ****  13 GROUP 4 **** **** 0

# MOE 2024.06 (io_trps.svl 2023.06)
