@<TRIPOS>MOLECULE
NONAME
44 45 1 0 0 
SMALL
USER_CHARGES


@<TRIPOS>ATOM
  1 O        1.0560     2.3350    -0.6880 O.co2 1 <1>  -0.9000 
  2 C        0.1600     2.5700     0.1230 C.2   1 <1>   0.9060 
  3 O        0.3980     2.9770     1.2650 O.co2 1 <1>  -0.9000 
  4 C       -1.2440     2.6190    -0.4200 C.3   1 <1>  -0.1860 
  5 C       -2.3860     2.9820     0.5540 C.3   1 <1>   0.2000 
  6 C       -1.1760     3.6430    -1.5460 C.3   1 <1>   0.3430 
  7 O       -2.0760     2.5420     1.8170 O.3   1 <1>  -0.6800 
  8 C       -2.6690     4.4890     0.6350 C.3   1 <1>  -0.1600 
  9 N       -0.9150     5.0380    -1.0360 N.4   1 <1>  -0.9590 
 10 C       -1.3970     5.2830     0.3680 C.3   1 <1>   0.3430 
 11 C        0.5550     5.3270    -1.0980 C.3   1 <1>   0.4810 
 12 C        0.8290     6.7820    -0.7260 C.2   1 <1>  -0.1670 
 13 C        2.0370     6.9200     0.0610 C.ar  1 <1>   0.0280 
 14 C        0.0170     7.7900    -1.1130 C.2   1 <1>  -0.2880 
 15 C        2.2470     6.1690     1.2170 C.ar  1 <1>  -0.1500 
 16 C        3.0450     7.7980    -0.3310 C.ar  1 <1>  -0.1500 
 17 C        0.1460     9.2620    -0.7510 C.3   1 <1>  -0.0220 
 18 C        3.4090     6.3000     1.9550 C.ar  1 <1>  -0.1500 
 19 C        4.2070     7.9360     0.4060 C.ar  1 <1>  -0.1500 
 20 C       -1.1460     9.7540    -0.0990 C.3   1 <1>  -0.2400 
 21 C        4.3910     7.1870     1.5540 C.ar  1 <1>  -0.1500 
 22 H       -1.4470     1.6540    -0.8420 H     1 <1>   0.0800 
 23 H       -3.2930     2.4750     0.2680 H     1 <1>   0.0800 
 24 H       -2.1150     3.6290    -2.0720 H     1 <1>   0.0800 
 25 H       -0.4010     3.3540    -2.2400 H     1 <1>   0.0800 
 26 H       -1.0840     2.6550     1.9370 H     1 <1>   0.4000 
 27 H       -3.4100     4.7610    -0.0940 H     1 <1>   0.0800 
 28 H       -3.0630     4.7370     1.6050 H     1 <1>   0.0800 
 29 H       -1.3620     5.7140    -1.6570 H     1 <1>   0.4500 
 30 H       -0.6440     4.9670     1.0730 H     1 <1>   0.0800 
 31 H       -1.5700     6.3360     0.5200 H     1 <1>   0.0800 
 32 H        1.0820     4.6810    -0.4150 H     1 <1>   0.0800 
 33 H        0.9380     5.1280    -2.0850 H     1 <1>   0.0800 
 34 H       -0.8430     7.6330    -1.7390 H     1 <1>   0.1500 
 35 H        1.5070     5.4610     1.5530 H     1 <1>   0.1500 
 36 H        2.9180     8.3770    -1.2280 H     1 <1>   0.1500 
 37 H        0.9580     9.4230    -0.0630 H     1 <1>   0.0800 
 38 H        0.3440     9.8360    -1.6400 H     1 <1>   0.0800 
 39 H        3.5470     5.7040     2.8410 H     1 <1>   0.1500 
 40 H        4.9720     8.6230     0.0860 H     1 <1>   0.1500 
 41 H       -1.3480     9.1920     0.7950 H     1 <1>   0.0800 
 42 H       -1.9760     9.6490    -0.7750 H     1 <1>   0.0800 
 43 H       -1.0500    10.7930     0.1650 H     1 <1>   0.0800 
 44 H        5.2940     7.2880     2.1300 H     1 <1>   0.1500 
@<TRIPOS>BOND
  1   1   2  ar  
  2   2   3  ar  
  3   2   4  1   
  4   4   5  1   
  5   4   6  1   
  6   4  22  1   
  7   5   7  1   
  8   5   8  1   
  9   5  23  1   
 10   6   9  1   
 11   6  24  1   
 12   6  25  1   
 13   7  26  1   
 14   8  10  1   
 15   8  27  1   
 16   8  28  1   
 17   9  10  1   
 18   9  11  1   
 19   9  29  1   
 20  10  30  1   
 21  10  31  1   
 22  11  12  1   
 23  11  32  1   
 24  11  33  1   
 25  12  13  1   
 26  12  14  2   
 27  13  15  ar  
 28  13  16  ar  
 29  14  17  1   
 30  14  34  1   
 31  15  18  ar  
 32  15  35  1   
 33  16  19  ar  
 34  16  36  1   
 35  17  20  1   
 36  17  37  1   
 37  17  38  1   
 38  18  21  ar  
 39  18  39  1   
 40  19  21  ar  
 41  19  40  1   
 42  20  41  1   
 43  20  42  1   
 44  20  43  1   
 45  21  44  1   
@<TRIPOS>SUBSTRUCTURE
  1 ****  11 GROUP 4 **** **** 0

# MOE 2024.06 (io_trps.svl 2023.06)
