@<TRIPOS>MOLECULE
NONAME
45 47 1 0 0 
SMALL
USER_CHARGES


@<TRIPOS>ATOM
  1 O       -4.6170     2.5160    -1.5580 O.2   1 <1>  -0.5700 
  2 C       -3.4980     2.1630    -1.2760 C.2   1 <1>   0.5690 
  3 N       -2.9700     1.0080    -1.7490 N.am  1 <1>  -0.7300 
  4 C       -2.6540     3.0080    -0.3380 C.3   1 <1>   0.0440 
  5 C       -3.7040    -0.0590    -2.4600 C.3   1 <1>   0.2200 
  6 C       -1.9680     2.1350     0.7090 C.ar  1 <1>  -0.1440 
  7 C       -3.9080    -1.2620    -1.5480 C.3   1 <1>  -0.0800 
  8 C       -2.7850    -0.6630    -3.5130 C.3   1 <1>   0.1200 
  9 C       -0.7040     1.6140     0.4730 C.ar  1 <1>  -0.1500 
 10 C       -2.6200     1.8280     1.8930 C.ar  1 <1>  -0.1500 
 11 C       -2.5690    -2.0000    -1.6580 C.3   1 <1>   0.1200 
 12 C       -4.3360    -0.9510    -0.1000 C.3   1 <1>  -0.0160 
 13 O       -1.9390    -1.5270    -2.8140 O.3   1 <1>  -0.5600 
 14 C       -0.0990     0.7820     1.4010 C.ar  1 <1>  -0.1440 
 15 C       -2.0190     1.0010     2.8250 C.ar  1 <1>  -0.1500 
 16 C       -4.4490    -2.2190     0.7290 C.ar  1 <1>  -0.1440 
 17 C       -0.7620     0.4770     2.5780 C.ar  1 <1>  -0.1500 
 18 C        1.2790     0.2110     1.1190 C.3   1 <1>  -0.0970 
 19 C       -5.5210    -3.0790     0.6130 C.ar  1 <1>  -0.1500 
 20 C       -3.4770    -2.5730     1.6430 C.ar  1 <1>  -0.1500 
 21 C       -5.5660    -4.2240     1.3920 C.ar  1 <1>   0.1600 
 22 C       -3.6180    -3.7420     2.3720 C.ar  1 <1>   0.1600 
 23 N       -4.6380    -4.5780     2.2670 N.ar  1 <1>  -0.6200 
 24 H       -2.0490     0.7130    -1.4140 H     1 <1>   0.3700 
 25 H       -1.9250     3.5430    -0.9150 H     1 <1>   0.0800 
 26 H       -3.2860     3.7300     0.1460 H     1 <1>   0.0800 
 27 H       -4.6230     0.3190    -2.8770 H     1 <1>   0.0800 
 28 H       -4.6580    -1.8930    -1.9920 H     1 <1>   0.0800 
 29 H       -2.2020     0.0780    -4.0310 H     1 <1>   0.0800 
 30 H       -3.3470    -1.2490    -4.2180 H     1 <1>   0.0800 
 31 H       -0.1850     1.8510    -0.4390 H     1 <1>   0.1500 
 32 H       -3.6010     2.2240     2.0920 H     1 <1>   0.1500 
 33 H       -2.7030    -3.0650    -1.7390 H     1 <1>   0.0800 
 34 H       -1.9250    -1.7780    -0.8240 H     1 <1>   0.0800 
 35 H       -5.2820    -0.4380    -0.1070 H     1 <1>   0.0800 
 36 H       -3.6220    -0.3010     0.3710 H     1 <1>   0.0800 
 37 H       -2.5300     0.7650     3.7420 H     1 <1>   0.1500 
 38 H       -0.3030    -0.1660     3.3090 H     1 <1>   0.1500 
 39 H        1.7280    -0.1670     2.0200 H     1 <1>   0.0800 
 40 H        1.9210     0.9740     0.7160 H     1 <1>   0.0800 
 41 H        1.2040    -0.5920     0.4080 H     1 <1>   0.0800 
 42 H       -6.3210    -2.8700    -0.0730 H     1 <1>   0.1500 
 43 H       -2.6130    -1.9510     1.7940 H     1 <1>   0.1500 
 44 H       -6.4100    -4.8840     1.2890 H     1 <1>   0.1500 
 45 H       -2.8500    -4.0030     3.0800 H     1 <1>   0.1500 
@<TRIPOS>BOND
  1   1   2  2   
  2   2   3  am  
  3   2   4  1   
  4   3   5  1   
  5   3  24  1   
  6   4   6  1   
  7   4  25  1   
  8   4  26  1   
  9   5   7  1   
 10   5   8  1   
 11   5  27  1   
 12   6   9  ar  
 13   6  10  ar  
 14   7  11  1   
 15   7  12  1   
 16   7  28  1   
 17   8  13  1   
 18   8  29  1   
 19   8  30  1   
 20   9  14  ar  
 21   9  31  1   
 22  10  15  ar  
 23  10  32  1   
 24  11  13  1   
 25  11  33  1   
 26  11  34  1   
 27  12  16  1   
 28  12  35  1   
 29  12  36  1   
 30  14  17  ar  
 31  14  18  1   
 32  15  17  ar  
 33  15  37  1   
 34  16  19  ar  
 35  16  20  ar  
 36  17  38  1   
 37  18  39  1   
 38  18  40  1   
 39  18  41  1   
 40  19  21  ar  
 41  19  42  1   
 42  20  22  ar  
 43  20  43  1   
 44  21  23  ar  
 45  21  44  1   
 46  22  23  ar  
 47  22  45  1   
@<TRIPOS>SUBSTRUCTURE
  1 ****  12 GROUP 4 **** **** 0

# MOE 2024.06 (io_trps.svl 2023.06)
