@<TRIPOS>MOLECULE
NONAME
46 49 1 0 0 
SMALL
USER_CHARGES


@<TRIPOS>ATOM
  1 O       -0.9700     4.1750    -2.4760 O.2   1 <1>  -0.5700 
  2 C       -0.7260     3.5630    -1.4500 C.2   1 <1>   0.7150 
  3 N       -1.7690     3.3040    -0.5790 N.am  1 <1>  -0.6600 
  4 C        0.6310     3.1460    -1.1570 C.2   1 <1>   0.0550 
  5 C       -3.1250     3.9080    -0.8240 C.3   1 <1>   0.1400 
  6 C       -1.6680     2.2960     0.5180 C.3   1 <1>   0.1400 
  7 O        1.4070     2.6320    -2.1080 O.3   1 <1>  -0.2800 
  8 C        1.3480     3.1760     0.0030 C.2   1 <1>  -0.1500 
  9 C       -3.9430     4.0360     0.4750 C.3   1 <1>   0.1440 
 10 C       -3.0230     1.6330     0.7820 C.3   1 <1>  -0.1600 
 11 C        2.5780     2.3370    -1.5940 C.2   1 <1>  -0.0100 
 12 C        2.6080     2.6500    -0.2810 C.2   1 <1>  -0.1500 
 13 C       -5.2640     4.7100     0.1400 C.ar  1 <1>   0.1660 
 14 C       -4.1350     2.6430     1.1340 C.3   1 <1>  -0.1600 
 15 C       -3.2890     5.0670     1.4420 C.3   1 <1>  -0.1600 
 16 N       -6.2660     4.1460    -0.4880 N.ar  1 <1>  -0.6200 
 17 C       -5.2880     6.0070     0.5530 C.ar  1 <1>  -0.1430 
 18 C       -4.0000     6.4130     1.2190 C.3   1 <1>  -0.0170 
 19 C       -7.3310     4.9270    -0.6860 C.ar  1 <1>   0.7200 
 20 C       -6.4240     6.7350     0.3060 C.ar  1 <1>   0.1600 
 21 N       -7.4530     6.2040    -0.3100 N.ar  1 <1>  -0.6200 
 22 N       -8.4060     4.3600    -1.3440 N.pl3 1 <1>  -0.8380 
 23 C       -9.7450     5.0090    -1.3690 C.3   1 <1>   0.1290 
 24 C       -8.2900     3.0790    -2.0930 C.3   1 <1>   0.1290 
 25 H       -3.6610     3.2860    -1.5210 H     1 <1>   0.0800 
 26 H       -3.0150     4.8800    -1.2740 H     1 <1>   0.0800 
 27 H       -1.3270     2.7840     1.4150 H     1 <1>   0.0800 
 28 H       -0.9530     1.5360     0.2510 H     1 <1>   0.0800 
 29 H        1.0310     3.5400     0.9640 H     1 <1>   0.1500 
 30 H       -2.9260     0.9140     1.5770 H     1 <1>   0.0800 
 31 H       -3.3050     1.0910    -0.1040 H     1 <1>   0.0800 
 32 H        3.3340     1.9090    -2.2290 H     1 <1>   0.1500 
 33 H        3.4180     2.5320     0.4170 H     1 <1>   0.1500 
 34 H       -5.0670     2.2160     0.8050 H     1 <1>   0.0800 
 35 H       -4.2120     2.7420     2.2010 H     1 <1>   0.0800 
 36 H       -2.2280     5.1630     1.2940 H     1 <1>   0.0800 
 37 H       -3.4580     4.7760     2.4630 H     1 <1>   0.0800 
 38 H       -3.4300     7.0380     0.5530 H     1 <1>   0.0800 
 39 H       -4.1750     6.9290     2.1470 H     1 <1>   0.0800 
 40 H       -6.4910     7.7640     0.6150 H     1 <1>   0.1500 
 41 H       -9.8990     5.5930    -0.4780 H     1 <1>   0.0800 
 42 H      -10.5180     4.2620    -1.4200 H     1 <1>   0.0800 
 43 H       -9.8150     5.6540    -2.2270 H     1 <1>   0.0800 
 44 H       -7.2860     2.9460    -2.4600 H     1 <1>   0.0800 
 45 H       -8.9590     3.0800    -2.9350 H     1 <1>   0.0800 
 46 H       -8.5360     2.2590    -1.4420 H     1 <1>   0.0800 
@<TRIPOS>BOND
  1   1   2  2   
  2   2   3  am  
  3   2   4  1   
  4   3   5  1   
  5   3   6  1   
  6   4   7  1   
  7   4   8  2   
  8   5   9  1   
  9   5  25  1   
 10   5  26  1   
 11   6  10  1   
 12   6  27  1   
 13   6  28  1   
 14   7  11  1   
 15   8  12  1   
 16   8  29  1   
 17   9  13  1   
 18   9  14  1   
 19   9  15  1   
 20  10  14  1   
 21  10  30  1   
 22  10  31  1   
 23  11  12  2   
 24  11  32  1   
 25  12  33  1   
 26  13  16  ar  
 27  13  17  ar  
 28  14  34  1   
 29  14  35  1   
 30  15  18  1   
 31  15  36  1   
 32  15  37  1   
 33  16  19  ar  
 34  17  18  1   
 35  17  20  ar  
 36  18  38  1   
 37  18  39  1   
 38  19  21  ar  
 39  19  22  1   
 40  20  21  ar  
 41  20  40  1   
 42  22  23  1   
 43  22  24  1   
 44  23  41  1   
 45  23  42  1   
 46  23  43  1   
 47  24  44  1   
 48  24  45  1   
 49  24  46  1   
@<TRIPOS>SUBSTRUCTURE
  1 ****   5 GROUP 4 **** **** 0

# MOE 2024.06 (io_trps.svl 2023.06)
