@<TRIPOS>MOLECULE
NONAME
48 50 1 0 0 
SMALL
USER_CHARGES


@<TRIPOS>ATOM
  1 F       -0.0320    -0.6180    -0.0600 F     1 <1>  -0.1900 
  2 C       -0.7070    -1.7290     0.0940 C.ar  1 <1>   0.1900 
  3 C       -0.0720    -2.9660     0.2540 C.ar  1 <1>   0.0820 
  4 C       -2.0840    -1.6170     0.0980 C.ar  1 <1>  -0.1500 
  5 O        1.2720    -3.2040     0.2680 O.3   1 <1>  -0.3630 
  6 C       -0.8760    -4.0830     0.4190 C.ar  1 <1>  -0.1500 
  7 C       -2.8530    -2.7530     0.2660 C.ar  1 <1>  -0.1500 
  8 C        2.2300    -2.2030     0.0090 C.3   1 <1>   0.0400 
  9 C       -2.2710    -4.0100     0.4270 C.ar  1 <1>   0.0530 
 10 C       -3.0620    -5.2010     0.6220 C.2   1 <1>   0.0870 
 11 O       -2.6400    -6.1010     1.4800 O.3   1 <1>  -0.0190 
 12 C       -4.2300    -5.6710     0.1010 C.2   1 <1>  -0.2330 
 13 N       -3.4420    -7.1260     1.5830 N.2   1 <1>  -0.4100 
 14 C       -4.4100    -6.8800     0.7730 C.2   1 <1>   0.3720 
 15 C       -5.1080    -5.1680    -0.9160 C.2   1 <1>   1.0330 
 16 N       -5.4910    -7.7250     0.5920 N.pl3 1 <1>  -0.8520 
 17 O       -4.9060    -4.0700    -1.4570 O.co2 1 <1>  -0.9000 
 18 O       -6.0930    -5.8320    -1.2960 O.co2 1 <1>  -0.9000 
 19 C       -5.1370    -9.0970     0.1650 C.3   1 <1>   0.2090 
 20 C       -6.3510    -9.8920    -0.3820 C.3   1 <1>   0.0000 
 21 C       -7.4120   -10.1170     0.7320 C.3   1 <1>  -0.1600 
 22 C       -5.8230   -11.2470    -0.9300 C.3   1 <1>  -0.1600 
 23 C       -7.0120    -9.1110    -1.5370 C.3   1 <1>  -0.2400 
 24 C       -7.1610   -11.4030     1.5310 C.3   1 <1>  -0.1600 
 25 C       -6.8630   -12.3710    -0.8340 C.3   1 <1>  -0.1600 
 26 C       -7.2490   -12.6490     0.6310 C.3   1 <1>  -0.1600 
 27 H       -2.5500    -0.6580    -0.0340 H     1 <1>   0.1500 
 28 H       -0.4050    -5.0410     0.5420 H     1 <1>   0.1500 
 29 H       -3.9270    -2.6700     0.2670 H     1 <1>   0.1500 
 30 H        3.2030    -2.6610     0.0210 H     1 <1>   0.0800 
 31 H        2.1720    -1.4540     0.7780 H     1 <1>   0.0800 
 32 H        2.0390    -1.7780    -0.9610 H     1 <1>   0.0800 
 33 H       -6.0730    -7.2780    -0.1510 H     1 <1>   0.4000 
 34 H       -4.7130    -9.6160     1.0070 H     1 <1>   0.0800 
 35 H       -4.3820    -9.0330    -0.6000 H     1 <1>   0.0800 
 36 H       -8.3920   -10.1900     0.2910 H     1 <1>   0.0800 
 37 H       -7.4360    -9.2740     1.4000 H     1 <1>   0.0800 
 38 H       -4.9610   -11.5570    -0.3640 H     1 <1>   0.0800 
 39 H       -5.5020   -11.1330    -1.9510 H     1 <1>   0.0800 
 40 H       -7.4750    -8.2090    -1.1740 H     1 <1>   0.0800 
 41 H       -7.7690    -9.7020    -2.0180 H     1 <1>   0.0800 
 42 H       -6.2790    -8.8270    -2.2730 H     1 <1>   0.0800 
 43 H       -7.8750   -11.4830     2.3320 H     1 <1>   0.0800 
 44 H       -6.1810   -11.3480     1.9740 H     1 <1>   0.0800 
 45 H       -6.4800   -13.2700    -1.2840 H     1 <1>   0.0800 
 46 H       -7.7420   -12.0800    -1.3850 H     1 <1>   0.0800 
 47 H       -8.2530   -13.0360     0.6510 H     1 <1>   0.0800 
 48 H       -6.6030   -13.4090     1.0350 H     1 <1>   0.0800 
@<TRIPOS>BOND
  1   1   2  1   
  2   2   3  ar  
  3   2   4  ar  
  4   3   5  1   
  5   3   6  ar  
  6   4   7  ar  
  7   4  27  1   
  8   5   8  1   
  9   6   9  ar  
 10   6  28  1   
 11   7   9  ar  
 12   7  29  1   
 13   8  30  1   
 14   8  31  1   
 15   8  32  1   
 16   9  10  1   
 17  10  11  1   
 18  10  12  2   
 19  11  13  1   
 20  12  14  1   
 21  12  15  1   
 22  13  14  2   
 23  14  16  1   
 24  15  17  ar  
 25  15  18  ar  
 26  16  19  1   
 27  16  33  1   
 28  19  20  1   
 29  19  34  1   
 30  19  35  1   
 31  20  21  1   
 32  20  22  1   
 33  20  23  1   
 34  21  24  1   
 35  21  36  1   
 36  21  37  1   
 37  22  25  1   
 38  22  38  1   
 39  22  39  1   
 40  23  40  1   
 41  23  41  1   
 42  23  42  1   
 43  24  26  1   
 44  24  43  1   
 45  24  44  1   
 46  25  26  1   
 47  25  45  1   
 48  25  46  1   
 49  26  47  1   
 50  26  48  1   
@<TRIPOS>SUBSTRUCTURE
  1 ****  12 GROUP 4 **** **** 0

# MOE 2024.06 (io_trps.svl 2023.06)
