@<TRIPOS>MOLECULE
NONAME
44 46 1 0 0 
SMALL
USER_CHARGES


@<TRIPOS>ATOM
  1 O        0.6090     1.4060     1.2620 O.3   1 <1>  -0.0190 
  2 N        1.3300     0.3640     1.5600 N.2   1 <1>  -0.4100 
  3 C        0.7810     1.7760     0.0220 C.2   1 <1>  -0.0400 
  4 C        1.9750     0.0590     0.4920 C.2   1 <1>   0.1080 
  5 C        1.6620     0.9370    -0.5420 C.2   1 <1>  -0.1500 
  6 C        0.0340     2.9790    -0.5230 C.3   1 <1>   0.0200 
  7 C        2.9420    -1.0990     0.3840 C.3   1 <1>  -0.0590 
  8 C        0.4480     4.2660     0.2050 C.3   1 <1>  -0.0800 
  9 C       -0.2270     5.5130    -0.3660 C.3   1 <1>   0.2000 
 10 C        1.9430     4.5680     0.1130 C.3   1 <1>   0.2090 
 11 O       -1.4790     5.6790     0.2090 O.3   1 <1>  -0.6800 
 12 C        0.7150     6.6750    -0.0450 C.3   1 <1>   0.2090 
 13 N        2.0420     6.0440     0.1580 N.pl3 1 <1>  -0.8380 
 14 C        3.2250     6.7200    -0.0170 C.ar  1 <1>   0.7200 
 15 N        3.1530     8.0450    -0.0960 N.ar  1 <1>  -0.6200 
 16 N        4.3310     5.9870    -0.0910 N.ar  1 <1>  -0.6200 
 17 C        4.2820     8.6930    -0.2520 C.ar  1 <1>   0.1670 
 18 C        5.4460     6.6540    -0.2460 C.ar  1 <1>   0.1600 
 19 C        5.4920     8.0280    -0.3330 C.ar  1 <1>  -0.1430 
 20 C        4.1680    10.2110    -0.3350 C.3   1 <1>  -0.0170 
 21 C        6.8310     8.7350    -0.5060 C.3   1 <1>  -0.0970 
 22 C        4.1590    10.8480     1.0600 C.3   1 <1>  -0.2400 
 23 H        2.0560     0.9160    -1.5410 H     1 <1>   0.1500 
 24 H        0.2370     3.0720    -1.5750 H     1 <1>   0.0800 
 25 H       -1.0230     2.8200    -0.4000 H     1 <1>   0.0800 
 26 H        2.6260    -1.7670    -0.3960 H     1 <1>   0.0800 
 27 H        2.9730    -1.6390     1.3130 H     1 <1>   0.0800 
 28 H        3.9260    -0.7310     0.1620 H     1 <1>   0.0800 
 29 H        0.2110     4.1780     1.2510 H     1 <1>   0.0800 
 30 H       -0.3510     5.4380    -1.4330 H     1 <1>   0.0800 
 31 H        2.3540     4.2170    -0.8190 H     1 <1>   0.0800 
 32 H        2.4860     4.1250     0.9310 H     1 <1>   0.0800 
 33 H       -1.3940     5.7420     1.1810 H     1 <1>   0.4000 
 34 H        0.4240     7.1760     0.8610 H     1 <1>   0.0800 
 35 H        0.7460     7.3760    -0.8610 H     1 <1>   0.0800 
 36 H        6.3560     6.0830    -0.3030 H     1 <1>   0.1500 
 37 H        4.9730    10.6210    -0.9160 H     1 <1>   0.0800 
 38 H        3.2530    10.4610    -0.8430 H     1 <1>   0.0800 
 39 H        7.6480     8.0430    -0.4060 H     1 <1>   0.0800 
 40 H        6.9480     9.4990     0.2420 H     1 <1>   0.0800 
 41 H        6.8860     9.1860    -1.4810 H     1 <1>   0.0800 
 42 H        5.0680    10.6170     1.5840 H     1 <1>   0.0800 
 43 H        3.3290    10.4660     1.6290 H     1 <1>   0.0800 
 44 H        4.0620    11.9150     0.9810 H     1 <1>   0.0800 
@<TRIPOS>BOND
  1   1   2  1   
  2   1   3  1   
  3   2   4  2   
  4   3   5  2   
  5   3   6  1   
  6   4   5  1   
  7   4   7  1   
  8   5  23  1   
  9   6   8  1   
 10   6  24  1   
 11   6  25  1   
 12   7  26  1   
 13   7  27  1   
 14   7  28  1   
 15   8   9  1   
 16   8  10  1   
 17   8  29  1   
 18   9  11  1   
 19   9  12  1   
 20   9  30  1   
 21  10  13  1   
 22  10  31  1   
 23  10  32  1   
 24  11  33  1   
 25  12  13  1   
 26  12  34  1   
 27  12  35  1   
 28  13  14  1   
 29  14  15  ar  
 30  14  16  ar  
 31  15  17  ar  
 32  16  18  ar  
 33  17  19  ar  
 34  17  20  1   
 35  18  19  ar  
 36  18  36  1   
 37  19  21  1   
 38  20  22  1   
 39  20  37  1   
 40  20  38  1   
 41  21  39  1   
 42  21  40  1   
 43  21  41  1   
 44  22  42  1   
 45  22  43  1   
 46  22  44  1   
@<TRIPOS>SUBSTRUCTURE
  1 ****  10 GROUP 4 **** **** 0

# MOE 2024.06 (io_trps.svl 2023.06)
