@<TRIPOS>MOLECULE
NONAME
53 56 1 0 0 
SMALL
USER_CHARGES


@<TRIPOS>ATOM
  1 O        0.4390     1.1790    -1.3480 O.2   1 <1>  -0.5700 
  2 C       -0.2400     1.9720    -0.7210 C.2   1 <1>   0.5440 
  3 N       -1.6080     1.7900    -0.6610 N.am  1 <1>  -0.6600 
  4 C        0.4010     3.1060    -0.0860 C.ar  1 <1>   0.0860 
  5 C       -2.5450     2.7580    -0.0070 C.3   1 <1>   0.1400 
  6 C       -2.2930     0.6460    -1.3280 C.3   1 <1>   0.1400 
  7 C        0.5640     3.2090     1.3030 C.ar  1 <1>  -0.1440 
  8 C        0.8630     4.1570    -0.8810 C.ar  1 <1>  -0.1500 
  9 C       -3.5480     3.3310    -1.0240 C.3   1 <1>   0.1440 
 10 C       -3.3060     1.1700    -2.3550 C.3   1 <1>  -0.1600 
 11 C        1.1290     4.3460     1.8560 C.ar  1 <1>  -0.1500 
 12 C        0.1330     2.0750     2.2260 C.3   1 <1>  -0.0970 
 13 C        1.4320     5.2880    -0.3300 C.ar  1 <1>  -0.1500 
 14 C       -4.4790     4.2670    -0.2780 C.ar  1 <1>   0.1670 
 15 C       -4.2910     2.1750    -1.7290 C.3   1 <1>  -0.1600 
 16 C       -2.8590     4.2870    -2.0340 C.3   1 <1>  -0.1600 
 17 C        1.5550     5.3820     1.0450 C.ar  1 <1>   0.0820 
 18 N       -5.4400     3.8970     0.5300 N.ar  1 <1>  -0.6200 
 19 C       -4.1770     5.5720    -0.5260 C.ar  1 <1>  -0.1430 
 20 C       -3.0120     5.7110    -1.4730 C.3   1 <1>  -0.0160 
 21 O        2.0910     6.4730     1.6040 O.3   1 <1>  -0.5330 
 22 C       -6.1250     4.8950     1.0950 C.ar  1 <1>   0.7200 
 23 C       -4.9330     6.5300     0.1000 C.ar  1 <1>   0.1600 
 24 N       -5.9100     6.2020     0.9120 N.ar  1 <1>  -0.6200 
 25 N       -7.1490     4.5410     1.9520 N.pl3 1 <1>  -0.8380 
 26 C       -7.7210     3.1670     1.9780 C.3   1 <1>   0.1290 
 27 C       -7.7880     5.5260     2.8670 C.3   1 <1>   0.1290 
 28 H       -2.0110     3.5680     0.4570 H     1 <1>   0.0800 
 29 H       -3.0870     2.2430     0.7670 H     1 <1>   0.0800 
 30 H       -2.7990     0.0620    -0.5800 H     1 <1>   0.0800 
 31 H       -1.5790     0.0070    -1.8190 H     1 <1>   0.0800 
 32 H        0.7680     4.0710    -1.9500 H     1 <1>   0.1500 
 33 H       -3.8530     0.3390    -2.7630 H     1 <1>   0.0800 
 34 H       -2.7690     1.6320    -3.1640 H     1 <1>   0.0800 
 35 H        1.2490     4.4430     2.9200 H     1 <1>   0.1500 
 36 H        0.4590     1.1290     1.8310 H     1 <1>   0.0800 
 37 H       -0.9370     2.0600     2.3230 H     1 <1>   0.0800 
 38 H        0.5630     2.1930     3.2040 H     1 <1>   0.0800 
 39 H        1.7780     6.0830    -0.9660 H     1 <1>   0.1500 
 40 H       -4.9550     2.5650    -2.4810 H     1 <1>   0.0800 
 41 H       -4.8970     1.6600    -1.0030 H     1 <1>   0.0800 
 42 H       -3.3800     4.2440    -2.9740 H     1 <1>   0.0800 
 43 H       -1.8300     4.0330    -2.2110 H     1 <1>   0.0800 
 44 H       -3.2110     6.4250    -2.2530 H     1 <1>   0.0800 
 45 H       -2.1310     5.9990    -0.9240 H     1 <1>   0.0800 
 46 H        2.3980     7.1350     0.9610 H     1 <1>   0.4500 
 47 H       -4.7350     7.5750    -0.0650 H     1 <1>   0.1500 
 48 H       -7.5910     2.6840     1.0250 H     1 <1>   0.0800 
 49 H       -8.7740     3.2090     2.1940 H     1 <1>   0.0800 
 50 H       -7.2240     2.5860     2.7350 H     1 <1>   0.0800 
 51 H       -7.0860     6.2930     3.1470 H     1 <1>   0.0800 
 52 H       -8.1250     5.0350     3.7630 H     1 <1>   0.0800 
 53 H       -8.6270     5.9840     2.3730 H     1 <1>   0.0800 
@<TRIPOS>BOND
  1   1   2  2   
  2   2   3  am  
  3   2   4  1   
  4   3   5  1   
  5   3   6  1   
  6   4   7  ar  
  7   4   8  ar  
  8   5   9  1   
  9   5  28  1   
 10   5  29  1   
 11   6  10  1   
 12   6  30  1   
 13   6  31  1   
 14   7  11  ar  
 15   7  12  1   
 16   8  13  ar  
 17   8  32  1   
 18   9  14  1   
 19   9  15  1   
 20   9  16  1   
 21  10  15  1   
 22  10  33  1   
 23  10  34  1   
 24  11  17  ar  
 25  11  35  1   
 26  12  36  1   
 27  12  37  1   
 28  12  38  1   
 29  13  17  ar  
 30  13  39  1   
 31  14  18  ar  
 32  14  19  ar  
 33  15  40  1   
 34  15  41  1   
 35  16  20  1   
 36  16  42  1   
 37  16  43  1   
 38  17  21  1   
 39  18  22  ar  
 40  19  20  1   
 41  19  23  ar  
 42  20  44  1   
 43  20  45  1   
 44  21  46  1   
 45  22  24  ar  
 46  22  25  1   
 47  23  24  ar  
 48  23  47  1   
 49  25  26  1   
 50  25  27  1   
 51  26  48  1   
 52  26  49  1   
 53  26  50  1   
 54  27  51  1   
 55  27  52  1   
 56  27  53  1   
@<TRIPOS>SUBSTRUCTURE
  1 ****   5 GROUP 4 **** **** 0

# MOE 2024.06 (io_trps.svl 2023.06)
