@<TRIPOS>MOLECULE
NONAME
38 38 1 0 0 
SMALL
USER_CHARGES


@<TRIPOS>ATOM
  1 O        1.6710     1.2400    -2.8170 O.3   1 <1>  -0.6800 
  2 C        1.6230     0.5920    -1.5970 C.3   1 <1>   0.1200 
  3 C        3.0650     0.2380    -1.2040 C.3   1 <1>   0.3430 
  4 N        3.1380    -0.7520    -0.0790 N.4   1 <1>  -0.9590 
  5 C        2.7490    -2.1170    -0.5000 C.3   1 <1>   0.5230 
  6 C        4.4920    -0.7530     0.5290 C.3   1 <1>   0.4810 
  7 C        2.5890    -2.9790     0.7310 C.2   1 <1>  -0.3320 
  8 C        4.6790     0.5830     1.2100 C.2   1 <1>  -0.2880 
  9 N        2.7230    -4.3250     0.7230 N.pl3 1 <1>   0.0480 
 10 C        2.2910    -2.6370     2.0070 C.2   1 <1>   0.0770 
 11 C        5.4640     1.5940     0.8170 C.2   1 <1>  -0.2760 
 12 C        2.5100    -4.6970     2.0040 C.2   1 <1>   0.0360 
 13 C        3.0220    -5.2350    -0.4020 C.3   1 <1>   0.0160 
 14 N        2.2530    -3.7130     2.8010 N.2   1 <1>  -0.5650 
 15 C        5.5590     2.8880     1.6110 C.3   1 <1>  -0.1020 
 16 C        6.3510     1.6130    -0.4220 C.3   1 <1>  -0.1020 
 17 H        0.7880     1.5670    -3.0930 H     1 <1>   0.4000 
 18 H        1.1830     1.2600    -0.8760 H     1 <1>   0.0800 
 19 H        1.0110    -0.2830    -1.7190 H     1 <1>   0.0800 
 20 H        3.5620     1.1520    -0.9190 H     1 <1>   0.0800 
 21 H        3.5730    -0.1600    -2.0670 H     1 <1>   0.0800 
 22 H        2.4950    -0.4580     0.6620 H     1 <1>   0.4500 
 23 H        1.8170    -2.0970    -1.0410 H     1 <1>   0.0800 
 24 H        3.5090    -2.5290    -1.1440 H     1 <1>   0.0800 
 25 H        4.5880    -1.5430     1.2580 H     1 <1>   0.0800 
 26 H        5.2420    -0.8980    -0.2310 H     1 <1>   0.0800 
 27 H        4.0880     0.6510     2.1070 H     1 <1>   0.1500 
 28 H        2.0930    -1.6640     2.4280 H     1 <1>   0.1500 
 29 H        2.5520    -5.7260     2.3190 H     1 <1>   0.1500 
 30 H        2.2690    -5.1310    -1.1620 H     1 <1>   0.0800 
 31 H        3.0260    -6.2510    -0.0510 H     1 <1>   0.0800 
 32 H        3.9890    -5.0020    -0.8090 H     1 <1>   0.0800 
 33 H        5.2530     3.7230     1.0050 H     1 <1>   0.0800 
 34 H        6.5720     3.0520     1.9350 H     1 <1>   0.0800 
 35 H        4.9300     2.8560     2.4830 H     1 <1>   0.0800 
 36 H        6.0680     2.4260    -1.0670 H     1 <1>   0.0800 
 37 H        6.2910     0.7010    -0.9840 H     1 <1>   0.0800 
 38 H        7.3780     1.7560    -0.1330 H     1 <1>   0.0800 
@<TRIPOS>BOND
  1   1   2  1   
  2   1  17  1   
  3   2   3  1   
  4   2  18  1   
  5   2  19  1   
  6   3   4  1   
  7   3  20  1   
  8   3  21  1   
  9   4   5  1   
 10   4   6  1   
 11   4  22  1   
 12   5   7  1   
 13   5  23  1   
 14   5  24  1   
 15   6   8  1   
 16   6  25  1   
 17   6  26  1   
 18   7   9  1   
 19   7  10  2   
 20   8  11  2   
 21   8  27  1   
 22   9  12  1   
 23   9  13  1   
 24  10  14  1   
 25  10  28  1   
 26  11  15  1   
 27  11  16  1   
 28  12  14  2   
 29  12  29  1   
 30  13  30  1   
 31  13  31  1   
 32  13  32  1   
 33  15  33  1   
 34  15  34  1   
 35  15  35  1   
 36  16  36  1   
 37  16  37  1   
 38  16  38  1   
@<TRIPOS>SUBSTRUCTURE
  1 ****   4 GROUP 4 **** **** 0

# MOE 2024.06 (io_trps.svl 2023.06)
