@<TRIPOS>MOLECULE
NONAME
52 54 1 0 0 
SMALL
USER_CHARGES


@<TRIPOS>ATOM
  1 F        3.0140    -1.7710    -1.8500 F     1 <1>  -0.1900 
  2 C        3.0100    -1.5040    -0.5710 C.ar  1 <1>   0.1900 
  3 C        2.1680    -2.2240     0.2600 C.ar  1 <1>  -0.1440 
  4 C        3.8390    -0.5020    -0.1060 C.ar  1 <1>  -0.1500 
  5 C        2.1710    -1.9210     1.6150 C.ar  1 <1>  -0.1500 
  6 C        1.2780    -3.3130    -0.3010 C.3   1 <1>   0.4870 
  7 C        3.8260    -0.2080     1.2470 C.ar  1 <1>  -0.1500 
  8 C        2.9950    -0.9160     2.1010 C.ar  1 <1>  -0.1500 
  9 N       -0.0890    -2.7590    -0.5090 N.4   1 <1>  -0.9590 
 10 C       -1.0500    -3.8920    -0.7090 C.3   1 <1>   0.3430 
 11 C       -0.1310    -1.7860    -1.6400 C.3   1 <1>   0.3430 
 12 C       -2.5180    -3.4490    -0.9680 C.3   1 <1>   0.2890 
 13 C       -1.5600    -1.2640    -1.8260 C.3   1 <1>  -0.1600 
 14 N       -3.3950    -4.5870    -1.3580 N.pl3 1 <1>  -0.8690 
 15 C       -2.5690    -2.3980    -2.0800 C.3   1 <1>  -0.1600 
 16 C       -3.3930    -5.6950    -0.5570 C.ar  1 <1>   0.4100 
 17 N       -2.2950    -6.4110    -0.6350 N.ar  1 <1>  -0.6200 
 18 C       -4.4560    -5.9900     0.2860 C.ar  1 <1>  -0.1500 
 19 C       -2.1510    -7.4090     0.2450 C.ar  1 <1>   0.3960 
 20 C       -4.3620    -7.0610     1.1420 C.ar  1 <1>  -0.1500 
 21 C       -0.8560    -8.0820     0.3100 C.2   1 <1>   0.5440 
 22 C       -3.1760    -7.7680     1.1200 C.ar  1 <1>  -0.1500 
 23 O        0.1450    -7.4080     0.5140 O.2   1 <1>  -0.5700 
 24 N       -0.7190    -9.4530     0.1610 N.am  1 <1>  -0.6600 
 25 C        0.5730   -10.1480     0.4300 C.3   1 <1>   0.0600 
 26 C       -1.7710   -10.3250    -0.4320 C.3   1 <1>   0.0600 
 27 H        4.4800     0.0340    -0.7840 H     1 <1>   0.1500 
 28 H        1.5440    -2.4600     2.3060 H     1 <1>   0.1500 
 29 H        1.2420    -4.1340     0.3980 H     1 <1>   0.0800 
 30 H        1.6800    -3.6830    -1.2310 H     1 <1>   0.0800 
 31 H        4.4640     0.5690     1.6360 H     1 <1>   0.1500 
 32 H        2.9950    -0.6840     3.1540 H     1 <1>   0.1500 
 33 H       -0.3380    -2.2570     0.3520 H     1 <1>   0.4500 
 34 H       -1.0340    -4.5280     0.1610 H     1 <1>   0.0800 
 35 H       -0.7300    -4.4830    -1.5510 H     1 <1>   0.0800 
 36 H        0.1980    -2.2670    -2.5480 H     1 <1>   0.0800 
 37 H        0.5320    -0.9580    -1.4400 H     1 <1>   0.0800 
 38 H       -2.9090    -3.0230    -0.0590 H     1 <1>   0.0800 
 39 H       -1.5730    -0.5880    -2.6640 H     1 <1>   0.0800 
 40 H       -1.8500    -0.6980    -0.9580 H     1 <1>   0.0800 
 41 H       -3.2180    -4.8630    -2.3280 H     1 <1>   0.4000 
 42 H       -3.5640    -1.9900    -2.1370 H     1 <1>   0.0800 
 43 H       -2.3420    -2.8630    -3.0250 H     1 <1>   0.0800 
 44 H       -5.3350    -5.3710     0.2570 H     1 <1>   0.1500 
 45 H       -5.1670    -7.3260     1.8070 H     1 <1>   0.1500 
 46 H       -3.0280    -8.5940     1.7930 H     1 <1>   0.1500 
 47 H        1.2290    -9.5220     1.0110 H     1 <1>   0.0800 
 48 H        1.0570   -10.3870    -0.5000 H     1 <1>   0.0800 
 49 H        0.3930   -11.0540     0.9810 H     1 <1>   0.0800 
 50 H       -2.5620    -9.7380    -0.8670 H     1 <1>   0.0800 
 51 H       -2.1840   -10.9640     0.3290 H     1 <1>   0.0800 
 52 H       -1.3420   -10.9360    -1.2070 H     1 <1>   0.0800 
@<TRIPOS>BOND
  1   1   2  1   
  2   2   3  ar  
  3   2   4  ar  
  4   3   5  ar  
  5   3   6  1   
  6   4   7  ar  
  7   4  27  1   
  8   5   8  ar  
  9   5  28  1   
 10   6   9  1   
 11   6  29  1   
 12   6  30  1   
 13   7   8  ar  
 14   7  31  1   
 15   8  32  1   
 16   9  10  1   
 17   9  11  1   
 18   9  33  1   
 19  10  12  1   
 20  10  34  1   
 21  10  35  1   
 22  11  13  1   
 23  11  36  1   
 24  11  37  1   
 25  12  14  1   
 26  12  15  1   
 27  12  38  1   
 28  13  15  1   
 29  13  39  1   
 30  13  40  1   
 31  14  16  1   
 32  14  41  1   
 33  15  42  1   
 34  15  43  1   
 35  16  17  ar  
 36  16  18  ar  
 37  17  19  ar  
 38  18  20  ar  
 39  18  44  1   
 40  19  21  1   
 41  19  22  ar  
 42  20  22  ar  
 43  20  45  1   
 44  21  23  2   
 45  21  24  am  
 46  22  46  1   
 47  24  25  1   
 48  24  26  1   
 49  25  47  1   
 50  25  48  1   
 51  25  49  1   
 52  26  50  1   
 53  26  51  1   
 54  26  52  1   
@<TRIPOS>SUBSTRUCTURE
  1 ****  10 GROUP 4 **** **** 0

# MOE 2024.06 (io_trps.svl 2023.06)
