@<TRIPOS>MOLECULE
NONAME
43 45 1 0 0 
SMALL
USER_CHARGES


@<TRIPOS>ATOM
  1 S        1.0370     0.9980    -1.2180 S.o2  1 <1>   1.3330 
  2 O        0.4920     2.2660    -1.6450 O.2   1 <1>  -0.6500 
  3 O        1.0500    -0.1200    -2.1350 O.2   1 <1>  -0.6500 
  4 N        0.1790     0.5230     0.1700 N.am  1 <1>  -0.8490 
  5 C        2.7140     1.2410    -0.6290 C.3   1 <1>  -0.0550 
  6 C       -0.1780     1.6470     1.0420 C.3   1 <1>   0.1160 
  7 C       -1.0240    -0.2450    -0.1650 C.3   1 <1>   0.1160 
  8 C        3.4400    -0.0620    -0.2250 C.3   1 <1>  -0.0800 
  9 C        4.9180     0.0830     0.1140 C.3   1 <1>   0.2890 
 10 C        2.8690    -0.7470     1.0210 C.3   1 <1>   0.1200 
 11 N        5.1690     1.2980     0.9280 N.pl3 1 <1>  -0.8690 
 12 C        5.1320    -1.1510     0.9830 C.3   1 <1>   0.1200 
 13 O        3.9440    -1.3340     1.6930 O.3   1 <1>  -0.5600 
 14 C        5.4450     2.5400     0.4260 C.ar  1 <1>   0.4100 
 15 N        4.8010     3.5060     1.0040 N.ar  1 <1>  -0.6200 
 16 C        6.3530     2.7490    -0.6520 C.ar  1 <1>   0.1600 
 17 C        5.0680     4.7340     0.4880 C.ar  1 <1>   0.3100 
 18 N        6.6220     3.8980    -1.1830 N.ar  1 <1>  -0.6200 
 19 C        5.9630     4.9340    -0.5950 C.ar  1 <1>   0.3100 
 20 C        4.4340     5.8560     1.0450 C.ar  1 <1>  -0.1500 
 21 C        6.1760     6.2360    -1.0680 C.ar  1 <1>  -0.1500 
 22 C        4.6610     7.1200     0.5640 C.ar  1 <1>  -0.1500 
 23 C        5.5410     7.3130    -0.5040 C.ar  1 <1>  -0.1500 
 24 H        3.2780     1.7060    -1.4140 H     1 <1>   0.0800 
 25 H        2.7010     1.9220     0.1980 H     1 <1>   0.0800 
 26 H       -0.6440     1.2830     1.9420 H     1 <1>   0.0800 
 27 H       -0.8600     2.3140     0.5390 H     1 <1>   0.0800 
 28 H        0.7030     2.2010     1.3180 H     1 <1>   0.0800 
 29 H       -1.5380    -0.5450     0.7320 H     1 <1>   0.0800 
 30 H       -0.7550    -1.1340    -0.7110 H     1 <1>   0.0800 
 31 H       -1.6880     0.3460    -0.7740 H     1 <1>   0.0800 
 32 H        3.3600    -0.7620    -1.0390 H     1 <1>   0.0800 
 33 H        5.5450     0.0680    -0.7600 H     1 <1>   0.0800 
 34 H        2.1520    -1.5100     0.7690 H     1 <1>   0.0800 
 35 H        2.4200    -0.0370     1.6940 H     1 <1>   0.0800 
 36 H        4.6110     1.3210     1.7870 H     1 <1>   0.4000 
 37 H        5.9510    -1.0340     1.6720 H     1 <1>   0.0800 
 38 H        5.2850    -2.0240     0.3730 H     1 <1>   0.0800 
 39 H        6.8500     1.8810    -1.0400 H     1 <1>   0.1500 
 40 H        3.7610     5.6920     1.8660 H     1 <1>   0.1500 
 41 H        6.8580     6.3640    -1.8890 H     1 <1>   0.1500 
 42 H        4.1670     7.9730     1.0000 H     1 <1>   0.1500 
 43 H        5.7130     8.3100    -0.8740 H     1 <1>   0.1500 
@<TRIPOS>BOND
  1   1   2  2   
  2   1   3  2   
  3   1   4  am  
  4   1   5  1   
  5   4   6  1   
  6   4   7  1   
  7   5   8  1   
  8   5  24  1   
  9   5  25  1   
 10   6  26  1   
 11   6  27  1   
 12   6  28  1   
 13   7  29  1   
 14   7  30  1   
 15   7  31  1   
 16   8   9  1   
 17   8  10  1   
 18   8  32  1   
 19   9  11  1   
 20   9  12  1   
 21   9  33  1   
 22  10  13  1   
 23  10  34  1   
 24  10  35  1   
 25  11  14  1   
 26  11  36  1   
 27  12  13  1   
 28  12  37  1   
 29  12  38  1   
 30  14  15  ar  
 31  14  16  ar  
 32  15  17  ar  
 33  16  18  ar  
 34  16  39  1   
 35  17  19  ar  
 36  17  20  ar  
 37  18  19  ar  
 38  19  21  ar  
 39  20  22  ar  
 40  20  40  1   
 41  21  23  ar  
 42  21  41  1   
 43  22  23  ar  
 44  22  42  1   
 45  23  43  1   
@<TRIPOS>SUBSTRUCTURE
  1 ****   5 GROUP 4 **** **** 0

# MOE 2024.06 (io_trps.svl 2023.06)
