@<TRIPOS>MOLECULE
NONAME
52 54 1 0 0 
SMALL
USER_CHARGES


@<TRIPOS>ATOM
  1 O       -0.9430    -1.2220    -2.3120 O.2   1 <1>  -0.5700 
  2 C       -1.6440    -1.2950    -1.3290 C.2   1 <1>   0.5690 
  3 N       -1.9410    -0.2020    -0.5690 N.am  1 <1>  -0.6600 
  4 C       -2.1890    -2.6530    -0.9560 C.3   1 <1>  -0.0190 
  5 C       -2.8460    -0.2880     0.6130 C.3   1 <1>   0.2200 
  6 C       -1.4180     1.1550    -0.8980 C.3   1 <1>   0.0600 
  7 C       -1.6500    -3.1060     0.4140 C.3   1 <1>   0.1200 
  8 C       -3.7110    -2.7200    -1.1840 C.3   1 <1>   0.1400 
  9 C       -2.2470    -1.1850     1.7250 C.3   1 <1>   0.1200 
 10 C       -4.2920    -0.6280     0.1830 C.3   1 <1>   0.1400 
 11 O       -2.3370    -2.5660     1.5010 O.3   1 <1>  -0.5600 
 12 N       -4.5550    -2.0720    -0.1280 N.am  1 <1>  -0.6600 
 13 C       -5.5210    -2.7720     0.5730 C.2   1 <1>   0.5440 
 14 O       -6.3450    -2.1560     1.2270 O.2   1 <1>  -0.5700 
 15 C       -5.5890    -4.2140     0.5320 C.ar  1 <1>   0.0860 
 16 C       -6.5430    -4.8710    -0.2440 C.ar  1 <1>  -0.1500 
 17 C       -4.6850    -5.0000     1.2470 C.ar  1 <1>  -0.1500 
 18 C       -6.5720    -6.2490    -0.3240 C.ar  1 <1>  -0.1500 
 19 C       -4.7150    -6.3780     1.1700 C.ar  1 <1>  -0.1500 
 20 C       -5.6540    -7.0230     0.3720 C.ar  1 <1>   0.1000 
 21 N       -5.7010    -8.4030     0.2700 N.pl3 1 <1>  -0.8380 
 22 C       -4.5010    -9.1370    -0.2010 C.3   1 <1>   0.2090 
 23 C       -6.5890    -9.1180     1.2180 C.3   1 <1>   0.2090 
 24 C       -4.5950    -9.2850    -1.7140 C.3   1 <1>  -0.2400 
 25 C       -7.5220   -10.0310     0.4320 C.3   1 <1>  -0.2400 
 26 H       -1.7610    -3.3320    -1.6700 H     1 <1>   0.0800 
 27 H       -2.8940     0.7000     1.0330 H     1 <1>   0.0800 
 28 H       -0.8530     1.5390    -0.0670 H     1 <1>   0.0800 
 29 H       -2.2370     1.8190    -1.1110 H     1 <1>   0.0800 
 30 H       -0.7740     1.1200    -1.7600 H     1 <1>   0.0800 
 31 H       -0.6060    -2.8590     0.5120 H     1 <1>   0.0800 
 32 H       -1.7510    -4.1740     0.4920 H     1 <1>   0.0800 
 33 H       -3.9820    -3.7550    -1.2850 H     1 <1>   0.0800 
 34 H       -3.9370    -2.2510    -2.1270 H     1 <1>   0.0800 
 35 H       -2.7850    -0.9980     2.6370 H     1 <1>   0.0800 
 36 H       -1.2140    -0.9330     1.8900 H     1 <1>   0.0800 
 37 H       -4.5540    -0.0350    -0.6740 H     1 <1>   0.0800 
 38 H       -4.9370    -0.3150     0.9850 H     1 <1>   0.0800 
 39 H       -7.2630    -4.2840    -0.7870 H     1 <1>   0.1500 
 40 H       -3.9580    -4.5100     1.8710 H     1 <1>   0.1500 
 41 H       -7.3060    -6.7490    -0.9290 H     1 <1>   0.1500 
 42 H       -4.0150    -6.9660     1.7330 H     1 <1>   0.1500 
 43 H       -3.6090    -8.5910     0.0540 H     1 <1>   0.0800 
 44 H       -4.4500   -10.1080     0.2610 H     1 <1>   0.0800 
 45 H       -6.0000    -9.6880     1.9160 H     1 <1>   0.0800 
 46 H       -7.1710    -8.4020     1.7740 H     1 <1>   0.0800 
 47 H       -4.6230    -8.3150    -2.1750 H     1 <1>   0.0800 
 48 H       -5.4840    -9.8280    -1.9770 H     1 <1>   0.0800 
 49 H       -3.7390    -9.8200    -2.0830 H     1 <1>   0.0800 
 50 H       -6.9600   -10.7820    -0.0910 H     1 <1>   0.0800 
 51 H       -8.0880    -9.4520    -0.2740 H     1 <1>   0.0800 
 52 H       -8.2040   -10.5180     1.1050 H     1 <1>   0.0800 
@<TRIPOS>BOND
  1   1   2  2   
  2   2   3  am  
  3   2   4  1   
  4   3   5  1   
  5   3   6  1   
  6   4   7  1   
  7   4   8  1   
  8   4  26  1   
  9   5   9  1   
 10   5  10  1   
 11   5  27  1   
 12   6  28  1   
 13   6  29  1   
 14   6  30  1   
 15   7  11  1   
 16   7  31  1   
 17   7  32  1   
 18   8  12  1   
 19   8  33  1   
 20   8  34  1   
 21   9  11  1   
 22   9  35  1   
 23   9  36  1   
 24  10  12  1   
 25  10  37  1   
 26  10  38  1   
 27  12  13  am  
 28  13  14  2   
 29  13  15  1   
 30  15  16  ar  
 31  15  17  ar  
 32  16  18  ar  
 33  16  39  1   
 34  17  19  ar  
 35  17  40  1   
 36  18  20  ar  
 37  18  41  1   
 38  19  20  ar  
 39  19  42  1   
 40  20  21  1   
 41  21  22  1   
 42  21  23  1   
 43  22  24  1   
 44  22  43  1   
 45  22  44  1   
 46  23  25  1   
 47  23  45  1   
 48  23  46  1   
 49  24  47  1   
 50  24  48  1   
 51  24  49  1   
 52  25  50  1   
 53  25  51  1   
 54  25  52  1   
@<TRIPOS>SUBSTRUCTURE
  1 ****  15 GROUP 4 **** **** 0

# MOE 2024.06 (io_trps.svl 2023.06)
