@<TRIPOS>MOLECULE
NONAME
40 42 1 0 0 
SMALL
USER_CHARGES


@<TRIPOS>ATOM
  1 CL       1.6550     3.8330     2.4610 Cl    1 <1>  -0.1770 
  2 C        0.8860     3.5880     0.9090 C.ar  1 <1>   0.1770 
  3 C        1.4800     2.7930    -0.0640 C.ar  1 <1>  -0.1440 
  4 C       -0.3270     4.2160     0.6910 C.ar  1 <1>  -0.1500 
  5 C        0.8200     2.6430    -1.2790 C.ar  1 <1>  -0.1500 
  6 C        2.8250     2.1140     0.1830 C.3   1 <1>   0.3640 
  7 C       -0.9710     4.0540    -0.5220 C.ar  1 <1>  -0.1500 
  8 C       -0.3960     3.2680    -1.5050 C.ar  1 <1>  -0.1500 
  9 N        2.7540     0.7100    -0.2910 N.am  1 <1>  -0.7300 
 10 C        3.9840     2.8770    -0.5040 C.3   1 <1>   0.2610 
 11 C        3.7560     0.0970    -0.9600 C.2   1 <1>   0.5690 
 12 O        5.1550     2.0740    -0.5460 O.3   1 <1>  -0.5600 
 13 C        4.2560     4.1850     0.2400 C.2   1 <1>   0.5690 
 14 O        3.6540    -1.0540    -1.2980 O.2   1 <1>  -0.5700 
 15 C        5.0190     0.8930    -1.3100 C.3   1 <1>   0.1810 
 16 O        3.6500     5.1860    -0.0700 O.2   1 <1>  -0.5700 
 17 N        5.1880     4.2060     1.2270 N.am  1 <1>  -0.7300 
 18 C        5.5110     5.3750     2.0790 C.3   1 <1>   0.3200 
 19 C        6.3180     6.3980     1.3040 C.2   1 <1>   0.0070 
 20 N        7.4940     6.8270     1.6120 N.2   1 <1>  -0.3380 
 21 N        5.8650     6.9770     0.1960 N.pl3 1 <1>   0.0330 
 22 N        7.8360     7.7200     0.6780 N.2   1 <1>  -0.3380 
 23 C        6.8550     7.7940    -0.1540 C.2   1 <1>   0.0060 
 24 C        6.8180     8.6860    -1.3770 C.3   1 <1>  -0.0600 
 25 H       -0.7590     4.8250     1.4640 H     1 <1>   0.1500 
 26 H        1.2440     2.0360    -2.0620 H     1 <1>   0.1500 
 27 H        3.0290     2.0790     1.2380 H     1 <1>   0.0800 
 28 H       -1.9160     4.5390    -0.7020 H     1 <1>   0.1500 
 29 H       -0.8970     3.1420    -2.4500 H     1 <1>   0.1500 
 30 H        1.9210     0.1700    -0.0500 H     1 <1>   0.3700 
 31 H        3.7110     3.1190    -1.5150 H     1 <1>   0.0800 
 32 H        4.9950     1.1610    -2.3510 H     1 <1>   0.0800 
 33 H        5.8850     0.2830    -1.1300 H     1 <1>   0.0800 
 34 H        5.8430     3.4200     1.2840 H     1 <1>   0.3700 
 35 H        4.5980     5.8300     2.4230 H     1 <1>   0.0800 
 36 H        6.0720     5.0500     2.9380 H     1 <1>   0.0800 
 37 H        4.9620     6.7870    -0.2550 H     1 <1>   0.2700 
 38 H        5.9970     9.3760    -1.3050 H     1 <1>   0.0800 
 39 H        6.7080     8.0900    -2.2640 H     1 <1>   0.0800 
 40 H        7.7340     9.2450    -1.4470 H     1 <1>   0.0800 
@<TRIPOS>BOND
  1   1   2  1   
  2   2   3  ar  
  3   2   4  ar  
  4   3   5  ar  
  5   3   6  1   
  6   4   7  ar  
  7   4  25  1   
  8   5   8  ar  
  9   5  26  1   
 10   6   9  1   
 11   6  10  1   
 12   6  27  1   
 13   7   8  ar  
 14   7  28  1   
 15   8  29  1   
 16   9  11  am  
 17   9  30  1   
 18  10  12  1   
 19  10  13  1   
 20  10  31  1   
 21  11  14  2   
 22  11  15  1   
 23  12  15  1   
 24  13  16  2   
 25  13  17  am  
 26  15  32  1   
 27  15  33  1   
 28  17  18  1   
 29  17  34  1   
 30  18  19  1   
 31  18  35  1   
 32  18  36  1   
 33  19  20  2   
 34  19  21  1   
 35  20  22  1   
 36  21  23  1   
 37  21  37  1   
 38  22  23  2   
 39  23  24  1   
 40  24  38  1   
 41  24  39  1   
 42  24  40  1   
@<TRIPOS>SUBSTRUCTURE
  1 ****  13 GROUP 4 **** **** 0

# MOE 2024.06 (io_trps.svl 2023.06)
