@<TRIPOS>MOLECULE
NONAME
53 55 1 0 0 
SMALL
USER_CHARGES


@<TRIPOS>ATOM
  1 O        3.8190     0.8930    -1.5560 O.2   1 <1>  -0.5700 
  2 C        3.2360     0.0260    -0.9110 C.2   1 <1>   0.6160 
  3 N        1.8740     0.1750    -0.6340 N.am  1 <1>  -0.4690 
  4 C        3.9270    -1.1140    -0.3960 C.2   1 <1>   0.0290 
  5 C        1.2190    -0.7450     0.1650 C.2   1 <1>  -0.0290 
  6 C        1.1280     1.3320    -1.2240 C.3   1 <1>   0.0600 
  7 C        5.3130    -1.2700    -0.7170 C.2   1 <1>   0.6160 
  8 C        3.2500    -2.0170     0.3790 C.2   1 <1>  -0.1500 
  9 C        1.8880    -1.8220     0.6650 C.2   1 <1>  -0.1500 
 10 C       -0.2580    -0.5500     0.4830 C.3   1 <1>  -0.1020 
 11 O        5.6270    -1.9190    -1.6990 O.2   1 <1>  -0.5700 
 12 N        6.3100    -0.7590     0.0900 N.am  1 <1>  -0.6600 
 13 C        7.7570    -0.9200    -0.2610 C.3   1 <1>   0.1400 
 14 C        6.0590     0.0820     1.2930 C.3   1 <1>   0.1400 
 15 C        8.3100     0.3100    -0.9930 C.3   1 <1>   0.1400 
 16 C        5.8790     1.5670     0.9400 C.3   1 <1>  -0.1600 
 17 N        8.0970     1.5710    -0.2130 N.am  1 <1>  -0.6600 
 18 C        6.6950     2.0720    -0.2600 C.3   1 <1>   0.1400 
 19 C        9.1420     2.2230     0.4020 C.2   1 <1>   0.5690 
 20 O       10.2730     1.7830     0.3430 O.2   1 <1>  -0.5700 
 21 C        8.9190     3.5420     1.1830 C.3   1 <1>   0.4040 
 22 O        9.9570     3.7850     2.0810 O.3   1 <1>  -0.6800 
 23 C        8.7920     4.7630     0.2720 C.ar  1 <1>  -0.1440 
 24 C        9.5560     4.8910    -0.8810 C.ar  1 <1>  -0.1500 
 25 C        7.8860     5.7660     0.5940 C.ar  1 <1>  -0.1500 
 26 C        9.4060     5.9930    -1.7040 C.ar  1 <1>  -0.1500 
 27 C        7.7360     6.8680    -0.2290 C.ar  1 <1>  -0.1500 
 28 C        8.4940     6.9810    -1.3800 C.ar  1 <1>  -0.1500 
 29 H        0.2700     0.9730    -1.7620 H     1 <1>   0.0800 
 30 H        1.7390     1.8900    -1.9110 H     1 <1>   0.0800 
 31 H        0.8090     1.9920    -0.4380 H     1 <1>   0.0800 
 32 H        3.7470    -2.8880     0.7730 H     1 <1>   0.1500 
 33 H        1.3930    -2.5500     1.2850 H     1 <1>   0.1500 
 34 H       -0.4120     0.3960     0.9690 H     1 <1>   0.0800 
 35 H       -0.6120    -1.3240     1.1400 H     1 <1>   0.0800 
 36 H       -0.8410    -0.5870    -0.4190 H     1 <1>   0.0800 
 37 H        8.3320    -1.0880     0.6320 H     1 <1>   0.0800 
 38 H        7.8890    -1.7850    -0.8890 H     1 <1>   0.0800 
 39 H        5.1900    -0.2750     1.8190 H     1 <1>   0.0800 
 40 H        6.8970    -0.0160     1.9610 H     1 <1>   0.0800 
 41 H        7.8280     0.3920    -1.9520 H     1 <1>   0.0800 
 42 H        9.3590     0.1590    -1.1780 H     1 <1>   0.0800 
 43 H        6.1180     2.1520     1.8070 H     1 <1>   0.0800 
 44 H        4.8400     1.7510     0.7340 H     1 <1>   0.0800 
 45 H        6.6770     3.1470    -0.2930 H     1 <1>   0.0800 
 46 H        6.2300     1.7280    -1.1690 H     1 <1>   0.0800 
 47 H        8.0280     3.4450     1.7730 H     1 <1>   0.0800 
 48 H       10.7780     3.4520     1.6620 H     1 <1>   0.4000 
 49 H       10.2750     4.1340    -1.1490 H     1 <1>   0.1500 
 50 H        7.2960     5.6940     1.4900 H     1 <1>   0.1500 
 51 H       10.0000     6.0810    -2.5970 H     1 <1>   0.1500 
 52 H        7.0320     7.6400     0.0280 H     1 <1>   0.1500 
 53 H        8.3770     7.8370    -2.0210 H     1 <1>   0.1500 
@<TRIPOS>BOND
  1   1   2  2   
  2   2   3  am  
  3   2   4  1   
  4   3   5  1   
  5   3   6  1   
  6   4   7  1   
  7   4   8  2   
  8   5   9  2   
  9   5  10  1   
 10   6  29  1   
 11   6  30  1   
 12   6  31  1   
 13   7  11  2   
 14   7  12  am  
 15   8   9  1   
 16   8  32  1   
 17   9  33  1   
 18  10  34  1   
 19  10  35  1   
 20  10  36  1   
 21  12  13  1   
 22  12  14  1   
 23  13  15  1   
 24  13  37  1   
 25  13  38  1   
 26  14  16  1   
 27  14  39  1   
 28  14  40  1   
 29  15  17  1   
 30  15  41  1   
 31  15  42  1   
 32  16  18  1   
 33  16  43  1   
 34  16  44  1   
 35  17  18  1   
 36  17  19  am  
 37  18  45  1   
 38  18  46  1   
 39  19  20  2   
 40  19  21  1   
 41  21  22  1   
 42  21  23  1   
 43  21  47  1   
 44  22  48  1   
 45  23  24  ar  
 46  23  25  ar  
 47  24  26  ar  
 48  24  49  1   
 49  25  27  ar  
 50  25  50  1   
 51  26  28  ar  
 52  26  51  1   
 53  27  28  ar  
 54  27  52  1   
 55  28  53  1   
@<TRIPOS>SUBSTRUCTURE
  1 ****  18 GROUP 4 **** **** 0

# MOE 2024.06 (io_trps.svl 2023.06)
