@<TRIPOS>MOLECULE
NONAME
43 46 1 0 0 
SMALL
USER_CHARGES


@<TRIPOS>ATOM
  1 O        0.6830    -1.3230     1.0500 O.3   1 <1>  -0.5600 
  2 C       -0.4210    -2.1790     0.9850 C.3   1 <1>   0.1200 
  3 C        1.1120    -0.7950    -0.1600 C.3   1 <1>   0.1200 
  4 C        0.0130    -3.5940     0.5590 C.3   1 <1>   0.1900 
  5 C        1.6940    -1.8830    -1.0790 C.3   1 <1>  -0.0800 
  6 N        0.0470    -3.8210    -0.9300 N.3   1 <1>  -0.8100 
  7 C        1.3830    -3.9510     1.1810 C.3   1 <1>   0.3430 
  8 C        0.5750    -2.7110    -1.7480 C.3   1 <1>   0.1100 
  9 C        2.8350    -2.6740    -0.3980 C.3   1 <1>   0.3430 
 10 C       -1.2430    -4.3150    -1.4470 C.3   1 <1>   0.2910 
 11 N        2.4350    -4.0190     0.1160 N.4   1 <1>  -0.9590 
 12 C       -1.4740    -5.7210    -0.9410 C.2   1 <1>  -0.1810 
 13 C        3.5910    -4.8690     0.5080 C.3   1 <1>   0.2630 
 14 C       -2.3190    -6.1160     0.0450 C.2   1 <1>  -0.0260 
 15 C       -0.8600    -6.8820    -1.3800 C.2   1 <1>   0.1390 
 16 N       -3.1660    -5.3820     0.8510 N.2   1 <1>  -0.5760 
 17 N       -2.1760    -7.4830     0.1340 N.pl3 1 <1>   0.6010 
 18 N       -1.2590    -7.9450    -0.7390 N.2   1 <1>  -0.7070 
 19 C       -3.8630    -6.0590     1.7070 C.2   1 <1>   0.3760 
 20 C       -2.9260    -8.1800     1.0580 C.2   1 <1>  -0.1810 
 21 C       -3.7760    -7.4740     1.8490 C.2   1 <1>  -0.1360 
 22 H       -0.8280    -2.2250     1.9810 H     1 <1>   0.0800 
 23 H       -1.1760    -1.7720     0.3350 H     1 <1>   0.0800 
 24 H        0.2880    -0.2800    -0.6250 H     1 <1>   0.0800 
 25 H        1.8700    -0.0660     0.0710 H     1 <1>   0.0800 
 26 H       -0.7010    -4.2650     1.0010 H     1 <1>   0.0800 
 27 H        2.1570    -1.3290    -1.8750 H     1 <1>   0.0800 
 28 H        1.2890    -4.9140     1.6520 H     1 <1>   0.0800 
 29 H        1.6510    -3.2350     1.9400 H     1 <1>   0.0800 
 30 H        0.9550    -3.1290    -2.6660 H     1 <1>   0.0800 
 31 H       -0.2320    -2.0470    -2.0160 H     1 <1>   0.0800 
 32 H        3.2410    -2.0840     0.4090 H     1 <1>   0.0800 
 33 H        3.6180    -2.8110    -1.1250 H     1 <1>   0.0800 
 34 H       -2.0470    -3.6700    -1.1320 H     1 <1>   0.0800 
 35 H       -1.2280    -4.3360    -2.5240 H     1 <1>   0.0800 
 36 H        1.8940    -4.4500    -0.6610 H     1 <1>   0.4500 
 37 H        4.1150    -4.4260     1.3390 H     1 <1>   0.0800 
 38 H        4.2760    -4.9720    -0.3180 H     1 <1>   0.0800 
 39 H        3.2500    -5.8500     0.7950 H     1 <1>   0.0800 
 40 H       -0.1240    -6.9200    -2.1670 H     1 <1>   0.1500 
 41 H       -4.5460    -5.5370     2.3530 H     1 <1>   0.0600 
 42 H       -2.7830    -9.2440     1.0840 H     1 <1>   0.1500 
 43 H       -4.3960    -7.9450     2.5900 H     1 <1>   0.1500 
@<TRIPOS>BOND
  1   1   2  1   
  2   1   3  1   
  3   2   4  1   
  4   2  22  1   
  5   2  23  1   
  6   3   5  1   
  7   3  24  1   
  8   3  25  1   
  9   4   6  1   
 10   4   7  1   
 11   4  26  1   
 12   5   8  1   
 13   5   9  1   
 14   5  27  1   
 15   6   8  1   
 16   6  10  1   
 17   7  11  1   
 18   7  28  1   
 19   7  29  1   
 20   8  30  1   
 21   8  31  1   
 22   9  11  1   
 23   9  32  1   
 24   9  33  1   
 25  10  12  1   
 26  10  34  1   
 27  10  35  1   
 28  11  13  1   
 29  11  36  1   
 30  12  14  2   
 31  12  15  1   
 32  13  37  1   
 33  13  38  1   
 34  13  39  1   
 35  14  16  1   
 36  14  17  1   
 37  15  18  2   
 38  15  40  1   
 39  16  19  2   
 40  17  18  1   
 41  17  20  1   
 42  19  21  1   
 43  19  41  1   
 44  20  21  2   
 45  20  42  1   
 46  21  43  1   
@<TRIPOS>SUBSTRUCTURE
  1 ****   4 GROUP 4 **** **** 0

# MOE 2024.06 (io_trps.svl 2023.06)
