@<TRIPOS>MOLECULE
NONAME
42 42 1 0 0 
SMALL
USER_CHARGES


@<TRIPOS>ATOM
  1 S       -0.2570     0.9780     0.6290 S.o2  1 <1>   1.3330 
  2 O       -0.7890     0.3700    -0.5640 O.2   1 <1>  -0.6500 
  3 O       -0.8540     2.1600     1.2010 O.2   1 <1>  -0.6500 
  4 N        1.3270     1.3390     0.2300 N.am  1 <1>  -0.9140 
  5 C       -0.0700    -0.2540     1.8990 C.3   1 <1>  -0.1350 
  6 C        1.4570     2.6550    -0.3750 C.3   1 <1>   0.1960 
  7 C        2.9240     2.9150    -0.6960 C.3   1 <1>  -0.0990 
  8 C        3.0640     4.3050    -1.2650 C.2   1 <1>   0.5690 
  9 O        2.9100     4.4420    -2.4530 O.2   1 <1>  -0.5700 
 10 N        3.3390     5.3240    -0.4050 N.am  1 <1>  -0.4930 
 11 C        3.4640     6.7110    -0.6660 C.2   1 <1>   0.0630 
 12 C        2.6870     7.5410    -1.4810 C.2   1 <1>   0.1080 
 13 C        4.3870     7.5320    -0.1190 C.2   1 <1>  -0.3320 
 14 N        3.0890     8.7730    -1.4470 N.2   1 <1>  -0.7070 
 15 C        1.4950     7.1280    -2.3150 C.3   1 <1>  -0.0590 
 16 N        4.1410     8.7730    -0.6110 N.pl3 1 <1>   0.3140 
 17 C        5.5140     7.2050     0.8520 C.3   1 <1>  -0.0600 
 18 C        4.8810    10.0220    -0.3300 C.3   1 <1>   0.0960 
 19 C        4.3130    10.7310     0.9080 C.3   1 <1>  -0.1600 
 20 C        5.0830    12.0210     1.2160 C.3   1 <1>  -0.2400 
 21 H        1.5380     0.6640    -0.5050 H     1 <1>   0.4200 
 22 H       -1.0330    -0.5870     2.2320 H     1 <1>   0.0800 
 23 H        0.4590     0.1580     2.7360 H     1 <1>   0.0800 
 24 H        0.4750    -1.0970     1.5240 H     1 <1>   0.0800 
 25 H        1.1050     3.4080     0.3130 H     1 <1>   0.0800 
 26 H        0.8630     2.7110    -1.2740 H     1 <1>   0.0800 
 27 H        3.2710     2.2070    -1.4260 H     1 <1>   0.0800 
 28 H        3.5200     2.8220     0.1930 H     1 <1>   0.0800 
 29 H        3.5250     5.0750     0.5630 H     1 <1>   0.3700 
 30 H        0.9500     6.3450    -1.8240 H     1 <1>   0.0800 
 31 H        1.8340     6.7790    -3.2730 H     1 <1>   0.0800 
 32 H        0.8430     7.9690    -2.4610 H     1 <1>   0.0800 
 33 H        5.5250     6.1560     1.0830 H     1 <1>   0.0800 
 34 H        5.3890     7.7560     1.7670 H     1 <1>   0.0800 
 35 H        6.4630     7.4620     0.4150 H     1 <1>   0.0800 
 36 H        4.7920    10.6600    -1.1900 H     1 <1>   0.0800 
 37 H        5.9180     9.7860    -0.1880 H     1 <1>   0.0800 
 38 H        4.3670    10.0750     1.7590 H     1 <1>   0.0800 
 39 H        3.2780    10.9710     0.7290 H     1 <1>   0.0800 
 40 H        6.1180    11.8060     1.4150 H     1 <1>   0.0800 
 41 H        4.6610    12.5010     2.0820 H     1 <1>   0.0800 
 42 H        5.0210    12.7030     0.3860 H     1 <1>   0.0800 
@<TRIPOS>BOND
  1   1   2  2   
  2   1   3  2   
  3   1   4  am  
  4   1   5  1   
  5   4   6  1   
  6   4  21  1   
  7   5  22  1   
  8   5  23  1   
  9   5  24  1   
 10   6   7  1   
 11   6  25  1   
 12   6  26  1   
 13   7   8  1   
 14   7  27  1   
 15   7  28  1   
 16   8   9  2   
 17   8  10  am  
 18  10  11  1   
 19  10  29  1   
 20  11  12  1   
 21  11  13  2   
 22  12  14  2   
 23  12  15  1   
 24  13  16  1   
 25  13  17  1   
 26  14  16  1   
 27  15  30  1   
 28  15  31  1   
 29  15  32  1   
 30  16  18  1   
 31  17  33  1   
 32  17  34  1   
 33  17  35  1   
 34  18  19  1   
 35  18  36  1   
 36  18  37  1   
 37  19  20  1   
 38  19  38  1   
 39  19  39  1   
 40  20  40  1   
 41  20  41  1   
 42  20  42  1   
@<TRIPOS>SUBSTRUCTURE
  1 ****  10 GROUP 4 **** **** 0

# MOE 2024.06 (io_trps.svl 2023.06)
