@<TRIPOS>MOLECULE
NONAME
59 61 1 0 0 
SMALL
USER_CHARGES


@<TRIPOS>ATOM
  1 O        0.5370     1.5140    -1.0520 O.co2 1 <1>  -0.9000 
  2 C       -0.2860     1.0890    -0.2380 C.2   1 <1>   0.9060 
  3 O       -0.0480     1.0330     0.9740 O.co2 1 <1>  -0.9000 
  4 C       -1.7320     0.8790    -0.7370 C.3   1 <1>   0.3170 
  5 N       -2.6120     2.1210    -0.5500 N.4   1 <1>  -0.9590 
  6 C       -2.3760    -0.3500    -0.0470 C.3   1 <1>   0.1200 
  7 C       -2.7800     2.3160     0.9350 C.3   1 <1>   0.3430 
  8 C       -1.9940     3.2800    -1.2730 C.3   1 <1>   0.4860 
  9 O       -3.5270     0.0110     0.6790 O.3   1 <1>  -0.5600 
 10 C       -3.2740     1.0210     1.6230 C.3   1 <1>   0.1200 
 11 C       -2.2240     4.6070    -0.5530 C.ar  1 <1>  -0.1430 
 12 C       -1.2230     5.2170     0.2040 C.ar  1 <1>  -0.1430 
 13 C       -3.4700     5.2040    -0.6690 C.ar  1 <1>  -0.1500 
 14 C       -1.4950     6.4330     0.8330 C.ar  1 <1>  -0.1430 
 15 C        0.1430     4.5300     0.3370 C.3   1 <1>  -0.0970 
 16 C       -3.7430     6.3980    -0.0320 C.ar  1 <1>  -0.1430 
 17 C       -2.7530     7.0050     0.7160 C.ar  1 <1>  -0.1500 
 18 C       -0.4540     7.1820     1.6490 C.3   1 <1>   0.4860 
 19 C       -5.1150     7.0380    -0.1600 C.3   1 <1>  -0.0970 
 20 N        0.5120     7.8140     0.7110 N.4   1 <1>  -0.9590 
 21 C        1.7290     8.3020     1.4150 C.3   1 <1>   0.3430 
 22 C       -0.1290     8.8740    -0.1200 C.3   1 <1>   0.3430 
 23 C        2.7530     8.7900     0.3890 C.3   1 <1>  -0.1600 
 24 C        0.8640     9.3700    -1.1710 C.3   1 <1>  -0.1600 
 25 C        2.1670     9.8710    -0.5300 C.3   1 <1>  -0.0800 
 26 C        3.1800    10.2690    -1.6090 C.3   1 <1>  -0.2400 
 27 H       -1.6420     0.6620    -1.7860 H     1 <1>   0.0800 
 28 H       -3.5380     1.8920    -0.9210 H     1 <1>   0.4500 
 29 H       -1.6840    -0.8290     0.6260 H     1 <1>   0.0800 
 30 H       -2.6700    -1.0730    -0.7870 H     1 <1>   0.0800 
 31 H       -1.8370     2.5950     1.3760 H     1 <1>   0.0800 
 32 H       -3.4790     3.1120     1.1280 H     1 <1>   0.0800 
 33 H       -0.9360     3.1270    -1.3830 H     1 <1>   0.0800 
 34 H       -2.4040     3.3390    -2.2670 H     1 <1>   0.0800 
 35 H       -4.1840     1.2080     2.1650 H     1 <1>   0.0800 
 36 H       -2.5300     0.6650     2.3160 H     1 <1>   0.0800 
 37 H       -4.2400     4.7370    -1.2590 H     1 <1>   0.1500 
 38 H        0.8760     5.1080     0.8620 H     1 <1>   0.0800 
 39 H        0.5550     4.2990    -0.6310 H     1 <1>   0.0800 
 40 H        0.0380     3.6080     0.8800 H     1 <1>   0.0800 
 41 H       -2.9770     7.9370     1.2090 H     1 <1>   0.1500 
 42 H        0.0540     6.4870     2.2980 H     1 <1>   0.0800 
 43 H       -0.9290     7.9320     2.2590 H     1 <1>   0.0800 
 44 H       -5.3460     7.6230     0.7130 H     1 <1>   0.0800 
 45 H       -5.8750     6.2840    -0.2670 H     1 <1>   0.0800 
 46 H       -5.1420     7.6790    -1.0230 H     1 <1>   0.0800 
 47 H        0.7940     7.0710     0.0590 H     1 <1>   0.4500 
 48 H        1.4690     9.1140     2.0760 H     1 <1>   0.0800 
 49 H        2.1630     7.5090     2.0030 H     1 <1>   0.0800 
 50 H       -1.0030     8.4810    -0.6160 H     1 <1>   0.0800 
 51 H       -0.4340     9.6970     0.5060 H     1 <1>   0.0800 
 52 H        3.6060     9.1880     0.9120 H     1 <1>   0.0800 
 53 H        3.0970     7.9520    -0.1930 H     1 <1>   0.0800 
 54 H        1.0720     8.5730    -1.8640 H     1 <1>   0.0800 
 55 H        0.4080    10.1700    -1.7280 H     1 <1>   0.0800 
 56 H        1.9470    10.7460     0.0610 H     1 <1>   0.0800 
 57 H        3.4340     9.4270    -2.2300 H     1 <1>   0.0800 
 58 H        4.0820    10.6440    -1.1580 H     1 <1>   0.0800 
 59 H        2.7750    11.0440    -2.2370 H     1 <1>   0.0800 
@<TRIPOS>BOND
  1   1   2  ar  
  2   2   3  ar  
  3   2   4  1   
  4   4   5  1   
  5   4   6  1   
  6   4  27  1   
  7   5   7  1   
  8   5   8  1   
  9   5  28  1   
 10   6   9  1   
 11   6  29  1   
 12   6  30  1   
 13   7  10  1   
 14   7  31  1   
 15   7  32  1   
 16   8  11  1   
 17   8  33  1   
 18   8  34  1   
 19   9  10  1   
 20  10  35  1   
 21  10  36  1   
 22  11  12  ar  
 23  11  13  ar  
 24  12  14  ar  
 25  12  15  1   
 26  13  16  ar  
 27  13  37  1   
 28  14  17  ar  
 29  14  18  1   
 30  15  38  1   
 31  15  39  1   
 32  15  40  1   
 33  16  17  ar  
 34  16  19  1   
 35  17  41  1   
 36  18  20  1   
 37  18  42  1   
 38  18  43  1   
 39  19  44  1   
 40  19  45  1   
 41  19  46  1   
 42  20  21  1   
 43  20  22  1   
 44  20  47  1   
 45  21  23  1   
 46  21  48  1   
 47  21  49  1   
 48  22  24  1   
 49  22  50  1   
 50  22  51  1   
 51  23  25  1   
 52  23  52  1   
 53  23  53  1   
 54  24  25  1   
 55  24  54  1   
 56  24  55  1   
 57  25  26  1   
 58  25  56  1   
 59  26  57  1   
 60  26  58  1   
 61  26  59  1   
@<TRIPOS>SUBSTRUCTURE
  1 ****  12 GROUP 4 **** **** 0

# MOE 2024.06 (io_trps.svl 2023.06)
