@<TRIPOS>MOLECULE
NONAME
47 48 1 0 0 
SMALL
USER_CHARGES


@<TRIPOS>ATOM
  1 O       -1.3340     0.2490    -1.3830 O.2   1 <1>  -0.5700 
  2 C       -1.7560     0.0070    -0.2730 C.2   1 <1>   0.5440 
  3 N       -0.9850     0.4280     0.7570 N.am  1 <1>  -0.8000 
  4 C       -3.0040    -0.7090    -0.0670 C.ar  1 <1>   0.0860 
  5 C       -3.5530    -1.4970    -1.0810 C.ar  1 <1>  -0.1500 
  6 C       -3.7100    -0.6460     1.1380 C.ar  1 <1>  -0.1500 
  7 C       -4.7340    -2.1960    -0.9080 C.ar  1 <1>  -0.1500 
  8 C       -4.8900    -1.3420     1.3210 C.ar  1 <1>  -0.1500 
  9 C       -5.4130    -2.1240     0.3040 C.ar  1 <1>   0.0830 
 10 O       -6.5710    -2.7730     0.5620 O.3   1 <1>  -0.3630 
 11 C       -7.2020    -3.5800    -0.3990 C.3   1 <1>   0.1200 
 12 C       -8.4720    -4.1390     0.2410 C.3   1 <1>  -0.1600 
 13 C       -9.2380    -5.0170    -0.7460 C.3   1 <1>   0.3430 
 14 N      -10.3940    -5.6650    -0.0720 N.4   1 <1>  -0.9590 
 15 C      -10.9130    -6.8250    -0.8640 C.3   1 <1>   0.3430 
 16 C      -11.4800    -4.7200     0.3300 C.3   1 <1>   0.2630 
 17 C      -11.4270    -7.9360     0.0720 C.3   1 <1>   0.2000 
 18 O      -10.6240    -7.9040     1.2440 O.3   1 <1>  -0.5600 
 19 C      -11.3440    -9.2900    -0.6620 C.3   1 <1>   0.1200 
 20 C      -10.1390    -9.1420     1.6970 C.3   1 <1>   0.1200 
 21 O      -10.0050    -9.6680    -0.7070 O.3   1 <1>  -0.5600 
 22 C       -9.4420    -9.9250     0.5560 C.3   1 <1>   0.1200 
 23 H       -0.1030     0.8950     0.5410 H     1 <1>   0.3700 
 24 H       -1.1450     0.1750     1.7290 H     1 <1>   0.3700 
 25 H       -3.0350    -1.5570    -2.0240 H     1 <1>   0.1500 
 26 H       -3.3360    -0.0400     1.9420 H     1 <1>   0.1500 
 27 H       -5.1040    -2.7860    -1.7250 H     1 <1>   0.1500 
 28 H       -5.4180    -1.2820     2.2560 H     1 <1>   0.1500 
 29 H       -6.5230    -4.3690    -0.6750 H     1 <1>   0.0800 
 30 H       -7.4320    -2.9660    -1.2540 H     1 <1>   0.0800 
 31 H       -9.0830    -3.3110     0.5530 H     1 <1>   0.0800 
 32 H       -8.1910    -4.7220     1.1000 H     1 <1>   0.0800 
 33 H       -8.5720    -5.7790    -1.1200 H     1 <1>   0.0800 
 34 H       -9.5790    -4.4260    -1.5810 H     1 <1>   0.0800 
 35 H      -10.0480    -6.1350     0.7910 H     1 <1>   0.4500 
 36 H      -10.1090    -7.2470    -1.4450 H     1 <1>   0.0800 
 37 H      -11.6860    -6.5160    -1.5480 H     1 <1>   0.0800 
 38 H      -11.8930    -4.2320    -0.5380 H     1 <1>   0.0800 
 39 H      -11.0950    -3.9680     0.9990 H     1 <1>   0.0800 
 40 H      -12.2670    -5.2520     0.8380 H     1 <1>   0.0800 
 41 H      -12.4450    -7.7370     0.3590 H     1 <1>   0.0800 
 42 H      -11.7090    -9.2150    -1.6710 H     1 <1>   0.0800 
 43 H      -11.9100   -10.0530    -0.1530 H     1 <1>   0.0800 
 44 H      -10.9690    -9.7080     2.0830 H     1 <1>   0.0800 
 45 H       -9.4510    -8.9650     2.5050 H     1 <1>   0.0800 
 46 H       -9.5040   -10.9830     0.7440 H     1 <1>   0.0800 
 47 H       -8.4010    -9.6560     0.5060 H     1 <1>   0.0800 
@<TRIPOS>BOND
  1   1   2  2   
  2   2   3  am  
  3   2   4  1   
  4   3  23  1   
  5   3  24  1   
  6   4   5  ar  
  7   4   6  ar  
  8   5   7  ar  
  9   5  25  1   
 10   6   8  ar  
 11   6  26  1   
 12   7   9  ar  
 13   7  27  1   
 14   8   9  ar  
 15   8  28  1   
 16   9  10  1   
 17  10  11  1   
 18  11  12  1   
 19  11  29  1   
 20  11  30  1   
 21  12  13  1   
 22  12  31  1   
 23  12  32  1   
 24  13  14  1   
 25  13  33  1   
 26  13  34  1   
 27  14  15  1   
 28  14  16  1   
 29  14  35  1   
 30  15  17  1   
 31  15  36  1   
 32  15  37  1   
 33  16  38  1   
 34  16  39  1   
 35  16  40  1   
 36  17  18  1   
 37  17  19  1   
 38  17  41  1   
 39  18  20  1   
 40  19  21  1   
 41  19  42  1   
 42  19  43  1   
 43  20  22  1   
 44  20  44  1   
 45  20  45  1   
 46  21  22  1   
 47  22  46  1   
 48  22  47  1   
@<TRIPOS>SUBSTRUCTURE
  1 ****  11 GROUP 4 **** **** 0

# MOE 2024.06 (io_trps.svl 2023.06)
