@<TRIPOS>MOLECULE
NONAME
51 53 1 0 0 
SMALL
USER_CHARGES


@<TRIPOS>ATOM
  1 O        2.9260     1.0010     2.1800 O.co2 1 <1>  -0.9000 
  2 C        2.6290     0.4550     1.1110 C.2   1 <1>   0.9060 
  3 O        2.3550    -0.7530     1.0510 O.co2 1 <1>  -0.9000 
  4 C        2.7020     1.2350    -0.2040 C.3   1 <1>  -0.1060 
  5 C        3.9400     0.6170    -0.9000 C.3   1 <1>   0.2000 
  6 C        2.9280     2.7650     0.0040 C.3   1 <1>  -0.1600 
  7 C        1.3920     1.0360    -1.0240 C.3   1 <1>  -0.0160 
  8 O        3.5960    -0.5680    -1.5300 O.3   1 <1>  -0.6800 
  9 C        4.6280     1.5820    -1.8730 C.3   1 <1>   0.1400 
 10 C        4.4070     3.1270     0.1360 C.3   1 <1>   0.1400 
 11 C        0.1950     1.8360    -0.5120 C.ar  1 <1>  -0.1440 
 12 N        5.1230     2.8050    -1.1460 N.am  1 <1>  -0.6600 
 13 C       -0.2980     2.9100    -1.2390 C.ar  1 <1>  -0.1500 
 14 C       -0.4170     1.4920     0.6830 C.ar  1 <1>  -0.1500 
 15 C        6.1970     3.4960    -1.6500 C.2   1 <1>   0.5690 
 16 C       -1.3830     3.6340    -0.7740 C.ar  1 <1>  -0.1500 
 17 C       -1.5010     2.2150     1.1510 C.ar  1 <1>  -0.1500 
 18 O        6.6670     3.2250    -2.7310 O.2   1 <1>  -0.5700 
 19 C        6.8680     4.6360    -0.8950 C.3   1 <1>  -0.0990 
 20 C       -1.9850     3.2880     0.4220 C.ar  1 <1>  -0.1500 
 21 C        8.0680     4.1590    -0.0590 C.3   1 <1>  -0.0800 
 22 C        7.7000     3.2700     1.1270 C.3   1 <1>  -0.1600 
 23 C        8.8410     5.3050     0.5900 C.3   1 <1>  -0.1600 
 24 C        8.9170     3.3330     2.0490 C.3   1 <1>  -0.1600 
 25 C        9.6140     4.6650     1.7460 C.3   1 <1>  -0.1600 
 26 H        4.6740     0.3530    -0.1540 H     1 <1>   0.0800 
 27 H        2.3970     3.0920     0.8820 H     1 <1>   0.0800 
 28 H        2.5350     3.3220    -0.8270 H     1 <1>   0.0800 
 29 H        1.5800     1.3100    -2.0460 H     1 <1>   0.0800 
 30 H        1.1150    -0.0040    -1.0330 H     1 <1>   0.0800 
 31 H        3.1300    -1.1070    -0.8390 H     1 <1>   0.4000 
 32 H        3.9340     1.8840    -2.6360 H     1 <1>   0.0800 
 33 H        5.4590     1.0780    -2.3360 H     1 <1>   0.0800 
 34 H        4.8400     2.5660     0.9470 H     1 <1>   0.0800 
 35 H        4.4780     4.1730     0.3670 H     1 <1>   0.0800 
 36 H        0.1660     3.1880    -2.1680 H     1 <1>   0.1500 
 37 H       -0.0450     0.6590     1.2580 H     1 <1>   0.1500 
 38 H       -1.7560     4.4670    -1.3440 H     1 <1>   0.1500 
 39 H       -1.9590     1.9390     2.0830 H     1 <1>   0.1500 
 40 H        7.2270     5.3340    -1.6290 H     1 <1>   0.0800 
 41 H        6.1700     5.1690    -0.2830 H     1 <1>   0.0800 
 42 H       -2.8260     3.8490     0.7870 H     1 <1>   0.1500 
 43 H        8.7440     3.6120    -0.6970 H     1 <1>   0.0800 
 44 H        6.8510     3.6820     1.6440 H     1 <1>   0.0800 
 45 H        7.4740     2.2620     0.8240 H     1 <1>   0.0800 
 46 H        9.4970     5.7920    -0.1110 H     1 <1>   0.0800 
 47 H        8.1510     6.0300     0.9880 H     1 <1>   0.0800 
 48 H        8.6240     3.2620     3.0820 H     1 <1>   0.0800 
 49 H        9.5840     2.5190     1.8190 H     1 <1>   0.0800 
 50 H       10.6330     4.4800     1.4500 H     1 <1>   0.0800 
 51 H        9.6140     5.3110     2.6070 H     1 <1>   0.0800 
@<TRIPOS>BOND
  1   1   2  ar  
  2   2   3  ar  
  3   2   4  1   
  4   4   5  1   
  5   4   6  1   
  6   4   7  1   
  7   5   8  1   
  8   5   9  1   
  9   5  26  1   
 10   6  10  1   
 11   6  27  1   
 12   6  28  1   
 13   7  11  1   
 14   7  29  1   
 15   7  30  1   
 16   8  31  1   
 17   9  12  1   
 18   9  32  1   
 19   9  33  1   
 20  10  12  1   
 21  10  34  1   
 22  10  35  1   
 23  11  13  ar  
 24  11  14  ar  
 25  12  15  am  
 26  13  16  ar  
 27  13  36  1   
 28  14  17  ar  
 29  14  37  1   
 30  15  18  2   
 31  15  19  1   
 32  16  20  ar  
 33  16  38  1   
 34  17  20  ar  
 35  17  39  1   
 36  19  21  1   
 37  19  40  1   
 38  19  41  1   
 39  20  42  1   
 40  21  22  1   
 41  21  23  1   
 42  21  43  1   
 43  22  24  1   
 44  22  44  1   
 45  22  45  1   
 46  23  25  1   
 47  23  46  1   
 48  23  47  1   
 49  24  25  1   
 50  24  48  1   
 51  24  49  1   
 52  25  50  1   
 53  25  51  1   
@<TRIPOS>SUBSTRUCTURE
  1 ****   6 GROUP 4 **** **** 0

# MOE 2024.06 (io_trps.svl 2023.06)
