@<TRIPOS>MOLECULE
NONAME
47 48 1 0 0 
SMALL
USER_CHARGES


@<TRIPOS>ATOM
  1 F       -0.2690     0.7110     0.2350 F     1 <1>  -0.1900 
  2 C       -1.5620     0.9040     0.1890 C.ar  1 <1>   0.1900 
  3 C       -2.1460     1.8120    -0.7020 C.ar  1 <1>   0.0830 
  4 C       -2.3260     0.1640     1.0710 C.ar  1 <1>  -0.1500 
  5 O       -1.5040     2.5960    -1.6150 O.3   1 <1>  -0.3630 
  6 C       -3.5250     1.9450    -0.6710 C.ar  1 <1>  -0.1500 
  7 C       -3.6990     0.3230     1.0760 C.ar  1 <1>  -0.1500 
  8 C       -0.1080     2.5570    -1.8160 C.3   1 <1>   0.0400 
  9 C       -4.3290     1.2120     0.2030 C.ar  1 <1>   0.0530 
 10 C       -5.7600     1.3930     0.2050 C.2   1 <1>   0.0870 
 11 O       -6.2510     2.5980     0.0660 O.3   1 <1>  -0.0190 
 12 C       -6.8190     0.5460     0.3360 C.2   1 <1>  -0.0860 
 13 N       -7.5550     2.6280     0.1030 N.2   1 <1>  -0.4100 
 14 C       -7.9240     1.4060     0.2660 C.2   1 <1>   0.3720 
 15 C       -6.8690    -0.8780     0.4930 C.2   1 <1>   0.7160 
 16 N       -9.2740     1.0180     0.3340 N.pl3 1 <1>  -0.8210 
 17 O       -5.9010    -1.5800     0.2720 O.2   1 <1>  -0.5700 
 18 N       -8.0250    -1.4760     0.8910 N.am  1 <1>  -0.7300 
 19 C      -10.1510     1.9710     1.0710 C.3   1 <1>   0.1290 
 20 C       -9.8400     0.6770    -1.0000 C.3   1 <1>   0.1290 
 21 C       -8.3140    -2.9200     0.9360 C.3   1 <1>   0.1400 
 22 C       -9.5230    -3.2030     0.0480 C.3   1 <1>  -0.1600 
 23 C       -9.8540    -4.6930     0.0360 C.3   1 <1>   0.1200 
 24 O      -10.9770    -4.8650    -0.7610 O.3   1 <1>  -0.5600 
 25 C      -11.3880    -6.1880    -0.8790 C.3   1 <1>   0.0400 
 26 H       -1.8500    -0.5270     1.7430 H     1 <1>   0.1500 
 27 H       -3.9860     2.6400    -1.3500 H     1 <1>   0.1500 
 28 H       -4.2920    -0.2520     1.7650 H     1 <1>   0.1500 
 29 H        0.1360     3.2480    -2.6030 H     1 <1>   0.0800 
 30 H        0.1770     1.5610    -2.1050 H     1 <1>   0.0800 
 31 H        0.3850     2.8520    -0.9070 H     1 <1>   0.0800 
 32 H       -8.8300    -0.8350     0.9650 H     1 <1>   0.3700 
 33 H       -9.6860     2.2500     2.0020 H     1 <1>   0.0800 
 34 H      -11.1000     1.5100     1.2830 H     1 <1>   0.0800 
 35 H      -10.3100     2.8610     0.4850 H     1 <1>   0.0800 
 36 H       -9.1990    -0.0260    -1.5050 H     1 <1>   0.0800 
 37 H       -9.9240     1.5650    -1.6040 H     1 <1>   0.0800 
 38 H      -10.8140     0.2320    -0.8850 H     1 <1>   0.0800 
 39 H       -8.5210    -3.2070     1.9540 H     1 <1>   0.0800 
 40 H       -7.4590    -3.4780     0.5900 H     1 <1>   0.0800 
 41 H       -9.3060    -2.8900    -0.9570 H     1 <1>   0.0800 
 42 H      -10.3740    -2.6600     0.4190 H     1 <1>   0.0800 
 43 H      -10.0780    -5.0440     1.0290 H     1 <1>   0.0800 
 44 H       -9.0400    -5.2610    -0.3830 H     1 <1>   0.0800 
 45 H      -12.2590    -6.2120    -1.5110 H     1 <1>   0.0800 
 46 H      -11.6360    -6.5730     0.0950 H     1 <1>   0.0800 
 47 H      -10.6000    -6.7670    -1.3280 H     1 <1>   0.0800 
@<TRIPOS>BOND
  1   1   2  1   
  2   2   3  ar  
  3   2   4  ar  
  4   3   5  1   
  5   3   6  ar  
  6   4   7  ar  
  7   4  26  1   
  8   5   8  1   
  9   6   9  ar  
 10   6  27  1   
 11   7   9  ar  
 12   7  28  1   
 13   8  29  1   
 14   8  30  1   
 15   8  31  1   
 16   9  10  1   
 17  10  11  1   
 18  10  12  2   
 19  11  13  1   
 20  12  14  1   
 21  12  15  1   
 22  13  14  2   
 23  14  16  1   
 24  15  17  2   
 25  15  18  am  
 26  16  19  1   
 27  16  20  1   
 28  18  21  1   
 29  18  32  1   
 30  19  33  1   
 31  19  34  1   
 32  19  35  1   
 33  20  36  1   
 34  20  37  1   
 35  20  38  1   
 36  21  22  1   
 37  21  39  1   
 38  21  40  1   
 39  22  23  1   
 40  22  41  1   
 41  22  42  1   
 42  23  24  1   
 43  23  43  1   
 44  23  44  1   
 45  24  25  1   
 46  25  45  1   
 47  25  46  1   
 48  25  47  1   
@<TRIPOS>SUBSTRUCTURE
  1 ****  12 GROUP 4 **** **** 0

# MOE 2024.06 (io_trps.svl 2023.06)
