@<TRIPOS>MOLECULE
NONAME
65 67 1 0 0 
SMALL
USER_CHARGES


@<TRIPOS>ATOM
  1 O       -1.7210    -0.1460     0.0540 O.3   1 <1>  -0.3630 
  2 C       -2.3030     1.0310    -0.3260 C.ar  1 <1>   0.0830 
  3 C       -0.3490    -0.1730     0.3980 C.3   1 <1>   0.1200 
  4 C       -2.0750     2.2570     0.3200 C.ar  1 <1>   0.0830 
  5 C       -3.1780     0.9680    -1.4070 C.ar  1 <1>  -0.1440 
  6 C        0.1860    -1.5760     0.1110 C.3   1 <1>  -0.1600 
  7 O       -1.2650     2.2950     1.4160 O.3   1 <1>  -0.3620 
  8 C       -2.7050     3.4010    -0.1620 C.ar  1 <1>  -0.1500 
  9 C       -3.7980     2.1190    -1.8680 C.ar  1 <1>  -0.1500 
 10 C       -3.4620    -0.3590    -2.0840 C.3   1 <1>   0.4860 
 11 C        1.6760    -1.6770     0.4600 C.3   1 <1>  -0.1600 
 12 C       -0.9750     3.4980     2.0970 C.3   1 <1>   0.0400 
 13 C       -3.5570     3.3310    -1.2490 C.ar  1 <1>  -0.1500 
 14 N       -3.9920    -1.2940    -1.0540 N.4   1 <1>  -0.9590 
 15 C        2.2170    -3.0800     0.1740 C.3   1 <1>  -0.2400 
 16 C       -3.9500    -2.7280    -1.5010 C.3   1 <1>   0.3430 
 17 C       -5.3400    -0.8660    -0.5860 C.3   1 <1>   0.3430 
 18 C       -4.4830    -3.7240    -0.4220 C.3   1 <1>   0.4230 
 19 C       -5.8000    -1.7880     0.5470 C.3   1 <1>  -0.1600 
 20 N       -4.4210    -5.2040    -0.8010 N.4   1 <1>  -0.9590 
 21 C       -5.8630    -3.2910     0.1590 C.3   1 <1>   0.0000 
 22 C       -5.2450    -6.0940     0.0890 C.3   1 <1>   0.3430 
 23 C       -4.7600    -5.5070    -2.2340 C.3   1 <1>   0.2630 
 24 C       -6.1290    -4.1140     1.4520 C.3   1 <1>  -0.1600 
 25 C       -7.0550    -3.5210    -0.8150 C.3   1 <1>   0.1200 
 26 C       -5.4150    -5.4820     1.4800 C.3   1 <1>  -0.1600 
 27 O       -6.7850    -3.0330    -2.0860 O.3   1 <1>  -0.6800 
 28 H        0.1730     0.5640    -0.1890 H     1 <1>   0.0800 
 29 H       -0.2540     0.0620     1.4440 H     1 <1>   0.0800 
 30 H       -0.3610    -2.2910     0.7000 H     1 <1>   0.0800 
 31 H        0.0560    -1.7980    -0.9330 H     1 <1>   0.0800 
 32 H       -2.5510     4.3610     0.2940 H     1 <1>   0.1500 
 33 H       -4.4690     2.0930    -2.7110 H     1 <1>   0.1500 
 34 H       -2.5400    -0.7390    -2.4930 H     1 <1>   0.0800 
 35 H       -4.1730    -0.2320    -2.8840 H     1 <1>   0.0800 
 36 H        2.2350    -0.9600    -0.1170 H     1 <1>   0.0800 
 37 H        1.8220    -1.4490     1.5030 H     1 <1>   0.0800 
 38 H       -0.3070     3.2710     2.9090 H     1 <1>   0.0800 
 39 H       -1.8890     3.9120     2.4850 H     1 <1>   0.0800 
 40 H       -0.4980     4.1810     1.4160 H     1 <1>   0.0800 
 41 H       -4.0340     4.2270    -1.6120 H     1 <1>   0.1500 
 42 H       -3.3280    -1.1360    -0.2690 H     1 <1>   0.4500 
 43 H        2.1080    -3.3240    -0.8690 H     1 <1>   0.0800 
 44 H        1.6960    -3.8150     0.7620 H     1 <1>   0.0800 
 45 H        3.2620    -3.1260     0.4240 H     1 <1>   0.0800 
 46 H       -4.5440    -2.8270    -2.3930 H     1 <1>   0.0800 
 47 H       -2.9330    -2.9900    -1.7420 H     1 <1>   0.0800 
 48 H       -5.3000     0.1510    -0.2270 H     1 <1>   0.0800 
 49 H       -6.0450    -0.9050    -1.4020 H     1 <1>   0.0800 
 50 H       -3.8000    -3.6110     0.4040 H     1 <1>   0.0800 
 51 H       -5.1290    -1.6390     1.3760 H     1 <1>   0.0800 
 52 H       -6.7710    -1.4590     0.8770 H     1 <1>   0.0800 
 53 H       -3.4460    -5.5050    -0.6530 H     1 <1>   0.4500 
 54 H       -6.2230    -6.2370    -0.3420 H     1 <1>   0.0800 
 55 H       -4.7800    -7.0640     0.1710 H     1 <1>   0.0800 
 56 H       -5.7720    -5.2100    -2.4550 H     1 <1>   0.0800 
 57 H       -4.6680    -6.5650    -2.4240 H     1 <1>   0.0800 
 58 H       -4.0950    -4.9870    -2.9040 H     1 <1>   0.0800 
 59 H       -5.8070    -3.5730     2.3270 H     1 <1>   0.0800 
 60 H       -7.1890    -4.2660     1.5760 H     1 <1>   0.0800 
 61 H       -7.9380    -3.0210    -0.4490 H     1 <1>   0.0800 
 62 H       -7.2890    -4.5660    -0.9130 H     1 <1>   0.0800 
 63 H       -5.9810    -6.1600     2.0960 H     1 <1>   0.0800 
 64 H       -4.4460    -5.3840     1.9390 H     1 <1>   0.0800 
 65 H       -7.6070    -3.0300    -2.6300 H     1 <1>   0.4000 
@<TRIPOS>BOND
  1   1   2  1   
  2   1   3  1   
  3   2   4  ar  
  4   2   5  ar  
  5   3   6  1   
  6   3  28  1   
  7   3  29  1   
  8   4   7  1   
  9   4   8  ar  
 10   5   9  ar  
 11   5  10  1   
 12   6  11  1   
 13   6  30  1   
 14   6  31  1   
 15   7  12  1   
 16   8  13  ar  
 17   8  32  1   
 18   9  13  ar  
 19   9  33  1   
 20  10  14  1   
 21  10  34  1   
 22  10  35  1   
 23  11  15  1   
 24  11  36  1   
 25  11  37  1   
 26  12  38  1   
 27  12  39  1   
 28  12  40  1   
 29  13  41  1   
 30  14  16  1   
 31  14  17  1   
 32  14  42  1   
 33  15  43  1   
 34  15  44  1   
 35  15  45  1   
 36  16  18  1   
 37  16  46  1   
 38  16  47  1   
 39  17  19  1   
 40  17  48  1   
 41  17  49  1   
 42  18  20  1   
 43  18  21  1   
 44  18  50  1   
 45  19  21  1   
 46  19  51  1   
 47  19  52  1   
 48  20  22  1   
 49  20  23  1   
 50  20  53  1   
 51  21  24  1   
 52  21  25  1   
 53  22  26  1   
 54  22  54  1   
 55  22  55  1   
 56  23  56  1   
 57  23  57  1   
 58  23  58  1   
 59  24  26  1   
 60  24  59  1   
 61  24  60  1   
 62  25  27  1   
 63  25  61  1   
 64  25  62  1   
 65  26  63  1   
 66  26  64  1   
 67  27  65  1   
@<TRIPOS>SUBSTRUCTURE
  1 ****  14 GROUP 4 **** **** 0

# MOE 2024.06 (io_trps.svl 2023.06)
