@<TRIPOS>MOLECULE
NONAME
44 45 1 0 0 
SMALL
USER_CHARGES


@<TRIPOS>ATOM
  1 O        3.5710    -0.5810    -1.1210 O.2   1 <1>  -0.5700 
  2 C        2.6750    -0.9550    -0.3930 C.2   1 <1>   0.5440 
  3 N        1.9460    -0.0300     0.3020 N.am  1 <1>  -0.4930 
  4 C        2.3540    -2.3650    -0.2740 C.ar  1 <1>   0.0860 
  5 C        2.0490     1.3670     0.4190 C.2   1 <1>   0.3520 
  6 C        2.5610    -3.2350    -1.3450 C.ar  1 <1>  -0.1500 
  7 C        1.8260    -2.9090     0.8990 C.ar  1 <1>  -0.1500 
  8 N        1.1410     2.0000     1.0530 N.2   1 <1>  -0.4100 
  9 C        3.0040     2.2990    -0.0260 C.2   1 <1>   0.3520 
 10 C        2.2410    -4.5770    -1.2580 C.ar  1 <1>  -0.1500 
 11 C        1.5030    -4.2510     0.9880 C.ar  1 <1>  -0.1500 
 12 O        1.5200     3.2400     0.9930 O.3   1 <1>   0.2420 
 13 N        2.6300     3.4590     0.3570 N.2   1 <1>  -0.4100 
 14 N        4.1770     2.0490    -0.7620 N.am  1 <1>  -0.4930 
 15 C        1.7050    -5.0940    -0.0910 C.ar  1 <1>  -0.1430 
 16 C        5.2070     2.8380    -1.1540 C.2   1 <1>   0.5690 
 17 C        1.3420    -6.5670     0.0020 C.3   1 <1>  -0.0170 
 18 O        6.1060     2.3710    -1.8060 O.2   1 <1>  -0.5700 
 19 C        5.2790     4.3050    -0.7970 C.3   1 <1>  -0.1790 
 20 C       -0.1290    -6.7750    -0.3990 C.3   1 <1>  -0.1600 
 21 C       -0.5990    -8.2390    -0.4200 C.3   1 <1>   0.2800 
 22 O        0.2020    -8.9400    -1.2820 O.3   1 <1>  -0.6800 
 23 C       -2.0230    -8.3460    -0.9600 C.3   1 <1>  -0.2400 
 24 C       -0.4890    -8.9260     0.9410 C.3   1 <1>  -0.2400 
 25 H        1.1240    -0.3910     0.7820 H     1 <1>   0.3700 
 26 H        2.9810    -2.8500    -2.2590 H     1 <1>   0.1500 
 27 H        1.6720    -2.2870     1.7620 H     1 <1>   0.1500 
 28 H        2.4100    -5.2200    -2.1050 H     1 <1>   0.1500 
 29 H        1.0940    -4.6430     1.9040 H     1 <1>   0.1500 
 30 H        4.2730     1.0740    -1.0800 H     1 <1>   0.3700 
 31 H        1.5080    -6.9090     1.0070 H     1 <1>   0.0800 
 32 H        1.9870    -7.1370    -0.6450 H     1 <1>   0.0800 
 33 H        5.2500     4.4240     0.2700 H     1 <1>   0.0800 
 34 H        4.4540     4.8290    -1.2410 H     1 <1>   0.0800 
 35 H        6.1960     4.7260    -1.1670 H     1 <1>   0.0800 
 36 H       -0.2850    -6.3440    -1.3720 H     1 <1>   0.0800 
 37 H       -0.7490    -6.2270     0.2880 H     1 <1>   0.0800 
 38 H        0.0680    -8.6110    -2.1880 H     1 <1>   0.4000 
 39 H       -2.1010    -7.8950    -1.9330 H     1 <1>   0.0800 
 40 H       -2.7040    -7.8410    -0.3000 H     1 <1>   0.0800 
 41 H       -2.3230    -9.3770    -1.0250 H     1 <1>   0.0800 
 42 H        0.5340    -8.9770     1.2650 H     1 <1>   0.0800 
 43 H       -0.8750    -9.9280     0.8820 H     1 <1>   0.0800 
 44 H       -1.0580    -8.3880     1.6760 H     1 <1>   0.0800 
@<TRIPOS>BOND
  1   1   2  2   
  2   2   3  am  
  3   2   4  1   
  4   3   5  1   
  5   3  25  1   
  6   4   6  ar  
  7   4   7  ar  
  8   5   8  2   
  9   5   9  1   
 10   6  10  ar  
 11   6  26  1   
 12   7  11  ar  
 13   7  27  1   
 14   8  12  1   
 15   9  13  2   
 16   9  14  1   
 17  10  15  ar  
 18  10  28  1   
 19  11  15  ar  
 20  11  29  1   
 21  12  13  1   
 22  14  16  am  
 23  14  30  1   
 24  15  17  1   
 25  16  18  2   
 26  16  19  1   
 27  17  20  1   
 28  17  31  1   
 29  17  32  1   
 30  19  33  1   
 31  19  34  1   
 32  19  35  1   
 33  20  21  1   
 34  20  36  1   
 35  20  37  1   
 36  21  22  1   
 37  21  23  1   
 38  21  24  1   
 39  22  38  1   
 40  23  39  1   
 41  23  40  1   
 42  23  41  1   
 43  24  42  1   
 44  24  43  1   
 45  24  44  1   
@<TRIPOS>SUBSTRUCTURE
  1 ****   4 GROUP 4 **** **** 0

# MOE 2024.06 (io_trps.svl 2023.06)
