@<TRIPOS>MOLECULE
NONAME
48 49 1 0 0 
SMALL
USER_CHARGES


@<TRIPOS>ATOM
  1 O       -0.6920     1.0360    -0.1960 O.2   1 <1>  -0.5700 
  2 C       -0.8130     2.2240    -0.3830 C.2   1 <1>   0.5690 
  3 N       -1.7420     3.0080     0.2520 N.am  1 <1>  -0.6600 
  4 C        0.1260     2.8770    -1.3920 C.3   1 <1>   0.1810 
  5 C       -1.8350     4.4770    -0.0510 C.3   1 <1>   0.3640 
  6 C       -2.6620     2.5350     1.3240 C.3   1 <1>   0.2200 
  7 O        0.4440     4.1930    -1.0200 O.3   1 <1>  -0.5600 
  8 C       -3.1780     4.7750    -0.7200 C.ar  1 <1>  -0.1440 
  9 C       -0.6830     5.0530    -0.9230 C.3   1 <1>   0.2610 
 10 C       -1.8600     2.1080     2.5510 C.3   1 <1>  -0.2400 
 11 C       -3.5810     1.4200     0.8230 C.3   1 <1>  -0.2400 
 12 C       -3.6670     3.9780    -1.7480 C.ar  1 <1>  -0.1500 
 13 C       -3.9260     5.8680    -0.3070 C.ar  1 <1>  -0.1500 
 14 C       -0.2560     6.4120    -0.3580 C.2   1 <1>   0.5690 
 15 C       -4.8800     4.2670    -2.3480 C.ar  1 <1>  -0.1500 
 16 C       -5.1400     6.1580    -0.9050 C.ar  1 <1>  -0.1500 
 17 O       -1.0620     7.3070    -0.2680 O.2   1 <1>  -0.5700 
 18 N        1.0310     6.5870     0.0420 N.am  1 <1>  -0.7300 
 19 C       -5.6180     5.3570    -1.9260 C.ar  1 <1>  -0.1500 
 20 C        1.5800     7.8230     0.6490 C.3   1 <1>   0.2200 
 21 C        2.0650     8.7520    -0.4820 C.3   1 <1>   0.1200 
 22 C        2.6920     7.4430     1.6450 C.3   1 <1>   0.1200 
 23 O        2.4860     9.9840     0.0170 O.3   1 <1>  -0.6800 
 24 O        3.1600     8.5710     2.3030 O.3   1 <1>  -0.6800 
 25 H       -0.3290     2.8880    -2.3660 H     1 <1>   0.0800 
 26 H        1.0430     2.3180    -1.4390 H     1 <1>   0.0800 
 27 H       -1.8130     4.9920     0.8950 H     1 <1>   0.0800 
 28 H       -3.2960     3.3560     1.6200 H     1 <1>   0.0800 
 29 H       -1.0430     5.2160    -1.9230 H     1 <1>   0.0800 
 30 H       -1.2580     1.2440     2.3330 H     1 <1>   0.0800 
 31 H       -2.5290     1.8560     3.3540 H     1 <1>   0.0800 
 32 H       -1.2240     2.9100     2.8780 H     1 <1>   0.0800 
 33 H       -3.0250     0.5310     0.5890 H     1 <1>   0.0800 
 34 H       -4.1180     1.7440    -0.0500 H     1 <1>   0.0800 
 35 H       -4.2970     1.1730     1.5840 H     1 <1>   0.0800 
 36 H       -3.1100     3.1210    -2.0860 H     1 <1>   0.1500 
 37 H       -3.5670     6.5100     0.4800 H     1 <1>   0.1500 
 38 H       -5.2510     3.6410    -3.1410 H     1 <1>   0.1500 
 39 H       -5.7110     7.0100    -0.5770 H     1 <1>   0.1500 
 40 H        1.6720     5.7990    -0.1020 H     1 <1>   0.3700 
 41 H       -6.5620     5.5830    -2.3910 H     1 <1>   0.1500 
 42 H        0.7840     8.3100     1.1870 H     1 <1>   0.0800 
 43 H        1.2690     8.9350    -1.1830 H     1 <1>   0.0800 
 44 H        2.8990     8.3070    -0.9960 H     1 <1>   0.0800 
 45 H        3.5240     6.9950     1.1320 H     1 <1>   0.0800 
 46 H        2.3170     6.7650     2.3920 H     1 <1>   0.0800 
 47 H        1.7130    10.5370     0.2550 H     1 <1>   0.4000 
 48 H        3.2900     9.2930     1.6400 H     1 <1>   0.4000 
@<TRIPOS>BOND
  1   1   2  2   
  2   2   3  am  
  3   2   4  1   
  4   3   5  1   
  5   3   6  1   
  6   4   7  1   
  7   4  25  1   
  8   4  26  1   
  9   5   8  1   
 10   5   9  1   
 11   5  27  1   
 12   6  10  1   
 13   6  11  1   
 14   6  28  1   
 15   7   9  1   
 16   8  12  ar  
 17   8  13  ar  
 18   9  14  1   
 19   9  29  1   
 20  10  30  1   
 21  10  31  1   
 22  10  32  1   
 23  11  33  1   
 24  11  34  1   
 25  11  35  1   
 26  12  15  ar  
 27  12  36  1   
 28  13  16  ar  
 29  13  37  1   
 30  14  17  2   
 31  14  18  am  
 32  15  19  ar  
 33  15  38  1   
 34  16  19  ar  
 35  16  39  1   
 36  18  20  1   
 37  18  40  1   
 38  19  41  1   
 39  20  21  1   
 40  20  22  1   
 41  20  42  1   
 42  21  23  1   
 43  21  43  1   
 44  21  44  1   
 45  22  24  1   
 46  22  45  1   
 47  22  46  1   
 48  23  47  1   
 49  24  48  1   
@<TRIPOS>SUBSTRUCTURE
  1 ****   5 GROUP 4 **** **** 0

# MOE 2024.06 (io_trps.svl 2023.06)
