@<TRIPOS>MOLECULE
NONAME
51 54 1 0 0 
SMALL
USER_CHARGES


@<TRIPOS>ATOM
  1 O       -0.9290     0.6690    -1.7510 O.2   1 <1>  -0.5700 
  2 C       -1.8450     1.0990    -1.0680 C.2   1 <1>   0.7160 
  3 N       -3.0730     0.4590    -1.1670 N.am  1 <1>  -0.6600 
  4 C       -1.5820     2.2380    -0.1960 C.2   1 <1>   0.2030 
  5 C       -3.4170    -0.4000    -2.3370 C.3   1 <1>   0.1400 
  6 C       -4.1460     0.5210    -0.1350 C.3   1 <1>   0.1400 
  7 N       -2.4330     3.0780     0.3230 N.2   1 <1>  -0.4100 
  8 C       -0.3110     2.6240     0.2070 C.2   1 <1>  -0.1500 
  9 C       -3.7190    -1.8210    -1.8580 C.3   1 <1>  -0.1600 
 10 C       -4.4630    -0.8940     0.3550 C.3   1 <1>  -0.1600 
 11 O       -1.8110     3.9790     1.0440 O.3   1 <1>  -0.0190 
 12 C       -0.5290     3.6990     0.9660 C.2   1 <1>  -0.0400 
 13 C       -4.8290    -1.8410    -0.7990 C.3   1 <1>   0.4240 
 14 C        0.4540     4.5850     1.7020 C.3   1 <1>  -0.0600 
 15 O       -5.9700    -1.3260    -1.4460 O.3   1 <1>  -0.5600 
 16 C       -5.0630    -3.2790    -0.2880 C.ar  1 <1>  -0.1440 
 17 C       -7.2140    -1.6290    -0.8960 C.3   1 <1>   0.1200 
 18 C       -6.3060    -3.8900    -0.3940 C.ar  1 <1>  -0.1440 
 19 C       -4.0280    -3.9940     0.3000 C.ar  1 <1>  -0.1500 
 20 C       -7.4570    -3.1300    -1.0220 C.3   1 <1>  -0.0170 
 21 C       -6.5000    -5.1810     0.0720 C.ar  1 <1>  -0.1500 
 22 C       -4.2010    -5.2860     0.7650 C.ar  1 <1>   0.0820 
 23 C       -5.4610    -5.8960     0.6630 C.ar  1 <1>   0.0820 
 24 O       -3.0860    -5.8560     1.3030 O.3   1 <1>  -0.3630 
 25 O       -5.6520    -7.1550     1.1550 O.3   1 <1>  -0.3630 
 26 C       -2.8370    -7.2360     1.1590 C.3   1 <1>   0.0400 
 27 C       -6.9310    -7.7460     1.2330 C.3   1 <1>   0.0400 
 28 H       -2.6110    -0.4220    -3.0500 H     1 <1>   0.0800 
 29 H       -4.2810     0.0120    -2.8310 H     1 <1>   0.0800 
 30 H       -5.0240     0.9720    -0.5650 H     1 <1>   0.0800 
 31 H       -3.8430     1.1110     0.7100 H     1 <1>   0.0800 
 32 H        0.6060     2.1330    -0.0650 H     1 <1>   0.1500 
 33 H       -2.8130    -2.2370    -1.4600 H     1 <1>   0.0800 
 34 H       -4.0160    -2.4310    -2.6910 H     1 <1>   0.0800 
 35 H       -5.2580    -0.8630     1.0750 H     1 <1>   0.0800 
 36 H       -3.5950    -1.2710     0.8650 H     1 <1>   0.0800 
 37 H        1.4590     4.2380     1.5460 H     1 <1>   0.0800 
 38 H        0.2380     4.5730     2.7550 H     1 <1>   0.0800 
 39 H        0.3730     5.5950     1.3410 H     1 <1>   0.0800 
 40 H       -7.9590    -1.0790    -1.4440 H     1 <1>   0.0800 
 41 H       -7.2330    -1.3180     0.1340 H     1 <1>   0.0800 
 42 H       -3.0530    -3.5560     0.4070 H     1 <1>   0.1500 
 43 H       -7.5400    -3.3920    -2.0610 H     1 <1>   0.0800 
 44 H       -8.3810    -3.3800    -0.5330 H     1 <1>   0.0800 
 45 H       -7.4740    -5.6150    -0.0350 H     1 <1>   0.1500 
 46 H       -1.7840    -7.4030     1.2970 H     1 <1>   0.0800 
 47 H       -3.1350    -7.5470     0.1730 H     1 <1>   0.0800 
 48 H       -3.3900    -7.7690     1.9110 H     1 <1>   0.0800 
 49 H       -6.8280    -8.6990     1.7180 H     1 <1>   0.0800 
 50 H       -7.3140    -7.8820     0.2370 H     1 <1>   0.0800 
 51 H       -7.5750    -7.1090     1.8130 H     1 <1>   0.0800 
@<TRIPOS>BOND
  1   1   2  2   
  2   2   3  am  
  3   2   4  1   
  4   3   5  1   
  5   3   6  1   
  6   4   7  2   
  7   4   8  1   
  8   5   9  1   
  9   5  28  1   
 10   5  29  1   
 11   6  10  1   
 12   6  30  1   
 13   6  31  1   
 14   7  11  1   
 15   8  12  2   
 16   8  32  1   
 17   9  13  1   
 18   9  33  1   
 19   9  34  1   
 20  10  13  1   
 21  10  35  1   
 22  10  36  1   
 23  11  12  1   
 24  12  14  1   
 25  13  15  1   
 26  13  16  1   
 27  14  37  1   
 28  14  38  1   
 29  14  39  1   
 30  15  17  1   
 31  16  18  ar  
 32  16  19  ar  
 33  17  20  1   
 34  17  40  1   
 35  17  41  1   
 36  18  20  1   
 37  18  21  ar  
 38  19  22  ar  
 39  19  42  1   
 40  20  43  1   
 41  20  44  1   
 42  21  23  ar  
 43  21  45  1   
 44  22  23  ar  
 45  22  24  1   
 46  23  25  1   
 47  24  26  1   
 48  25  27  1   
 49  26  46  1   
 50  26  47  1   
 51  26  48  1   
 52  27  49  1   
 53  27  50  1   
 54  27  51  1   
@<TRIPOS>SUBSTRUCTURE
  1 ****  10 GROUP 4 **** **** 0

# MOE 2024.06 (io_trps.svl 2023.06)
