@<TRIPOS>MOLECULE
NONAME
42 44 1 0 0 
SMALL
USER_CHARGES


@<TRIPOS>ATOM
  1 S        0.1710     0.2980    -0.2160 S.3   1 <1>  -0.0800 
  2 C        1.8400     0.7370    -0.5520 C.2   1 <1>  -0.0450 
  3 C        0.6120    -1.2250     0.5550 C.2   1 <1>  -0.0450 
  4 C        2.0910     1.9920    -1.2100 C.2   1 <1>   0.7150 
  5 C        2.6460    -0.2570    -0.0950 C.2   1 <1>  -0.1500 
  6 C       -0.3960    -2.0980     1.0830 C.2   1 <1>   0.5940 
  7 C        1.9660    -1.3370     0.5220 C.2   1 <1>  -0.1500 
  8 O        1.5600     2.2270    -2.2770 O.2   1 <1>  -0.5700 
  9 N        2.9410     2.9500    -0.6810 N.am  1 <1>  -0.6600 
 10 O       -0.1250    -3.1190     1.6620 O.2   1 <1>  -0.5700 
 11 C       -1.8640    -1.7550     0.9310 C.3   1 <1>  -0.1790 
 12 C        3.4460     2.8760     0.7430 C.3   1 <1>   0.2200 
 13 C        3.1430     4.2170    -1.4620 C.3   1 <1>   0.1400 
 14 C        2.9870     4.0700     1.5960 C.3   1 <1>   0.1200 
 15 C        4.9870     2.7220     0.7880 C.3   1 <1>   0.3430 
 16 C        4.2010     5.1900    -0.9090 C.3   1 <1>  -0.0800 
 17 O        3.8790     5.1350     1.4750 O.3   1 <1>  -0.5600 
 18 N        5.6530     3.1280    -0.5000 N.4   1 <1>  -0.9590 
 19 C        3.7180     5.9270     0.3480 C.3   1 <1>   0.1200 
 20 C        5.6180     4.6080    -0.7330 C.3   1 <1>   0.3430 
 21 C        7.0490     2.6060    -0.5820 C.3   1 <1>   0.2630 
 22 H        3.7170    -0.2710    -0.1850 H     1 <1>   0.1500 
 23 H        2.4970    -2.1840     0.9250 H     1 <1>   0.1500 
 24 H       -2.0800    -0.8370     1.4430 H     1 <1>   0.0800 
 25 H       -2.4670    -2.5380     1.3550 H     1 <1>   0.0800 
 26 H       -2.1110    -1.6550    -0.1090 H     1 <1>   0.0800 
 27 H        3.0240     2.0140     1.2260 H     1 <1>   0.0800 
 28 H        3.4150     3.9530    -2.4710 H     1 <1>   0.0800 
 29 H        2.1960     4.7290    -1.5260 H     1 <1>   0.0800 
 30 H        2.9940     3.7860     2.6340 H     1 <1>   0.0800 
 31 H        1.9890     4.3860     1.3430 H     1 <1>   0.0800 
 32 H        5.2070     1.6860     0.9860 H     1 <1>   0.0800 
 33 H        5.3820     3.2970     1.6090 H     1 <1>   0.0800 
 34 H        4.2920     5.9640    -1.6510 H     1 <1>   0.0800 
 35 H        5.0720     2.7060    -1.2440 H     1 <1>   0.4500 
 36 H        2.6860     6.2290     0.2680 H     1 <1>   0.0800 
 37 H        4.3110     6.8120     0.5040 H     1 <1>   0.0800 
 38 H        6.1070     5.1160     0.0840 H     1 <1>   0.0800 
 39 H        6.1760     4.8230    -1.6290 H     1 <1>   0.0800 
 40 H        7.6560     3.0380     0.1970 H     1 <1>   0.0800 
 41 H        7.4860     2.8540    -1.5370 H     1 <1>   0.0800 
 42 H        7.0570     1.5340    -0.4720 H     1 <1>   0.0800 
@<TRIPOS>BOND
  1   1   2  1   
  2   1   3  1   
  3   2   4  1   
  4   2   5  2   
  5   3   6  1   
  6   3   7  2   
  7   4   8  2   
  8   4   9  am  
  9   5   7  1   
 10   5  22  1   
 11   6  10  2   
 12   6  11  1   
 13   7  23  1   
 14   9  12  1   
 15   9  13  1   
 16  11  24  1   
 17  11  25  1   
 18  11  26  1   
 19  12  14  1   
 20  12  15  1   
 21  12  27  1   
 22  13  16  1   
 23  13  28  1   
 24  13  29  1   
 25  14  17  1   
 26  14  30  1   
 27  14  31  1   
 28  15  18  1   
 29  15  32  1   
 30  15  33  1   
 31  16  19  1   
 32  16  20  1   
 33  16  34  1   
 34  17  19  1   
 35  18  20  1   
 36  18  21  1   
 37  18  35  1   
 38  19  36  1   
 39  19  37  1   
 40  20  38  1   
 41  20  39  1   
 42  21  40  1   
 43  21  41  1   
 44  21  42  1   
@<TRIPOS>SUBSTRUCTURE
  1 ****   9 GROUP 4 **** **** 0

# MOE 2024.06 (io_trps.svl 2023.06)
