@<TRIPOS>MOLECULE
NONAME
47 48 1 0 0 
SMALL
USER_CHARGES


@<TRIPOS>ATOM
  1 F       -0.3190     1.0760    -1.3780 F     1 <1>  -0.1900 
  2 C       -1.5920     1.2210    -1.1120 C.ar  1 <1>   0.1900 
  3 C       -2.0760     2.2940    -0.3570 C.ar  1 <1>   0.0830 
  4 C       -2.4400     0.2560    -1.6220 C.ar  1 <1>  -0.1500 
  5 O       -1.3460     3.3040     0.1980 O.3   1 <1>  -0.3630 
  6 C       -3.4420     2.3600    -0.1340 C.ar  1 <1>  -0.1500 
  7 C       -3.7980     0.3520    -1.3810 C.ar  1 <1>  -0.1500 
  8 C        0.0610     3.3720     0.1150 C.3   1 <1>   0.0400 
  9 C       -4.3300     1.4030    -0.6300 C.ar  1 <1>   0.0530 
 10 C       -5.7450     1.5150    -0.3740 C.2   1 <1>   0.0870 
 11 O       -6.2950     2.6980    -0.2600 O.3   1 <1>  -0.0190 
 12 C       -6.7430     0.6030    -0.2160 C.2   1 <1>  -0.0860 
 13 N       -7.5820     2.6470    -0.0370 N.2   1 <1>  -0.4100 
 14 C       -7.8730     1.3960     0.0010 C.2   1 <1>   0.3720 
 15 C       -6.7390    -0.8250    -0.2200 C.2   1 <1>   0.7160 
 16 N       -9.1660     0.9110     0.2540 N.pl3 1 <1>  -0.8210 
 17 O       -5.7780    -1.4510     0.1810 O.2   1 <1>  -0.5700 
 18 N       -7.8480    -1.4850    -0.6610 N.am  1 <1>  -0.7300 
 19 C       -9.6550     1.2990     1.6110 C.3   1 <1>   0.1290 
 20 C      -10.1490     1.3310    -0.7860 C.3   1 <1>   0.1290 
 21 C       -8.3160    -2.8160    -0.2430 C.3   1 <1>   0.3000 
 22 C       -8.4790    -2.8460     1.2970 C.3   1 <1>   0.1200 
 23 C       -7.3450    -3.8980    -0.7290 C.3   1 <1>  -0.2400 
 24 C       -9.6660    -3.0270    -0.9350 C.3   1 <1>  -0.2400 
 25 O       -9.3040    -1.8080     1.7380 O.3   1 <1>  -0.6800 
 26 H       -2.0400    -0.5590    -2.1980 H     1 <1>   0.1500 
 27 H       -3.8230     3.1800     0.4470 H     1 <1>   0.1500 
 28 H       -4.4520    -0.4010    -1.7840 H     1 <1>   0.1500 
 29 H        0.3860     4.2430     0.6540 H     1 <1>   0.0800 
 30 H        0.3470     3.4560    -0.9180 H     1 <1>   0.0800 
 31 H        0.4820     2.4890     0.5620 H     1 <1>   0.0800 
 32 H       -8.6370    -0.8490    -0.8130 H     1 <1>   0.3700 
 33 H       -8.9190     1.0440     2.3550 H     1 <1>   0.0800 
 34 H      -10.5690     0.7760     1.8390 H     1 <1>   0.0800 
 35 H       -9.8340     2.3610     1.6550 H     1 <1>   0.0800 
 36 H       -9.7630     1.1130    -1.7670 H     1 <1>   0.0800 
 37 H      -10.3350     2.3900    -0.7170 H     1 <1>   0.0800 
 38 H      -11.0760     0.8000    -0.6510 H     1 <1>   0.0800 
 39 H       -7.5210    -2.7370     1.7750 H     1 <1>   0.0800 
 40 H       -8.9170    -3.7750     1.6150 H     1 <1>   0.0800 
 41 H       -6.4040    -3.8340    -0.2140 H     1 <1>   0.0800 
 42 H       -7.1730    -3.8010    -1.7850 H     1 <1>   0.0800 
 43 H       -7.7540    -4.8740    -0.5380 H     1 <1>   0.0800 
 44 H      -10.3710    -2.2690    -0.6430 H     1 <1>   0.0800 
 45 H      -10.0760    -3.9820    -0.6590 H     1 <1>   0.0800 
 46 H       -9.5500    -3.0060    -2.0040 H     1 <1>   0.0800 
 47 H       -9.0670    -0.9730     1.2700 H     1 <1>   0.4000 
@<TRIPOS>BOND
  1   1   2  1   
  2   2   3  ar  
  3   2   4  ar  
  4   3   5  1   
  5   3   6  ar  
  6   4   7  ar  
  7   4  26  1   
  8   5   8  1   
  9   6   9  ar  
 10   6  27  1   
 11   7   9  ar  
 12   7  28  1   
 13   8  29  1   
 14   8  30  1   
 15   8  31  1   
 16   9  10  1   
 17  10  11  1   
 18  10  12  2   
 19  11  13  1   
 20  12  14  1   
 21  12  15  1   
 22  13  14  2   
 23  14  16  1   
 24  15  17  2   
 25  15  18  am  
 26  16  19  1   
 27  16  20  1   
 28  18  21  1   
 29  18  32  1   
 30  19  33  1   
 31  19  34  1   
 32  19  35  1   
 33  20  36  1   
 34  20  37  1   
 35  20  38  1   
 36  21  22  1   
 37  21  23  1   
 38  21  24  1   
 39  22  25  1   
 40  22  39  1   
 41  22  40  1   
 42  23  41  1   
 43  23  42  1   
 44  23  43  1   
 45  24  44  1   
 46  24  45  1   
 47  24  46  1   
 48  25  47  1   
@<TRIPOS>SUBSTRUCTURE
  1 ****  12 GROUP 4 **** **** 0

# MOE 2024.06 (io_trps.svl 2023.06)
