@<TRIPOS>MOLECULE
NONAME
57 61 1 0 0 
SMALL
USER_CHARGES


@<TRIPOS>ATOM
  1 O       -1.1760     4.1190    -1.9220 O.2   1 <1>  -0.5700 
  2 C       -1.0970     3.1250    -1.2320 C.2   1 <1>   0.5690 
  3 N       -2.2510     2.5220    -0.7730 N.am  1 <1>  -0.6600 
  4 C        0.3860     2.6810    -0.9930 C.3   1 <1>   0.5640 
  5 C       -3.5390     3.3010    -0.7340 C.3   1 <1>   0.1400 
  6 C       -2.4760     1.1120    -0.3390 C.3   1 <1>   0.1400 
  7 N        1.1130     2.7200    -2.2830 N.4   1 <1>  -0.8530 
  8 C        1.1100     3.6760    -0.0780 C.3   1 <1>  -0.1600 
  9 C        0.7310     1.3530    -0.3110 C.3   1 <1>  -0.1600 
 10 C       -4.1060     3.3530     0.7010 C.3   1 <1>   0.1430 
 11 C       -2.9470     1.1070     1.1190 C.3   1 <1>  -0.1600 
 12 C        2.3980     2.9870     0.4000 C.3   1 <1>  -0.1600 
 13 C        2.1780     1.4860     0.1800 C.3   1 <1>  -0.1600 
 14 C       -5.4360     4.0830     0.6670 C.ar  1 <1>   0.1670 
 15 C       -4.2450     1.9220     1.2730 C.3   1 <1>  -0.1600 
 16 C       -3.2460     4.2630     1.6200 C.3   1 <1>  -0.1600 
 17 N       -6.5520     3.6030     0.1740 N.ar  1 <1>  -0.6200 
 18 C       -5.3400     5.3290     1.2040 C.ar  1 <1>  -0.1440 
 19 C       -3.9410     5.6360     1.6740 C.3   1 <1>  -0.0170 
 20 C       -7.6180     4.4120     0.2440 C.ar  1 <1>   0.6200 
 21 C       -6.4730     6.0990     1.2350 C.ar  1 <1>   0.1600 
 22 N       -7.6120     5.6500     0.7610 N.ar  1 <1>  -0.6200 
 23 C       -8.8810     3.9080    -0.2810 C.ar  1 <1>   0.0000 
 24 C       -8.9240     2.9670    -1.3130 C.ar  1 <1>  -0.1500 
 25 C      -10.1100     4.3420     0.2250 C.ar  1 <1>  -0.1500 
 26 C      -10.1210     2.4860    -1.8130 C.ar  1 <1>  -0.1500 
 27 C      -11.3110     3.8660    -0.2690 C.ar  1 <1>  -0.1500 
 28 C      -11.3200     2.9350    -1.2910 C.ar  1 <1>  -0.1500 
 29 H       -4.2580     2.8260    -1.3800 H     1 <1>   0.0800 
 30 H       -3.4000     4.3060    -1.0930 H     1 <1>   0.0800 
 31 H       -1.6130     0.4940    -0.4670 H     1 <1>   0.0800 
 32 H       -3.2520     0.6850    -0.9540 H     1 <1>   0.0800 
 33 H        0.8080     3.5850    -2.7530 H     1 <1>   0.4500 
 34 H        0.8520     1.9300    -2.8760 H     1 <1>   0.4500 
 35 H        2.1200     2.7400    -2.1170 H     1 <1>   0.4500 
 36 H        0.4860     3.8610     0.7820 H     1 <1>   0.0800 
 37 H        1.2980     4.6240    -0.5520 H     1 <1>   0.0800 
 38 H        0.5910     0.4970    -0.9480 H     1 <1>   0.0800 
 39 H        0.1160     1.2430     0.5650 H     1 <1>   0.0800 
 40 H       -2.1770     1.5100     1.7540 H     1 <1>   0.0800 
 41 H       -3.1310     0.0930     1.4300 H     1 <1>   0.0800 
 42 H        2.5740     3.2020     1.4430 H     1 <1>   0.0800 
 43 H        3.2520     3.3280    -0.1610 H     1 <1>   0.0800 
 44 H        2.8690     1.1140    -0.5590 H     1 <1>   0.0800 
 45 H        2.3310     0.9310     1.0920 H     1 <1>   0.0800 
 46 H       -5.0300     1.4140     0.7390 H     1 <1>   0.0800 
 47 H       -4.5430     1.9610     2.3060 H     1 <1>   0.0800 
 48 H       -2.2300     4.3530     1.2830 H     1 <1>   0.0800 
 49 H       -3.2350     3.8600     2.6180 H     1 <1>   0.0800 
 50 H       -3.4750     6.3280     0.9930 H     1 <1>   0.0800 
 51 H       -3.9370     6.0440     2.6700 H     1 <1>   0.0800 
 52 H       -6.4470     7.0930     1.6490 H     1 <1>   0.1500 
 53 H       -8.0020     2.6050    -1.7340 H     1 <1>   0.1500 
 54 H      -10.1240     5.0660     1.0210 H     1 <1>   0.1500 
 55 H      -10.1200     1.7610    -2.6080 H     1 <1>   0.1500 
 56 H      -12.2400     4.2210     0.1420 H     1 <1>   0.1500 
 57 H      -12.2530     2.5630    -1.6770 H     1 <1>   0.1500 
@<TRIPOS>BOND
  1   1   2  2   
  2   2   3  am  
  3   2   4  1   
  4   3   5  1   
  5   3   6  1   
  6   4   7  1   
  7   4   8  1   
  8   4   9  1   
  9   5  10  1   
 10   5  29  1   
 11   5  30  1   
 12   6  11  1   
 13   6  31  1   
 14   6  32  1   
 15   7  33  1   
 16   7  34  1   
 17   7  35  1   
 18   8  12  1   
 19   8  36  1   
 20   8  37  1   
 21   9  13  1   
 22   9  38  1   
 23   9  39  1   
 24  10  14  1   
 25  10  15  1   
 26  10  16  1   
 27  11  15  1   
 28  11  40  1   
 29  11  41  1   
 30  12  13  1   
 31  12  42  1   
 32  12  43  1   
 33  13  44  1   
 34  13  45  1   
 35  14  17  ar  
 36  14  18  ar  
 37  15  46  1   
 38  15  47  1   
 39  16  19  1   
 40  16  48  1   
 41  16  49  1   
 42  17  20  ar  
 43  18  19  1   
 44  18  21  ar  
 45  19  50  1   
 46  19  51  1   
 47  20  22  ar  
 48  20  23  1   
 49  21  22  ar  
 50  21  52  1   
 51  23  24  ar  
 52  23  25  ar  
 53  24  26  ar  
 54  24  53  1   
 55  25  27  ar  
 56  25  54  1   
 57  26  28  ar  
 58  26  55  1   
 59  27  28  ar  
 60  27  56  1   
 61  28  57  1   
@<TRIPOS>SUBSTRUCTURE
  1 ****  10 GROUP 4 **** **** 0

# MOE 2024.06 (io_trps.svl 2023.06)
