@<TRIPOS>MOLECULE
NONAME
48 51 1 0 0 
SMALL
USER_CHARGES


@<TRIPOS>ATOM
  1 O       -0.3660     0.7480     0.7670 O.2   1 <1>  -0.5700 
  2 C       -0.2670     1.9470     0.8330 C.2   1 <1>   0.5690 
  3 N       -1.3680     2.7290     0.8620 N.am  1 <1>  -0.7300 
  4 C        1.1190     2.6010     0.8460 C.3   1 <1>   0.1810 
  5 C       -1.3190     4.2100     0.9350 C.3   1 <1>   0.3640 
  6 O        1.0940     3.9450     1.2790 O.3   1 <1>  -0.5600 
  7 C       -2.3200     4.7870    -0.0630 C.ar  1 <1>  -0.1440 
  8 C        0.1060     4.7490     0.6520 C.3   1 <1>   0.2610 
  9 C       -3.1260     5.8530     0.3140 C.ar  1 <1>  -0.1500 
 10 C       -2.4370     4.2780    -1.3510 C.ar  1 <1>  -0.1500 
 11 C        0.2520     6.2120     1.0860 C.2   1 <1>   0.5690 
 12 C       -4.0340     6.3980    -0.5770 C.ar  1 <1>  -0.1500 
 13 C       -3.3440     4.8230    -2.2430 C.ar  1 <1>  -0.1500 
 14 O       -0.4410     6.6560     1.9750 O.2   1 <1>  -0.5700 
 15 N        1.1720     6.9980     0.4560 N.am  1 <1>  -0.5100 
 16 C       -4.1430     5.8840    -1.8560 C.ar  1 <1>  -0.1500 
 17 C        2.4870     6.6200    -0.1560 C.3   1 <1>   0.2250 
 18 C        1.7640     8.2800     0.9520 C.3   1 <1>   0.2250 
 19 C        3.1450     7.6020     0.8410 C.3   1 <1>   0.0850 
 20 N        4.1630     8.4900     0.2440 N.pl3 1 <1>   0.4850 
 21 N        4.7360     8.2430    -0.9530 N.2   1 <1>  -0.7070 
 22 C        4.6840     9.6090     0.8070 C.2   1 <1>  -0.3320 
 23 C        5.5870     9.2030    -1.1260 C.2   1 <1>   0.1080 
 24 C        5.6010    10.0910    -0.0580 C.2   1 <1>  -0.1500 
 25 C        4.2940    10.1780     2.1630 C.3   1 <1>  -0.0600 
 26 C        6.4500     9.3080    -2.3620 C.3   1 <1>  -0.0590 
 27 H       -2.2910     2.2920     0.8530 H     1 <1>   0.3700 
 28 H        1.5370     2.5720    -0.1440 H     1 <1>   0.0800 
 29 H        1.7630     2.0560     1.5100 H     1 <1>   0.0800 
 30 H       -1.6100     4.4950     1.9320 H     1 <1>   0.0800 
 31 H        0.2830     4.7050    -0.4070 H     1 <1>   0.0800 
 32 H       -3.0490     6.2710     1.3040 H     1 <1>   0.1500 
 33 H       -1.8240     3.4530    -1.6700 H     1 <1>   0.1500 
 34 H       -4.6540     7.2240    -0.2740 H     1 <1>   0.1500 
 35 H       -3.4290     4.4220    -3.2380 H     1 <1>   0.1500 
 36 H       -4.8490     6.3080    -2.5490 H     1 <1>   0.1500 
 37 H        2.7400     5.5910     0.0200 H     1 <1>   0.0000 
 38 H        2.5150     6.9170    -1.1900 H     1 <1>   0.0000 
 39 H        1.6000     9.0770     0.2480 H     1 <1>   0.0000 
 40 H        1.4680     8.5020     1.9620 H     1 <1>   0.0000 
 41 H        3.4770     7.1400     1.7540 H     1 <1>   0.0000 
 42 H        6.2240    10.9630     0.0320 H     1 <1>   0.1500 
 43 H        4.9110    11.0270     2.3980 H     1 <1>   0.0800 
 44 H        4.4280     9.4380     2.9320 H     1 <1>   0.0800 
 45 H        3.2670    10.4970     2.1560 H     1 <1>   0.0800 
 46 H        7.0760    10.1790    -2.3120 H     1 <1>   0.0800 
 47 H        5.8220     9.3720    -3.2310 H     1 <1>   0.0800 
 48 H        7.0680     8.4330    -2.4420 H     1 <1>   0.0800 
@<TRIPOS>BOND
  1   1   2  2   
  2   2   3  am  
  3   2   4  1   
  4   3   5  1   
  5   3  27  1   
  6   4   6  1   
  7   4  28  1   
  8   4  29  1   
  9   5   7  1   
 10   5   8  1   
 11   5  30  1   
 12   6   8  1   
 13   7   9  ar  
 14   7  10  ar  
 15   8  11  1   
 16   8  31  1   
 17   9  12  ar  
 18   9  32  1   
 19  10  13  ar  
 20  10  33  1   
 21  11  14  2   
 22  11  15  am  
 23  12  16  ar  
 24  12  34  1   
 25  13  16  ar  
 26  13  35  1   
 27  15  17  1   
 28  15  18  1   
 29  16  36  1   
 30  17  19  1   
 31  17  37  1   
 32  17  38  1   
 33  18  19  1   
 34  18  39  1   
 35  18  40  1   
 36  19  20  1   
 37  19  41  1   
 38  20  21  1   
 39  20  22  1   
 40  21  23  2   
 41  22  24  2   
 42  22  25  1   
 43  23  24  1   
 44  23  26  1   
 45  24  42  1   
 46  25  43  1   
 47  25  44  1   
 48  25  45  1   
 49  26  46  1   
 50  26  47  1   
 51  26  48  1   
@<TRIPOS>SUBSTRUCTURE
  1 ****  15 GROUP 4 **** **** 0

# MOE 2024.06 (io_trps.svl 2023.06)
