@<TRIPOS>MOLECULE
NONAME
47 50 1 0 0 
SMALL
USER_CHARGES


@<TRIPOS>ATOM
  1 F       -0.5210    -0.9330     0.5000 F     1 <1>  -0.1900 
  2 C       -1.6150    -1.5900     0.7760 C.ar  1 <1>   0.1900 
  3 C       -2.7340    -1.3740     0.0000 C.ar  1 <1>  -0.1500 
  4 C       -1.6040    -2.4760     1.8350 C.ar  1 <1>  -0.1500 
  5 C       -3.9160    -2.0650     0.2730 C.ar  1 <1>   0.0530 
  6 C       -2.7680    -3.1680     2.1200 C.ar  1 <1>  -0.1500 
  7 C       -5.1050    -1.8560    -0.5280 C.2   1 <1>   0.4250 
  8 C       -3.9010    -2.9610     1.3490 C.ar  1 <1>  -0.1500 
  9 O       -6.1780    -2.5770    -0.3070 O.3   1 <1>  -0.2800 
 10 N       -5.2510    -1.0060    -1.4880 N.2   1 <1>  -0.3380 
 11 C       -6.9830    -2.0780    -1.1990 C.2   1 <1>   0.2980 
 12 N       -6.4800    -1.1560    -1.9220 N.2   1 <1>  -0.3380 
 13 C       -8.4070    -2.6180    -1.3120 C.3   1 <1>   0.2900 
 14 N       -9.2090    -2.4410    -0.0770 N.3   1 <1>  -0.8100 
 15 C       -9.4030    -1.0190     0.2950 C.3   1 <1>   0.1100 
 16 C      -10.4400    -3.2550    -0.1150 C.3   1 <1>   0.1100 
 17 C      -10.7800    -0.5200    -0.1410 C.3   1 <1>  -0.1600 
 18 C      -11.4690    -2.7430     0.8930 C.3   1 <1>  -0.1600 
 19 C      -11.8960    -1.2980     0.5820 C.3   1 <1>   0.4180 
 20 O      -12.1360    -0.7040     1.8340 O.3   1 <1>  -0.5600 
 21 C      -13.1720    -1.3060    -0.2600 C.2   1 <1>  -0.2880 
 22 C      -12.9750     0.4170     1.8780 C.3   1 <1>   0.1200 
 23 C      -14.3140    -0.7140     0.0970 C.2   1 <1>  -0.2760 
 24 C      -14.3890     0.0570     1.4020 C.3   1 <1>  -0.0220 
 25 C      -15.5980    -0.7540    -0.7120 C.3   1 <1>  -0.1020 
 26 H       -2.6860    -0.6720    -0.8140 H     1 <1>   0.1500 
 27 H       -0.7100    -2.6160     2.4160 H     1 <1>   0.1500 
 28 H       -2.7920    -3.8650     2.9410 H     1 <1>   0.1500 
 29 H       -4.7970    -3.5090     1.5910 H     1 <1>   0.1500 
 30 H       -8.3390    -3.6670    -1.5400 H     1 <1>   0.0800 
 31 H       -8.9020    -2.1290    -2.1330 H     1 <1>   0.0800 
 32 H       -8.6340    -0.3970    -0.1310 H     1 <1>   0.0800 
 33 H       -9.3280    -0.9320     1.3670 H     1 <1>   0.0800 
 34 H      -10.1910    -4.2790     0.1090 H     1 <1>   0.0800 
 35 H      -10.8740    -3.2220    -1.1010 H     1 <1>   0.0800 
 36 H      -10.8660    -0.6550    -1.2030 H     1 <1>   0.0800 
 37 H      -10.8650     0.5320     0.0520 H     1 <1>   0.0800 
 38 H      -11.0270    -2.7950     1.8730 H     1 <1>   0.0800 
 39 H      -12.3310    -3.3840     0.8890 H     1 <1>   0.0800 
 40 H      -13.0600    -1.8540    -1.1770 H     1 <1>   0.1500 
 41 H      -12.5570     1.1880     1.2570 H     1 <1>   0.0800 
 42 H      -13.0010     0.7680     2.8940 H     1 <1>   0.0800 
 43 H      -14.9450     0.9670     1.2670 H     1 <1>   0.0800 
 44 H      -14.8850    -0.5360     2.1490 H     1 <1>   0.0800 
 45 H      -16.3850    -1.2050    -0.1340 H     1 <1>   0.0800 
 46 H      -15.4600    -1.3320    -1.6090 H     1 <1>   0.0800 
 47 H      -15.8940     0.2410    -0.9900 H     1 <1>   0.0800 
@<TRIPOS>BOND
  1   1   2  1   
  2   2   3  ar  
  3   2   4  ar  
  4   3   5  ar  
  5   3  26  1   
  6   4   6  ar  
  7   4  27  1   
  8   5   7  1   
  9   5   8  ar  
 10   6   8  ar  
 11   6  28  1   
 12   7   9  1   
 13   7  10  2   
 14   8  29  1   
 15   9  11  1   
 16  10  12  1   
 17  11  12  2   
 18  11  13  1   
 19  13  14  1   
 20  13  30  1   
 21  13  31  1   
 22  14  15  1   
 23  14  16  1   
 24  15  17  1   
 25  15  32  1   
 26  15  33  1   
 27  16  18  1   
 28  16  34  1   
 29  16  35  1   
 30  17  19  1   
 31  17  36  1   
 32  17  37  1   
 33  18  19  1   
 34  18  38  1   
 35  18  39  1   
 36  19  20  1   
 37  19  21  1   
 38  20  22  1   
 39  21  23  2   
 40  21  40  1   
 41  22  24  1   
 42  22  41  1   
 43  22  42  1   
 44  23  24  1   
 45  23  25  1   
 46  24  43  1   
 47  24  44  1   
 48  25  45  1   
 49  25  46  1   
 50  25  47  1   
@<TRIPOS>SUBSTRUCTURE
  1 ****  14 GROUP 4 **** **** 0

# MOE 2024.06 (io_trps.svl 2023.06)
