@<TRIPOS>MOLECULE
NONAME
49 52 1 0 0 
SMALL
USER_CHARGES


@<TRIPOS>ATOM
  1 O       -2.7060     2.3550    -2.2400 O.2   1 <1>  -0.5700 
  2 C       -2.7690     2.0680    -1.0620 C.2   1 <1>   0.5440 
  3 N       -3.8070     1.2890    -0.5980 N.am  1 <1>  -0.6600 
  4 C       -1.7410     2.5580    -0.1730 C.ar  1 <1>   0.0860 
  5 C       -4.8170     0.6900    -1.5150 C.3   1 <1>   0.1400 
  6 C       -4.0020     0.9140     0.8320 C.3   1 <1>   0.1400 
  7 C       -0.5270     1.8790    -0.0220 C.ar  1 <1>   0.0730 
  8 C       -1.9540     3.7260     0.5580 C.ar  1 <1>  -0.1500 
  9 C       -4.7630    -0.8360    -1.4010 C.3   1 <1>  -0.1600 
 10 C       -3.9370    -0.6080     0.9730 C.3   1 <1>  -0.1600 
 11 C       -0.2500     0.6750    -0.7510 C.1   1 <1>   0.4840 
 12 C        0.4270     2.3800     0.8560 C.ar  1 <1>  -0.1500 
 13 C       -0.9980     4.2130     1.4280 C.ar  1 <1>  -0.1500 
 14 C       -4.9490    -1.3150     0.0530 C.3   1 <1>   0.4240 
 15 N        0.0260    -0.2910    -1.2920 N.1   1 <1>  -0.5570 
 16 C        0.1980     3.5370     1.5780 C.ar  1 <1>  -0.1500 
 17 O       -6.1980    -0.8220     0.4910 O.3   1 <1>  -0.5600 
 18 C       -4.8680    -2.8630     0.1950 C.ar  1 <1>  -0.1430 
 19 C       -7.3330    -1.5570     0.1730 C.3   1 <1>   0.1200 
 20 C       -3.7030    -3.5790    -0.1110 C.ar  1 <1>   0.0830 
 21 C       -5.9810    -3.5810     0.6340 C.ar  1 <1>  -0.1430 
 22 C       -7.2780    -2.8640     0.9470 C.3   1 <1>  -0.0170 
 23 O       -2.6180    -2.9030    -0.5700 O.3   1 <1>  -0.3630 
 24 C       -3.6650    -4.9630     0.0480 C.ar  1 <1>  -0.1500 
 25 C       -5.9320    -4.9560     0.7880 C.ar  1 <1>  -0.1500 
 26 C       -1.4820    -3.5470    -1.1030 C.3   1 <1>   0.0400 
 27 C       -4.7750    -5.6480     0.4980 C.ar  1 <1>  -0.1500 
 28 H       -4.6290     0.9800    -2.5340 H     1 <1>   0.0800 
 29 H       -5.7950     1.0480    -1.2430 H     1 <1>   0.0800 
 30 H       -4.9640     1.2720     1.1580 H     1 <1>   0.0800 
 31 H       -3.2550     1.3630     1.4610 H     1 <1>   0.0800 
 32 H       -2.8850     4.2530     0.4350 H     1 <1>   0.1500 
 33 H       -3.8090    -1.1500    -1.7760 H     1 <1>   0.0800 
 34 H       -5.5050    -1.2800    -2.0340 H     1 <1>   0.0800 
 35 H       -4.1350    -0.8910     1.9900 H     1 <1>   0.0800 
 36 H       -2.9350    -0.9140     0.7470 H     1 <1>   0.0800 
 37 H        1.3640     1.8610     0.9770 H     1 <1>   0.1500 
 38 H       -1.1810     5.1170     1.9840 H     1 <1>   0.1500 
 39 H        0.9490     3.9120     2.2540 H     1 <1>   0.1500 
 40 H       -7.3630    -1.7310    -0.8880 H     1 <1>   0.0800 
 41 H       -8.1930    -0.9800     0.4630 H     1 <1>   0.0800 
 42 H       -8.1190    -3.4740     0.6690 H     1 <1>   0.0800 
 43 H       -7.3380    -2.6620     2.0010 H     1 <1>   0.0800 
 44 H       -2.7790    -5.5260    -0.1690 H     1 <1>   0.1500 
 45 H       -6.7960    -5.4950     1.1350 H     1 <1>   0.1500 
 46 H       -0.8250    -2.7930    -1.4980 H     1 <1>   0.0800 
 47 H       -1.7930    -4.2060    -1.8940 H     1 <1>   0.0800 
 48 H       -0.9860    -4.0870    -0.3180 H     1 <1>   0.0800 
 49 H       -4.7390    -6.7160     0.6210 H     1 <1>   0.1500 
@<TRIPOS>BOND
  1   1   2  2   
  2   2   3  am  
  3   2   4  1   
  4   3   5  1   
  5   3   6  1   
  6   4   7  ar  
  7   4   8  ar  
  8   5   9  1   
  9   5  28  1   
 10   5  29  1   
 11   6  10  1   
 12   6  30  1   
 13   6  31  1   
 14   7  11  1   
 15   7  12  ar  
 16   8  13  ar  
 17   8  32  1   
 18   9  14  1   
 19   9  33  1   
 20   9  34  1   
 21  10  14  1   
 22  10  35  1   
 23  10  36  1   
 24  11  15  3   
 25  12  16  ar  
 26  12  37  1   
 27  13  16  ar  
 28  13  38  1   
 29  14  17  1   
 30  14  18  1   
 31  16  39  1   
 32  17  19  1   
 33  18  20  ar  
 34  18  21  ar  
 35  19  22  1   
 36  19  40  1   
 37  19  41  1   
 38  20  23  1   
 39  20  24  ar  
 40  21  22  1   
 41  21  25  ar  
 42  22  42  1   
 43  22  43  1   
 44  23  26  1   
 45  24  27  ar  
 46  24  44  1   
 47  25  27  ar  
 48  25  45  1   
 49  26  46  1   
 50  26  47  1   
 51  26  48  1   
 52  27  49  1   
@<TRIPOS>SUBSTRUCTURE
  1 ****  10 GROUP 4 **** **** 0

# MOE 2024.06 (io_trps.svl 2023.06)
