@<TRIPOS>MOLECULE
NONAME
51 53 1 0 0 
SMALL
USER_CHARGES


@<TRIPOS>ATOM
  1 S       -0.7070     0.9100     1.9400 S.o2  1 <1>   1.4470 
  2 O       -0.6880    -0.3340     2.6770 O.2   1 <1>  -0.6500 
  3 O       -1.2130     2.0860     2.6170 O.2   1 <1>  -0.6500 
  4 N       -1.6670     0.7240     0.5500 N.am  1 <1>  -0.8490 
  5 C        0.9590     1.2920     1.3250 C.ar  1 <1>  -0.0090 
  6 C       -1.1770    -0.0750    -0.6000 C.3   1 <1>   0.1960 
  7 C       -3.1050     0.6160     0.7940 C.3   1 <1>   0.1960 
  8 C        1.1490     2.0470     0.1750 C.ar  1 <1>  -0.1500 
  9 C        2.0900     0.8350     1.9890 C.ar  1 <1>  -0.1500 
 10 C       -1.6340    -1.5480    -0.6660 C.3   1 <1>  -0.1060 
 11 C       -3.5630    -0.8400     0.8620 C.3   1 <1>  -0.1600 
 12 C        2.4120     2.2880    -0.3440 C.ar  1 <1>   0.0820 
 13 C        3.3610     1.1080     1.5130 C.ar  1 <1>  -0.1500 
 14 C       -1.4130    -2.0390    -2.0980 C.2   1 <1>   0.9060 
 15 C       -3.1550    -1.5630    -0.4200 C.3   1 <1>   0.2000 
 16 C       -0.8630    -2.4890     0.3090 C.3   1 <1>  -0.0650 
 17 O        2.4930     2.9300    -1.5360 O.3   1 <1>  -0.3630 
 18 C        3.5450     1.8380     0.3510 C.ar  1 <1>   0.0820 
 19 O       -0.7440    -1.3610    -2.8910 O.co2 1 <1>  -0.9000 
 20 O       -1.9530    -3.0990    -2.4490 O.co2 1 <1>  -0.9000 
 21 O       -3.6210    -2.8610    -0.3680 O.3   1 <1>  -0.6800 
 22 C        0.6700    -2.3830     0.2400 C.3   1 <1>  -0.1950 
 23 C        1.9250     2.2590    -2.6440 C.3   1 <1>   0.0400 
 24 O        4.8440     2.0400    -0.0060 O.3   1 <1>  -0.3630 
 25 C        1.4460    -3.0450    -0.8520 C.3   1 <1>  -0.2000 
 26 C        1.5220    -3.5710     0.5540 C.3   1 <1>  -0.2000 
 27 C        5.2230     3.0760    -0.8850 C.3   1 <1>   0.0400 
 28 H       -1.5570     0.4160    -1.4810 H     1 <1>   0.0800 
 29 H       -0.1080    -0.0290    -0.6850 H     1 <1>   0.0800 
 30 H       -3.3710     1.1280     1.7040 H     1 <1>   0.0800 
 31 H       -3.6220     1.1050    -0.0140 H     1 <1>   0.0800 
 32 H        0.2890     2.4400    -0.3380 H     1 <1>   0.1500 
 33 H        1.9740     0.2520     2.8880 H     1 <1>   0.1500 
 34 H       -4.6330    -0.8660     0.9560 H     1 <1>   0.0800 
 35 H       -3.1370    -1.3150     1.7260 H     1 <1>   0.0800 
 36 H        4.2240     0.7500     2.0440 H     1 <1>   0.1500 
 37 H       -3.6450    -1.0940    -1.2570 H     1 <1>   0.0800 
 38 H       -1.1690    -2.3190     1.3210 H     1 <1>   0.0800 
 39 H       -1.1370    -3.5060     0.0820 H     1 <1>   0.0800 
 40 H       -3.2010    -3.3190    -1.1510 H     1 <1>   0.4000 
 41 H        1.0380    -1.4440     0.6070 H     1 <1>   0.1000 
 42 H        2.2050     2.7840    -3.5380 H     1 <1>   0.0800 
 43 H        0.8540     2.2490    -2.5480 H     1 <1>   0.0800 
 44 H        2.3030     1.2510    -2.6750 H     1 <1>   0.0800 
 45 H        0.9020    -3.6030    -1.5970 H     1 <1>   0.1000 
 46 H        2.2760    -2.5060    -1.2730 H     1 <1>   0.1000 
 47 H        2.4280    -3.4220     1.1140 H     1 <1>   0.1000 
 48 H        1.0480    -4.5120     0.7720 H     1 <1>   0.1000 
 49 H        6.2880     3.1980    -0.8180 H     1 <1>   0.0800 
 50 H        4.7280     3.9840    -0.5900 H     1 <1>   0.0800 
 51 H        4.9500     2.7980    -1.8870 H     1 <1>   0.0800 
@<TRIPOS>BOND
  1   1   2  2   
  2   1   3  2   
  3   1   4  am  
  4   1   5  1   
  5   4   6  1   
  6   4   7  1   
  7   5   8  ar  
  8   5   9  ar  
  9   6  10  1   
 10   6  28  1   
 11   6  29  1   
 12   7  11  1   
 13   7  30  1   
 14   7  31  1   
 15   8  12  ar  
 16   8  32  1   
 17   9  13  ar  
 18   9  33  1   
 19  10  14  1   
 20  10  15  1   
 21  10  16  1   
 22  11  15  1   
 23  11  34  1   
 24  11  35  1   
 25  12  17  1   
 26  12  18  ar  
 27  13  18  ar  
 28  13  36  1   
 29  14  19  ar  
 30  14  20  ar  
 31  15  21  1   
 32  15  37  1   
 33  16  22  1   
 34  16  38  1   
 35  16  39  1   
 36  17  23  1   
 37  18  24  1   
 38  21  40  1   
 39  22  25  1   
 40  22  26  1   
 41  22  41  1   
 42  23  42  1   
 43  23  43  1   
 44  23  44  1   
 45  24  27  1   
 46  25  26  1   
 47  25  45  1   
 48  25  46  1   
 49  26  47  1   
 50  26  48  1   
 51  27  49  1   
 52  27  50  1   
 53  27  51  1   
@<TRIPOS>SUBSTRUCTURE
  1 ****   6 GROUP 4 **** **** 0

# MOE 2024.06 (io_trps.svl 2023.06)
