@<TRIPOS>MOLECULE
NONAME
58 60 1 0 0 
SMALL
USER_CHARGES


@<TRIPOS>ATOM
  1 O        0.4060    -0.6980     1.1420 O.3   1 <1>  -0.3630 
  2 C        0.0860    -1.8630     0.5200 C.ar  1 <1>   0.0830 
  3 C        1.5660    -0.5640     1.9330 C.3   1 <1>   0.0400 
  4 C       -1.0260    -1.8620    -0.3130 C.ar  1 <1>  -0.1440 
  5 C        0.8200    -3.0340     0.6820 C.ar  1 <1>  -0.1500 
  6 C       -1.3950    -3.0280    -0.9590 C.ar  1 <1>  -0.1500 
  7 C       -1.8330    -0.5870    -0.5200 C.3   1 <1>  -0.0960 
  8 C        0.4540    -4.2020     0.0330 C.ar  1 <1>  -0.1430 
  9 C       -0.6740    -4.2010    -0.7820 C.ar  1 <1>  -0.1430 
 10 C        1.3240    -5.4380     0.2380 C.3   1 <1>  -0.0970 
 11 C       -1.1610    -5.4560    -1.4780 C.3   1 <1>   0.4860 
 12 N       -1.8690    -6.2870    -0.4610 N.4   1 <1>  -0.9590 
 13 C       -2.1020    -7.6930    -0.9540 C.3   1 <1>   0.3430 
 14 C       -3.1370    -5.6150    -0.0420 C.3   1 <1>   0.3430 
 15 C       -2.8960    -8.5900     0.0500 C.3   1 <1>   0.4230 
 16 C       -3.8410    -6.4560     1.0270 C.3   1 <1>  -0.1600 
 17 N       -3.1170   -10.0380    -0.3920 N.4   1 <1>  -0.9590 
 18 C       -4.1900    -7.8990     0.5720 C.3   1 <1>   0.0000 
 19 C       -4.1630   -10.7630     0.4110 C.3   1 <1>   0.3430 
 20 C       -3.4220   -10.2180    -1.8530 C.3   1 <1>   0.2630 
 21 C       -4.7010    -8.6880     1.8110 C.3   1 <1>  -0.1600 
 22 C       -5.3400    -7.8440    -0.4760 C.3   1 <1>   0.1200 
 23 C       -4.2900   -10.1750     1.8170 C.3   1 <1>  -0.1600 
 24 O       -4.8940    -7.3800    -1.7060 O.3   1 <1>  -0.6800 
 25 H        1.6170     0.4530     2.2800 H     1 <1>   0.0800 
 26 H        2.4280    -0.7870     1.3300 H     1 <1>   0.0800 
 27 H        1.4970    -1.2320     2.7730 H     1 <1>   0.0800 
 28 H        1.6860    -3.0400     1.3150 H     1 <1>   0.1500 
 29 H       -2.2550    -3.0080    -1.6060 H     1 <1>   0.1500 
 30 H       -2.6600    -0.7450    -1.1870 H     1 <1>   0.0800 
 31 H       -1.2010     0.1780    -0.9350 H     1 <1>   0.0800 
 32 H       -2.2140    -0.2380     0.4240 H     1 <1>   0.0800 
 33 H        2.2800    -5.1600     0.6490 H     1 <1>   0.0800 
 34 H        1.5150    -5.9350    -0.6960 H     1 <1>   0.0800 
 35 H        0.8580    -6.1200     0.9250 H     1 <1>   0.0800 
 36 H       -0.3160    -5.9870    -1.8830 H     1 <1>   0.0800 
 37 H       -1.8260    -5.1990    -2.2870 H     1 <1>   0.0800 
 38 H       -1.2430    -6.2680     0.3570 H     1 <1>   0.4500 
 39 H       -2.6500    -7.6430    -1.8790 H     1 <1>   0.0800 
 40 H       -1.1500    -8.1560    -1.1550 H     1 <1>   0.0800 
 41 H       -2.9200    -4.6380     0.3630 H     1 <1>   0.0800 
 42 H       -3.7860    -5.4850    -0.8930 H     1 <1>   0.0800 
 43 H       -2.2580    -8.6500     0.9160 H     1 <1>   0.0800 
 44 H       -3.2060    -6.4760     1.8970 H     1 <1>   0.0800 
 45 H       -4.7420    -5.9430     1.3190 H     1 <1>   0.0800 
 46 H       -2.2390   -10.5460    -0.2050 H     1 <1>   0.4500 
 47 H       -5.1200   -10.6850    -0.0790 H     1 <1>   0.0800 
 48 H       -3.9150   -11.8120     0.4750 H     1 <1>   0.0800 
 49 H       -4.3340    -9.7070    -2.1160 H     1 <1>   0.0800 
 50 H       -3.5440   -11.2650    -2.0820 H     1 <1>   0.0800 
 51 H       -2.6230    -9.8320    -2.4630 H     1 <1>   0.0800 
 52 H       -4.3300    -8.2540     2.7260 H     1 <1>   0.0800 
 53 H       -5.7760    -8.6180     1.8700 H     1 <1>   0.0800 
 54 H       -6.1240    -7.1840    -0.1370 H     1 <1>   0.0800 
 55 H       -5.7770    -8.8140    -0.6350 H     1 <1>   0.0800 
 56 H       -5.0230   -10.7390     2.3680 H     1 <1>   0.0800 
 57 H       -3.3530   -10.3000     2.3340 H     1 <1>   0.0800 
 58 H       -5.6620    -7.2000    -2.2980 H     1 <1>   0.4000 
@<TRIPOS>BOND
  1   1   2  1   
  2   1   3  1   
  3   2   4  ar  
  4   2   5  ar  
  5   3  25  1   
  6   3  26  1   
  7   3  27  1   
  8   4   6  ar  
  9   4   7  1   
 10   5   8  ar  
 11   5  28  1   
 12   6   9  ar  
 13   6  29  1   
 14   7  30  1   
 15   7  31  1   
 16   7  32  1   
 17   8   9  ar  
 18   8  10  1   
 19   9  11  1   
 20  10  33  1   
 21  10  34  1   
 22  10  35  1   
 23  11  12  1   
 24  11  36  1   
 25  11  37  1   
 26  12  13  1   
 27  12  14  1   
 28  12  38  1   
 29  13  15  1   
 30  13  39  1   
 31  13  40  1   
 32  14  16  1   
 33  14  41  1   
 34  14  42  1   
 35  15  17  1   
 36  15  18  1   
 37  15  43  1   
 38  16  18  1   
 39  16  44  1   
 40  16  45  1   
 41  17  19  1   
 42  17  20  1   
 43  17  46  1   
 44  18  21  1   
 45  18  22  1   
 46  19  23  1   
 47  19  47  1   
 48  19  48  1   
 49  20  49  1   
 50  20  50  1   
 51  20  51  1   
 52  21  23  1   
 53  21  52  1   
 54  21  53  1   
 55  22  24  1   
 56  22  54  1   
 57  22  55  1   
 58  23  56  1   
 59  23  57  1   
 60  24  58  1   
@<TRIPOS>SUBSTRUCTURE
  1 ****  12 GROUP 4 **** **** 0

# MOE 2024.06 (io_trps.svl 2023.06)
