@<TRIPOS>MOLECULE
NONAME
46 47 1 0 0 
SMALL
USER_CHARGES


@<TRIPOS>ATOM
  1 O        0.5080    -0.7040     0.5820 O.co2 1 <1>  -0.9000 
  2 C        1.5040    -0.5660    -0.1230 C.2   1 <1>   0.9060 
  3 O        1.6500    -1.1040    -1.2280 O.co2 1 <1>  -0.9000 
  4 C        2.6420     0.2790     0.4020 C.3   1 <1>  -0.1860 
  5 C        3.9280    -0.5520     0.4120 C.3   1 <1>   0.2000 
  6 C        2.8080     1.6090    -0.3800 C.3   1 <1>  -0.1600 
  7 O        4.2360    -0.9010    -0.8930 O.3   1 <1>  -0.6800 
  8 C        5.1000     0.2680     0.9840 C.3   1 <1>   0.3430 
  9 C        4.2690     1.9990    -0.6210 C.3   1 <1>   0.3430 
 10 N        5.0740     1.7360     0.6120 N.4   1 <1>  -0.9590 
 11 C        6.4480     2.2760     0.4880 C.3   1 <1>   0.4860 
 12 C        6.3760     3.7880     0.4090 C.ar  1 <1>  -0.1430 
 13 C        6.1090     4.5400     1.5410 C.ar  1 <1>  -0.1500 
 14 C        6.5730     4.4370    -0.7980 C.ar  1 <1>  -0.1500 
 15 C        6.0300     5.9190     1.4630 C.ar  1 <1>  -0.1500 
 16 C        6.4930     5.8160    -0.8690 C.ar  1 <1>  -0.1500 
 17 C        6.2180     6.5860     0.2560 C.ar  1 <1>  -0.1430 
 18 C        6.1390     8.1230     0.1210 C.3   1 <1>   0.1430 
 19 C        5.8200     8.8340     1.4480 C.3   1 <1>  -0.2400 
 20 C        5.0360     8.4970    -0.8800 C.3   1 <1>  -0.2400 
 21 C        7.4870     8.6640    -0.3800 C.3   1 <1>  -0.2400 
 22 H        2.3990     0.5150     1.4210 H     1 <1>   0.0800 
 23 H        3.7900    -1.4660     0.9650 H     1 <1>   0.0800 
 24 H        2.2930     2.3980     0.1380 H     1 <1>   0.0800 
 25 H        2.3380     1.5140    -1.3450 H     1 <1>   0.0800 
 26 H        3.3600    -1.1700    -1.3150 H     1 <1>   0.4000 
 27 H        6.0110    -0.1900     0.6370 H     1 <1>   0.0800 
 28 H        5.0780     0.1850     2.0570 H     1 <1>   0.0800 
 29 H        4.3210     3.0390    -0.8990 H     1 <1>   0.0800 
 30 H        4.6600     1.4080    -1.4350 H     1 <1>   0.0800 
 31 H        4.5980     2.2540     1.3580 H     1 <1>   0.4500 
 32 H        7.0350     1.9960     1.3470 H     1 <1>   0.0800 
 33 H        6.9230     1.8800    -0.3950 H     1 <1>   0.0800 
 34 H        5.9620     4.0690     2.4980 H     1 <1>   0.1500 
 35 H        6.7920     3.8830    -1.6950 H     1 <1>   0.1500 
 36 H        5.8220     6.4580     2.3690 H     1 <1>   0.1500 
 37 H        6.6530     6.2900    -1.8210 H     1 <1>   0.1500 
 38 H        5.7720     9.8990     1.3040 H     1 <1>   0.0800 
 39 H        6.5830     8.6330     2.1780 H     1 <1>   0.0800 
 40 H        4.8700     8.5090     1.8320 H     1 <1>   0.0800 
 41 H        4.9430     9.5660    -0.9610 H     1 <1>   0.0800 
 42 H        4.0920     8.0970    -0.5540 H     1 <1>   0.0800 
 43 H        5.2480     8.1090    -1.8580 H     1 <1>   0.0800 
 44 H        7.4640     9.7380    -0.4460 H     1 <1>   0.0800 
 45 H        7.7240     8.2770    -1.3540 H     1 <1>   0.0800 
 46 H        8.2720     8.3800     0.2970 H     1 <1>   0.0800 
@<TRIPOS>BOND
  1   1   2  ar  
  2   2   3  ar  
  3   2   4  1   
  4   4   5  1   
  5   4   6  1   
  6   4  22  1   
  7   5   7  1   
  8   5   8  1   
  9   5  23  1   
 10   6   9  1   
 11   6  24  1   
 12   6  25  1   
 13   7  26  1   
 14   8  10  1   
 15   8  27  1   
 16   8  28  1   
 17   9  10  1   
 18   9  29  1   
 19   9  30  1   
 20  10  11  1   
 21  10  31  1   
 22  11  12  1   
 23  11  32  1   
 24  11  33  1   
 25  12  13  ar  
 26  12  14  ar  
 27  13  15  ar  
 28  13  34  1   
 29  14  16  ar  
 30  14  35  1   
 31  15  17  ar  
 32  15  36  1   
 33  16  17  ar  
 34  16  37  1   
 35  17  18  1   
 36  18  19  1   
 37  18  20  1   
 38  18  21  1   
 39  19  38  1   
 40  19  39  1   
 41  19  40  1   
 42  20  41  1   
 43  20  42  1   
 44  20  43  1   
 45  21  44  1   
 46  21  45  1   
 47  21  46  1   
@<TRIPOS>SUBSTRUCTURE
  1 ****   9 GROUP 4 **** **** 0

# MOE 2024.06 (io_trps.svl 2023.06)
