@<TRIPOS>MOLECULE
NONAME
55 58 1 0 0 
SMALL
USER_CHARGES


@<TRIPOS>ATOM
  1 O       -0.6730    -0.4090    -0.1840 O.3   1 <1>  -0.3630 
  2 C       -0.5540     0.9110    -0.4850 C.ar  1 <1>   0.0830 
  3 C        0.4490    -1.2730    -0.1810 C.3   1 <1>   0.0400 
  4 C       -1.5390     1.8290     0.0040 C.ar  1 <1>   0.0000 
  5 C        0.5070     1.3450    -1.2470 C.ar  1 <1>  -0.1500 
  6 C       -1.3380     3.2090    -0.2740 C.ar  1 <1>   0.0000 
  7 C       -2.7060     1.4810     0.7490 C.ar  1 <1>  -0.1440 
  8 C        0.6690     2.6960    -1.5380 C.ar  1 <1>  -0.1500 
  9 C       -2.2450     4.1760     0.2340 C.ar  1 <1>   0.0830 
 10 C       -0.2310     3.5990    -1.0570 C.ar  1 <1>  -0.1500 
 11 C       -3.5600     2.4410     1.2240 C.ar  1 <1>  -0.1500 
 12 C       -3.1000     0.0440     1.0450 C.3   1 <1>   0.4860 
 13 O       -1.9870     5.4800    -0.0470 O.3   1 <1>  -0.3630 
 14 C       -3.3320     3.7910     0.9760 C.ar  1 <1>  -0.1500 
 15 N       -3.4560    -0.6330    -0.2310 N.4   1 <1>  -0.9590 
 16 C       -2.7710     6.5390     0.4590 C.3   1 <1>   0.0400 
 17 C       -4.6150     0.0280    -0.9080 C.3   1 <1>   0.3430 
 18 C       -3.8300    -2.0570     0.0060 C.3   1 <1>   0.3430 
 19 C       -5.8340    -0.8220    -0.5390 C.3   1 <1>   0.2000 
 20 C       -5.2500    -2.2360    -0.5420 C.3   1 <1>  -0.0800 
 21 O       -6.2370    -0.4780     0.7500 O.3   1 <1>  -0.6800 
 22 C       -6.0520    -3.3140     0.2110 C.3   1 <1>  -0.0170 
 23 C       -5.2720    -4.6180     0.2390 C.ar  1 <1>  -0.1430 
 24 C       -5.1160    -5.3990    -0.8890 C.ar  1 <1>  -0.1500 
 25 C       -4.6720    -5.0850     1.3920 C.ar  1 <1>  -0.1500 
 26 C       -4.3700    -6.5640    -0.8170 C.ar  1 <1>   0.1600 
 27 C       -3.9480    -6.2650     1.3570 C.ar  1 <1>   0.1600 
 28 N       -3.7740    -7.0060     0.2760 N.ar  1 <1>  -0.6200 
 29 H        0.1660    -2.1970     0.2910 H     1 <1>   0.0800 
 30 H        1.2470    -0.8120     0.3750 H     1 <1>   0.0800 
 31 H        0.7520    -1.4630    -1.1960 H     1 <1>   0.0800 
 32 H        1.2440     0.6740    -1.6460 H     1 <1>   0.1500 
 33 H        1.5060     3.0150    -2.1360 H     1 <1>   0.1500 
 34 H       -0.0920     4.6430    -1.2790 H     1 <1>   0.1500 
 35 H       -4.4360     2.1830     1.7980 H     1 <1>   0.1500 
 36 H       -3.9440     0.0250     1.7140 H     1 <1>   0.0800 
 37 H       -2.2750    -0.4620     1.5200 H     1 <1>   0.0800 
 38 H       -4.0310     4.5000     1.3780 H     1 <1>   0.1500 
 39 H       -2.5980    -0.5570    -0.8030 H     1 <1>   0.4500 
 40 H       -2.3430     7.4630     0.1150 H     1 <1>   0.0800 
 41 H       -2.7500     6.5060     1.5340 H     1 <1>   0.0800 
 42 H       -3.7750     6.4400     0.0870 H     1 <1>   0.0800 
 43 H       -4.7460     1.0530    -0.6050 H     1 <1>   0.0800 
 44 H       -4.4710    -0.0060    -1.9740 H     1 <1>   0.0800 
 45 H       -3.1440    -2.7300    -0.4840 H     1 <1>   0.0800 
 46 H       -3.8270    -2.2660     1.0630 H     1 <1>   0.0800 
 47 H       -6.6580    -0.6820    -1.2190 H     1 <1>   0.0800 
 48 H       -5.1530    -2.5500    -1.5670 H     1 <1>   0.0800 
 49 H       -7.1510    -0.7850     0.9270 H     1 <1>   0.4000 
 50 H       -6.9990    -3.4750    -0.2750 H     1 <1>   0.0800 
 51 H       -6.2530    -3.0050     1.2220 H     1 <1>   0.0800 
 52 H       -5.5670    -5.1210    -1.8250 H     1 <1>   0.1500 
 53 H       -4.7590    -4.5520     2.3220 H     1 <1>   0.1500 
 54 H       -4.2580    -7.1630    -1.7050 H     1 <1>   0.1500 
 55 H       -3.4870    -6.6190     2.2640 H     1 <1>   0.1500 
@<TRIPOS>BOND
  1   1   2  1   
  2   1   3  1   
  3   2   4  ar  
  4   2   5  ar  
  5   3  29  1   
  6   3  30  1   
  7   3  31  1   
  8   4   6  ar  
  9   4   7  ar  
 10   5   8  ar  
 11   5  32  1   
 12   6   9  ar  
 13   6  10  ar  
 14   7  11  ar  
 15   7  12  1   
 16   8  10  ar  
 17   8  33  1   
 18   9  13  1   
 19   9  14  ar  
 20  10  34  1   
 21  11  14  ar  
 22  11  35  1   
 23  12  15  1   
 24  12  36  1   
 25  12  37  1   
 26  13  16  1   
 27  14  38  1   
 28  15  17  1   
 29  15  18  1   
 30  15  39  1   
 31  16  40  1   
 32  16  41  1   
 33  16  42  1   
 34  17  19  1   
 35  17  43  1   
 36  17  44  1   
 37  18  20  1   
 38  18  45  1   
 39  18  46  1   
 40  19  20  1   
 41  19  21  1   
 42  19  47  1   
 43  20  22  1   
 44  20  48  1   
 45  21  49  1   
 46  22  23  1   
 47  22  50  1   
 48  22  51  1   
 49  23  24  ar  
 50  23  25  ar  
 51  24  26  ar  
 52  24  52  1   
 53  25  27  ar  
 54  25  53  1   
 55  26  28  ar  
 56  26  54  1   
 57  27  28  ar  
 58  27  55  1   
@<TRIPOS>SUBSTRUCTURE
  1 ****  15 GROUP 4 **** **** 0

# MOE 2024.06 (io_trps.svl 2023.06)
