@<TRIPOS>MOLECULE
NONAME
62 65 1 0 0 
SMALL
USER_CHARGES


@<TRIPOS>ATOM
  1 O       -1.7840     4.5840    -2.6520 O.3   1 <1>  -0.5600 
  2 C       -3.1080     4.2280    -2.3550 C.3   1 <1>   0.1200 
  3 C       -0.8440     3.6140    -2.2810 C.3   1 <1>   0.1200 
  4 C       -3.2850     3.9820    -0.8370 C.3   1 <1>   0.3430 
  5 C       -0.9290     3.3230    -0.7650 C.3   1 <1>   0.3430 
  6 N       -1.9800     4.1830    -0.1010 N.4   1 <1>  -0.9590 
  7 C       -2.0060     4.1340     1.4070 C.3   1 <1>   0.5030 
  8 C       -2.2980     2.6950     1.8850 C.3   1 <1>  -0.1600 
  9 C       -3.1210     5.0800     1.9270 C.3   1 <1>  -0.1600 
 10 C       -0.6190     4.6240     1.9600 C.3   1 <1>   0.2090 
 11 C       -2.5030     2.5960     3.4080 C.3   1 <1>  -0.1600 
 12 C       -3.3460     4.9990     3.4480 C.3   1 <1>  -0.1600 
 13 N       -0.1090     5.8570     1.2600 N.pl3 1 <1>  -0.8690 
 14 C       -3.6030     3.5520     3.8880 C.3   1 <1>  -0.1600 
 15 C        0.0630     7.1370     1.6160 C.ar  1 <1>   0.7710 
 16 N        0.3090     7.9360     0.6050 N.ar  1 <1>  -0.6200 
 17 N       -0.0180     7.5590     2.8930 N.ar  1 <1>  -0.1790 
 18 C        0.4900     9.2200     0.8550 C.ar  1 <1>   0.4100 
 19 C        0.1480     8.8720     3.1910 C.ar  1 <1>   0.2110 
 20 N        0.7630    10.0340    -0.1960 N.pl3 1 <1>  -0.8380 
 21 C        0.4000     9.7230     2.1690 C.ar  1 <1>  -0.1500 
 22 C        1.6480    11.2460    -0.1110 C.3   1 <1>   0.2090 
 23 C        0.3460     9.7190    -1.5990 C.3   1 <1>   0.2090 
 24 C        2.8890    11.0760    -1.0080 C.3   1 <1>   0.2000 
 25 C        1.5860     9.4930    -2.4710 C.3   1 <1>  -0.1600 
 26 O        3.6090    12.2560    -1.0280 O.3   1 <1>  -0.6800 
 27 C        2.5250    10.7100    -2.4500 C.3   1 <1>  -0.1600 
 28 H       -3.3670     3.3480    -2.9200 H     1 <1>   0.0800 
 29 H       -3.7460     5.0320    -2.6780 H     1 <1>   0.0800 
 30 H        0.1330     3.9880    -2.5380 H     1 <1>   0.0800 
 31 H       -1.0210     2.7200    -2.8550 H     1 <1>   0.0800 
 32 H       -3.6540     2.9830    -0.6800 H     1 <1>   0.0800 
 33 H       -4.0330     4.6670    -0.4780 H     1 <1>   0.0800 
 34 H        0.0390     3.4990    -0.3270 H     1 <1>   0.0800 
 35 H       -1.1630     2.2810    -0.6250 H     1 <1>   0.0800 
 36 H       -1.7210     5.1480    -0.3550 H     1 <1>   0.4500 
 37 H       -1.4960     2.0330     1.6120 H     1 <1>   0.0800 
 38 H       -3.1970     2.3350     1.4160 H     1 <1>   0.0800 
 39 H       -4.0640     4.8150     1.4880 H     1 <1>   0.0800 
 40 H       -2.9070     6.0980     1.6530 H     1 <1>   0.0800 
 41 H        0.1040     3.8370     1.8310 H     1 <1>   0.0800 
 42 H       -0.6810     4.7970     3.0180 H     1 <1>   0.0800 
 43 H       -1.5860     2.8080     3.9310 H     1 <1>   0.0800 
 44 H       -2.7840     1.5870     3.6640 H     1 <1>   0.0800 
 45 H       -4.2060     5.5960     3.7110 H     1 <1>   0.0800 
 46 H       -2.5120     5.3990     3.9940 H     1 <1>   0.0800 
 47 H        0.1800     5.7160     0.2850 H     1 <1>   0.4000 
 48 H       -3.6760     3.5080     4.9620 H     1 <1>   0.0800 
 49 H       -4.5510     3.2240     3.4940 H     1 <1>   0.0800 
 50 H       -0.1690     6.8640     3.6150 H     1 <1>   0.4570 
 51 H        0.0740     9.1980     4.2170 H     1 <1>   0.1500 
 52 H        0.5200    10.7770     2.3360 H     1 <1>   0.1500 
 53 H        1.9870    11.4060     0.8950 H     1 <1>   0.0800 
 54 H        1.0870    12.1070    -0.4310 H     1 <1>   0.0800 
 55 H       -0.2240    10.5460    -1.9890 H     1 <1>   0.0800 
 56 H       -0.2850     8.8480    -1.6300 H     1 <1>   0.0800 
 57 H        3.5250    10.3180    -0.5820 H     1 <1>   0.0800 
 58 H        1.2760     9.2960    -3.4820 H     1 <1>   0.0800 
 59 H        2.1070     8.6230    -2.1120 H     1 <1>   0.0800 
 60 H        3.1940    12.9010    -1.6320 H     1 <1>   0.4000 
 61 H        3.4200    10.4810    -3.0010 H     1 <1>   0.0800 
 62 H        2.0260    11.5380    -2.9230 H     1 <1>   0.0800 
@<TRIPOS>BOND
  1   1   2  1   
  2   1   3  1   
  3   2   4  1   
  4   2  28  1   
  5   2  29  1   
  6   3   5  1   
  7   3  30  1   
  8   3  31  1   
  9   4   6  1   
 10   4  32  1   
 11   4  33  1   
 12   5   6  1   
 13   5  34  1   
 14   5  35  1   
 15   6   7  1   
 16   6  36  1   
 17   7   8  1   
 18   7   9  1   
 19   7  10  1   
 20   8  11  1   
 21   8  37  1   
 22   8  38  1   
 23   9  12  1   
 24   9  39  1   
 25   9  40  1   
 26  10  13  1   
 27  10  41  1   
 28  10  42  1   
 29  11  14  1   
 30  11  43  1   
 31  11  44  1   
 32  12  14  1   
 33  12  45  1   
 34  12  46  1   
 35  13  15  1   
 36  13  47  1   
 37  14  48  1   
 38  14  49  1   
 39  15  16  ar  
 40  15  17  ar  
 41  16  18  ar  
 42  17  19  ar  
 43  17  50  1   
 44  18  20  1   
 45  18  21  ar  
 46  19  21  ar  
 47  19  51  1   
 48  20  22  1   
 49  20  23  1   
 50  21  52  1   
 51  22  24  1   
 52  22  53  1   
 53  22  54  1   
 54  23  25  1   
 55  23  55  1   
 56  23  56  1   
 57  24  26  1   
 58  24  27  1   
 59  24  57  1   
 60  25  27  1   
 61  25  58  1   
 62  25  59  1   
 63  26  60  1   
 64  27  61  1   
 65  27  62  1   
@<TRIPOS>SUBSTRUCTURE
  1 ****  13 GROUP 4 **** **** 0

# MOE 2024.06 (io_trps.svl 2023.06)
