@<TRIPOS>MOLECULE
NONAME
59 63 1 0 0 
SMALL
USER_CHARGES


@<TRIPOS>ATOM
  1 O       -0.4190    -0.8400     1.7440 O.2   1 <1>  -0.5700 
  2 C       -0.5350     0.3640     1.7150 C.2   1 <1>   0.5690 
  3 N       -1.7690     0.9620     1.6620 N.am  1 <1>  -0.6600 
  4 C        0.7470     1.2160     1.7360 C.3   1 <1>   0.1710 
  5 C       -3.0110     0.2100     1.3490 C.3   1 <1>   0.1400 
  6 C       -1.9990     2.4220     1.5010 C.3   1 <1>   0.1400 
  7 N        0.8570     2.1380     0.5740 N.3   1 <1>  -0.8100 
  8 C       -4.0250     1.2730     0.9220 C.3   1 <1>   0.2800 
  9 C       -3.5210     2.6090     1.4560 C.3   1 <1>  -0.0800 
 10 C        1.6620     3.3410     0.7890 C.3   1 <1>   0.2540 
 11 C        1.1540     1.4550    -0.6970 C.3   1 <1>   0.1100 
 12 O       -4.0270     1.5230    -0.4400 O.3   1 <1>  -0.5600 
 13 C       -5.5160     1.0690     1.1920 C.3   1 <1>  -0.1600 
 14 C       -4.1290     3.5980     0.4350 C.3   1 <1>  -0.0800 
 15 C        0.9700     4.4960     0.0880 C.ar  1 <1>  -0.1440 
 16 C        0.6720     2.2550    -1.9180 C.3   1 <1>   0.1200 
 17 C       -4.8650     2.6170    -0.4920 C.3   1 <1>   0.2000 
 18 C       -6.1220     2.0530     0.1850 C.3   1 <1>  -0.1600 
 19 C       -3.1190     4.4680    -0.3300 C.3   1 <1>   0.1400 
 20 C        0.8660     4.5150    -1.2980 C.ar  1 <1>   0.0820 
 21 C        0.4260     5.5430     0.8180 C.ar  1 <1>  -0.1500 
 22 O        1.3430     3.4960    -2.0450 O.3   1 <1>  -0.3630 
 23 N       -3.8350     5.4490    -1.1770 N.am  1 <1>  -0.7300 
 24 C        0.2610     5.5800    -1.9460 C.ar  1 <1>  -0.1500 
 25 C       -0.1980     6.5980     0.1730 C.ar  1 <1>  -0.1500 
 26 C       -3.9900     6.7700    -0.8960 C.2   1 <1>   0.5690 
 27 C       -0.2750     6.6200    -1.2090 C.ar  1 <1>  -0.1500 
 28 O       -3.5860     7.2630     0.1300 O.2   1 <1>  -0.5700 
 29 C       -4.7020     7.6610    -1.9160 C.3   1 <1>   0.1810 
 30 O       -4.4950     7.2380    -3.2390 O.3   1 <1>  -0.6800 
 31 H        1.6030     0.5650     1.7650 H     1 <1>   0.0800 
 32 H        0.7300     1.7840     2.6470 H     1 <1>   0.0800 
 33 H       -2.8460    -0.5080     0.5650 H     1 <1>   0.0800 
 34 H       -3.3440    -0.2900     2.2400 H     1 <1>   0.0800 
 35 H       -1.5550     2.9760     2.3100 H     1 <1>   0.0800 
 36 H       -1.5490     2.7220     0.5750 H     1 <1>   0.0800 
 37 H       -3.8870     2.7840     2.4520 H     1 <1>   0.0800 
 38 H        1.7370     3.5590     1.8400 H     1 <1>   0.0800 
 39 H        2.6570     3.2080     0.4000 H     1 <1>   0.0800 
 40 H        2.2090     1.2580    -0.7810 H     1 <1>   0.0800 
 41 H        0.6430     0.5070    -0.7150 H     1 <1>   0.0800 
 42 H       -5.8000     0.0570     0.9630 H     1 <1>   0.0800 
 43 H       -5.7750     1.2990     2.2110 H     1 <1>   0.0800 
 44 H       -4.8280     4.2500     0.9300 H     1 <1>   0.0800 
 45 H       -0.3870     2.4370    -1.8510 H     1 <1>   0.0800 
 46 H        0.8690     1.6960    -2.8140 H     1 <1>   0.0800 
 47 H       -5.0100     2.9540    -1.5040 H     1 <1>   0.0800 
 48 H       -6.7070     2.8250     0.6530 H     1 <1>   0.0800 
 49 H       -6.7270     1.5370    -0.5400 H     1 <1>   0.0800 
 50 H       -2.4860     3.8610    -0.9550 H     1 <1>   0.0800 
 51 H       -2.4940     4.9950     0.3710 H     1 <1>   0.0800 
 52 H        0.4830     5.5440     1.8920 H     1 <1>   0.1500 
 53 H       -4.1740     5.1130    -2.0830 H     1 <1>   0.3700 
 54 H        0.2090     5.5810    -3.0180 H     1 <1>   0.1500 
 55 H       -0.6300     7.4020     0.7440 H     1 <1>   0.1500 
 56 H       -0.7550     7.4460    -1.7030 H     1 <1>   0.1500 
 57 H       -4.3440     8.6710    -1.8250 H     1 <1>   0.0800 
 58 H       -5.7590     7.6460    -1.7250 H     1 <1>   0.0800 
 59 H       -3.5430     7.2820    -3.4580 H     1 <1>   0.4000 
@<TRIPOS>BOND
  1   1   2  2   
  2   2   3  am  
  3   2   4  1   
  4   3   5  1   
  5   3   6  1   
  6   4   7  1   
  7   4  31  1   
  8   4  32  1   
  9   5   8  1   
 10   5  33  1   
 11   5  34  1   
 12   6   9  1   
 13   6  35  1   
 14   6  36  1   
 15   7  10  1   
 16   7  11  1   
 17   8   9  1   
 18   8  12  1   
 19   8  13  1   
 20   9  14  1   
 21   9  37  1   
 22  10  15  1   
 23  10  38  1   
 24  10  39  1   
 25  11  16  1   
 26  11  40  1   
 27  11  41  1   
 28  12  17  1   
 29  13  18  1   
 30  13  42  1   
 31  13  43  1   
 32  14  17  1   
 33  14  19  1   
 34  14  44  1   
 35  15  20  ar  
 36  15  21  ar  
 37  16  22  1   
 38  16  45  1   
 39  16  46  1   
 40  17  18  1   
 41  17  47  1   
 42  18  48  1   
 43  18  49  1   
 44  19  23  1   
 45  19  50  1   
 46  19  51  1   
 47  20  22  1   
 48  20  24  ar  
 49  21  25  ar  
 50  21  52  1   
 51  23  26  am  
 52  23  53  1   
 53  24  27  ar  
 54  24  54  1   
 55  25  27  ar  
 56  25  55  1   
 57  26  28  2   
 58  26  29  1   
 59  27  56  1   
 60  29  30  1   
 61  29  57  1   
 62  29  58  1   
 63  30  59  1   
@<TRIPOS>SUBSTRUCTURE
  1 ****  19 GROUP 4 **** **** 0

# MOE 2024.06 (io_trps.svl 2023.06)
