@<TRIPOS>MOLECULE
NONAME
37 38 1 0 0 
SMALL
USER_CHARGES


@<TRIPOS>ATOM
  1 N        0.0340    -0.0040     0.6100 N.ar  1 <1>  -0.6200 
  2 C        1.0900     0.7620     0.7490 C.ar  1 <1>   0.7710 
  3 C       -1.1190     0.6010     0.4090 C.ar  1 <1>   0.4100 
  4 N        1.0410     2.1020     0.7050 N.ar  1 <1>  -0.1790 
  5 N        2.2500     0.1410     0.9440 N.pl3 1 <1>  -0.9000 
  6 N       -2.2000    -0.1850     0.2870 N.pl3 1 <1>  -0.8690 
  7 C       -1.2480     2.0110     0.3280 C.ar  1 <1>  -0.1430 
  8 C       -0.1240     2.7650     0.5020 C.ar  1 <1>   0.2170 
  9 C       -2.2830    -1.6560     0.3070 C.3   1 <1>   0.3890 
 10 C       -2.6370     2.5980     0.0420 C.3   1 <1>  -0.0970 
 11 C       -0.0440     4.2910     0.4890 C.3   1 <1>  -0.0170 
 12 C       -3.7360    -2.0600     0.0570 C.2   1 <1>   0.0060 
 13 C        0.4100     4.8170    -0.8780 C.3   1 <1>  -0.2400 
 14 N       -4.7100    -1.2170    -0.1290 N.2   1 <1>  -0.5650 
 15 N       -4.1310    -3.3570     0.0090 N.pl3 1 <1>   0.0480 
 16 C       -5.7880    -2.0020    -0.3060 C.2   1 <1>   0.0770 
 17 C       -5.4540    -3.3070    -0.2250 C.2   1 <1>  -0.3020 
 18 C       -3.3250    -4.5820     0.1720 C.3   1 <1>   0.0160 
 19 H        1.9150     2.5990     0.8220 H     1 <1>   0.4570 
 20 H        3.1800     0.5400     1.0740 H     1 <1>   0.4000 
 21 H        2.2330    -0.8840     0.9700 H     1 <1>   0.4000 
 22 H       -3.1480     0.1890     0.1310 H     1 <1>   0.4000 
 23 H       -1.9590    -2.0200     1.2670 H     1 <1>   0.0800 
 24 H       -1.6490    -2.0620    -0.4620 H     1 <1>   0.0800 
 25 H       -3.0850     2.0940    -0.7980 H     1 <1>   0.0800 
 26 H       -2.6130     3.6430    -0.2010 H     1 <1>   0.0800 
 27 H       -3.2770     2.4600     0.8960 H     1 <1>   0.0800 
 28 H        0.6420     4.6270     1.2470 H     1 <1>   0.0800 
 29 H       -0.9960     4.7250     0.7360 H     1 <1>   0.0800 
 30 H        1.3890     4.4520    -1.1340 H     1 <1>   0.0800 
 31 H        0.4430     5.8930    -0.8650 H     1 <1>   0.0800 
 32 H       -0.2820     4.5140    -1.6460 H     1 <1>   0.0800 
 33 H       -6.7640    -1.5800    -0.4850 H     1 <1>   0.1500 
 34 H       -6.0770    -4.1770    -0.3210 H     1 <1>   0.1500 
 35 H       -2.8690    -4.5830     1.1440 H     1 <1>   0.0800 
 36 H       -2.5660    -4.6140    -0.5890 H     1 <1>   0.0800 
 37 H       -3.9600    -5.4440     0.0760 H     1 <1>   0.0800 
@<TRIPOS>BOND
  1   1   2  ar  
  2   1   3  ar  
  3   2   4  ar  
  4   2   5  1   
  5   3   6  1   
  6   3   7  ar  
  7   4   8  ar  
  8   4  19  1   
  9   5  20  1   
 10   5  21  1   
 11   6   9  1   
 12   6  22  1   
 13   7   8  ar  
 14   7  10  1   
 15   8  11  1   
 16   9  12  1   
 17   9  23  1   
 18   9  24  1   
 19  10  25  1   
 20  10  26  1   
 21  10  27  1   
 22  11  13  1   
 23  11  28  1   
 24  11  29  1   
 25  12  14  2   
 26  12  15  1   
 27  13  30  1   
 28  13  31  1   
 29  13  32  1   
 30  14  16  1   
 31  15  17  1   
 32  15  18  1   
 33  16  17  2   
 34  16  33  1   
 35  17  34  1   
 36  18  35  1   
 37  18  36  1   
 38  18  37  1   
@<TRIPOS>SUBSTRUCTURE
  1 ****   6 GROUP 4 **** **** 0

# MOE 2024.06 (io_trps.svl 2023.06)
