@<TRIPOS>MOLECULE
NONAME
42 44 1 0 0 
SMALL
USER_CHARGES


@<TRIPOS>ATOM
  1 O       -0.4220     0.8890     0.9490 O.2   1 <1>  -0.5700 
  2 C       -0.1540     2.0200     0.5870 C.2   1 <1>   0.6900 
  3 N       -1.1490     2.9570     0.4460 N.am  1 <1>  -0.6600 
  4 N        1.1390     2.3880     0.3410 N.am  1 <1>  -0.5470 
  5 C       -2.5350     2.6840     0.9350 C.3   1 <1>   0.1400 
  6 C       -1.0260     4.2270    -0.3220 C.3   1 <1>   0.1400 
  7 C        2.3220     1.6390     0.2670 C.ar  1 <1>   0.1170 
  8 C       -3.5450     2.6250    -0.2390 C.3   1 <1>   0.0000 
  9 C       -2.0060     4.2210    -1.5020 C.3   1 <1>  -0.1600 
 10 C        2.3380     0.2820    -0.0410 C.ar  1 <1>  -0.1500 
 11 C        3.5360     2.2790     0.4900 C.ar  1 <1>  -0.1500 
 12 C       -4.9870     2.3670     0.2470 C.3   1 <1>   0.2000 
 13 C       -3.4490     3.9320    -1.0540 C.3   1 <1>  -0.1600 
 14 C       -3.2880     1.3800    -1.1080 C.3   1 <1>  -0.1600 
 15 C        3.5300    -0.4150    -0.1200 C.ar  1 <1>  -0.1500 
 16 C        4.7310     1.5870     0.4110 C.ar  1 <1>  -0.1500 
 17 O       -5.2770     2.9930     1.4470 O.3   1 <1>  -0.6800 
 18 C       -5.1450     0.8520     0.3930 C.3   1 <1>  -0.1600 
 19 C       -3.9750     0.2260    -0.3760 C.3   1 <1>  -0.1600 
 20 C        4.7300     0.2370     0.1060 C.ar  1 <1>  -0.1500 
 21 H        1.2560     3.3920     0.3140 H     1 <1>   0.3700 
 22 H       -2.5640     1.7660     1.4960 H     1 <1>   0.0800 
 23 H       -2.8080     3.4800     1.6050 H     1 <1>   0.0800 
 24 H       -1.2530     5.0520     0.3320 H     1 <1>   0.0800 
 25 H       -0.0280     4.3600    -0.6990 H     1 <1>   0.0800 
 26 H       -1.9700     5.1760    -1.9950 H     1 <1>   0.0800 
 27 H       -1.6880     3.4790    -2.2130 H     1 <1>   0.0800 
 28 H        1.4140    -0.2350    -0.2230 H     1 <1>   0.1500 
 29 H        3.5490     3.3260     0.7300 H     1 <1>   0.1500 
 30 H       -5.6860     2.7300    -0.4880 H     1 <1>   0.0800 
 31 H       -4.0900     3.8810    -1.9170 H     1 <1>   0.0800 
 32 H       -3.7950     4.7480    -0.4410 H     1 <1>   0.0800 
 33 H       -3.7560     1.5060    -2.0700 H     1 <1>   0.0800 
 34 H       -2.2420     1.1810    -1.2630 H     1 <1>   0.0800 
 35 H        3.5220    -1.4640    -0.3570 H     1 <1>   0.1500 
 36 H        5.6630     2.0950     0.5880 H     1 <1>   0.1500 
 37 H       -4.8290     2.5280     2.1780 H     1 <1>   0.4000 
 38 H       -5.1120     0.5410     1.4220 H     1 <1>   0.0800 
 39 H       -6.0810     0.5450    -0.0400 H     1 <1>   0.0800 
 40 H       -3.2790    -0.2160     0.3190 H     1 <1>   0.0800 
 41 H       -4.3050    -0.5340    -1.0630 H     1 <1>   0.0800 
 42 H        5.6580    -0.3050     0.0460 H     1 <1>   0.1500 
@<TRIPOS>BOND
  1   1   2  2   
  2   2   3  am  
  3   2   4  am  
  4   3   5  1   
  5   3   6  1   
  6   4   7  1   
  7   4  21  1   
  8   5   8  1   
  9   5  22  1   
 10   5  23  1   
 11   6   9  1   
 12   6  24  1   
 13   6  25  1   
 14   7  10  ar  
 15   7  11  ar  
 16   8  12  1   
 17   8  13  1   
 18   8  14  1   
 19   9  13  1   
 20   9  26  1   
 21   9  27  1   
 22  10  15  ar  
 23  10  28  1   
 24  11  16  ar  
 25  11  29  1   
 26  12  17  1   
 27  12  18  1   
 28  12  30  1   
 29  13  31  1   
 30  13  32  1   
 31  14  19  1   
 32  14  33  1   
 33  14  34  1   
 34  15  20  ar  
 35  15  35  1   
 36  16  20  ar  
 37  16  36  1   
 38  17  37  1   
 39  18  19  1   
 40  18  38  1   
 41  18  39  1   
 42  19  40  1   
 43  19  41  1   
 44  20  42  1   
@<TRIPOS>SUBSTRUCTURE
  1 ****   2 GROUP 4 **** **** 0

# MOE 2024.06 (io_trps.svl 2023.06)
