@<TRIPOS>MOLECULE
NONAME
52 55 1 0 0 
SMALL
USER_CHARGES


@<TRIPOS>ATOM
  1 O       -0.0600     0.8360     0.1080 O.2   1 <1>  -0.5700 
  2 C       -0.2210     1.9920    -0.2040 C.2   1 <1>   0.5690 
  3 N       -0.7990     2.9070     0.6350 N.am  1 <1>  -0.6600 
  4 C        0.2310     2.4340    -1.5970 C.3   1 <1>   0.1810 
  5 C       -1.0170     4.3270     0.2070 C.3   1 <1>   0.3640 
  6 C       -1.2050     2.5700     2.0310 C.3   1 <1>   0.0600 
  7 O        0.5230     3.8080    -1.6550 O.3   1 <1>  -0.5600 
  8 C       -2.4700     4.7730     0.4290 C.ar  1 <1>  -0.1430 
  9 C       -0.5480     4.6400    -1.2380 C.3   1 <1>   0.2610 
 10 C       -3.5970     4.0760    -0.0210 C.ar  1 <1>  -0.1430 
 11 C       -2.6540     5.9620     1.1270 C.ar  1 <1>  -0.1500 
 12 C       -0.1920     6.1320    -1.3390 C.2   1 <1>   0.5690 
 13 C       -4.8620     4.5800     0.2480 C.ar  1 <1>  -0.1500 
 14 C       -3.5280     2.7670    -0.8000 C.3   1 <1>  -0.0960 
 15 C       -3.9180     6.4540     1.3860 C.ar  1 <1>  -0.1500 
 16 O       -1.0080     6.8440    -1.8770 O.2   1 <1>  -0.5700 
 17 N        0.9750     6.6660    -0.8240 N.am  1 <1>  -0.6600 
 18 C       -5.0270     5.7600     0.9460 C.ar  1 <1>  -0.1500 
 19 C        1.2100     8.1420    -0.9230 C.3   1 <1>   0.1400 
 20 C        2.0880     5.8390    -0.2580 C.3   1 <1>   0.1400 
 21 C        2.7030     8.4360    -1.0550 C.3   1 <1>  -0.1600 
 22 C        2.8900     6.6380     0.7710 C.3   1 <1>  -0.1600 
 23 C        3.4730     7.9380     0.1780 C.3   1 <1>   0.2800 
 24 O        3.3610     8.9170     1.1720 O.3   1 <1>  -0.4300 
 25 C        4.9910     7.8770    -0.0710 C.3   1 <1>   0.1200 
 26 C        4.5540     9.3120     1.5760 C.2   1 <1>   0.8700 
 27 O        5.5290     8.7210     0.9080 O.3   1 <1>  -0.4300 
 28 O        4.7320    10.1180     2.4540 O.2   1 <1>  -0.5700 
 29 H       -0.5370     2.2130    -2.3170 H     1 <1>   0.0800 
 30 H        1.1220     1.8980    -1.8670 H     1 <1>   0.0800 
 31 H       -0.4050     4.9210     0.8620 H     1 <1>   0.0800 
 32 H       -0.7320     3.2430     2.7230 H     1 <1>   0.0800 
 33 H       -0.9150     1.5630     2.2790 H     1 <1>   0.0800 
 34 H       -2.2730     2.6530     2.1330 H     1 <1>   0.0800 
 35 H       -1.3620     4.4670    -1.9170 H     1 <1>   0.0800 
 36 H       -1.8080     6.5280     1.4760 H     1 <1>   0.1500 
 37 H       -5.7380     4.0540    -0.0880 H     1 <1>   0.1500 
 38 H       -4.4830     2.5240    -1.2280 H     1 <1>   0.0800 
 39 H       -3.2450     1.9620    -0.1460 H     1 <1>   0.0800 
 40 H       -2.8220     2.8320    -1.6040 H     1 <1>   0.0800 
 41 H       -4.0400     7.3770     1.9250 H     1 <1>   0.1500 
 42 H       -6.0140     6.1380     1.1440 H     1 <1>   0.1500 
 43 H        0.6950     8.5430    -1.7810 H     1 <1>   0.0800 
 44 H        0.8160     8.6220    -0.0430 H     1 <1>   0.0800 
 45 H        1.7030     4.9550     0.2190 H     1 <1>   0.0800 
 46 H        2.7310     5.5240    -1.0630 H     1 <1>   0.0800 
 47 H        2.8600     9.4920    -1.1870 H     1 <1>   0.0800 
 48 H        3.0590     7.9420    -1.9420 H     1 <1>   0.0800 
 49 H        3.6710     6.0170     1.1690 H     1 <1>   0.0800 
 50 H        2.2240     6.8750     1.5840 H     1 <1>   0.0800 
 51 H        5.2600     8.2650    -1.0380 H     1 <1>   0.0800 
 52 H        5.4000     6.8900     0.0500 H     1 <1>   0.0800 
@<TRIPOS>BOND
  1   1   2  2   
  2   2   3  am  
  3   2   4  1   
  4   3   5  1   
  5   3   6  1   
  6   4   7  1   
  7   4  29  1   
  8   4  30  1   
  9   5   8  1   
 10   5   9  1   
 11   5  31  1   
 12   6  32  1   
 13   6  33  1   
 14   6  34  1   
 15   7   9  1   
 16   8  10  ar  
 17   8  11  ar  
 18   9  12  1   
 19   9  35  1   
 20  10  13  ar  
 21  10  14  1   
 22  11  15  ar  
 23  11  36  1   
 24  12  16  2   
 25  12  17  am  
 26  13  18  ar  
 27  13  37  1   
 28  14  38  1   
 29  14  39  1   
 30  14  40  1   
 31  15  18  ar  
 32  15  41  1   
 33  17  19  1   
 34  17  20  1   
 35  18  42  1   
 36  19  21  1   
 37  19  43  1   
 38  19  44  1   
 39  20  22  1   
 40  20  45  1   
 41  20  46  1   
 42  21  23  1   
 43  21  47  1   
 44  21  48  1   
 45  22  23  1   
 46  22  49  1   
 47  22  50  1   
 48  23  24  1   
 49  23  25  1   
 50  24  26  1   
 51  25  27  1   
 52  25  51  1   
 53  25  52  1   
 54  26  27  1   
 55  26  28  2   
@<TRIPOS>SUBSTRUCTURE
  1 ****  17 GROUP 4 **** **** 0

# MOE 2024.06 (io_trps.svl 2023.06)
