@<TRIPOS>MOLECULE
NONAME
51 53 1 0 0 
SMALL
USER_CHARGES


@<TRIPOS>ATOM
  1 O       -0.9810     0.7590     1.1050 O.2   1 <1>  -0.5700 
  2 C       -0.7050     1.9310     1.1360 C.2   1 <1>   0.5690 
  3 N       -1.6670     2.8680     0.9840 N.am  1 <1>  -0.7300 
  4 C        0.7540     2.3700     1.3110 C.3   1 <1>   0.1810 
  5 C       -1.3960     4.3250     1.0290 C.3   1 <1>   0.3640 
  6 O        0.8920     3.7330     1.6540 O.3   1 <1>  -0.5600 
  7 C       -2.1850     5.0220    -0.0760 C.ar  1 <1>  -0.1440 
  8 C        0.1130     4.6230     0.8710 C.3   1 <1>   0.2610 
  9 C       -2.2780     4.4840    -1.3540 C.ar  1 <1>  -0.1500 
 10 C       -2.8090     6.2330     0.1910 C.ar  1 <1>  -0.1500 
 11 C        0.4090     6.0910     1.2300 C.2   1 <1>   0.5690 
 12 C       -2.9850     5.1440    -2.3450 C.ar  1 <1>  -0.1500 
 13 C       -3.5150     6.8930    -0.7990 C.ar  1 <1>  -0.1500 
 14 O       -0.1360     6.5530     2.2090 O.2   1 <1>  -0.5700 
 15 N        1.2400     6.8750     0.4610 N.am  1 <1>  -0.6600 
 16 C       -3.6030     6.3490    -2.0680 C.ar  1 <1>  -0.1500 
 17 C        1.5880     8.2660     0.9260 C.3   1 <1>   0.3210 
 18 C        1.7440     6.5030    -0.8900 C.3   1 <1>   0.1400 
 19 C        3.0810     8.5910     0.8580 C.2   1 <1>   0.3350 
 20 C        2.9830     5.6150    -0.7650 C.3   1 <1>  -0.2400 
 21 N        3.9120     8.4190     1.8090 N.2   1 <1>  -0.4100 
 22 N        3.6350     9.1060    -0.2360 N.2   1 <1>  -0.5650 
 23 O        5.0730     8.8100     1.3820 O.3   1 <1>  -0.0190 
 24 C        4.8410     9.2100     0.1560 C.2   1 <1>   0.2980 
 25 C        5.9960     9.7440    -0.6700 C.3   1 <1>   0.0200 
 26 C        6.5210    11.0770    -0.1160 C.3   1 <1>  -0.1600 
 27 C        7.6790    11.6220    -0.9600 C.3   1 <1>  -0.2400 
 28 H       -2.6390     2.5740     0.8860 H     1 <1>   0.3700 
 29 H        1.2900     2.1970     0.3960 H     1 <1>   0.0800 
 30 H        1.2080     1.7900     2.0930 H     1 <1>   0.0800 
 31 H       -1.7290     4.6900     1.9870 H     1 <1>   0.0800 
 32 H        0.3730     4.4460    -0.1530 H     1 <1>   0.0800 
 33 H       -1.8050     3.5460    -1.5890 H     1 <1>   0.1500 
 34 H       -2.7450     6.6730     1.1730 H     1 <1>   0.1500 
 35 H       -3.0550     4.7190    -3.3310 H     1 <1>   0.1500 
 36 H       -3.9950     7.8320    -0.5820 H     1 <1>   0.1500 
 37 H       -4.1530     6.8630    -2.8380 H     1 <1>   0.1500 
 38 H        1.0540     8.9770     0.3220 H     1 <1>   0.0800 
 39 H        1.2770     8.4100     1.9450 H     1 <1>   0.0800 
 40 H        0.9730     5.9940    -1.4420 H     1 <1>   0.0800 
 41 H        1.9920     7.3910    -1.4460 H     1 <1>   0.0800 
 42 H        2.7610     4.7120    -0.2260 H     1 <1>   0.0800 
 43 H        3.7710     6.1380    -0.2550 H     1 <1>   0.0800 
 44 H        3.3360     5.3500    -1.7440 H     1 <1>   0.0800 
 45 H        6.7830     9.0120    -0.6740 H     1 <1>   0.0800 
 46 H        5.6610     9.8820    -1.6820 H     1 <1>   0.0800 
 47 H        5.7190    11.7960    -0.1040 H     1 <1>   0.0800 
 48 H        6.8560    10.9380     0.8980 H     1 <1>   0.0800 
 49 H        7.3600    11.7940    -1.9730 H     1 <1>   0.0800 
 50 H        8.5010    10.9280    -0.9670 H     1 <1>   0.0800 
 51 H        8.0240    12.5540    -0.5490 H     1 <1>   0.0800 
@<TRIPOS>BOND
  1   1   2  2   
  2   2   3  am  
  3   2   4  1   
  4   3   5  1   
  5   3  28  1   
  6   4   6  1   
  7   4  29  1   
  8   4  30  1   
  9   5   7  1   
 10   5   8  1   
 11   5  31  1   
 12   6   8  1   
 13   7   9  ar  
 14   7  10  ar  
 15   8  11  1   
 16   8  32  1   
 17   9  12  ar  
 18   9  33  1   
 19  10  13  ar  
 20  10  34  1   
 21  11  14  2   
 22  11  15  am  
 23  12  16  ar  
 24  12  35  1   
 25  13  16  ar  
 26  13  36  1   
 27  15  17  1   
 28  15  18  1   
 29  16  37  1   
 30  17  19  1   
 31  17  38  1   
 32  17  39  1   
 33  18  20  1   
 34  18  40  1   
 35  18  41  1   
 36  19  21  2   
 37  19  22  1   
 38  20  42  1   
 39  20  43  1   
 40  20  44  1   
 41  21  23  1   
 42  22  24  2   
 43  23  24  1   
 44  24  25  1   
 45  25  26  1   
 46  25  45  1   
 47  25  46  1   
 48  26  27  1   
 49  26  47  1   
 50  26  48  1   
 51  27  49  1   
 52  27  50  1   
 53  27  51  1   
@<TRIPOS>SUBSTRUCTURE
  1 ****  15 GROUP 4 **** **** 0

# MOE 2024.06 (io_trps.svl 2023.06)
