@<TRIPOS>MOLECULE
NONAME
41 43 1 0 0 
SMALL
USER_CHARGES


@<TRIPOS>ATOM
  1 O       -0.3980     0.1270     0.3150 O.2   1 <1>  -0.5700 
  2 C       -1.4680     0.7070     0.3360 C.2   1 <1>   0.7150 
  3 N       -2.6190    -0.0420     0.2850 N.am  1 <1>  -0.6600 
  4 C       -1.5110     2.1420     0.3950 C.2   1 <1>  -0.2370 
  5 C       -3.9500     0.4810    -0.1100 C.3   1 <1>   0.1400 
  6 C       -2.5940    -1.5240     0.1930 C.3   1 <1>   0.1400 
  7 N       -0.6040     2.9550    -0.2080 N.pl3 1 <1>   0.3140 
  8 C       -2.3830     2.9860     1.0150 C.2   1 <1>  -0.1500 
  9 C       -4.7170    -0.7380    -0.6210 C.3   1 <1>   0.2000 
 10 C       -4.0570    -1.9440     0.0430 C.3   1 <1>  -0.0800 
 11 N       -0.8790     4.2540    -0.0160 N.2   1 <1>  -0.7070 
 12 C        0.5670     2.5580    -1.0060 C.3   1 <1>   0.0160 
 13 C       -1.9430     4.2620     0.7220 C.2   1 <1>   0.1080 
 14 O       -6.0580    -0.6810    -0.2750 O.3   1 <1>  -0.6800 
 15 C       -4.2640    -3.2430    -0.7550 C.3   1 <1>  -0.0170 
 16 C       -2.5880     5.5480     1.1850 C.3   1 <1>  -0.0590 
 17 C       -3.6560    -4.4450    -0.0490 C.ar  1 <1>   0.1670 
 18 N       -2.3540    -4.6250    -0.2040 N.ar  1 <1>  -0.6200 
 19 C       -4.4630    -5.2870     0.7140 C.ar  1 <1>   0.1600 
 20 C       -1.9180    -5.6910     0.4470 C.ar  1 <1>   0.1600 
 21 N       -4.0300    -6.3520     1.3680 N.ar  1 <1>  -0.6200 
 22 C       -2.7290    -6.5250     1.2080 C.ar  1 <1>   0.1600 
 23 H       -4.4340     0.9000     0.7530 H     1 <1>   0.0800 
 24 H       -3.8530     1.2250    -0.8830 H     1 <1>   0.0800 
 25 H       -2.0190    -1.8140    -0.6710 H     1 <1>   0.0800 
 26 H       -2.1450    -1.9540     1.0730 H     1 <1>   0.0800 
 27 H       -3.2360     2.7370     1.6180 H     1 <1>   0.1500 
 28 H       -4.6440    -0.7910    -1.6940 H     1 <1>   0.0800 
 29 H       -4.4540    -2.0670     1.0360 H     1 <1>   0.0800 
 30 H        0.2610     1.8690    -1.7690 H     1 <1>   0.0800 
 31 H        1.2880     2.0910    -0.3620 H     1 <1>   0.0800 
 32 H        1.0000     3.4310    -1.4590 H     1 <1>   0.0800 
 33 H       -6.1610    -0.6370     0.6960 H     1 <1>   0.4000 
 34 H       -3.8210    -3.1500    -1.7310 H     1 <1>   0.0800 
 35 H       -5.3180    -3.4070    -0.8950 H     1 <1>   0.0800 
 36 H       -3.4550     5.3420     1.7840 H     1 <1>   0.0800 
 37 H       -2.8780     6.1310     0.3300 H     1 <1>   0.0800 
 38 H       -1.8820     6.1110     1.7660 H     1 <1>   0.0800 
 39 H       -5.5140    -5.0710     0.7880 H     1 <1>   0.1500 
 40 H       -0.8690    -5.9150     0.3760 H     1 <1>   0.1500 
 41 H       -2.2810    -7.3690     1.7020 H     1 <1>   0.1500 
@<TRIPOS>BOND
  1   1   2  2   
  2   2   3  am  
  3   2   4  1   
  4   3   5  1   
  5   3   6  1   
  6   4   7  1   
  7   4   8  2   
  8   5   9  1   
  9   5  23  1   
 10   5  24  1   
 11   6  10  1   
 12   6  25  1   
 13   6  26  1   
 14   7  11  1   
 15   7  12  1   
 16   8  13  1   
 17   8  27  1   
 18   9  10  1   
 19   9  14  1   
 20   9  28  1   
 21  10  15  1   
 22  10  29  1   
 23  11  13  2   
 24  12  30  1   
 25  12  31  1   
 26  12  32  1   
 27  13  16  1   
 28  14  33  1   
 29  15  17  1   
 30  15  34  1   
 31  15  35  1   
 32  16  36  1   
 33  16  37  1   
 34  16  38  1   
 35  17  18  ar  
 36  17  19  ar  
 37  18  20  ar  
 38  19  21  ar  
 39  19  39  1   
 40  20  22  ar  
 41  20  40  1   
 42  21  22  ar  
 43  22  41  1   
@<TRIPOS>SUBSTRUCTURE
  1 ****   3 GROUP 4 **** **** 0

# MOE 2024.06 (io_trps.svl 2023.06)
