@<TRIPOS>MOLECULE
NONAME
59 62 1 0 0 
SMALL
USER_CHARGES


@<TRIPOS>ATOM
  1 F        0.9800    -1.8440     2.6430 F     1 <1>  -0.1900 
  2 C        1.3090    -1.5850     1.4040 C.ar  1 <1>   0.1900 
  3 C        0.5080    -2.0590     0.3750 C.ar  1 <1>  -0.1440 
  4 C        2.4570    -0.8490     1.1800 C.ar  1 <1>  -0.1500 
  5 C        0.8990    -1.7750    -0.9270 C.ar  1 <1>  -0.1500 
  6 C       -0.7440    -2.8720     0.6800 C.3   1 <1>   0.2640 
  7 C        2.8270    -0.5740    -0.1250 C.ar  1 <1>  -0.1500 
  8 C        2.0480    -1.0380    -1.1740 C.ar  1 <1>  -0.1500 
  9 O       -1.7290    -2.6310    -0.3040 O.3   1 <1>  -0.3620 
 10 C       -2.9290    -3.2510    -0.2740 C.ar  1 <1>   0.0830 
 11 C       -3.8070    -2.9650    -1.3060 C.ar  1 <1>  -0.1500 
 12 C       -3.3180    -4.1460     0.7180 C.ar  1 <1>  -0.1500 
 13 C       -5.0560    -3.5560    -1.3490 C.ar  1 <1>  -0.1500 
 14 C       -4.5700    -4.7310     0.6670 C.ar  1 <1>  -0.1500 
 15 C       -5.4720    -4.4450    -0.3580 C.ar  1 <1>   0.0860 
 16 C       -6.7850    -5.0630    -0.3860 C.2   1 <1>   0.5440 
 17 O       -6.8830    -6.2630    -0.2060 O.2   1 <1>  -0.5700 
 18 N       -7.9360    -4.3330    -0.5960 N.am  1 <1>  -0.6600 
 19 C       -8.0130    -2.8550    -0.3920 C.3   1 <1>   0.1400 
 20 C       -9.2180    -5.0390    -0.8870 C.3   1 <1>   0.1400 
 21 C       -9.3180    -2.5160     0.3270 C.3   1 <1>  -0.1600 
 22 C      -10.2430    -4.0670    -1.4730 C.3   1 <1>  -0.1600 
 23 C      -10.5630    -2.8950    -0.5160 C.3   1 <1>   0.2800 
 24 O      -10.8270    -1.8250    -1.3770 O.3   1 <1>  -0.5600 
 25 C      -11.7980    -3.2440     0.3720 C.3   1 <1>  -0.1600 
 26 C      -11.4380    -0.6330    -0.9340 C.3   1 <1>   0.1200 
 27 C      -12.9530    -2.2310     0.3280 C.3   1 <1>   0.2800 
 28 C      -12.3810    -0.7990     0.2710 C.3   1 <1>   0.2000 
 29 O      -13.6950    -2.4620    -0.8160 O.3   1 <1>  -0.6800 
 30 C      -13.9280    -2.4390     1.4920 C.3   1 <1>  -0.2400 
 31 O      -11.6710    -0.5090     1.4400 O.3   1 <1>  -0.6800 
 32 H        3.0450    -0.5010     2.0100 H     1 <1>   0.1500 
 33 H        0.3080    -2.1260    -1.7570 H     1 <1>   0.1500 
 34 H       -1.1570    -2.5930     1.6330 H     1 <1>   0.0800 
 35 H       -0.5090    -3.9210     0.6740 H     1 <1>   0.0800 
 36 H        3.7170    -0.0020    -0.3260 H     1 <1>   0.1500 
 37 H        2.3360    -0.8240    -2.1890 H     1 <1>   0.1500 
 38 H       -3.5010    -2.2780    -2.0760 H     1 <1>   0.1500 
 39 H       -2.6660    -4.4010     1.5320 H     1 <1>   0.1500 
 40 H       -5.7220    -3.3330    -2.1640 H     1 <1>   0.1500 
 41 H       -4.8680    -5.4290     1.4310 H     1 <1>   0.1500 
 42 H       -7.1800    -2.5180     0.2010 H     1 <1>   0.0800 
 43 H       -7.9800    -2.3570    -1.3470 H     1 <1>   0.0800 
 44 H       -9.0320    -5.8370    -1.5870 H     1 <1>   0.0800 
 45 H       -9.5930    -5.4740     0.0240 H     1 <1>   0.0800 
 46 H       -9.3190    -1.4710     0.5680 H     1 <1>   0.0800 
 47 H       -9.3070    -3.0610     1.2540 H     1 <1>   0.0800 
 48 H      -11.1360    -4.6010    -1.7390 H     1 <1>   0.0800 
 49 H       -9.8300    -3.6850    -2.3900 H     1 <1>   0.0800 
 50 H      -12.1800    -4.2210     0.1420 H     1 <1>   0.0800 
 51 H      -11.4700    -3.3180     1.3910 H     1 <1>   0.0800 
 52 H      -10.6720     0.0920    -0.7240 H     1 <1>   0.0800 
 53 H      -12.0150    -0.2740    -1.7680 H     1 <1>   0.0800 
 54 H      -13.1820    -0.0830     0.2120 H     1 <1>   0.0800 
 55 H      -14.0370    -3.3730    -0.8120 H     1 <1>   0.4000 
 56 H      -13.4300    -2.2680     2.4300 H     1 <1>   0.0800 
 57 H      -14.3150    -3.4420     1.4960 H     1 <1>   0.0800 
 58 H      -14.7430    -1.7420     1.4200 H     1 <1>   0.0800 
 59 H      -10.9120    -1.1150     1.5140 H     1 <1>   0.4000 
@<TRIPOS>BOND
  1   1   2  1   
  2   2   3  ar  
  3   2   4  ar  
  4   3   5  ar  
  5   3   6  1   
  6   4   7  ar  
  7   4  32  1   
  8   5   8  ar  
  9   5  33  1   
 10   6   9  1   
 11   6  34  1   
 12   6  35  1   
 13   7   8  ar  
 14   7  36  1   
 15   8  37  1   
 16   9  10  1   
 17  10  11  ar  
 18  10  12  ar  
 19  11  13  ar  
 20  11  38  1   
 21  12  14  ar  
 22  12  39  1   
 23  13  15  ar  
 24  13  40  1   
 25  14  15  ar  
 26  14  41  1   
 27  15  16  1   
 28  16  17  2   
 29  16  18  am  
 30  18  19  1   
 31  18  20  1   
 32  19  21  1   
 33  19  42  1   
 34  19  43  1   
 35  20  22  1   
 36  20  44  1   
 37  20  45  1   
 38  21  23  1   
 39  21  46  1   
 40  21  47  1   
 41  22  23  1   
 42  22  48  1   
 43  22  49  1   
 44  23  24  1   
 45  23  25  1   
 46  24  26  1   
 47  25  27  1   
 48  25  50  1   
 49  25  51  1   
 50  26  28  1   
 51  26  52  1   
 52  26  53  1   
 53  27  28  1   
 54  27  29  1   
 55  27  30  1   
 56  28  31  1   
 57  28  54  1   
 58  29  55  1   
 59  30  56  1   
 60  30  57  1   
 61  30  58  1   
 62  31  59  1   
@<TRIPOS>SUBSTRUCTURE
  1 ****  13 GROUP 4 **** **** 0

# MOE 2024.06 (io_trps.svl 2023.06)
