@<TRIPOS>MOLECULE
NONAME
48 51 1 0 0 
SMALL
USER_CHARGES


@<TRIPOS>ATOM
  1 S       -1.8160    -1.3100     1.3420 S.3   1 <1>  -0.0800 
  2 C       -1.5450    -2.0940    -0.2080 C.2   1 <1>  -0.1400 
  3 C       -2.8740    -0.1210     0.6060 C.2   1 <1>  -0.1100 
  4 C       -2.2250    -1.4600    -1.1820 C.2   1 <1>  -0.1500 
  5 C       -0.6250    -3.2960    -0.2190 C.3   1 <1>   0.5230 
  6 C       -2.9830    -0.3380    -0.7170 C.2   1 <1>  -0.1500 
  7 N       -1.4330    -4.5430    -0.1900 N.4   1 <1>  -0.9590 
  8 C       -2.3150    -4.6830     1.0030 C.3   1 <1>   0.3430 
  9 C       -0.6470    -5.7680    -0.4480 C.3   1 <1>   0.3430 
 10 C       -3.4540    -5.6810     0.7160 C.3   1 <1>   0.1100 
 11 C       -1.3480    -6.5620    -1.5490 C.3   1 <1>  -0.1600 
 12 N       -3.6340    -5.9690    -0.7400 N.3   1 <1>  -0.8100 
 13 C       -2.7520    -7.0660    -1.1930 C.3   1 <1>   0.1100 
 14 C       -5.0550    -6.2880    -1.0410 C.3   1 <1>   0.2900 
 15 C       -5.5170    -7.5970    -0.4120 C.2   1 <1>  -0.0400 
 16 O       -5.6430    -7.6990     0.8810 O.3   1 <1>  -0.0190 
 17 C       -5.8570    -8.7780    -0.9450 C.2   1 <1>  -0.1500 
 18 N       -6.0320    -8.8810     1.2450 N.2   1 <1>  -0.4100 
 19 C       -6.1830    -9.5790     0.1600 C.2   1 <1>   0.2350 
 20 C       -6.6150   -10.9630     0.1210 C.ar  1 <1>   0.0540 
 21 C       -6.8100   -11.7040     1.2790 C.ar  1 <1>  -0.1500 
 22 C       -6.8680   -11.6570    -1.0550 C.ar  1 <1>  -0.1500 
 23 C       -7.2190   -13.0220     1.2110 C.ar  1 <1>   0.1600 
 24 C       -7.2750   -12.9770    -1.0170 C.ar  1 <1>   0.1600 
 25 N       -7.4550   -13.6790     0.0880 N.ar  1 <1>  -0.6200 
 26 H       -3.3070     0.6270     1.2480 H     1 <1>   0.1500 
 27 H       -2.2360    -1.7200    -2.2270 H     1 <1>   0.1500 
 28 H        0.0420    -3.2560     0.6260 H     1 <1>   0.0800 
 29 H       -0.0360    -3.2710    -1.1210 H     1 <1>   0.0800 
 30 H       -3.5720     0.2540    -1.3980 H     1 <1>   0.1500 
 31 H       -2.1310    -4.5080    -0.9550 H     1 <1>   0.4500 
 32 H       -2.7690    -3.7340     1.2310 H     1 <1>   0.0800 
 33 H       -1.7520    -4.9940     1.8680 H     1 <1>   0.0800 
 34 H       -0.5690    -6.3630     0.4480 H     1 <1>   0.0800 
 35 H        0.3470    -5.5120    -0.7770 H     1 <1>   0.0800 
 36 H       -4.3570    -5.2550     1.1210 H     1 <1>   0.0800 
 37 H       -3.2760    -6.5940     1.2590 H     1 <1>   0.0800 
 38 H       -0.7400    -7.4180    -1.7810 H     1 <1>   0.0800 
 39 H       -1.4000    -5.9700    -2.4450 H     1 <1>   0.0800 
 40 H       -2.6960    -7.8360    -0.4390 H     1 <1>   0.0800 
 41 H       -3.1650    -7.5190    -2.0790 H     1 <1>   0.0800 
 42 H       -5.1760    -6.3550    -2.1090 H     1 <1>   0.0800 
 43 H       -5.6880    -5.4870    -0.6990 H     1 <1>   0.0800 
 44 H       -5.8820    -9.0730    -1.9760 H     1 <1>   0.1500 
 45 H       -6.6420   -11.2520     2.2390 H     1 <1>   0.1500 
 46 H       -6.7550   -11.1790    -2.0080 H     1 <1>   0.1500 
 47 H       -7.3590   -13.5670     2.1300 H     1 <1>   0.1500 
 48 H       -7.4630   -13.4880    -1.9470 H     1 <1>   0.1500 
@<TRIPOS>BOND
  1   1   2  1   
  2   1   3  1   
  3   2   4  2   
  4   2   5  1   
  5   3   6  2   
  6   3  26  1   
  7   4   6  1   
  8   4  27  1   
  9   5   7  1   
 10   5  28  1   
 11   5  29  1   
 12   6  30  1   
 13   7   8  1   
 14   7   9  1   
 15   7  31  1   
 16   8  10  1   
 17   8  32  1   
 18   8  33  1   
 19   9  11  1   
 20   9  34  1   
 21   9  35  1   
 22  10  12  1   
 23  10  36  1   
 24  10  37  1   
 25  11  13  1   
 26  11  38  1   
 27  11  39  1   
 28  12  13  1   
 29  12  14  1   
 30  13  40  1   
 31  13  41  1   
 32  14  15  1   
 33  14  42  1   
 34  14  43  1   
 35  15  16  1   
 36  15  17  2   
 37  16  18  1   
 38  17  19  1   
 39  17  44  1   
 40  18  19  2   
 41  19  20  1   
 42  20  21  ar  
 43  20  22  ar  
 44  21  23  ar  
 45  21  45  1   
 46  22  24  ar  
 47  22  46  1   
 48  23  25  ar  
 49  23  47  1   
 50  24  25  ar  
 51  24  48  1   
@<TRIPOS>SUBSTRUCTURE
  1 ****  12 GROUP 4 **** **** 0

# MOE 2024.06 (io_trps.svl 2023.06)
