@<TRIPOS>MOLECULE
NONAME
50 51 1 0 0 
SMALL
USER_CHARGES


@<TRIPOS>ATOM
  1 O        1.2050    -0.3940     2.9770 O.2   1 <1>  -0.5700 
  2 C        2.1360    -0.3000     2.2050 C.2   1 <1>   0.7150 
  3 N        2.5610     0.9450     1.9000 N.am  1 <1>  -0.8000 
  4 C        2.7540    -1.4740     1.6350 C.2   1 <1>   0.0550 
  5 O        3.7210    -1.3890     0.7320 O.3   1 <1>  -0.2800 
  6 C        2.5100    -2.7890     1.8660 C.2   1 <1>  -0.1500 
  7 C        4.1120    -2.5950     0.3710 C.2   1 <1>  -0.0400 
  8 C        3.3750    -3.5180     1.0430 C.2   1 <1>  -0.1810 
  9 C        5.2440    -2.6600    -0.6700 C.3   1 <1>   0.1800 
 10 C        3.3660    -5.0310     1.0070 C.3   1 <1>   0.5240 
 11 C        6.4600    -1.8890    -0.1360 C.3   1 <1>  -0.2400 
 12 C        4.7660    -2.0050    -1.9730 C.3   1 <1>  -0.2400 
 13 C        5.6930    -4.0940    -0.9840 C.3   1 <1>  -0.2400 
 14 N        2.0560    -5.4590     0.4360 N.4   1 <1>  -0.9590 
 15 C        1.8420    -6.9290     0.6460 C.3   1 <1>   0.3430 
 16 C        1.9410    -5.0370    -1.0000 C.3   1 <1>   0.2630 
 17 C        0.4100    -7.3760     0.3310 C.3   1 <1>   0.0960 
 18 N        0.3070    -8.8010     0.6700 N.pl3 1 <1>   0.0480 
 19 C        0.5130    -9.8840    -0.1180 C.2   1 <1>   0.0060 
 20 C        0.0800    -9.3040     1.8970 C.2   1 <1>  -0.3020 
 21 N        0.4410   -11.0030     0.5190 N.2   1 <1>  -0.5650 
 22 C        0.8040    -9.8230    -1.6060 C.3   1 <1>  -0.0600 
 23 C        0.1630   -10.6460     1.7850 C.2   1 <1>   0.0770 
 24 H        2.1130     1.7530     2.3300 H     1 <1>   0.3700 
 25 H        3.3490     1.1100     1.2740 H     1 <1>   0.3700 
 26 H        1.7850    -3.1730     2.5640 H     1 <1>   0.1500 
 27 H        3.4770    -5.4040     2.0120 H     1 <1>   0.0800 
 28 H        4.1770    -5.4110     0.4120 H     1 <1>   0.0800 
 29 H        6.2080    -0.8590     0.0400 H     1 <1>   0.0800 
 30 H        7.2720    -1.9180    -0.8410 H     1 <1>   0.0800 
 31 H        6.7970    -2.3150     0.7920 H     1 <1>   0.0800 
 32 H        4.4960    -0.9780    -1.7990 H     1 <1>   0.0800 
 33 H        3.9060    -2.5170    -2.3620 H     1 <1>   0.0800 
 34 H        5.5430    -2.0240    -2.7160 H     1 <1>   0.0800 
 35 H        6.0500    -4.5810    -0.0950 H     1 <1>   0.0800 
 36 H        6.5030    -4.0770    -1.6940 H     1 <1>   0.0800 
 37 H        4.8930    -4.6610    -1.4190 H     1 <1>   0.0800 
 38 H        1.3540    -4.9260     0.9730 H     1 <1>   0.4500 
 39 H        2.0470    -7.1740     1.6760 H     1 <1>   0.0800 
 40 H        2.5270    -7.4870     0.0280 H     1 <1>   0.0800 
 41 H        2.6750    -5.5460    -1.6030 H     1 <1>   0.0800 
 42 H        2.1030    -3.9730    -1.0910 H     1 <1>   0.0800 
 43 H        0.9600    -5.2610    -1.3840 H     1 <1>   0.0800 
 44 H        0.1800    -7.2470    -0.7100 H     1 <1>   0.0800 
 45 H       -0.3000    -6.8330     0.9290 H     1 <1>   0.0800 
 46 H       -0.1300    -8.7120     2.7690 H     1 <1>   0.1500 
 47 H        1.7150    -9.2860    -1.7920 H     1 <1>   0.0800 
 48 H       -0.0110    -9.3530    -2.1240 H     1 <1>   0.0800 
 49 H        0.9140   -10.8220    -1.9910 H     1 <1>   0.0800 
 50 H        0.0340   -11.3880     2.5570 H     1 <1>   0.1500 
@<TRIPOS>BOND
  1   1   2  2   
  2   2   3  am  
  3   2   4  1   
  4   3  24  1   
  5   3  25  1   
  6   4   5  1   
  7   4   6  2   
  8   5   7  1   
  9   6   8  1   
 10   6  26  1   
 11   7   8  2   
 12   7   9  1   
 13   8  10  1   
 14   9  11  1   
 15   9  12  1   
 16   9  13  1   
 17  10  14  1   
 18  10  27  1   
 19  10  28  1   
 20  11  29  1   
 21  11  30  1   
 22  11  31  1   
 23  12  32  1   
 24  12  33  1   
 25  12  34  1   
 26  13  35  1   
 27  13  36  1   
 28  13  37  1   
 29  14  15  1   
 30  14  16  1   
 31  14  38  1   
 32  15  17  1   
 33  15  39  1   
 34  15  40  1   
 35  16  41  1   
 36  16  42  1   
 37  16  43  1   
 38  17  18  1   
 39  17  44  1   
 40  17  45  1   
 41  18  19  1   
 42  18  20  1   
 43  19  21  2   
 44  19  22  1   
 45  20  23  2   
 46  20  46  1   
 47  21  23  1   
 48  22  47  1   
 49  22  48  1   
 50  22  49  1   
 51  23  50  1   
@<TRIPOS>SUBSTRUCTURE
  1 ****  14 GROUP 4 **** **** 0

# MOE 2024.06 (io_trps.svl 2023.06)
