@<TRIPOS>MOLECULE
Untitled Document
53 54 1 0 0 
SMALL
USER_CHARGES


@<TRIPOS>ATOM
  1 S       -1.6740    -2.5540    -0.5760 S.3   1 <1>  -0.0800 
  2 C       -3.2830    -2.1970    -1.1780 C.2   1 <1>  -0.1100 
  3 C       -2.1670    -2.1940     1.0680 C.2   1 <1>  -0.1100 
  4 C       -4.1030    -1.8280    -0.1750 C.2   1 <1>  -0.1810 
  5 C       -3.4620    -1.8320     1.1080 C.2   1 <1>  -0.1500 
  6 C       -5.5670    -1.4480    -0.3320 C.3   1 <1>   0.0210 
  7 C       -5.7590     0.0720    -0.4840 C.3   1 <1>   0.2200 
  8 N       -7.1220     0.4030    -0.9680 N.am  1 <1>  -0.7300 
  9 C       -5.4860     0.8620     0.7980 C.3   1 <1>  -0.2400 
 10 C       -8.2990     0.1020    -0.3800 C.2   1 <1>   0.6900 
 11 O       -8.3710    -0.6120     0.6000 O.2   1 <1>  -0.5700 
 12 N       -9.4300     0.5950    -0.9290 N.am  1 <1>  -0.7300 
 13 C      -10.7540     0.7020    -0.2400 C.3   1 <1>   0.1400 
 14 C      -11.5840    -0.6040    -0.3170 C.3   1 <1>   0.4230 
 15 N      -10.8820    -1.7200     0.4140 N.4   1 <1>  -0.9590 
 16 C      -13.0370    -0.3580     0.1460 C.3   1 <1>  -0.0170 
 17 C      -11.1840    -3.0700    -0.1490 C.3   1 <1>   0.2630 
 18 C      -11.0300    -1.7120     1.9000 C.3   1 <1>   0.2630 
 19 C      -13.9220    -1.5850    -0.0160 C.ar  1 <1>  -0.1430 
 20 C      -14.4330    -2.2380     1.0980 C.ar  1 <1>  -0.1500 
 21 C      -14.2230    -2.0640    -1.2850 C.ar  1 <1>  -0.1500 
 22 C      -15.2110    -3.3710     0.9470 C.ar  1 <1>  -0.1500 
 23 C      -15.0040    -3.1960    -1.4400 C.ar  1 <1>  -0.1500 
 24 C      -15.4900    -3.8500    -0.3200 C.ar  1 <1>   0.0820 
 25 O      -16.2440    -4.9510    -0.4480 O.3   1 <1>  -0.5330 
 26 H       -3.4430    -2.3030    -2.2370 H     1 <1>   0.1500 
 27 H       -1.4250    -2.2940     1.8400 H     1 <1>   0.1500 
 28 H       -4.0020    -1.5670     2.0000 H     1 <1>   0.1500 
 29 H       -6.1180    -1.8180     0.5130 H     1 <1>   0.0800 
 30 H       -5.9450    -1.9300    -1.2160 H     1 <1>   0.0800 
 31 H       -5.0610     0.4090    -1.2330 H     1 <1>   0.0800 
 32 H       -7.1270     1.0730    -1.7340 H     1 <1>   0.3700 
 33 H       -6.0980     0.5010     1.6060 H     1 <1>   0.0800 
 34 H       -5.6830     1.9070     0.6430 H     1 <1>   0.0800 
 35 H       -4.4540     0.7600     1.0810 H     1 <1>   0.0800 
 36 H       -9.3040     1.2190    -1.7280 H     1 <1>   0.3700 
 37 H      -10.5990     0.9750     0.7910 H     1 <1>   0.0800 
 38 H      -11.3080     1.4990    -0.7040 H     1 <1>   0.0800 
 39 H      -11.6310    -0.8710    -1.3590 H     1 <1>   0.0800 
 40 H       -9.8670    -1.5270     0.2550 H     1 <1>   0.4500 
 41 H      -13.0530    -0.0100     1.1630 H     1 <1>   0.0800 
 42 H      -13.4600     0.4290    -0.4530 H     1 <1>   0.0800 
 43 H      -12.2090    -3.3420     0.0470 H     1 <1>   0.0800 
 44 H      -10.5430    -3.8110     0.2990 H     1 <1>   0.0800 
 45 H      -11.0230    -3.0770    -1.2140 H     1 <1>   0.0800 
 46 H      -12.0500    -1.9160     2.1790 H     1 <1>   0.0800 
 47 H      -10.7380    -0.7540     2.2980 H     1 <1>   0.0800 
 48 H      -10.3960    -2.4660     2.3370 H     1 <1>   0.0800 
 49 H      -14.2410    -1.8730     2.0920 H     1 <1>   0.1500 
 50 H      -13.8600    -1.5610    -2.1640 H     1 <1>   0.1500 
 51 H      -15.6120    -3.8870     1.8020 H     1 <1>   0.1500 
 52 H      -15.2340    -3.5620    -2.4240 H     1 <1>   0.1500 
 53 H      -16.4570    -5.1760    -1.3710 H     1 <1>   0.4500 
@<TRIPOS>BOND
  1   1   2  1   
  2   1   3  1   
  3   2   4  2   
  4   2  26  1   
  5   3   5  2   
  6   3  27  1   
  7   4   5  1   
  8   4   6  1   
  9   5  28  1   
 10   6   7  1   
 11   6  29  1   
 12   6  30  1   
 13   7   8  1   
 14   7   9  1   
 15   7  31  1   
 16   8  10  am  
 17   8  32  1   
 18   9  33  1   
 19   9  34  1   
 20   9  35  1   
 21  10  11  2   
 22  10  12  am  
 23  12  13  1   
 24  12  36  1   
 25  13  14  1   
 26  13  37  1   
 27  13  38  1   
 28  14  15  1   
 29  14  16  1   
 30  14  39  1   
 31  15  17  1   
 32  15  18  1   
 33  15  40  1   
 34  16  19  1   
 35  16  41  1   
 36  16  42  1   
 37  17  43  1   
 38  17  44  1   
 39  17  45  1   
 40  18  46  1   
 41  18  47  1   
 42  18  48  1   
 43  19  20  ar  
 44  19  21  ar  
 45  20  22  ar  
 46  20  49  1   
 47  21  23  ar  
 48  21  50  1   
 49  22  24  ar  
 50  22  51  1   
 51  23  24  ar  
 52  23  52  1   
 53  24  25  1   
 54  25  53  1   
@<TRIPOS>SUBSTRUCTURE
  1 ****  15 GROUP 4 **** **** 0

# MOE 2024.06 (io_trps.svl 2023.06)
