@<TRIPOS>MOLECULE
NONAME
49 53 1 0 0 
SMALL
USER_CHARGES


@<TRIPOS>ATOM
  1 O       -0.6470     0.1920     0.5680 O.2   1 <1>  -0.5700 
  2 C       -1.5820     0.8340     0.1140 C.2   1 <1>   0.7160 
  3 N       -2.7500     0.1350    -0.1370 N.am  1 <1>  -0.6600 
  4 C       -1.4230     2.2690    -0.1290 C.2   1 <1>   0.2030 
  5 C       -4.0250     0.7090    -0.6370 C.3   1 <1>   0.1400 
  6 C       -2.8490    -1.3420    -0.0430 C.3   1 <1>   0.1400 
  7 N       -2.2600     3.0900    -0.7500 N.2   1 <1>  -0.7070 
  8 C       -0.2900     2.9830     0.2880 C.2   1 <1>  -0.1500 
  9 C       -5.0390    -0.4240    -0.4810 C.3   1 <1>   0.2000 
 10 C       -4.1990    -1.6920    -0.6820 C.3   1 <1>  -0.0800 
 11 N       -1.6680     4.2940    -0.7210 N.pl3 1 <1>   0.3000 
 12 C       -0.4770     4.2580    -0.0990 C.2   1 <1>  -0.2370 
 13 O       -5.5280    -0.3890     0.8170 O.3   1 <1>  -0.6800 
 14 C       -4.8410    -2.9830    -0.1320 C.3   1 <1>  -0.0170 
 15 C        0.4080     5.4740     0.0800 C.3   1 <1>  -0.0150 
 16 C       -4.1060    -4.2960    -0.4290 C.ar  1 <1>  -0.1430 
 17 C        1.2770     5.5960     1.2890 C.3   1 <1>  -0.2000 
 18 C        0.0740     6.4780     1.1350 C.3   1 <1>  -0.2000 
 19 C       -4.5130    -5.4900     0.2190 C.ar  1 <1>   0.0000 
 20 C       -3.0640    -4.3970    -1.3100 C.ar  1 <1>  -0.1500 
 21 C       -3.7990    -6.6800    -0.0680 C.ar  1 <1>   0.3100 
 22 C       -5.5920    -5.5750     1.1310 C.ar  1 <1>  -0.1500 
 23 C       -2.4300    -5.6260    -1.5250 C.ar  1 <1>   0.1600 
 24 N       -2.7620    -6.7310    -0.9390 N.ar  1 <1>  -0.6200 
 25 C       -4.1770    -7.8730     0.5690 C.ar  1 <1>  -0.1500 
 26 C       -5.9360    -6.7550     1.7330 C.ar  1 <1>  -0.1500 
 27 C       -5.2200    -7.9200     1.4520 C.ar  1 <1>  -0.1500 
 28 H       -4.3180     1.5830    -0.0810 H     1 <1>   0.0800 
 29 H       -3.9100     0.9660    -1.6750 H     1 <1>   0.0800 
 30 H       -2.0250    -1.8090    -0.5540 H     1 <1>   0.0800 
 31 H       -2.8270    -1.6280     0.9950 H     1 <1>   0.0800 
 32 H        0.5460     2.5560     0.8130 H     1 <1>   0.1500 
 33 H       -5.8690    -0.3450    -1.1630 H     1 <1>   0.0800 
 34 H       -4.0520    -1.7990    -1.7420 H     1 <1>   0.0800 
 35 H       -2.0950     5.1340    -1.1290 H     1 <1>   0.2700 
 36 H       -4.7790    -0.2400     1.4290 H     1 <1>   0.4000 
 37 H       -5.8390    -3.0620    -0.5260 H     1 <1>   0.0800 
 38 H       -4.9230    -2.8810     0.9360 H     1 <1>   0.0800 
 39 H        0.8130     5.8380    -0.8500 H     1 <1>   0.1000 
 40 H        1.2500     4.8150     2.0300 H     1 <1>   0.1000 
 41 H        2.2570     6.0250     1.1760 H     1 <1>   0.1000 
 42 H        0.2230     7.5230     0.9240 H     1 <1>   0.1000 
 43 H       -0.7730     6.3000     1.7740 H     1 <1>   0.1000 
 44 H       -2.6890    -3.5620    -1.8680 H     1 <1>   0.1500 
 45 H       -6.1650    -4.6970     1.3610 H     1 <1>   0.1500 
 46 H       -1.6110    -5.6530    -2.2230 H     1 <1>   0.1500 
 47 H       -3.6130    -8.7570     0.3350 H     1 <1>   0.1500 
 48 H       -6.7590    -6.8010     2.4260 H     1 <1>   0.1500 
 49 H       -5.4990    -8.8420     1.9330 H     1 <1>   0.1500 
@<TRIPOS>BOND
  1   1   2  2   
  2   2   3  am  
  3   2   4  1   
  4   3   5  1   
  5   3   6  1   
  6   4   7  2   
  7   4   8  1   
  8   5   9  1   
  9   5  28  1   
 10   5  29  1   
 11   6  10  1   
 12   6  30  1   
 13   6  31  1   
 14   7  11  1   
 15   8  12  2   
 16   8  32  1   
 17   9  10  1   
 18   9  13  1   
 19   9  33  1   
 20  10  14  1   
 21  10  34  1   
 22  11  12  1   
 23  11  35  1   
 24  12  15  1   
 25  13  36  1   
 26  14  16  1   
 27  14  37  1   
 28  14  38  1   
 29  15  17  1   
 30  15  18  1   
 31  15  39  1   
 32  16  19  ar  
 33  16  20  ar  
 34  17  18  1   
 35  17  40  1   
 36  17  41  1   
 37  18  42  1   
 38  18  43  1   
 39  19  21  ar  
 40  19  22  ar  
 41  20  23  ar  
 42  20  44  1   
 43  21  24  ar  
 44  21  25  ar  
 45  22  26  ar  
 46  22  45  1   
 47  23  24  ar  
 48  23  46  1   
 49  25  27  ar  
 50  25  47  1   
 51  26  27  ar  
 52  26  48  1   
 53  27  49  1   
@<TRIPOS>SUBSTRUCTURE
  1 ****   6 GROUP 4 **** **** 0

# MOE 2024.06 (io_trps.svl 2023.06)
