@<TRIPOS>MOLECULE
NONAME
45 48 1 0 0 
SMALL
USER_CHARGES


@<TRIPOS>ATOM
  1 O        2.2970    -0.6440    -1.5190 O.2   1 <1>  -0.5700 
  2 C        1.8420    -0.9230    -0.4360 C.2   1 <1>   0.5690 
  3 N        1.7660    -0.0490     0.6110 N.am  1 <1>  -0.4940 
  4 C        1.2940    -2.3300    -0.1920 C.3   1 <1>   0.1710 
  5 C        2.0780     1.3270     0.7200 C.2   1 <1>  -0.0880 
  6 N        0.2630    -2.3890     0.8910 N.3   1 <1>  -0.8100 
  7 N        3.1580     2.0020     0.2170 N.pl3 1 <1>   0.3140 
  8 C        1.3310     2.2390     1.3860 C.2   1 <1>  -0.1500 
  9 C       -1.0210    -1.8310     0.3860 C.3   1 <1>   0.2530 
 10 C       -0.0240    -3.8060     1.2270 C.3   1 <1>   0.2540 
 11 N        3.0870     3.3220     0.5460 N.2   1 <1>  -0.7070 
 12 C        4.3290     1.4340    -0.5300 C.3   1 <1>   0.1760 
 13 C        2.0000     3.4440     1.2380 C.2   1 <1>   0.1390 
 14 C       -1.7670    -3.0300    -0.1400 C.ar  1 <1>  -0.1440 
 15 C       -1.1910    -4.1710     0.3460 C.ar  1 <1>  -0.1430 
 16 C        5.0510     0.3160     0.2410 C.3   1 <1>  -0.1600 
 17 C        5.4360     2.4470    -0.8500 C.3   1 <1>  -0.1600 
 18 C       -2.8620    -3.0890    -0.9820 C.ar  1 <1>  -0.1500 
 19 C       -1.6880    -5.4170     0.0100 C.ar  1 <1>  -0.1500 
 20 C        6.5490     0.4570    -0.0640 C.3   1 <1>  -0.1600 
 21 C        6.6720     1.5860    -1.0860 C.3   1 <1>  -0.1600 
 22 C       -3.3710    -4.3320    -1.3270 C.ar  1 <1>  -0.1500 
 23 C       -2.7870    -5.4910    -0.8330 C.ar  1 <1>  -0.1500 
 24 H        1.2380    -0.4570     1.3910 H     1 <1>   0.3700 
 25 H        2.1320    -2.9460     0.0790 H     1 <1>   0.0800 
 26 H        0.8890    -2.7120    -1.1140 H     1 <1>   0.0800 
 27 H        0.4110     2.0910     1.9180 H     1 <1>   0.1500 
 28 H       -0.8740    -1.0880    -0.3800 H     1 <1>   0.0800 
 29 H       -1.5740    -1.3980     1.2020 H     1 <1>   0.0800 
 30 H       -0.3210    -3.8780     2.2590 H     1 <1>   0.0800 
 31 H        0.8240    -4.4460     1.0550 H     1 <1>   0.0800 
 32 H        3.9730     1.0470    -1.4660 H     1 <1>   0.0800 
 33 H        1.6640     4.3820     1.6470 H     1 <1>   0.1500 
 34 H        4.6920    -0.6450    -0.0810 H     1 <1>   0.0800 
 35 H        4.8890     0.4230     1.3000 H     1 <1>   0.0800 
 36 H        5.6170     3.0840     0.0000 H     1 <1>   0.0800 
 37 H        5.1900     3.0480    -1.7070 H     1 <1>   0.0800 
 38 H       -3.3120    -2.1900    -1.3640 H     1 <1>   0.1500 
 39 H       -1.2330    -6.3130     0.3940 H     1 <1>   0.1500 
 40 H        6.9670    -0.4600    -0.4450 H     1 <1>   0.0800 
 41 H        7.0720     0.7300     0.8360 H     1 <1>   0.0800 
 42 H        7.5830     2.1460    -0.9650 H     1 <1>   0.0800 
 43 H        6.6370     1.1770    -2.0820 H     1 <1>   0.0800 
 44 H       -4.2230    -4.3990    -1.9810 H     1 <1>   0.1500 
 45 H       -3.1880    -6.4510    -1.1070 H     1 <1>   0.1500 
@<TRIPOS>BOND
  1   1   2  2   
  2   2   3  am  
  3   2   4  1   
  4   3   5  1   
  5   3  24  1   
  6   4   6  1   
  7   4  25  1   
  8   4  26  1   
  9   5   7  1   
 10   5   8  2   
 11   6   9  1   
 12   6  10  1   
 13   7  11  1   
 14   7  12  1   
 15   8  13  1   
 16   8  27  1   
 17   9  14  1   
 18   9  28  1   
 19   9  29  1   
 20  10  15  1   
 21  10  30  1   
 22  10  31  1   
 23  11  13  2   
 24  12  16  1   
 25  12  17  1   
 26  12  32  1   
 27  13  33  1   
 28  14  15  ar  
 29  14  18  ar  
 30  15  19  ar  
 31  16  20  1   
 32  16  34  1   
 33  16  35  1   
 34  17  21  1   
 35  17  36  1   
 36  17  37  1   
 37  18  22  ar  
 38  18  38  1   
 39  19  23  ar  
 40  19  39  1   
 41  20  21  1   
 42  20  40  1   
 43  20  41  1   
 44  21  42  1   
 45  21  43  1   
 46  22  23  ar  
 47  22  44  1   
 48  23  45  1   
@<TRIPOS>SUBSTRUCTURE
  1 ****   2 GROUP 4 **** **** 0

# MOE 2024.06 (io_trps.svl 2023.06)
