@<TRIPOS>MOLECULE
NONAME
49 51 1 0 0 
SMALL
USER_CHARGES


@<TRIPOS>ATOM
  1 F       -0.2840    -1.1280     1.3590 F     1 <1>  -0.1900 
  2 C        0.6840    -1.5020     0.5660 C.ar  1 <1>   0.1900 
  3 C        1.2640    -2.7560     0.7320 C.ar  1 <1>  -0.1440 
  4 C        1.0860    -0.6160    -0.4150 C.ar  1 <1>  -0.1500 
  5 C        2.2950    -3.1230    -0.1260 C.ar  1 <1>  -0.1500 
  6 C        0.8140    -3.7310     1.8220 C.3   1 <1>   0.0450 
  7 C        2.1090    -1.0220    -1.2470 C.ar  1 <1>   0.1900 
  8 C        2.7210    -2.2560    -1.1220 C.ar  1 <1>  -0.1500 
  9 C        0.3860    -5.0770     1.2520 C.2   1 <1>   0.5690 
 10 F        2.5140    -0.2110    -2.1860 F     1 <1>  -0.1900 
 11 O        1.0840    -6.0320     1.5010 O.2   1 <1>  -0.5700 
 12 N       -0.7490    -5.2260     0.4880 N.am  1 <1>  -0.6600 
 13 C       -1.0610    -6.5310    -0.1620 C.3   1 <1>   0.1400 
 14 C       -1.7980    -4.1860     0.2890 C.3   1 <1>   0.1400 
 15 C       -2.3920    -7.0850     0.3910 C.3   1 <1>   0.4230 
 16 C       -3.1220    -4.7180     0.8510 C.3   1 <1>  -0.1600 
 17 N       -2.7180    -8.4950    -0.0860 N.4   1 <1>  -0.9590 
 18 C       -3.5660    -6.0730     0.2260 C.3   1 <1>   0.0000 
 19 C       -4.1560    -8.8840     0.0880 C.3   1 <1>   0.3430 
 20 C       -2.2650    -8.8280    -1.4780 C.3   1 <1>   0.2630 
 21 C       -4.8080    -6.5990     1.0040 C.3   1 <1>  -0.1600 
 22 C       -3.9070    -5.8860    -1.2810 C.3   1 <1>   0.1200 
 23 C       -4.7940    -8.1210     1.2470 C.3   1 <1>  -0.1600 
 24 O       -4.8000    -4.8460    -1.4790 O.3   1 <1>  -0.6800 
 25 H        0.6240     0.3470    -0.5260 H     1 <1>   0.1500 
 26 H        2.7720    -4.0840    -0.0230 H     1 <1>   0.1500 
 27 H        0.0130    -3.3310     2.4140 H     1 <1>   0.0800 
 28 H        1.6410    -3.8920     2.4900 H     1 <1>   0.0800 
 29 H        3.5160    -2.5310    -1.7920 H     1 <1>   0.1500 
 30 H       -1.1130    -6.3740    -1.2230 H     1 <1>   0.0800 
 31 H       -0.2760    -7.2410     0.0320 H     1 <1>   0.0800 
 32 H       -1.5440    -3.2730     0.7950 H     1 <1>   0.0800 
 33 H       -1.8920    -3.9600    -0.7600 H     1 <1>   0.0800 
 34 H       -2.2370    -7.1590     1.4550 H     1 <1>   0.0800 
 35 H       -2.9970    -4.8280     1.9150 H     1 <1>   0.0800 
 36 H       -3.8810    -3.9680     0.7100 H     1 <1>   0.0800 
 37 H       -2.1820    -9.1070     0.5490 H     1 <1>   0.4500 
 38 H       -4.7060    -8.6600    -0.8120 H     1 <1>   0.0800 
 39 H       -4.2290    -9.9460     0.2650 H     1 <1>   0.0800 
 40 H       -2.7540    -8.1930    -2.1980 H     1 <1>   0.0800 
 41 H       -2.5000    -9.8540    -1.7110 H     1 <1>   0.0800 
 42 H       -1.1980    -8.6990    -1.5700 H     1 <1>   0.0800 
 43 H       -4.8810    -6.1220     1.9680 H     1 <1>   0.0800 
 44 H       -5.7110    -6.3380     0.4790 H     1 <1>   0.0800 
 45 H       -4.3500    -6.7710    -1.7000 H     1 <1>   0.0800 
 46 H       -3.0310    -5.6420    -1.8540 H     1 <1>   0.0800 
 47 H       -5.8050    -8.4640     1.3840 H     1 <1>   0.0800 
 48 H       -4.2610    -8.3470     2.1540 H     1 <1>   0.0800 
 49 H       -5.6670    -5.0140    -1.0610 H     1 <1>   0.4000 
@<TRIPOS>BOND
  1   1   2  1   
  2   2   3  ar  
  3   2   4  ar  
  4   3   5  ar  
  5   3   6  1   
  6   4   7  ar  
  7   4  25  1   
  8   5   8  ar  
  9   5  26  1   
 10   6   9  1   
 11   6  27  1   
 12   6  28  1   
 13   7   8  ar  
 14   7  10  1   
 15   8  29  1   
 16   9  11  2   
 17   9  12  am  
 18  12  13  1   
 19  12  14  1   
 20  13  15  1   
 21  13  30  1   
 22  13  31  1   
 23  14  16  1   
 24  14  32  1   
 25  14  33  1   
 26  15  17  1   
 27  15  18  1   
 28  15  34  1   
 29  16  18  1   
 30  16  35  1   
 31  16  36  1   
 32  17  19  1   
 33  17  20  1   
 34  17  37  1   
 35  18  21  1   
 36  18  22  1   
 37  19  23  1   
 38  19  38  1   
 39  19  39  1   
 40  20  40  1   
 41  20  41  1   
 42  20  42  1   
 43  21  23  1   
 44  21  43  1   
 45  21  44  1   
 46  22  24  1   
 47  22  45  1   
 48  22  46  1   
 49  23  47  1   
 50  23  48  1   
 51  24  49  1   
@<TRIPOS>SUBSTRUCTURE
  1 ****  12 GROUP 4 **** **** 0

# MOE 2024.06 (io_trps.svl 2023.06)
