@<TRIPOS>MOLECULE
NONAME
43 44 1 0 0 
SMALL
USER_CHARGES


@<TRIPOS>ATOM
  1 S        0.5190    -0.0290    -0.5200 S.o2  1 <1>   1.3330 
  2 O        0.6940    -0.7600     0.7160 O.2   1 <1>  -0.6500 
  3 O        0.3690    -0.7570    -1.7600 O.2   1 <1>  -0.6500 
  4 N       -0.8240     0.9920    -0.3320 N.am  1 <1>  -0.8490 
  5 C        1.8810     1.1150    -0.7200 C.3   1 <1>  -0.0550 
  6 C       -2.0650     0.3690    -0.8000 C.3   1 <1>   0.1160 
  7 C       -0.9960     1.4840     1.0390 C.3   1 <1>   0.1160 
  8 C        3.2210     0.4100    -1.0110 C.3   1 <1>  -0.0800 
  9 C        4.3860     1.3400    -1.3160 C.3   1 <1>   0.2200 
 10 C        3.7580    -0.4490     0.1420 C.3   1 <1>   0.1200 
 11 N        4.3880     2.5030    -0.3970 N.am  1 <1>  -0.7300 
 12 C        5.5580     0.4390    -0.9590 C.3   1 <1>   0.1200 
 13 O        5.1420    -0.2460     0.1820 O.3   1 <1>  -0.5600 
 14 C        4.0030     3.7710    -0.7220 C.2   1 <1>   0.5440 
 15 O        3.5070     3.9590    -1.8140 O.2   1 <1>  -0.5700 
 16 C        4.1300     4.8530     0.2310 C.ar  1 <1>   0.0860 
 17 C        5.3360     5.1850     0.8650 C.ar  1 <1>   0.1670 
 18 C        3.0120     5.6100     0.5550 C.ar  1 <1>  -0.1500 
 19 N        5.4700     6.1340     1.7790 N.ar  1 <1>  -0.6200 
 20 C        6.6320     4.4620     0.5340 C.3   1 <1>  -0.0970 
 21 C        3.1450     6.6080     1.4930 C.ar  1 <1>  -0.1500 
 22 C        4.3810     6.8230     2.0730 C.ar  1 <1>   0.1600 
 23 H        1.6600     1.7750    -1.5370 H     1 <1>   0.0800 
 24 H        1.9720     1.7130     0.1650 H     1 <1>   0.0800 
 25 H       -2.8920     1.0490    -0.6830 H     1 <1>   0.0800 
 26 H       -2.2640    -0.5320    -0.2450 H     1 <1>   0.0800 
 27 H       -1.9810     0.1210    -1.8450 H     1 <1>   0.0800 
 28 H       -1.8040     2.1940     1.0780 H     1 <1>   0.0800 
 29 H       -0.0980     1.9740     1.3730 H     1 <1>   0.0800 
 30 H       -1.2140     0.6670     1.7080 H     1 <1>   0.0800 
 31 H        3.0830    -0.2370    -1.8610 H     1 <1>   0.0800 
 32 H        4.4090     1.6610    -2.3440 H     1 <1>   0.0800 
 33 H        3.5620    -1.4970    -0.0150 H     1 <1>   0.0800 
 34 H        3.3560    -0.1460     1.0940 H     1 <1>   0.0800 
 35 H        4.7170     2.2830     0.5470 H     1 <1>   0.3700 
 36 H        6.4600     0.9860    -0.7490 H     1 <1>   0.0800 
 37 H        5.7370    -0.2850    -1.7350 H     1 <1>   0.0800 
 38 H        2.0670     5.4130     0.0770 H     1 <1>   0.1500 
 39 H        6.6600     4.1640    -0.4980 H     1 <1>   0.0800 
 40 H        6.7370     3.5950     1.1600 H     1 <1>   0.0800 
 41 H        7.4710     5.1120     0.7100 H     1 <1>   0.0800 
 42 H        2.3040     7.2150     1.7740 H     1 <1>   0.1500 
 43 H        4.4820     7.6020     2.8110 H     1 <1>   0.1500 
@<TRIPOS>BOND
  1   1   2  2   
  2   1   3  2   
  3   1   4  am  
  4   1   5  1   
  5   4   6  1   
  6   4   7  1   
  7   5   8  1   
  8   5  23  1   
  9   5  24  1   
 10   6  25  1   
 11   6  26  1   
 12   6  27  1   
 13   7  28  1   
 14   7  29  1   
 15   7  30  1   
 16   8   9  1   
 17   8  10  1   
 18   8  31  1   
 19   9  11  1   
 20   9  12  1   
 21   9  32  1   
 22  10  13  1   
 23  10  33  1   
 24  10  34  1   
 25  11  14  am  
 26  11  35  1   
 27  12  13  1   
 28  12  36  1   
 29  12  37  1   
 30  14  15  2   
 31  14  16  1   
 32  16  17  ar  
 33  16  18  ar  
 34  17  19  ar  
 35  17  20  1   
 36  18  21  ar  
 37  18  38  1   
 38  19  22  ar  
 39  20  39  1   
 40  20  40  1   
 41  20  41  1   
 42  21  22  ar  
 43  21  42  1   
 44  22  43  1   
@<TRIPOS>SUBSTRUCTURE
  1 ****  11 GROUP 4 **** **** 0

# MOE 2024.06 (io_trps.svl 2023.06)
