@<TRIPOS>MOLECULE
NONAME
55 56 1 0 0 
SMALL
USER_CHARGES


@<TRIPOS>ATOM
  1 O       -1.4920     0.5220    -2.2490 O.2   1 <1>  -0.5700 
  2 C       -2.2090     1.0110    -1.3960 C.2   1 <1>   0.5440 
  3 N       -3.3280     0.3130    -0.9830 N.am  1 <1>  -0.6600 
  4 C       -1.8790     2.3130    -0.8630 C.ar  1 <1>   0.0860 
  5 C       -3.7390    -0.9370    -1.6860 C.3   1 <1>   0.3200 
  6 C       -4.3180     0.8410     0.0150 C.3   1 <1>   0.1400 
  7 C       -0.9830     2.4740     0.1990 C.ar  1 <1>   0.0830 
  8 C       -2.4630     3.4530    -1.4090 C.ar  1 <1>  -0.1500 
  9 C       -3.7110    -2.1100    -0.7280 C.2   1 <1>  -0.3320 
 10 C       -4.0920     0.3110     1.4420 C.3   1 <1>   0.1200 
 11 O       -0.4080     1.3790     0.7260 O.3   1 <1>  -0.5320 
 12 C       -0.6930     3.7360     0.7190 C.ar  1 <1>  -0.1430 
 13 C       -2.1920     4.7150    -0.9150 C.ar  1 <1>  -0.1430 
 14 N       -2.5950    -2.5860    -0.1400 N.pl3 1 <1>   0.0480 
 15 C       -4.7340    -2.8780    -0.2910 C.2   1 <1>   0.0770 
 16 O       -2.9180     0.8180     1.9720 O.3   1 <1>  -0.6800 
 17 C       -1.3100     4.8400     0.1490 C.ar  1 <1>  -0.1500 
 18 C        0.2650     3.9530     1.8990 C.3   1 <1>   0.0630 
 19 C       -2.8560     5.9400    -1.5400 C.3   1 <1>   0.0630 
 20 C       -3.0260    -3.6110     0.6280 C.2   1 <1>   0.0360 
 21 C       -1.2110    -2.0990    -0.2870 C.3   1 <1>   0.0160 
 22 N       -4.3020    -3.8190     0.5660 N.2   1 <1>  -0.5650 
 23 C       -0.4910     4.5050     3.1110 C.3   1 <1>  -0.2400 
 24 C        1.4250     4.8780     1.5120 C.3   1 <1>  -0.2400 
 25 C       -1.8070     6.8850    -2.1350 C.3   1 <1>  -0.2400 
 26 C       -3.7300     6.6720    -0.5160 C.3   1 <1>  -0.2400 
 27 H       -3.0950    -1.1490    -2.5210 H     1 <1>   0.0800 
 28 H       -4.7340    -0.8100    -2.0760 H     1 <1>   0.0800 
 29 H       -5.3070     0.5540    -0.2960 H     1 <1>   0.0800 
 30 H       -4.2970     1.9160     0.0380 H     1 <1>   0.0800 
 31 H       -3.1390     3.3300    -2.2370 H     1 <1>   0.1500 
 32 H       -4.0400    -0.7630     1.4620 H     1 <1>   0.0800 
 33 H       -4.8950     0.6240     2.0850 H     1 <1>   0.0800 
 34 H        0.2210     1.5850     1.4410 H     1 <1>   0.4500 
 35 H       -5.7770    -2.8030    -0.5490 H     1 <1>   0.1500 
 36 H       -2.1930     0.7540     1.3090 H     1 <1>   0.4000 
 37 H       -1.1060     5.8210     0.5370 H     1 <1>   0.1500 
 38 H        0.7040     3.0210     2.2030 H     1 <1>   0.0800 
 39 H       -3.4960     5.6150    -2.3440 H     1 <1>   0.0800 
 40 H       -2.3510    -4.1910     1.2310 H     1 <1>   0.1500 
 41 H       -0.9930    -1.9440    -1.3280 H     1 <1>   0.0800 
 42 H       -0.5260    -2.8190     0.1200 H     1 <1>   0.0800 
 43 H       -1.1070    -1.1680     0.2380 H     1 <1>   0.0800 
 44 H       -0.9020     5.4760     2.9000 H     1 <1>   0.0800 
 45 H        0.1670     4.5880     3.9580 H     1 <1>   0.0800 
 46 H       -1.2990     3.8430     3.3700 H     1 <1>   0.0800 
 47 H        1.0750     5.8690     1.2890 H     1 <1>   0.0800 
 48 H        1.9290     4.4900     0.6450 H     1 <1>   0.0800 
 49 H        2.1340     4.9430     2.3180 H     1 <1>   0.0800 
 50 H       -1.1690     7.2830    -1.3680 H     1 <1>   0.0800 
 51 H       -2.2870     7.7030    -2.6420 H     1 <1>   0.0800 
 52 H       -1.1980     6.3530    -2.8450 H     1 <1>   0.0800 
 53 H       -3.1330     7.0660     0.2860 H     1 <1>   0.0800 
 54 H       -4.4540     5.9930    -0.1020 H     1 <1>   0.0800 
 55 H       -4.2530     7.4850    -0.9870 H     1 <1>   0.0800 
@<TRIPOS>BOND
  1   1   2  2   
  2   2   3  am  
  3   2   4  1   
  4   3   5  1   
  5   3   6  1   
  6   4   7  ar  
  7   4   8  ar  
  8   5   9  1   
  9   5  27  1   
 10   5  28  1   
 11   6  10  1   
 12   6  29  1   
 13   6  30  1   
 14   7  11  1   
 15   7  12  ar  
 16   8  13  ar  
 17   8  31  1   
 18   9  14  1   
 19   9  15  2   
 20  10  16  1   
 21  10  32  1   
 22  10  33  1   
 23  11  34  1   
 24  12  17  ar  
 25  12  18  1   
 26  13  17  ar  
 27  13  19  1   
 28  14  20  1   
 29  14  21  1   
 30  15  22  1   
 31  15  35  1   
 32  16  36  1   
 33  17  37  1   
 34  18  23  1   
 35  18  24  1   
 36  18  38  1   
 37  19  25  1   
 38  19  26  1   
 39  19  39  1   
 40  20  22  2   
 41  20  40  1   
 42  21  41  1   
 43  21  42  1   
 44  21  43  1   
 45  23  44  1   
 46  23  45  1   
 47  23  46  1   
 48  24  47  1   
 49  24  48  1   
 50  24  49  1   
 51  25  50  1   
 52  25  51  1   
 53  25  52  1   
 54  26  53  1   
 55  26  54  1   
 56  26  55  1   
@<TRIPOS>SUBSTRUCTURE
  1 ****   4 GROUP 4 **** **** 0

# MOE 2024.06 (io_trps.svl 2023.06)
