@<TRIPOS>MOLECULE
NONAME
49 51 1 0 0 
SMALL
USER_CHARGES


@<TRIPOS>ATOM
  1 O       -1.3980     0.0260    -1.7990 O.2   1 <1>  -0.5700 
  2 C       -1.5580     0.9930    -1.0970 C.2   1 <1>   0.5690 
  3 N       -2.3200     1.0390     0.0130 N.am  1 <1>  -0.6600 
  4 C       -0.9370     2.3310    -1.3800 C.3   1 <1>  -0.0990 
  5 C       -2.4080     2.3940     0.5820 C.3   1 <1>   0.1400 
  6 C       -3.2450    -0.0350     0.4580 C.3   1 <1>   0.2840 
  7 C       -1.2620     3.1460    -0.1120 C.3   1 <1>  -0.0190 
  8 C       -4.6950     0.3620     0.2100 C.ar  1 <1>   0.1660 
  9 C       -1.6120     4.5960    -0.4020 C.2   1 <1>   0.5690 
 10 N       -5.4030     0.7650     1.2580 N.ar  1 <1>  -0.6200 
 11 C       -5.1930     0.2950    -1.0830 C.ar  1 <1>  -0.1500 
 12 O       -2.6180     4.8380    -1.0230 O.2   1 <1>  -0.5700 
 13 N       -0.7490     5.5620     0.0410 N.am  1 <1>  -0.4940 
 14 C       -6.6560     1.1090     1.0030 C.ar  1 <1>   0.1600 
 15 C       -6.4990     0.6570    -1.3320 C.ar  1 <1>  -0.1500 
 16 C       -0.7220     6.9640    -0.1090 C.2   1 <1>  -0.0880 
 17 C       -7.2430     1.0740    -0.2500 C.ar  1 <1>  -0.1500 
 18 N       -1.7710     7.8110    -0.2350 N.pl3 1 <1>   0.0480 
 19 C        0.4190     7.7260    -0.1480 C.2   1 <1>   0.1410 
 20 C       -1.2040     9.0370    -0.3860 C.2   1 <1>   0.0360 
 21 C       -3.2230     7.5110    -0.1390 C.3   1 <1>   0.0960 
 22 N        0.0830     9.0380    -0.3390 N.2   1 <1>  -0.5650 
 23 C        1.7820     7.2610    -0.0090 C.2   1 <1>   0.7160 
 24 C       -4.0450     8.6760     0.4310 C.3   1 <1>  -0.1600 
 25 O        2.0500     6.0960     0.2430 O.2   1 <1>  -0.5700 
 26 N        2.8280     8.1100    -0.1410 N.am  1 <1>  -0.8000 
 27 C       -5.5070     8.2630     0.6370 C.3   1 <1>  -0.2400 
 28 H       -1.4080     2.7480    -2.2520 H     1 <1>   0.0800 
 29 H        0.1210     2.2370    -1.5400 H     1 <1>   0.0800 
 30 H       -2.2840     2.3720     1.6510 H     1 <1>   0.0800 
 31 H       -3.3680     2.8190     0.3360 H     1 <1>   0.0800 
 32 H       -3.0950    -0.2230     1.5070 H     1 <1>   0.0800 
 33 H       -3.0280    -0.9430    -0.0780 H     1 <1>   0.0800 
 34 H       -0.4110     3.1080     0.5440 H     1 <1>   0.0800 
 35 H       -4.5570    -0.0340    -1.8870 H     1 <1>   0.1500 
 36 H        0.1540     5.1970     0.3730 H     1 <1>   0.3700 
 37 H       -7.2490     1.4360     1.8390 H     1 <1>   0.1500 
 38 H       -6.9140     0.6180    -2.3250 H     1 <1>   0.1500 
 39 H       -8.2680     1.3720    -0.3750 H     1 <1>   0.1500 
 40 H       -1.7970     9.9230    -0.5270 H     1 <1>   0.1500 
 41 H       -3.3440     6.6590     0.5060 H     1 <1>   0.0800 
 42 H       -3.5810     7.2470    -1.1180 H     1 <1>   0.0800 
 43 H       -4.0180     9.5110    -0.2480 H     1 <1>   0.0800 
 44 H       -3.6320     8.9810     1.3780 H     1 <1>   0.0800 
 45 H        3.7850     7.7920    -0.0050 H     1 <1>   0.3700 
 46 H        2.6570     9.1020    -0.3130 H     1 <1>   0.3700 
 47 H       -5.9500     7.9660    -0.2980 H     1 <1>   0.0800 
 48 H       -6.0710     9.0880     1.0350 H     1 <1>   0.0800 
 49 H       -5.5740     7.4410     1.3280 H     1 <1>   0.0800 
@<TRIPOS>BOND
  1   1   2  2   
  2   2   3  am  
  3   2   4  1   
  4   3   5  1   
  5   3   6  1   
  6   4   7  1   
  7   4  28  1   
  8   4  29  1   
  9   5   7  1   
 10   5  30  1   
 11   5  31  1   
 12   6   8  1   
 13   6  32  1   
 14   6  33  1   
 15   7   9  1   
 16   7  34  1   
 17   8  10  ar  
 18   8  11  ar  
 19   9  12  2   
 20   9  13  am  
 21  10  14  ar  
 22  11  15  ar  
 23  11  35  1   
 24  13  16  1   
 25  13  36  1   
 26  14  17  ar  
 27  14  37  1   
 28  15  17  ar  
 29  15  38  1   
 30  16  18  1   
 31  16  19  2   
 32  17  39  1   
 33  18  20  1   
 34  18  21  1   
 35  19  22  1   
 36  19  23  1   
 37  20  22  2   
 38  20  40  1   
 39  21  24  1   
 40  21  41  1   
 41  21  42  1   
 42  23  25  2   
 43  23  26  am  
 44  24  27  1   
 45  24  43  1   
 46  24  44  1   
 47  26  45  1   
 48  26  46  1   
 49  27  47  1   
 50  27  48  1   
 51  27  49  1   
@<TRIPOS>SUBSTRUCTURE
  1 ****   9 GROUP 4 **** **** 0

# MOE 2024.06 (io_trps.svl 2023.06)
