@<TRIPOS>MOLECULE
NONAME
54 56 1 0 0 
SMALL
USER_CHARGES


@<TRIPOS>ATOM
  1 O       -0.4240     1.1110    -1.1290 O.2   1 <1>  -0.5700 
  2 C       -0.5850     2.3090    -1.1120 C.2   1 <1>   0.5690 
  3 N       -1.3130     2.9680    -0.1520 N.am  1 <1>  -0.6600 
  4 C        0.0670     3.1220    -2.2270 C.3   1 <1>   0.1810 
  5 C       -1.4270     4.4660    -0.1800 C.3   1 <1>   0.3640 
  6 C       -1.9340     2.3180     1.0360 C.3   1 <1>   0.2200 
  7 O        0.4900     4.3770    -1.7660 O.3   1 <1>  -0.5600 
  8 C       -2.8900     4.8780    -0.3520 C.ar  1 <1>  -0.1440 
  9 C       -0.5610     5.1790    -1.2530 C.3   1 <1>   0.2610 
 10 C       -0.8470     1.7580     1.9530 C.3   1 <1>  -0.2400 
 11 C       -2.9460     1.2460     0.6290 C.3   1 <1>  -0.2400 
 12 C       -3.7220     4.2370    -1.2610 C.ar  1 <1>  -0.1500 
 13 C       -3.4010     5.9240     0.4050 C.ar  1 <1>  -0.1500 
 14 C       -0.0380     6.4980    -0.6660 C.2   1 <1>   0.5690 
 15 C       -5.0420     4.6270    -1.4050 C.ar  1 <1>  -0.1500 
 16 C       -4.7210     6.3160     0.2610 C.ar  1 <1>  -0.1500 
 17 O       -0.6420     7.5020    -0.9690 O.2   1 <1>  -0.5700 
 18 N        1.0440     6.5570     0.1940 N.am  1 <1>  -0.6600 
 19 C       -5.5430     5.6670    -0.6430 C.ar  1 <1>  -0.1500 
 20 C        1.5700     7.8790     0.6580 C.3   1 <1>   0.1400 
 21 C        1.8360     5.3690     0.6310 C.3   1 <1>   0.0600 
 22 C        2.7820     8.3470    -0.1680 C.3   1 <1>   0.0000 
 23 C        4.1140     7.6910     0.2310 C.3   1 <1>   0.2580 
 24 C        3.4420     9.6000     0.4330 C.3   1 <1>   0.2580 
 25 C        2.5490     8.4450    -1.6910 C.3   1 <1>  -0.2400 
 26 O        4.7040     8.9840     0.2100 O.3   1 <1>  -0.5160 
 27 H       -0.6260     3.2610    -3.0370 H     1 <1>   0.0800 
 28 H        0.9320     2.5990    -2.5920 H     1 <1>   0.0800 
 29 H       -1.1020     4.8180     0.7830 H     1 <1>   0.0800 
 30 H       -2.4750     3.0650     1.5940 H     1 <1>   0.0800 
 31 H       -1.1880     5.4300    -2.0900 H     1 <1>   0.0800 
 32 H       -0.3140     0.9590     1.4680 H     1 <1>   0.0800 
 33 H       -1.2930     1.3670     2.8490 H     1 <1>   0.0800 
 34 H       -0.1550     2.5320     2.2270 H     1 <1>   0.0800 
 35 H       -2.4650     0.4150     0.1490 H     1 <1>   0.0800 
 36 H       -3.6830     1.6620    -0.0330 H     1 <1>   0.0800 
 37 H       -3.4520     0.8770     1.5020 H     1 <1>   0.0800 
 38 H       -3.3490     3.4250    -1.8610 H     1 <1>   0.1500 
 39 H       -2.7760     6.4490     1.1070 H     1 <1>   0.1500 
 40 H       -5.6790     4.1220    -2.1090 H     1 <1>   0.1500 
 41 H       -5.1080     7.1290     0.8510 H     1 <1>   0.1500 
 42 H       -6.5690     5.9720    -0.7540 H     1 <1>   0.1500 
 43 H        0.7960     8.6240     0.5820 H     1 <1>   0.0800 
 44 H        1.8360     7.8080     1.6990 H     1 <1>   0.0800 
 45 H        2.2730     5.5450     1.5980 H     1 <1>   0.0800 
 46 H        2.6200     5.1780    -0.0820 H     1 <1>   0.0800 
 47 H        1.2160     4.4930     0.6990 H     1 <1>   0.0800 
 48 H        4.5590     7.0610    -0.5180 H     1 <1>   0.0000 
 49 H        4.1460     7.2930     1.2320 H     1 <1>   0.0000 
 50 H        3.2860     9.7380     1.4890 H     1 <1>   0.0000 
 51 H        3.3520    10.4960    -0.1550 H     1 <1>   0.0000 
 52 H        2.3580     7.4700    -2.1020 H     1 <1>   0.0800 
 53 H        3.4110     8.8580    -2.1840 H     1 <1>   0.0800 
 54 H        1.7000     9.0730    -1.8950 H     1 <1>   0.0800 
@<TRIPOS>BOND
  1   1   2  2   
  2   2   3  am  
  3   2   4  1   
  4   3   5  1   
  5   3   6  1   
  6   4   7  1   
  7   4  27  1   
  8   4  28  1   
  9   5   8  1   
 10   5   9  1   
 11   5  29  1   
 12   6  10  1   
 13   6  11  1   
 14   6  30  1   
 15   7   9  1   
 16   8  12  ar  
 17   8  13  ar  
 18   9  14  1   
 19   9  31  1   
 20  10  32  1   
 21  10  33  1   
 22  10  34  1   
 23  11  35  1   
 24  11  36  1   
 25  11  37  1   
 26  12  15  ar  
 27  12  38  1   
 28  13  16  ar  
 29  13  39  1   
 30  14  17  2   
 31  14  18  am  
 32  15  19  ar  
 33  15  40  1   
 34  16  19  ar  
 35  16  41  1   
 36  18  20  1   
 37  18  21  1   
 38  19  42  1   
 39  20  22  1   
 40  20  43  1   
 41  20  44  1   
 42  21  45  1   
 43  21  46  1   
 44  21  47  1   
 45  22  23  1   
 46  22  24  1   
 47  22  25  1   
 48  23  26  1   
 49  23  48  1   
 50  23  49  1   
 51  24  26  1   
 52  24  50  1   
 53  24  51  1   
 54  25  52  1   
 55  25  53  1   
 56  25  54  1   
@<TRIPOS>SUBSTRUCTURE
  1 ****   9 GROUP 4 **** **** 0

# MOE 2024.06 (io_trps.svl 2023.06)
