@<TRIPOS>MOLECULE
NONAME
41 43 1 0 0 
SMALL
USER_CHARGES


@<TRIPOS>ATOM
  1 O       -0.5430     1.1850    -1.4100 O.2   1 <1>  -0.5700 
  2 C        0.3310     0.3590    -1.3220 C.2   1 <1>   0.5690 
  3 N        1.5870     0.6190    -0.8480 N.am  1 <1>  -0.4940 
  4 C        0.0190    -1.0620    -1.7530 C.3   1 <1>  -0.0990 
  5 C        2.1370     1.8510    -0.4110 C.2   1 <1>  -0.0880 
  6 C        0.0140    -2.0410    -0.5660 C.3   1 <1>  -0.1600 
  7 N        3.3170     1.9970     0.2560 N.pl3 1 <1>   0.3140 
  8 C        1.6340     3.0990    -0.5670 C.2   1 <1>  -0.1500 
  9 C       -0.3640    -3.4620    -1.0080 C.3   1 <1>   0.0960 
 10 N        3.5790     3.3060     0.5060 N.2   1 <1>  -0.7070 
 11 C        4.2280     0.8900     0.6720 C.3   1 <1>   0.1760 
 12 C        2.5650     3.9470     0.0150 C.2   1 <1>   0.1390 
 13 N       -0.1970    -4.4110     0.1090 N.pl3 1 <1>   0.3140 
 14 C        4.9760     1.1330     1.9840 C.3   1 <1>  -0.1600 
 15 C        5.3440     0.6390    -0.3420 C.3   1 <1>  -0.1600 
 16 N        0.9910    -4.8620     0.4880 N.2   1 <1>  -0.7070 
 17 C       -1.1310    -4.9500     0.8980 C.2   1 <1>   0.0360 
 18 C        6.1540     0.1590     1.9320 C.3   1 <1>  -0.1600 
 19 C        6.4590    -0.0610     0.4440 C.3   1 <1>  -0.1600 
 20 C        0.6880    -5.6420     1.4740 C.2   1 <1>   0.3660 
 21 N       -0.6140    -5.7330     1.7740 N.2   1 <1>  -0.5650 
 22 H        2.2080    -0.1870    -0.8130 H     1 <1>   0.3700 
 23 H        0.7440    -1.3670    -2.4860 H     1 <1>   0.0800 
 24 H       -0.9480    -1.0650    -2.2270 H     1 <1>   0.0800 
 25 H       -0.6910    -1.6970     0.1730 H     1 <1>   0.0800 
 26 H        0.9920    -2.0620    -0.1170 H     1 <1>   0.0800 
 27 H        0.7150     3.3930    -1.0400 H     1 <1>   0.1500 
 28 H        0.2750    -3.7850    -1.8100 H     1 <1>   0.0800 
 29 H       -1.3840    -3.4940    -1.3450 H     1 <1>   0.0800 
 30 H        3.6480    -0.0070     0.7850 H     1 <1>   0.0800 
 31 H        2.4650     5.0190     0.0570 H     1 <1>   0.1500 
 32 H        4.3500     0.9650     2.8420 H     1 <1>   0.0800 
 33 H        5.3610     2.1390     2.0120 H     1 <1>   0.0800 
 34 H        5.7130     1.5850    -0.7030 H     1 <1>   0.0800 
 35 H        5.0070     0.0450    -1.1720 H     1 <1>   0.0800 
 36 H       -2.1810    -4.7410     0.7970 H     1 <1>   0.1500 
 37 H        5.8690    -0.7770     2.3830 H     1 <1>   0.0800 
 38 H        7.0070     0.5520     2.4590 H     1 <1>   0.0800 
 39 H        7.4170     0.3560     0.1840 H     1 <1>   0.0800 
 40 H        6.4710    -1.1160     0.2260 H     1 <1>   0.0800 
 41 H        1.4210    -6.1970     2.0380 H     1 <1>   0.1500 
@<TRIPOS>BOND
  1   1   2  2   
  2   2   3  am  
  3   2   4  1   
  4   3   5  1   
  5   3  22  1   
  6   4   6  1   
  7   4  23  1   
  8   4  24  1   
  9   5   7  1   
 10   5   8  2   
 11   6   9  1   
 12   6  25  1   
 13   6  26  1   
 14   7  10  1   
 15   7  11  1   
 16   8  12  1   
 17   8  27  1   
 18   9  13  1   
 19   9  28  1   
 20   9  29  1   
 21  10  12  2   
 22  11  14  1   
 23  11  15  1   
 24  11  30  1   
 25  12  31  1   
 26  13  16  1   
 27  13  17  1   
 28  14  18  1   
 29  14  32  1   
 30  14  33  1   
 31  15  19  1   
 32  15  34  1   
 33  15  35  1   
 34  16  20  2   
 35  17  21  2   
 36  17  36  1   
 37  18  19  1   
 38  18  37  1   
 39  18  38  1   
 40  19  39  1   
 41  19  40  1   
 42  20  21  1   
 43  20  41  1   
@<TRIPOS>SUBSTRUCTURE
  1 ****   3 GROUP 4 **** **** 0

# MOE 2024.06 (io_trps.svl 2023.06)
