@<TRIPOS>MOLECULE
NONAME
41 43 1 0 0 
SMALL
USER_CHARGES


@<TRIPOS>ATOM
  1 O        0.0730    -0.0290    -0.6760 O.2   1 <1>  -0.5700 
  2 C        1.1220    -0.6350    -0.5710 C.2   1 <1>   0.5440 
  3 N        2.3040     0.0440    -0.4250 N.am  1 <1>  -0.4930 
  4 C        1.1260    -2.0800    -0.5750 C.ar  1 <1>   0.0860 
  5 C        2.5560     1.4390    -0.4540 C.2   1 <1>   0.0630 
  6 C        2.1130    -2.7980    -1.2440 C.ar  1 <1>   0.1600 
  7 C        0.1570    -2.8170     0.0880 C.ar  1 <1>  -0.1500 
  8 C        3.7480     2.0380    -0.2390 C.2   1 <1>  -0.3320 
  9 C        1.6720     2.4890    -0.7060 C.2   1 <1>   0.1390 
 10 N        2.2260    -4.1130    -1.2760 N.ar  1 <1>  -0.6200 
 11 C        0.2420    -4.1940     0.0660 C.ar  1 <1>  -0.1430 
 12 N        3.5380     3.3750    -0.3640 N.pl3 1 <1>   0.3140 
 13 C        5.1000     1.4150     0.0830 C.3   1 <1>  -0.0600 
 14 N        2.2550     3.6490    -0.6560 N.2   1 <1>  -0.7070 
 15 C        1.2950    -4.7920    -0.6230 C.ar  1 <1>   0.1670 
 16 C       -0.8150    -5.0070     0.8060 C.3   1 <1>  -0.0170 
 17 C        4.5270     4.4660    -0.2190 C.3   1 <1>   0.0960 
 18 C        1.4350    -6.3070    -0.6910 C.3   1 <1>  -0.0170 
 19 C       -0.8500    -6.4710     0.3570 C.3   1 <1>  -0.1600 
 20 C        4.6440     4.9200     1.2410 C.3   1 <1>  -0.2400 
 21 C        0.5660    -7.0530     0.3310 C.3   1 <1>  -0.1600 
 22 H        3.1220    -0.5140    -0.1980 H     1 <1>   0.3700 
 23 H        2.8560    -2.2480    -1.7950 H     1 <1>   0.1500 
 24 H       -0.6380    -2.3100     0.6080 H     1 <1>   0.1500 
 25 H        0.6250     2.3600    -0.9190 H     1 <1>   0.1500 
 26 H        5.0250     0.3450     0.1420 H     1 <1>   0.0800 
 27 H        5.4610     1.7800     1.0280 H     1 <1>   0.0800 
 28 H        5.8140     1.6630    -0.6830 H     1 <1>   0.0800 
 29 H       -1.7860    -4.5680     0.6530 H     1 <1>   0.0800 
 30 H       -0.5970    -4.9660     1.8590 H     1 <1>   0.0800 
 31 H        4.2030     5.2890    -0.8310 H     1 <1>   0.0800 
 32 H        5.4770     4.1250    -0.5850 H     1 <1>   0.0800 
 33 H        2.4660    -6.5740    -0.5400 H     1 <1>   0.0800 
 34 H        1.1600    -6.6160    -1.6840 H     1 <1>   0.0800 
 35 H       -1.2820    -6.5340    -0.6280 H     1 <1>   0.0800 
 36 H       -1.4690    -7.0390     1.0290 H     1 <1>   0.0800 
 37 H        3.6890     5.2740     1.5910 H     1 <1>   0.0800 
 38 H        5.3540     5.7230     1.3180 H     1 <1>   0.0800 
 39 H        4.9710     4.1080     1.8660 H     1 <1>   0.0800 
 40 H        1.0080    -6.9610     1.3080 H     1 <1>   0.0800 
 41 H        0.5310    -8.0980     0.0780 H     1 <1>   0.0800 
@<TRIPOS>BOND
  1   1   2  2   
  2   2   3  am  
  3   2   4  1   
  4   3   5  1   
  5   3  22  1   
  6   4   6  ar  
  7   4   7  ar  
  8   5   8  2   
  9   5   9  1   
 10   6  10  ar  
 11   6  23  1   
 12   7  11  ar  
 13   7  24  1   
 14   8  12  1   
 15   8  13  1   
 16   9  14  2   
 17   9  25  1   
 18  10  15  ar  
 19  11  15  ar  
 20  11  16  1   
 21  12  14  1   
 22  12  17  1   
 23  13  26  1   
 24  13  27  1   
 25  13  28  1   
 26  15  18  1   
 27  16  19  1   
 28  16  29  1   
 29  16  30  1   
 30  17  20  1   
 31  17  31  1   
 32  17  32  1   
 33  18  21  1   
 34  18  33  1   
 35  18  34  1   
 36  19  21  1   
 37  19  35  1   
 38  19  36  1   
 39  20  37  1   
 40  20  38  1   
 41  20  39  1   
 42  21  40  1   
 43  21  41  1   
@<TRIPOS>SUBSTRUCTURE
  1 ****   2 GROUP 4 **** **** 0

# MOE 2024.06 (io_trps.svl 2023.06)
