@<TRIPOS>MOLECULE
NONAME
53 54 1 0 0 
SMALL
USER_CHARGES


@<TRIPOS>ATOM
  1 F       -0.0290     0.8970     0.6250 F     1 <1>  -0.1900 
  2 C       -1.3240     1.0520     0.5260 C.ar  1 <1>   0.1900 
  3 C       -1.8940     2.0170    -0.3130 C.ar  1 <1>   0.0830 
  4 C       -2.1040     0.2130     1.2970 C.ar  1 <1>  -0.1500 
  5 O       -1.2350     2.9000    -1.1170 O.3   1 <1>  -0.3630 
  6 C       -3.2770     2.1030    -0.3450 C.ar  1 <1>  -0.1500 
  7 C       -3.4810     0.3260     1.2410 C.ar  1 <1>  -0.1500 
  8 C        0.1690     2.9230    -1.2450 C.3   1 <1>   0.0400 
  9 C       -4.0970     1.2690     0.4160 C.ar  1 <1>   0.0530 
 10 C       -5.5310     1.4010     0.3550 C.2   1 <1>   0.0870 
 11 O       -6.0630     2.5970     0.3410 O.3   1 <1>  -0.0190 
 12 C       -6.5590     0.5080     0.3120 C.2   1 <1>  -0.0860 
 13 N       -7.3680     2.5760     0.3050 N.2   1 <1>  -0.4100 
 14 C       -7.6930     1.3320     0.2900 C.2   1 <1>   0.3720 
 15 C       -6.5580    -0.9240     0.2790 C.2   1 <1>   0.7160 
 16 N       -9.0270     0.8960     0.2380 N.pl3 1 <1>  -0.8210 
 17 O       -5.5380    -1.5650     0.1140 O.2   1 <1>  -0.5700 
 18 N       -7.7200    -1.6080     0.4430 N.am  1 <1>  -0.7300 
 19 C       -9.9090     1.5610     1.2380 C.3   1 <1>   0.1290 
 20 C       -9.6000     0.9940    -1.1330 C.3   1 <1>   0.1290 
 21 C       -7.9130    -3.0670     0.2790 C.3   1 <1>   0.2200 
 22 C       -7.6090    -3.7740     1.6170 C.3   1 <1>   0.1200 
 23 C       -9.3460    -3.3150    -0.2330 C.3   1 <1>  -0.1600 
 24 O       -8.3130    -3.1810     2.6590 O.3   1 <1>  -0.6800 
 25 C       -9.4570    -4.4580    -1.2620 C.3   1 <1>  -0.0800 
 26 C      -10.9010    -4.5530    -1.7700 C.3   1 <1>  -0.2400 
 27 C       -9.0300    -5.8180    -0.6940 C.3   1 <1>  -0.2400 
 28 H       -1.6380    -0.5200     1.9320 H     1 <1>   0.1500 
 29 H       -3.7280     2.8410    -0.9840 H     1 <1>   0.1500 
 30 H       -4.0870    -0.3270     1.8440 H     1 <1>   0.1500 
 31 H        0.4280     3.6890    -1.9540 H     1 <1>   0.0800 
 32 H        0.5050     1.9660    -1.6040 H     1 <1>   0.0800 
 33 H        0.6040     3.1520    -0.2880 H     1 <1>   0.0800 
 34 H       -8.5690    -1.0240     0.4750 H     1 <1>   0.3700 
 35 H      -10.8470     1.0380     1.3090 H     1 <1>   0.0800 
 36 H      -10.0940     2.5830     0.9520 H     1 <1>   0.0800 
 37 H       -9.4360     1.5550     2.2050 H     1 <1>   0.0800 
 38 H      -10.5740     0.5370    -1.1600 H     1 <1>   0.0800 
 39 H       -8.9600     0.4860    -1.8350 H     1 <1>   0.0800 
 40 H       -9.6830     2.0270    -1.4260 H     1 <1>   0.0800 
 41 H       -7.2130    -3.4180    -0.4610 H     1 <1>   0.0800 
 42 H       -6.5580    -3.6950     1.8380 H     1 <1>   0.0800 
 43 H       -7.8750    -4.8150     1.5860 H     1 <1>   0.0800 
 44 H      -10.0000    -3.5130     0.5990 H     1 <1>   0.0800 
 45 H       -9.7020    -2.4210    -0.7150 H     1 <1>   0.0800 
 46 H       -8.1770    -2.2130     2.6070 H     1 <1>   0.4000 
 47 H       -8.8240    -4.2280    -2.1040 H     1 <1>   0.0800 
 48 H      -11.5720    -4.7880    -0.9630 H     1 <1>   0.0800 
 49 H      -10.9850    -5.3200    -2.5190 H     1 <1>   0.0800 
 50 H      -11.2070    -3.6210    -2.2110 H     1 <1>   0.0800 
 51 H       -9.5850    -6.0470     0.1990 H     1 <1>   0.0800 
 52 H       -7.9800    -5.8250    -0.4670 H     1 <1>   0.0800 
 53 H       -9.2110    -6.5960    -1.4150 H     1 <1>   0.0800 
@<TRIPOS>BOND
  1   1   2  1   
  2   2   3  ar  
  3   2   4  ar  
  4   3   5  1   
  5   3   6  ar  
  6   4   7  ar  
  7   4  28  1   
  8   5   8  1   
  9   6   9  ar  
 10   6  29  1   
 11   7   9  ar  
 12   7  30  1   
 13   8  31  1   
 14   8  32  1   
 15   8  33  1   
 16   9  10  1   
 17  10  11  1   
 18  10  12  2   
 19  11  13  1   
 20  12  14  1   
 21  12  15  1   
 22  13  14  2   
 23  14  16  1   
 24  15  17  2   
 25  15  18  am  
 26  16  19  1   
 27  16  20  1   
 28  18  21  1   
 29  18  34  1   
 30  19  35  1   
 31  19  36  1   
 32  19  37  1   
 33  20  38  1   
 34  20  39  1   
 35  20  40  1   
 36  21  22  1   
 37  21  23  1   
 38  21  41  1   
 39  22  24  1   
 40  22  42  1   
 41  22  43  1   
 42  23  25  1   
 43  23  44  1   
 44  23  45  1   
 45  24  46  1   
 46  25  26  1   
 47  25  27  1   
 48  25  47  1   
 49  26  48  1   
 50  26  49  1   
 51  26  50  1   
 52  27  51  1   
 53  27  52  1   
 54  27  53  1   
@<TRIPOS>SUBSTRUCTURE
  1 ****  15 GROUP 4 **** **** 0

# MOE 2024.06 (io_trps.svl 2023.06)
