@<TRIPOS>MOLECULE
NONAME
40 42 1 0 0 
SMALL
USER_CHARGES


@<TRIPOS>ATOM
  1 F       -1.0200    -0.2970    -1.2420 F     1 <1>  -0.1900 
  2 C       -2.0260    -0.9410    -0.7200 C.ar  1 <1>   0.1900 
  3 C       -3.1270    -0.2350    -0.2990 C.ar  1 <1>  -0.1500 
  4 C       -1.9450    -2.3190    -0.6090 C.ar  1 <1>  -0.1500 
  5 C       -4.2000    -0.9250     0.2560 C.ar  1 <1>   0.1170 
  6 C       -3.0090    -3.0030    -0.0590 C.ar  1 <1>  -0.1500 
  7 N       -5.3260    -0.2370     0.6880 N.am  1 <1>  -0.5470 
  8 C       -4.1590    -2.3310     0.3840 C.ar  1 <1>   0.0280 
  9 C       -6.4050    -0.8510     1.2380 C.2   1 <1>   0.6160 
 10 C       -5.3010    -3.0050     0.9590 C.2   1 <1>  -0.0140 
 11 O       -7.3540    -0.1730     1.5800 O.2   1 <1>  -0.5700 
 12 C       -6.3680    -2.2610     1.3690 C.2   1 <1>  -0.1360 
 13 C       -5.3080    -4.4440     1.0940 C.2   1 <1>   0.6160 
 14 O       -4.5480    -4.9710     1.8830 O.2   1 <1>  -0.5700 
 15 N       -6.1640    -5.2370     0.3620 N.am  1 <1>  -0.6600 
 16 C       -6.2890    -6.7010     0.6800 C.3   1 <1>   0.1400 
 17 C       -7.0020    -4.7370    -0.7620 C.3   1 <1>   0.1400 
 18 C       -7.6440    -7.3090     0.2620 C.3   1 <1>   0.2000 
 19 C       -8.4910    -5.0110    -0.4930 C.3   1 <1>  -0.1600 
 20 O       -7.5700    -7.7700    -1.0450 O.3   1 <1>  -0.6800 
 21 C       -8.7750    -6.2680     0.3700 C.3   1 <1>  -0.0800 
 22 C      -10.1400    -6.8970     0.0510 C.3   1 <1>   0.1200 
 23 O      -11.1410    -5.9540     0.2280 O.3   1 <1>  -0.6800 
 24 H       -3.1510     0.8340    -0.4000 H     1 <1>   0.1500 
 25 H       -1.0630    -2.8320    -0.9480 H     1 <1>   0.1500 
 26 H       -2.9420    -4.0740     0.0330 H     1 <1>   0.1500 
 27 H       -5.3900     0.7790     0.6250 H     1 <1>   0.3700 
 28 H       -7.2350    -2.7110     1.8130 H     1 <1>   0.1500 
 29 H       -5.4820    -7.2460     0.2210 H     1 <1>   0.0800 
 30 H       -6.1930    -6.8200     1.7450 H     1 <1>   0.0800 
 31 H       -6.8510    -3.6860    -0.9340 H     1 <1>   0.0800 
 32 H       -6.6980    -5.2480    -1.6590 H     1 <1>   0.0800 
 33 H       -7.8550    -8.1640     0.8810 H     1 <1>   0.0800 
 34 H       -8.9230    -4.1540    -0.0060 H     1 <1>   0.0800 
 35 H       -8.9860    -5.1020    -1.4440 H     1 <1>   0.0800 
 36 H       -7.3680    -7.0280    -1.6430 H     1 <1>   0.4000 
 37 H       -8.7940    -5.9610     1.4020 H     1 <1>   0.0800 
 38 H      -10.3450    -7.7340     0.6970 H     1 <1>   0.0800 
 39 H      -10.1790    -7.2300    -0.9730 H     1 <1>   0.0800 
 40 H      -11.2020    -5.6830     1.1640 H     1 <1>   0.4000 
@<TRIPOS>BOND
  1   1   2  1   
  2   2   3  ar  
  3   2   4  ar  
  4   3   5  ar  
  5   3  24  1   
  6   4   6  ar  
  7   4  25  1   
  8   5   7  1   
  9   5   8  ar  
 10   6   8  ar  
 11   6  26  1   
 12   7   9  am  
 13   7  27  1   
 14   8  10  1   
 15   9  11  2   
 16   9  12  1   
 17  10  12  2   
 18  10  13  1   
 19  12  28  1   
 20  13  14  2   
 21  13  15  am  
 22  15  16  1   
 23  15  17  1   
 24  16  18  1   
 25  16  29  1   
 26  16  30  1   
 27  17  19  1   
 28  17  31  1   
 29  17  32  1   
 30  18  20  1   
 31  18  21  1   
 32  18  33  1   
 33  19  21  1   
 34  19  34  1   
 35  19  35  1   
 36  20  36  1   
 37  21  22  1   
 38  21  37  1   
 39  22  23  1   
 40  22  38  1   
 41  22  39  1   
 42  23  40  1   
@<TRIPOS>SUBSTRUCTURE
  1 ****  10 GROUP 4 **** **** 0

# MOE 2024.06 (io_trps.svl 2023.06)
