@<TRIPOS>MOLECULE
NONAME
40 41 1 0 0 
SMALL
USER_CHARGES


@<TRIPOS>ATOM
  1 S        0.3290     0.6500     0.2630 S.o2  1 <1>   1.3330 
  2 O        0.0830     0.2870     1.6400 O.2   1 <1>  -0.6500 
  3 O        0.1450     2.0180    -0.1640 O.2   1 <1>  -0.6500 
  4 N       -0.6400    -0.3430    -0.7150 N.am  1 <1>  -0.8490 
  5 C        1.9860     0.1640    -0.2190 C.3   1 <1>  -0.0550 
  6 C       -1.9360     0.2740    -1.0180 C.3   1 <1>   0.1160 
  7 C       -0.8490    -1.6830    -0.1540 C.3   1 <1>   0.1160 
  8 C        3.0950     0.8980     0.5620 C.3   1 <1>  -0.0800 
  9 C        4.4550     0.6890    -0.0890 C.3   1 <1>   0.2890 
 10 C        3.3260     0.2600     1.9300 C.3   1 <1>   0.1200 
 11 N        5.3840     1.7620     0.3300 N.pl3 1 <1>  -0.8690 
 12 C        4.9030    -0.6430     0.5180 C.3   1 <1>   0.1200 
 13 O        4.1640    -0.8290     1.6940 O.3   1 <1>  -0.5600 
 14 C        5.2890     3.0700    -0.0330 C.ar  1 <1>   0.4100 
 15 N        5.6900     3.9160     0.8840 N.ar  1 <1>  -0.6200 
 16 C        4.8080     3.5020    -1.2540 C.ar  1 <1>  -0.1500 
 17 C        5.6040     5.1920     0.5640 C.ar  1 <1>   0.4770 
 18 C        4.7620     4.8510    -1.4720 C.ar  1 <1>   0.1600 
 19 N        5.1610     5.7200    -0.5640 N.ar  1 <1>  -0.6200 
 20 C        6.0620     6.1730     1.6160 C.3   1 <1>  -0.0970 
 21 H        2.1000    -0.8950    -0.0920 H     1 <1>   0.0800 
 22 H        2.0960     0.3800    -1.2640 H     1 <1>   0.0800 
 23 H       -2.5200    -0.3740    -1.6490 H     1 <1>   0.0800 
 24 H       -1.7880     1.2060    -1.5380 H     1 <1>   0.0800 
 25 H       -2.4790     0.4690    -0.1080 H     1 <1>   0.0800 
 26 H       -1.3920    -2.2960    -0.8530 H     1 <1>   0.0800 
 27 H       -1.4080    -1.6230     0.7660 H     1 <1>   0.0800 
 28 H        0.0960    -2.1550     0.0490 H     1 <1>   0.0800 
 29 H        2.8470     1.9430     0.6460 H     1 <1>   0.0800 
 30 H        4.4150     0.6410    -1.1640 H     1 <1>   0.0800 
 31 H        2.4270    -0.0820     2.4120 H     1 <1>   0.0800 
 32 H        3.8450     0.9400     2.5840 H     1 <1>   0.0800 
 33 H        5.7170     1.6600     1.2930 H     1 <1>   0.4000 
 34 H        5.9530    -0.6520     0.7510 H     1 <1>   0.0800 
 35 H        4.6690    -1.4600    -0.1410 H     1 <1>   0.0800 
 36 H        4.4880     2.8060    -2.0000 H     1 <1>   0.1500 
 37 H        4.3930     5.2390    -2.4070 H     1 <1>   0.1500 
 38 H        6.4990     7.0360     1.1480 H     1 <1>   0.0800 
 39 H        6.7940     5.7170     2.2560 H     1 <1>   0.0800 
 40 H        5.2190     6.4800     2.2050 H     1 <1>   0.0800 
@<TRIPOS>BOND
  1   1   2  2   
  2   1   3  2   
  3   1   4  am  
  4   1   5  1   
  5   4   6  1   
  6   4   7  1   
  7   5   8  1   
  8   5  21  1   
  9   5  22  1   
 10   6  23  1   
 11   6  24  1   
 12   6  25  1   
 13   7  26  1   
 14   7  27  1   
 15   7  28  1   
 16   8   9  1   
 17   8  10  1   
 18   8  29  1   
 19   9  11  1   
 20   9  12  1   
 21   9  30  1   
 22  10  13  1   
 23  10  31  1   
 24  10  32  1   
 25  11  14  1   
 26  11  33  1   
 27  12  13  1   
 28  12  34  1   
 29  12  35  1   
 30  14  15  ar  
 31  14  16  ar  
 32  15  17  ar  
 33  16  18  ar  
 34  16  36  1   
 35  17  19  ar  
 36  17  20  1   
 37  18  19  ar  
 38  18  37  1   
 39  20  38  1   
 40  20  39  1   
 41  20  40  1   
@<TRIPOS>SUBSTRUCTURE
  1 ****   8 GROUP 4 **** **** 0

# MOE 2024.06 (io_trps.svl 2023.06)
