@<TRIPOS>MOLECULE
NONAME
47 49 1 0 0 
SMALL
USER_CHARGES


@<TRIPOS>ATOM
  1 O        3.1180    -2.1260     0.8570 O.3   1 <1>  -0.2170 
  2 N        2.2230    -1.2280     1.1860 N.2   1 <1>  -0.5130 
  3 C        3.4420    -2.1070    -0.5100 C.3   1 <1>   0.2000 
  4 C        1.8620    -0.5350     0.1850 C.2   1 <1>   0.3030 
  5 C        2.5470    -1.0040    -1.0730 C.3   1 <1>  -0.0990 
  6 C        3.2620    -3.5270    -1.0970 C.3   1 <1>   0.3430 
  7 C        0.9290     0.5730     0.1770 C.ar  1 <1>   0.0860 
  8 N        1.8540    -4.0620    -1.1860 N.4   1 <1>  -0.9590 
  9 C        0.5810     1.2620    -0.9890 C.ar  1 <1>  -0.1500 
 10 C        0.3490     1.0140     1.3690 C.ar  1 <1>  -0.1500 
 11 C        1.0630    -4.0640     0.0940 C.3   1 <1>   0.4860 
 12 C        1.7910    -5.3960    -1.8470 C.3   1 <1>   0.2630 
 13 C       -0.2850     2.3400    -0.9620 C.ar  1 <1>  -0.1500 
 14 C       -0.5200     2.0880     1.4020 C.ar  1 <1>  -0.1500 
 15 C       -0.1900    -3.2040    -0.0990 C.ar  1 <1>   0.1670 
 16 C       -0.8360     2.7580     0.2350 C.ar  1 <1>  -0.1500 
 17 N       -0.5930    -2.9890    -1.3510 N.ar  1 <1>  -0.6200 
 18 C       -0.8350    -2.6960     1.0180 C.ar  1 <1>  -0.1500 
 19 C       -1.7000    -2.2700    -1.4780 C.ar  1 <1>   0.1600 
 20 C       -1.9800    -1.9470     0.8620 C.ar  1 <1>  -0.1500 
 21 C       -2.4300    -1.7410    -0.4250 C.ar  1 <1>  -0.1440 
 22 C       -3.7070    -0.9530    -0.6770 C.3   1 <1>  -0.0170 
 23 C       -3.4180     0.5460    -0.7340 C.3   1 <1>  -0.2400 
 24 H        4.4760    -1.8130    -0.5740 H     1 <1>   0.0800 
 25 H        1.8360    -1.3670    -1.7910 H     1 <1>   0.0800 
 26 H        3.1390    -0.2180    -1.5040 H     1 <1>   0.0800 
 27 H        3.8630    -4.2030    -0.5120 H     1 <1>   0.0800 
 28 H        3.6780    -3.5160    -2.0910 H     1 <1>   0.0800 
 29 H        1.2700    -3.4190    -1.7580 H     1 <1>   0.4500 
 30 H        0.9880     0.9670    -1.9370 H     1 <1>   0.1500 
 31 H        0.5890     0.5070     2.2880 H     1 <1>   0.1500 
 32 H        1.6370    -3.6890     0.9210 H     1 <1>   0.0800 
 33 H        0.7550    -5.0670     0.3340 H     1 <1>   0.0800 
 34 H        2.3090    -6.1350    -1.2560 H     1 <1>   0.0800 
 35 H        2.2460    -5.3520    -2.8240 H     1 <1>   0.0800 
 36 H        0.7630    -5.7020    -1.9640 H     1 <1>   0.0800 
 37 H       -0.5330     2.8590    -1.8720 H     1 <1>   0.1500 
 38 H       -0.9480     2.4070     2.3370 H     1 <1>   0.1500 
 39 H       -1.5090     3.5980     0.2580 H     1 <1>   0.1500 
 40 H       -0.4510    -2.8770     2.0070 H     1 <1>   0.1500 
 41 H       -2.0540    -2.0940    -2.4800 H     1 <1>   0.1500 
 42 H       -2.5020    -1.5410     1.7120 H     1 <1>   0.1500 
 43 H       -4.4150    -1.1530     0.1090 H     1 <1>   0.0800 
 44 H       -4.1550    -1.2680    -1.6040 H     1 <1>   0.0800 
 45 H       -3.0040     0.8770     0.2020 H     1 <1>   0.0800 
 46 H       -4.3260     1.0920    -0.9200 H     1 <1>   0.0800 
 47 H       -2.7160     0.7630    -1.5190 H     1 <1>   0.0800 
@<TRIPOS>BOND
  1   1   2  1   
  2   1   3  1   
  3   2   4  2   
  4   3   5  1   
  5   3   6  1   
  6   3  24  1   
  7   4   5  1   
  8   4   7  1   
  9   5  25  1   
 10   5  26  1   
 11   6   8  1   
 12   6  27  1   
 13   6  28  1   
 14   7   9  ar  
 15   7  10  ar  
 16   8  11  1   
 17   8  12  1   
 18   8  29  1   
 19   9  13  ar  
 20   9  30  1   
 21  10  14  ar  
 22  10  31  1   
 23  11  15  1   
 24  11  32  1   
 25  11  33  1   
 26  12  34  1   
 27  12  35  1   
 28  12  36  1   
 29  13  16  ar  
 30  13  37  1   
 31  14  16  ar  
 32  14  38  1   
 33  15  17  ar  
 34  15  18  ar  
 35  16  39  1   
 36  17  19  ar  
 37  18  20  ar  
 38  18  40  1   
 39  19  21  ar  
 40  19  41  1   
 41  20  21  ar  
 42  20  42  1   
 43  21  22  1   
 44  22  23  1   
 45  22  43  1   
 46  22  44  1   
 47  23  45  1   
 48  23  46  1   
 49  23  47  1   
@<TRIPOS>SUBSTRUCTURE
  1 ****   4 GROUP 4 **** **** 0

# MOE 2024.06 (io_trps.svl 2023.06)
