@<TRIPOS>MOLECULE
NONAME
50 53 1 0 0 
SMALL
USER_CHARGES


@<TRIPOS>ATOM
  1 O        0.6120    -0.0930     0.4880 O.3   1 <1>  -0.6800 
  2 C        1.8780    -0.1520    -0.0850 C.3   1 <1>   0.2000 
  3 C        2.5610    -1.4730     0.2610 C.3   1 <1>  -0.0800 
  4 C        2.8060     0.9230     0.4780 C.3   1 <1>   0.2090 
  5 C        4.0540    -1.1480     0.1530 C.3   1 <1>   0.2090 
  6 C        2.1210    -2.6470    -0.6290 C.3   1 <1>  -0.0170 
  7 N        4.1540     0.2980     0.4600 N.pl3 1 <1>  -0.8380 
  8 C        2.9200    -3.9000    -0.3180 C.ar  1 <1>   0.1660 
  9 C        5.3220     1.0090     0.3370 C.ar  1 <1>   0.7200 
 10 N        3.9360    -4.1630    -1.0810 N.ar  1 <1>  -0.6200 
 11 C        2.5370    -4.6990     0.7710 C.ar  1 <1>  -0.1500 
 12 N        5.2380     2.3320     0.4610 N.ar  1 <1>  -0.6200 
 13 N        6.4300     0.3100     0.1060 N.ar  1 <1>  -0.6200 
 14 C        4.6690    -5.2700    -0.7980 C.ar  1 <1>   0.3100 
 15 C        3.2520    -5.8170     1.0760 C.ar  1 <1>  -0.1500 
 16 C        6.3640     2.9930     0.3470 C.ar  1 <1>   0.1600 
 17 C        7.5370     1.0010    -0.0030 C.ar  1 <1>   0.1600 
 18 C        4.3640    -6.1320     0.2780 C.ar  1 <1>   0.0000 
 19 C        5.7780    -5.5730    -1.6040 C.ar  1 <1>  -0.1500 
 20 C        7.5710     2.3730     0.1100 C.ar  1 <1>  -0.1430 
 21 C        5.1800    -7.2580     0.5050 C.ar  1 <1>  -0.1500 
 22 C        6.5590    -6.6730    -1.3670 C.ar  1 <1>  -0.1500 
 23 C        8.8780     3.1470    -0.0230 C.3   1 <1>   0.0630 
 24 C        6.2550    -7.5240    -0.3000 C.ar  1 <1>  -0.1500 
 25 C        9.1970     3.9030     1.2710 C.3   1 <1>  -0.2400 
 26 C        8.8210     4.1090    -1.2140 C.3   1 <1>  -0.2400 
 27 H        0.0190    -0.7480     0.0760 H     1 <1>   0.4000 
 28 H        1.7870    -0.0210    -1.1490 H     1 <1>   0.0800 
 29 H        2.3670    -1.7070     1.2930 H     1 <1>   0.0800 
 30 H        2.5440     1.1590     1.4950 H     1 <1>   0.0800 
 31 H        2.7800     1.8100    -0.1300 H     1 <1>   0.0800 
 32 H        4.4170    -1.3240    -0.8470 H     1 <1>   0.0800 
 33 H        4.6370    -1.7290     0.8480 H     1 <1>   0.0800 
 34 H        2.2630    -2.3910    -1.6650 H     1 <1>   0.0800 
 35 H        1.0760    -2.8460    -0.4810 H     1 <1>   0.0800 
 36 H        1.6820    -4.4140     1.3570 H     1 <1>   0.1500 
 37 H        2.9910    -6.4530     1.9020 H     1 <1>   0.1500 
 38 H        6.3200     4.0630     0.4460 H     1 <1>   0.1500 
 39 H        8.4440     0.4530    -0.1880 H     1 <1>   0.1500 
 40 H        5.9950    -4.9050    -2.4170 H     1 <1>   0.1500 
 41 H        4.9420    -7.9090     1.3270 H     1 <1>   0.1500 
 42 H        7.4070    -6.8940    -1.9920 H     1 <1>   0.1500 
 43 H        9.6770     2.4470    -0.2020 H     1 <1>   0.0800 
 44 H        6.8770    -8.3850    -0.1240 H     1 <1>   0.1500 
 45 H        8.4520     4.6510     1.4740 H     1 <1>   0.0800 
 46 H       10.1540     4.3860     1.1930 H     1 <1>   0.0800 
 47 H        9.2280     3.2170     2.0990 H     1 <1>   0.0800 
 48 H        8.0670     4.8620    -1.0660 H     1 <1>   0.0800 
 49 H        8.5910     3.5670    -2.1140 H     1 <1>   0.0800 
 50 H        9.7700     4.5970    -1.3430 H     1 <1>   0.0800 
@<TRIPOS>BOND
  1   1   2  1   
  2   1  27  1   
  3   2   3  1   
  4   2   4  1   
  5   2  28  1   
  6   3   5  1   
  7   3   6  1   
  8   3  29  1   
  9   4   7  1   
 10   4  30  1   
 11   4  31  1   
 12   5   7  1   
 13   5  32  1   
 14   5  33  1   
 15   6   8  1   
 16   6  34  1   
 17   6  35  1   
 18   7   9  1   
 19   8  10  ar  
 20   8  11  ar  
 21   9  12  ar  
 22   9  13  ar  
 23  10  14  ar  
 24  11  15  ar  
 25  11  36  1   
 26  12  16  ar  
 27  13  17  ar  
 28  14  18  ar  
 29  14  19  ar  
 30  15  18  ar  
 31  15  37  1   
 32  16  20  ar  
 33  16  38  1   
 34  17  20  ar  
 35  17  39  1   
 36  18  21  ar  
 37  19  22  ar  
 38  19  40  1   
 39  20  23  1   
 40  21  24  ar  
 41  21  41  1   
 42  22  24  ar  
 43  22  42  1   
 44  23  25  1   
 45  23  26  1   
 46  23  43  1   
 47  24  44  1   
 48  25  45  1   
 49  25  46  1   
 50  25  47  1   
 51  26  48  1   
 52  26  49  1   
 53  26  50  1   
@<TRIPOS>SUBSTRUCTURE
  1 ****   5 GROUP 4 **** **** 0

# MOE 2024.06 (io_trps.svl 2023.06)
