@<TRIPOS>MOLECULE
NONAME
44 44 1 0 0 
SMALL
USER_CHARGES


@<TRIPOS>ATOM
  1 O       -0.7520     2.5700    -1.0540 O.co2 1 <1>  -0.9000 
  2 C       -0.3970     2.1740     0.0580 C.2   1 <1>   0.9060 
  3 O        0.6620     1.5710     0.2290 O.co2 1 <1>  -0.9000 
  4 C       -1.0840     2.7670     1.2580 C.3   1 <1>  -0.2660 
  5 C       -0.4290     4.1050     1.6690 C.3   1 <1>  -0.1600 
  6 C       -0.2780     5.0680     0.4770 C.3   1 <1>   0.3430 
  7 N        1.1640     5.3480     0.1420 N.4   1 <1>  -0.9590 
  8 C        1.2230     6.5270    -0.7830 C.3   1 <1>   0.3430 
  9 C        1.7680     4.1050    -0.4500 C.3   1 <1>   0.3430 
 10 C        2.5400     7.3460    -0.6730 C.3   1 <1>   0.3430 
 11 C        3.1240     4.2820    -1.1290 C.3   1 <1>  -0.1600 
 12 N        3.8160     6.6480    -1.0880 N.4   1 <1>  -0.9590 
 13 C        4.0460     5.3020    -0.4790 C.3   1 <1>   0.3430 
 14 C        5.0270     7.5210    -0.8990 C.3   1 <1>   0.3430 
 15 C        5.2680     7.9600     0.5620 C.3   1 <1>  -0.0800 
 16 C        4.7490     9.3840     0.8250 C.3   1 <1>  -0.2400 
 17 C        6.7710     7.9190     0.8700 C.3   1 <1>  -0.2400 
 18 H       -1.0310     2.0580     2.0630 H     1 <1>   0.0800 
 19 H       -2.1170     2.9140     1.0050 H     1 <1>   0.0800 
 20 H        0.5230     3.9010     2.1250 H     1 <1>   0.0800 
 21 H       -1.0570     4.5650     2.4120 H     1 <1>   0.0800 
 22 H       -0.7700     5.9910     0.7360 H     1 <1>   0.0800 
 23 H       -0.7890     4.6690    -0.3860 H     1 <1>   0.0800 
 24 H        1.6190     5.5340     1.0420 H     1 <1>   0.4500 
 25 H        0.4110     7.1940    -0.5410 H     1 <1>   0.0800 
 26 H        1.0720     6.2020    -1.7990 H     1 <1>   0.0800 
 27 H        1.0960     3.6840    -1.1800 H     1 <1>   0.0800 
 28 H        1.8790     3.3720     0.3330 H     1 <1>   0.0800 
 29 H        2.6330     7.6710     0.3490 H     1 <1>   0.0800 
 30 H        2.4270     8.2330    -1.2750 H     1 <1>   0.0800 
 31 H        2.9850     4.4860    -2.1750 H     1 <1>   0.0800 
 32 H        3.6020     3.3180    -1.0780 H     1 <1>   0.0800 
 33 H        3.7610     6.4820    -2.1050 H     1 <1>   0.4500 
 34 H        5.0650     5.0010    -0.6680 H     1 <1>   0.0800 
 35 H        3.9010     5.3250     0.5900 H     1 <1>   0.0800 
 36 H        4.9480     8.4010    -1.5170 H     1 <1>   0.0800 
 37 H        5.8970     6.9790    -1.2370 H     1 <1>   0.0800 
 38 H        4.7880     7.2820     1.2460 H     1 <1>   0.0800 
 39 H        5.2480    10.0950     0.1880 H     1 <1>   0.0800 
 40 H        4.9450     9.6650     1.8460 H     1 <1>   0.0800 
 41 H        3.6910     9.4680     0.6620 H     1 <1>   0.0800 
 42 H        7.3160     8.5950     0.2320 H     1 <1>   0.0800 
 43 H        7.1650     6.9270     0.7330 H     1 <1>   0.0800 
 44 H        6.9530     8.2070     1.8920 H     1 <1>   0.0800 
@<TRIPOS>BOND
  1   1   2  ar  
  2   2   3  ar  
  3   2   4  1   
  4   4   5  1   
  5   4  18  1   
  6   4  19  1   
  7   5   6  1   
  8   5  20  1   
  9   5  21  1   
 10   6   7  1   
 11   6  22  1   
 12   6  23  1   
 13   7   8  1   
 14   7   9  1   
 15   7  24  1   
 16   8  10  1   
 17   8  25  1   
 18   8  26  1   
 19   9  11  1   
 20   9  27  1   
 21   9  28  1   
 22  10  12  1   
 23  10  29  1   
 24  10  30  1   
 25  11  13  1   
 26  11  31  1   
 27  11  32  1   
 28  12  13  1   
 29  12  14  1   
 30  12  33  1   
 31  13  34  1   
 32  13  35  1   
 33  14  15  1   
 34  14  36  1   
 35  14  37  1   
 36  15  16  1   
 37  15  17  1   
 38  15  38  1   
 39  16  39  1   
 40  16  40  1   
 41  16  41  1   
 42  17  42  1   
 43  17  43  1   
 44  17  44  1   
@<TRIPOS>SUBSTRUCTURE
  1 ****   7 GROUP 4 **** **** 0

# MOE 2024.06 (io_trps.svl 2023.06)
