@<TRIPOS>MOLECULE
NONAME
48 51 1 0 0 
SMALL
USER_CHARGES


@<TRIPOS>ATOM
  1 F       -2.4620    -0.3470    -0.7160 F     1 <1>  -0.1900 
  2 C       -2.3750     0.4330     0.3330 C.ar  1 <1>   0.1900 
  3 C       -2.1540     1.8060     0.1770 C.ar  1 <1>   0.0830 
  4 C       -2.5360    -0.1640     1.5820 C.ar  1 <1>   0.0860 
  5 O       -1.9870     2.4760    -0.9970 O.3   1 <1>  -0.3630 
  6 C       -2.0990     2.5900     1.3180 C.ar  1 <1>  -0.1500 
  7 C       -2.7750    -1.5810     1.7320 C.2   1 <1>   0.5440 
  8 C       -2.4570     0.6640     2.7010 C.ar  1 <1>  -0.1500 
  9 C       -1.6150     1.8340    -2.1980 C.3   1 <1>   0.0400 
 10 C       -2.2460     2.0240     2.5730 C.ar  1 <1>  -0.1500 
 11 O       -1.8980    -2.2770     2.2040 O.2   1 <1>  -0.5700 
 12 N       -3.9730    -2.1640     1.3800 N.am  1 <1>  -0.6600 
 13 C       -4.1740    -3.6480     1.3910 C.3   1 <1>   0.1400 
 14 C       -5.1390    -1.4420     0.7830 C.3   1 <1>   0.1400 
 15 C       -4.6120    -4.1520     0.0030 C.3   1 <1>   0.3430 
 16 C       -5.5070    -2.0490    -0.5900 C.3   1 <1>   0.2950 
 17 O       -5.7250    -3.4240    -0.4540 O.3   1 <1>  -0.5600 
 18 C       -4.9580    -5.6370     0.0550 C.ar  1 <1>  -0.1440 
 19 C       -6.7710    -1.4580    -1.2380 C.3   1 <1>  -0.1950 
 20 C       -6.2430    -6.0730     0.3540 C.ar  1 <1>  -0.1500 
 21 C       -3.9680    -6.5800    -0.1860 C.ar  1 <1>  -0.1500 
 22 C       -7.1920    -0.0270    -1.0840 C.3   1 <1>  -0.2000 
 23 C       -8.0220    -1.1290    -0.4840 C.3   1 <1>  -0.2000 
 24 C       -6.5320    -7.4250     0.4110 C.ar  1 <1>  -0.1500 
 25 C       -4.2550    -7.9330    -0.1290 C.ar  1 <1>  -0.1500 
 26 C       -5.5380    -8.3570     0.1700 C.ar  1 <1>  -0.1500 
 27 H       -1.9350     3.6490     1.2180 H     1 <1>   0.1500 
 28 H       -2.5610     0.2250     3.6790 H     1 <1>   0.1500 
 29 H       -1.3370     2.5910    -2.9090 H     1 <1>   0.0800 
 30 H       -2.4550     1.2770    -2.5730 H     1 <1>   0.0800 
 31 H       -0.7770     1.1870    -2.0060 H     1 <1>   0.0800 
 32 H       -2.1910     2.6470     3.4510 H     1 <1>   0.1500 
 33 H       -3.2690    -4.1560     1.6760 H     1 <1>   0.0800 
 34 H       -4.9300    -3.9000     2.1130 H     1 <1>   0.0800 
 35 H       -5.9780    -1.5320     1.4490 H     1 <1>   0.0800 
 36 H       -4.9240    -0.3970     0.6660 H     1 <1>   0.0800 
 37 H       -3.8110    -4.0030    -0.7010 H     1 <1>   0.0800 
 38 H       -4.6820    -1.9070    -1.2670 H     1 <1>   0.0800 
 39 H       -6.9080    -1.8800    -2.2190 H     1 <1>   0.1000 
 40 H       -7.0240    -5.3560     0.5400 H     1 <1>   0.1500 
 41 H       -2.9650    -6.2650    -0.4180 H     1 <1>   0.1500 
 42 H       -6.6740     0.6360    -0.4140 H     1 <1>   0.1000 
 43 H       -7.5750     0.4900    -1.9470 H     1 <1>   0.1000 
 44 H       -8.9660    -1.3780    -0.9380 H     1 <1>   0.1000 
 45 H       -8.0470    -1.2430     0.5850 H     1 <1>   0.1000 
 46 H       -7.5310    -7.7510     0.6420 H     1 <1>   0.1500 
 47 H       -3.4810    -8.6550    -0.3170 H     1 <1>   0.1500 
 48 H       -5.7620    -9.4080     0.2140 H     1 <1>   0.1500 
@<TRIPOS>BOND
  1   1   2  1   
  2   2   3  ar  
  3   2   4  ar  
  4   3   5  1   
  5   3   6  ar  
  6   4   7  1   
  7   4   8  ar  
  8   5   9  1   
  9   6  10  ar  
 10   6  27  1   
 11   7  11  2   
 12   7  12  am  
 13   8  10  ar  
 14   8  28  1   
 15   9  29  1   
 16   9  30  1   
 17   9  31  1   
 18  10  32  1   
 19  12  13  1   
 20  12  14  1   
 21  13  15  1   
 22  13  33  1   
 23  13  34  1   
 24  14  16  1   
 25  14  35  1   
 26  14  36  1   
 27  15  17  1   
 28  15  18  1   
 29  15  37  1   
 30  16  17  1   
 31  16  19  1   
 32  16  38  1   
 33  18  20  ar  
 34  18  21  ar  
 35  19  22  1   
 36  19  23  1   
 37  19  39  1   
 38  20  24  ar  
 39  20  40  1   
 40  21  25  ar  
 41  21  41  1   
 42  22  23  1   
 43  22  42  1   
 44  22  43  1   
 45  23  44  1   
 46  23  45  1   
 47  24  26  ar  
 48  24  46  1   
 49  25  26  ar  
 50  25  47  1   
 51  26  48  1   
@<TRIPOS>SUBSTRUCTURE
  1 ****  12 GROUP 4 **** **** 0

# MOE 2024.06 (io_trps.svl 2023.06)
