@<TRIPOS>MOLECULE
NONAME
46 48 1 0 0 
SMALL
USER_CHARGES


@<TRIPOS>ATOM
  1 S       -0.1920    -0.1500    -0.7930 S.3   1 <1>  -0.0800 
  2 C       -1.2910    -0.9850     0.2550 C.2   1 <1>   0.4420 
  3 C       -0.5500     1.2890     0.0990 C.2   1 <1>   0.1980 
  4 N       -1.8150    -0.2050     1.1280 N.2   1 <1>  -0.3380 
  5 N       -1.4590    -2.3350     0.0220 N.am  1 <1>  -0.4940 
  6 N       -1.3880     1.0910     1.0320 N.2   1 <1>  -0.3380 
  7 C        0.1330     2.5820    -0.3070 C.3   1 <1>   0.0200 
  8 C       -2.2360    -3.2340     0.6950 C.2   1 <1>   0.5690 
  9 C        1.6190     2.5820     0.0800 C.3   1 <1>  -0.1600 
 10 O       -2.8980    -2.9520     1.6590 O.2   1 <1>  -0.5700 
 11 C       -2.2480    -4.6750     0.2010 C.3   1 <1>  -0.0190 
 12 C        2.2990     3.9040    -0.3030 C.3   1 <1>  -0.1600 
 13 C       -3.6950    -5.1980     0.1330 C.3   1 <1>   0.1400 
 14 C       -1.3810    -5.5830     1.1020 C.3   1 <1>  -0.1600 
 15 C        3.7810     3.8940     0.0880 C.3   1 <1>  -0.1600 
 16 N       -3.6980    -6.6430    -0.1650 N.am  1 <1>  -0.4200 
 17 C       -1.3230    -7.0230     0.5540 C.3   1 <1>  -0.0990 
 18 C        4.4600     5.2130    -0.2930 C.3   1 <1>  -0.2400 
 19 C       -4.7460    -7.4050    -0.5250 C.2   1 <1>   0.6900 
 20 C       -2.6840    -7.5300     0.1120 C.2   1 <1>   0.4490 
 21 O       -5.8610    -6.9940    -0.8360 O.2   1 <1>  -0.5700 
 22 N       -4.3260    -8.6970    -0.4690 N.am  1 <1>  -0.2980 
 23 N       -3.0140    -8.7520    -0.0590 N.2   1 <1>  -0.5120 
 24 C       -5.1090    -9.9100    -0.7670 C.3   1 <1>   0.0600 
 25 H       -0.9190    -2.6940    -0.7590 H     1 <1>   0.3700 
 26 H       -0.3650     3.3980     0.1860 H     1 <1>   0.0800 
 27 H        0.0260     2.7180    -1.3680 H     1 <1>   0.0800 
 28 H        2.1200     1.7680    -0.4150 H     1 <1>   0.0800 
 29 H        1.7040     2.4290     1.1430 H     1 <1>   0.0800 
 30 H       -1.8490    -4.6940    -0.7970 H     1 <1>   0.0800 
 31 H        1.8060     4.7200     0.1970 H     1 <1>   0.0800 
 32 H        2.2130     4.0600    -1.3650 H     1 <1>   0.0800 
 33 H       -4.2520    -4.6740    -0.6250 H     1 <1>   0.0800 
 34 H       -4.1900    -5.0490     1.0780 H     1 <1>   0.0800 
 35 H       -1.8060    -5.5990     2.0930 H     1 <1>   0.0800 
 36 H       -0.3830    -5.1890     1.1820 H     1 <1>   0.0800 
 37 H        4.2840     3.0820    -0.4100 H     1 <1>   0.0800 
 38 H        3.8750     3.7430     1.1500 H     1 <1>   0.0800 
 39 H       -0.9250    -7.6870     1.3000 H     1 <1>   0.0800 
 40 H       -0.6710    -7.0560    -0.3000 H     1 <1>   0.0800 
 41 H        4.3990     5.3750    -1.3540 H     1 <1>   0.0800 
 42 H        5.4980     5.1870    -0.0100 H     1 <1>   0.0800 
 43 H        3.9890     6.0380     0.2120 H     1 <1>   0.0800 
 44 H       -6.1050    -9.6380    -1.0650 H     1 <1>   0.0800 
 45 H       -5.1540   -10.5280     0.1120 H     1 <1>   0.0800 
 46 H       -4.6320   -10.4540    -1.5610 H     1 <1>   0.0800 
@<TRIPOS>BOND
  1   1   2  1   
  2   1   3  1   
  3   2   4  2   
  4   2   5  1   
  5   3   6  2   
  6   3   7  1   
  7   4   6  1   
  8   5   8  am  
  9   5  25  1   
 10   7   9  1   
 11   7  26  1   
 12   7  27  1   
 13   8  10  2   
 14   8  11  1   
 15   9  12  1   
 16   9  28  1   
 17   9  29  1   
 18  11  13  1   
 19  11  14  1   
 20  11  30  1   
 21  12  15  1   
 22  12  31  1   
 23  12  32  1   
 24  13  16  1   
 25  13  33  1   
 26  13  34  1   
 27  14  17  1   
 28  14  35  1   
 29  14  36  1   
 30  15  18  1   
 31  15  37  1   
 32  15  38  1   
 33  16  19  am  
 34  16  20  1   
 35  17  20  1   
 36  17  39  1   
 37  17  40  1   
 38  18  41  1   
 39  18  42  1   
 40  18  43  1   
 41  19  21  2   
 42  19  22  am  
 43  20  23  2   
 44  22  23  1   
 45  22  24  1   
 46  24  44  1   
 47  24  45  1   
 48  24  46  1   
@<TRIPOS>SUBSTRUCTURE
  1 ****   5 GROUP 4 **** **** 0

# MOE 2024.06 (io_trps.svl 2023.06)
