@<TRIPOS>MOLECULE
NONAME
45 48 1 0 0 
SMALL
USER_CHARGES


@<TRIPOS>ATOM
  1 O       -0.9300     0.9720    -1.0380 O.2   1 <1>  -0.5700 
  2 C       -1.9890     1.1800    -0.4930 C.2   1 <1>   0.5690 
  3 N       -3.1280     0.5060    -0.8570 N.am  1 <1>  -0.6600 
  4 C       -2.0360     2.2180     0.6170 C.3   1 <1>  -0.0990 
  5 C       -3.1090    -0.5250    -1.9340 C.3   1 <1>   0.1400 
  6 C       -4.4730     0.6700    -0.2370 C.3   1 <1>   0.1400 
  7 C       -0.6530     2.7570     0.9840 C.3   1 <1>   0.1200 
  8 C       -3.5130    -1.8740    -1.3380 C.3   1 <1>  -0.1600 
  9 C       -4.8840    -0.6600     0.3980 C.3   1 <1>  -0.1600 
 10 O       -0.7980     3.6970     1.9920 O.3   1 <1>  -0.6800 
 11 C       -4.8710    -1.7980    -0.6320 C.3   1 <1>   0.4600 
 12 O       -5.8230    -1.5170    -1.6370 O.3   1 <1>  -0.5600 
 13 C       -5.2040    -3.1350     0.0190 C.2   1 <1>  -0.3320 
 14 C       -7.1720    -1.8320    -1.3830 C.3   1 <1>   0.1200 
 15 N       -4.4390    -3.8080     0.9310 N.pl3 1 <1>   0.0330 
 16 C       -6.3230    -3.8430    -0.2300 C.2   1 <1>  -0.1810 
 17 C       -7.3670    -3.3460    -1.1980 C.3   1 <1>   0.0210 
 18 C       -5.0930    -4.9700     1.2590 C.ar  1 <1>  -0.1520 
 19 C       -6.2850    -5.0230     0.5410 C.ar  1 <1>   0.0000 
 20 C       -4.7390    -5.9990     2.1360 C.ar  1 <1>  -0.1500 
 21 C       -7.1390    -6.1190     0.6970 C.ar  1 <1>  -0.1500 
 22 C       -5.5890    -7.0710     2.2810 C.ar  1 <1>  -0.1500 
 23 C       -6.7890    -7.1320     1.5610 C.ar  1 <1>  -0.1500 
 24 H       -2.4620     1.7620     1.4910 H     1 <1>   0.0800 
 25 H       -2.6610     3.0270     0.2910 H     1 <1>   0.0800 
 26 H       -2.1310    -0.6030    -2.3770 H     1 <1>   0.0800 
 27 H       -3.8030    -0.2420    -2.7080 H     1 <1>   0.0800 
 28 H       -5.1810     0.9430    -1.0010 H     1 <1>   0.0800 
 29 H       -4.4760     1.4440     0.5080 H     1 <1>   0.0800 
 30 H       -0.1750     3.2260     0.1400 H     1 <1>   0.0800 
 31 H       -0.0220     1.9650     1.3520 H     1 <1>   0.0800 
 32 H       -2.7550    -2.1760    -0.6400 H     1 <1>   0.0800 
 33 H       -3.5600    -2.6180    -2.1120 H     1 <1>   0.0800 
 34 H       -5.8570    -0.5750     0.8420 H     1 <1>   0.0800 
 35 H       -4.1940    -0.8900     1.1880 H     1 <1>   0.0800 
 36 H       -1.2020     4.5150     1.6450 H     1 <1>   0.4000 
 37 H       -7.7530    -1.4830    -2.2190 H     1 <1>   0.0800 
 38 H       -7.4870    -1.3060    -0.5000 H     1 <1>   0.0800 
 39 H       -3.5280    -3.5200     1.3010 H     1 <1>   0.2700 
 40 H       -7.2560    -3.8490    -2.1420 H     1 <1>   0.0800 
 41 H       -8.3510    -3.5420    -0.8160 H     1 <1>   0.0800 
 42 H       -3.8160    -5.9450     2.6840 H     1 <1>   0.1500 
 43 H       -8.0550    -6.1530     0.1370 H     1 <1>   0.1500 
 44 H       -5.3400    -7.8760     2.9490 H     1 <1>   0.1500 
 45 H       -7.4360    -7.9810     1.6910 H     1 <1>   0.1500 
@<TRIPOS>BOND
  1   1   2  2   
  2   2   3  am  
  3   2   4  1   
  4   3   5  1   
  5   3   6  1   
  6   4   7  1   
  7   4  24  1   
  8   4  25  1   
  9   5   8  1   
 10   5  26  1   
 11   5  27  1   
 12   6   9  1   
 13   6  28  1   
 14   6  29  1   
 15   7  10  1   
 16   7  30  1   
 17   7  31  1   
 18   8  11  1   
 19   8  32  1   
 20   8  33  1   
 21   9  11  1   
 22   9  34  1   
 23   9  35  1   
 24  10  36  1   
 25  11  12  1   
 26  11  13  1   
 27  12  14  1   
 28  13  15  1   
 29  13  16  2   
 30  14  17  1   
 31  14  37  1   
 32  14  38  1   
 33  15  18  1   
 34  15  39  1   
 35  16  17  1   
 36  16  19  1   
 37  17  40  1   
 38  17  41  1   
 39  18  19  ar  
 40  18  20  ar  
 41  19  21  ar  
 42  20  22  ar  
 43  20  42  1   
 44  21  23  ar  
 45  21  43  1   
 46  22  23  ar  
 47  22  44  1   
 48  23  45  1   
@<TRIPOS>SUBSTRUCTURE
  1 ****  11 GROUP 4 **** **** 0

# MOE 2024.06 (io_trps.svl 2023.06)
