@<TRIPOS>MOLECULE
NONAME
44 46 1 0 0 
SMALL
USER_CHARGES


@<TRIPOS>ATOM
  1 F        1.6010     0.1360     2.5200 F     1 <1>  -0.1900 
  2 C        2.1380     0.7680     1.5120 C.ar  1 <1>   0.1900 
  3 C        2.6530     0.0320     0.4490 C.ar  1 <1>   0.0860 
  4 C        2.1560     2.1490     1.5600 C.ar  1 <1>  -0.1500 
  5 C        3.1890     0.7910    -0.5880 C.ar  1 <1>   0.1900 
  6 C        2.6350    -1.4050     0.4220 C.2   1 <1>   0.5440 
  7 C        2.7070     2.8640     0.5070 C.ar  1 <1>   0.0830 
  8 F        3.6700     0.1810    -1.6370 F     1 <1>  -0.1900 
  9 C        3.2300     2.1730    -0.5830 C.ar  1 <1>  -0.1500 
 10 O        3.6520    -2.0270     0.6580 O.2   1 <1>  -0.5700 
 11 N        1.4850    -2.0980     0.1290 N.am  1 <1>  -0.6600 
 12 O        2.6970     4.2100     0.6090 O.3   1 <1>  -0.3630 
 13 C        0.1820    -1.5010    -0.2490 C.3   1 <1>   0.1400 
 14 C        1.4120    -3.5790     0.1300 C.3   1 <1>   0.1400 
 15 C        3.2610     5.0370    -0.3860 C.3   1 <1>   0.0400 
 16 C       -0.6660    -2.6860    -0.7100 C.3   1 <1>   0.2000 
 17 C       -0.0760    -3.9040    -0.0030 C.3   1 <1>  -0.0800 
 18 O       -1.9970    -2.5250    -0.3630 O.3   1 <1>  -0.6800 
 19 C       -0.3550    -5.2240    -0.7360 C.3   1 <1>   0.0210 
 20 C        0.3250    -6.3860    -0.0380 C.2   1 <1>   0.1080 
 21 N        0.0180    -6.7590     1.1650 N.2   1 <1>  -0.7070 
 22 C        1.3420    -7.1610    -0.5860 C.2   1 <1>  -0.1500 
 23 N        0.8400    -7.7940     1.4200 N.pl3 1 <1>   0.3000 
 24 C        1.6520    -8.0560     0.3740 C.2   1 <1>  -0.3320 
 25 C        2.6930    -9.1610     0.3580 C.3   1 <1>  -0.0600 
 26 H        1.7470     2.6710     2.4060 H     1 <1>   0.1500 
 27 H        3.6640     2.6810    -1.4230 H     1 <1>   0.1500 
 28 H       -0.2550    -1.0320     0.6150 H     1 <1>   0.0800 
 29 H        0.3070    -0.7880    -1.0440 H     1 <1>   0.0800 
 30 H        1.9710    -3.9550    -0.7100 H     1 <1>   0.0800 
 31 H        1.8240    -3.9840     1.0390 H     1 <1>   0.0800 
 32 H        3.1450     6.0600    -0.0740 H     1 <1>   0.0800 
 33 H        2.7390     4.8760    -1.3120 H     1 <1>   0.0800 
 34 H        4.3060     4.8030    -0.4850 H     1 <1>   0.0800 
 35 H       -0.6020    -2.7820    -1.7800 H     1 <1>   0.0800 
 36 H       -0.4720    -3.9680     0.9970 H     1 <1>   0.0800 
 37 H       -2.1040    -2.6040     0.6050 H     1 <1>   0.4000 
 38 H       -0.0080    -5.1650    -1.7510 H     1 <1>   0.0800 
 39 H       -1.4150    -5.4070    -0.7540 H     1 <1>   0.0800 
 40 H        1.7710    -7.0470    -1.5660 H     1 <1>   0.1500 
 41 H        0.8230    -8.2960     2.3150 H     1 <1>   0.2700 
 42 H        3.2110    -9.1670    -0.5840 H     1 <1>   0.0800 
 43 H        2.2220   -10.1180     0.4960 H     1 <1>   0.0800 
 44 H        3.4120    -9.0060     1.1430 H     1 <1>   0.0800 
@<TRIPOS>BOND
  1   1   2  1   
  2   2   3  ar  
  3   2   4  ar  
  4   3   5  ar  
  5   3   6  1   
  6   4   7  ar  
  7   4  26  1   
  8   5   8  1   
  9   5   9  ar  
 10   6  10  2   
 11   6  11  am  
 12   7   9  ar  
 13   7  12  1   
 14   9  27  1   
 15  11  13  1   
 16  11  14  1   
 17  12  15  1   
 18  13  16  1   
 19  13  28  1   
 20  13  29  1   
 21  14  17  1   
 22  14  30  1   
 23  14  31  1   
 24  15  32  1   
 25  15  33  1   
 26  15  34  1   
 27  16  17  1   
 28  16  18  1   
 29  16  35  1   
 30  17  19  1   
 31  17  36  1   
 32  18  37  1   
 33  19  20  1   
 34  19  38  1   
 35  19  39  1   
 36  20  21  2   
 37  20  22  1   
 38  21  23  1   
 39  22  24  2   
 40  22  40  1   
 41  23  24  1   
 42  23  41  1   
 43  24  25  1   
 44  25  42  1   
 45  25  43  1   
 46  25  44  1   
@<TRIPOS>SUBSTRUCTURE
  1 ****  11 GROUP 4 **** **** 0

# MOE 2024.06 (io_trps.svl 2023.06)
