@<TRIPOS>MOLECULE
NONAME
49 50 1 0 0 
SMALL
USER_CHARGES


@<TRIPOS>ATOM
  1 O       -1.7000    -1.7070    -0.1970 O.2   1 <1>  -0.5700 
  2 C       -1.0730    -2.7350    -0.0680 C.2   1 <1>   0.6900 
  3 N       -1.5600    -3.9240    -0.4610 N.am  1 <1>  -0.7300 
  4 N        0.1400    -2.6960     0.4830 N.am  1 <1>  -0.8000 
  5 C       -2.9280    -4.1380    -1.0260 C.3   1 <1>   0.2010 
  6 C       -3.8050    -5.0270    -0.1390 C.2   1 <1>   0.5690 
  7 O       -3.8270    -6.2110    -0.3960 O.2   1 <1>  -0.5700 
  8 N       -4.5390    -4.5130     0.9020 N.am  1 <1>  -0.6600 
  9 C       -5.4910    -5.3820     1.6500 C.3   1 <1>   0.1400 
 10 C       -4.6290    -3.0690     1.2460 C.3   1 <1>   0.1400 
 11 C       -6.7850    -5.6080     0.8510 C.3   1 <1>   0.1400 
 12 C       -5.8450    -2.4130     0.5790 C.3   1 <1>  -0.1600 
 13 N       -7.3010    -4.3820     0.1480 N.am  1 <1>  -0.6600 
 14 C       -7.1880    -3.0910     0.8850 C.3   1 <1>   0.1400 
 15 C       -7.8570    -4.4100    -1.1110 C.2   1 <1>   0.5690 
 16 O       -8.2730    -3.4030    -1.6400 O.2   1 <1>  -0.5700 
 17 C       -7.9760    -5.7030    -1.9110 C.3   1 <1>   0.0440 
 18 C       -8.8860    -6.7360    -1.2520 C.ar  1 <1>  -0.1440 
 19 C       -8.4360    -8.0270    -1.0220 C.ar  1 <1>  -0.1500 
 20 C      -10.1730    -6.3910    -0.8720 C.ar  1 <1>  -0.1500 
 21 C       -9.2510    -8.9650    -0.4090 C.ar  1 <1>   0.0820 
 22 C      -10.9970    -7.3210    -0.2630 C.ar  1 <1>  -0.1500 
 23 O       -8.7210   -10.1990    -0.2160 O.3   1 <1>  -0.3620 
 24 C      -10.5410    -8.6070    -0.0280 C.ar  1 <1>  -0.1500 
 25 C       -9.4770   -11.2370     0.3660 C.3   1 <1>   0.0400 
 26 H       -1.0840    -4.7720    -0.1560 H     1 <1>   0.3700 
 27 H        0.5310    -1.7780     0.6880 H     1 <1>   0.3700 
 28 H        0.7980    -3.4650     0.3970 H     1 <1>   0.3700 
 29 H       -2.8310    -4.6160    -1.9840 H     1 <1>   0.0800 
 30 H       -3.4180    -3.1960    -1.1890 H     1 <1>   0.0800 
 31 H       -5.7260    -4.9390     2.6010 H     1 <1>   0.0800 
 32 H       -5.0300    -6.3340     1.8460 H     1 <1>   0.0800 
 33 H       -3.7350    -2.5550     0.9460 H     1 <1>   0.0800 
 34 H       -4.7040    -2.9650     2.3150 H     1 <1>   0.0800 
 35 H       -7.5490    -5.9840     1.5080 H     1 <1>   0.0800 
 36 H       -6.5700    -6.3790     0.1370 H     1 <1>   0.0800 
 37 H       -5.7020    -2.3690    -0.4860 H     1 <1>   0.0800 
 38 H       -5.8980    -1.3970     0.9270 H     1 <1>   0.0800 
 39 H       -7.9870    -2.4380     0.5750 H     1 <1>   0.0800 
 40 H       -7.3010    -3.2560     1.9420 H     1 <1>   0.0800 
 41 H       -6.9910    -6.1020    -2.0630 H     1 <1>   0.0800 
 42 H       -8.3760    -5.4700    -2.8810 H     1 <1>   0.0800 
 43 H       -7.4450    -8.3260    -1.3130 H     1 <1>   0.1500 
 44 H      -10.5390    -5.3920    -1.0480 H     1 <1>   0.1500 
 45 H      -11.9940    -7.0420     0.0290 H     1 <1>   0.1500 
 46 H      -11.1990    -9.3080     0.4470 H     1 <1>   0.1500 
 47 H       -8.8600   -12.1170     0.4050 H     1 <1>   0.0800 
 48 H      -10.3420   -11.4230    -0.2440 H     1 <1>   0.0800 
 49 H       -9.7610   -10.9460     1.3620 H     1 <1>   0.0800 
@<TRIPOS>BOND
  1   1   2  2   
  2   2   3  am  
  3   2   4  am  
  4   3   5  1   
  5   3  26  1   
  6   4  27  1   
  7   4  28  1   
  8   5   6  1   
  9   5  29  1   
 10   5  30  1   
 11   6   7  2   
 12   6   8  am  
 13   8   9  1   
 14   8  10  1   
 15   9  11  1   
 16   9  31  1   
 17   9  32  1   
 18  10  12  1   
 19  10  33  1   
 20  10  34  1   
 21  11  13  1   
 22  11  35  1   
 23  11  36  1   
 24  12  14  1   
 25  12  37  1   
 26  12  38  1   
 27  13  14  1   
 28  13  15  am  
 29  14  39  1   
 30  14  40  1   
 31  15  16  2   
 32  15  17  1   
 33  17  18  1   
 34  17  41  1   
 35  17  42  1   
 36  18  19  ar  
 37  18  20  ar  
 38  19  21  ar  
 39  19  43  1   
 40  20  22  ar  
 41  20  44  1   
 42  21  23  1   
 43  21  24  ar  
 44  22  24  ar  
 45  22  45  1   
 46  23  25  1   
 47  24  46  1   
 48  25  47  1   
 49  25  48  1   
 50  25  49  1   
@<TRIPOS>SUBSTRUCTURE
  1 ****  11 GROUP 4 **** **** 0

# MOE 2024.06 (io_trps.svl 2023.06)
