@<TRIPOS>MOLECULE
NONAME
39 40 1 0 0 
SMALL
USER_CHARGES


@<TRIPOS>ATOM
  1 S       -1.7830    -0.2060    -1.5400 S.3   1 <1>  -0.3320 
  2 C       -2.4220     0.2400     0.0790 C.ar  1 <1>   0.4120 
  3 C       -0.9220     1.3120    -2.1510 C.3   1 <1>  -0.0100 
  4 N       -2.1640     1.4850     0.4550 N.ar  1 <1>  -0.6200 
  5 C       -3.1250    -0.7150     0.8150 C.ar  1 <1>   0.0860 
  6 C       -2.6180     1.8130     1.6530 C.ar  1 <1>   0.1600 
  7 C       -3.3780    -2.0390     0.3060 C.2   1 <1>   0.5440 
  8 C       -3.5760    -0.3320     2.0710 C.ar  1 <1>  -0.1500 
  9 C       -3.3150     0.9560     2.4880 C.ar  1 <1>  -0.1500 
 10 O       -2.7520    -2.9820     0.7550 O.2   1 <1>  -0.5700 
 11 N       -4.3550    -2.2750    -0.6350 N.am  1 <1>  -0.6600 
 12 C       -4.3960    -3.5590    -1.3800 C.3   1 <1>   0.3200 
 13 C       -5.5450    -1.3920    -0.8070 C.3   1 <1>   0.1400 
 14 C       -5.2440    -4.5410    -0.6050 C.2   1 <1>  -0.3320 
 15 C       -5.4050    -0.5080    -2.0500 C.3   1 <1>   0.1200 
 16 N       -4.9030    -4.9370     0.6330 N.pl3 1 <1>   0.0330 
 17 C       -6.3920    -5.1850    -0.9070 C.2   1 <1>   0.0770 
 18 O       -6.5810     0.2030    -2.2390 O.3   1 <1>  -0.6800 
 19 C       -5.8720    -5.7980     1.0110 C.2   1 <1>   0.0060 
 20 N       -6.7850    -5.9730     0.1120 N.2   1 <1>  -0.5650 
 21 C       -5.8730    -6.4830     2.3600 C.3   1 <1>  -0.0600 
 22 H       -0.5170     1.0930    -3.1220 H     1 <1>   0.0800 
 23 H       -0.1410     1.5510    -1.4520 H     1 <1>   0.0800 
 24 H       -1.6470     2.1050    -2.2030 H     1 <1>   0.0800 
 25 H       -2.4230     2.8180     1.9900 H     1 <1>   0.1500 
 26 H       -4.1110    -1.0280     2.6940 H     1 <1>   0.1500 
 27 H       -3.6480     1.2970     3.4520 H     1 <1>   0.1500 
 28 H       -3.3970    -3.9480    -1.4920 H     1 <1>   0.0800 
 29 H       -4.8060    -3.4030    -2.3620 H     1 <1>   0.0800 
 30 H       -5.6640    -0.7640     0.0590 H     1 <1>   0.0800 
 31 H       -6.4240    -2.0070    -0.8940 H     1 <1>   0.0800 
 32 H       -5.2210    -1.0960    -2.9330 H     1 <1>   0.0800 
 33 H       -4.6110     0.2060    -1.9190 H     1 <1>   0.0800 
 34 H       -4.0760    -4.6120     1.1510 H     1 <1>   0.2700 
 35 H       -6.9690    -5.1260    -1.8140 H     1 <1>   0.1500 
 36 H       -7.3130    -0.3870    -2.5040 H     1 <1>   0.4000 
 37 H       -4.9910    -7.0880     2.4650 H     1 <1>   0.0800 
 38 H       -6.7390    -7.1140     2.4460 H     1 <1>   0.0800 
 39 H       -5.8990    -5.7490     3.1440 H     1 <1>   0.0800 
@<TRIPOS>BOND
  1   1   2  1   
  2   1   3  1   
  3   2   4  ar  
  4   2   5  ar  
  5   3  22  1   
  6   3  23  1   
  7   3  24  1   
  8   4   6  ar  
  9   5   7  1   
 10   5   8  ar  
 11   6   9  ar  
 12   6  25  1   
 13   7  10  2   
 14   7  11  am  
 15   8   9  ar  
 16   8  26  1   
 17   9  27  1   
 18  11  12  1   
 19  11  13  1   
 20  12  14  1   
 21  12  28  1   
 22  12  29  1   
 23  13  15  1   
 24  13  30  1   
 25  13  31  1   
 26  14  16  1   
 27  14  17  2   
 28  15  18  1   
 29  15  32  1   
 30  15  33  1   
 31  16  19  1   
 32  16  34  1   
 33  17  20  1   
 34  17  35  1   
 35  18  36  1   
 36  19  20  2   
 37  19  21  1   
 38  21  37  1   
 39  21  38  1   
 40  21  39  1   
@<TRIPOS>SUBSTRUCTURE
  1 ****  11 GROUP 4 **** **** 0

# MOE 2024.06 (io_trps.svl 2023.06)
