@<TRIPOS>MOLECULE
NONAME
58 61 1 0 0 
SMALL
USER_CHARGES


@<TRIPOS>ATOM
  1 O       -2.5340     0.7570     1.7480 O.2   1 <1>  -0.5700 
  2 C       -2.6290     1.3340     0.6920 C.2   1 <1>   0.5690 
  3 N       -2.8850     0.6200    -0.4630 N.am  1 <1>  -0.6600 
  4 C       -2.4680     2.8690     0.6810 C.3   1 <1>   0.1610 
  5 C       -2.5770    -0.8530    -0.4620 C.3   1 <1>   0.3210 
  6 C       -3.2510     1.2180    -1.7970 C.3   1 <1>   0.1400 
  7 C       -1.1410     3.3350     0.0880 C.2   1 <1>  -0.3320 
  8 C       -2.6320     3.5350     2.0670 C.3   1 <1>  -0.1600 
  9 C       -3.7930    -1.7220    -0.1410 C.2   1 <1>   0.0460 
 10 C       -4.6730     0.8660    -2.2940 C.3   1 <1>   0.3430 
 11 N       -0.4010     2.6880    -0.8630 N.pl3 1 <1>   0.0330 
 12 C       -0.5030     4.4690     0.4530 C.2   1 <1>  -0.1810 
 13 C       -2.4060     5.0610     1.9950 C.3   1 <1>  -0.1600 
 14 N       -4.7170    -2.0170    -1.0820 N.2   1 <1>  -0.5650 
 15 C       -4.0960    -2.3320     1.0300 C.2   1 <1>  -0.3320 
 16 N       -5.6910     0.7030    -1.2070 N.4   1 <1>  -0.9590 
 17 C        0.7140     3.4410    -1.1230 C.ar  1 <1>  -0.1520 
 18 C        0.6790     4.5710    -0.3110 C.ar  1 <1>   0.0000 
 19 C       -0.9800     5.4200     1.5340 C.3   1 <1>   0.0210 
 20 C       -5.5370    -2.8140    -0.4750 C.2   1 <1>   0.0360 
 21 N       -5.2200    -3.0380     0.8150 N.pl3 1 <1>   0.0330 
 22 C       -3.3890    -2.3300     2.3770 C.3   1 <1>  -0.0600 
 23 C       -6.9710     0.1800    -1.7640 C.3   1 <1>   0.2630 
 24 C       -5.9200     1.9010    -0.3500 C.3   1 <1>   0.2630 
 25 C        1.7740     3.2250    -2.0080 C.ar  1 <1>  -0.1500 
 26 C        1.7170     5.5060    -0.3830 C.ar  1 <1>  -0.1500 
 27 C        2.7870     4.1540    -2.0700 C.ar  1 <1>  -0.1500 
 28 C        2.7580     5.2940    -1.2580 C.ar  1 <1>  -0.1500 
 29 H       -3.2450     3.2800     0.0690 H     1 <1>   0.0800 
 30 H       -1.8080    -1.0570     0.2620 H     1 <1>   0.0800 
 31 H       -2.1860    -1.1470    -1.4200 H     1 <1>   0.0800 
 32 H       -2.5440     0.8820    -2.5370 H     1 <1>   0.0800 
 33 H       -3.1650     2.2870    -1.7730 H     1 <1>   0.0800 
 34 H       -1.9160     3.1100     2.7500 H     1 <1>   0.0800 
 35 H       -3.6150     3.3290     2.4530 H     1 <1>   0.0800 
 36 H       -4.6040    -0.0670    -2.8310 H     1 <1>   0.0800 
 37 H       -4.9980     1.6150    -2.9960 H     1 <1>   0.0800 
 38 H       -0.5760     1.7570    -1.2500 H     1 <1>   0.2700 
 39 H       -2.5870     5.5040     2.9590 H     1 <1>   0.0800 
 40 H       -3.1100     5.4880     1.3020 H     1 <1>   0.0800 
 41 H       -5.2910    -0.0660    -0.6190 H     1 <1>   0.4500 
 42 H       -0.9530     6.4330     1.1720 H     1 <1>   0.0800 
 43 H       -0.3040     5.3430     2.3670 H     1 <1>   0.0800 
 44 H       -6.3950    -3.2760    -0.9340 H     1 <1>   0.1500 
 45 H       -5.7110    -3.6420     1.4830 H     1 <1>   0.2700 
 46 H       -2.4590    -1.7930     2.3260 H     1 <1>   0.0800 
 47 H       -3.1760    -3.3370     2.6890 H     1 <1>   0.0800 
 48 H       -4.0060    -1.8580     3.1200 H     1 <1>   0.0800 
 49 H       -7.4150     0.9000    -2.4310 H     1 <1>   0.0800 
 50 H       -7.6640    -0.0320    -0.9660 H     1 <1>   0.0800 
 51 H       -6.7890    -0.7340    -2.3070 H     1 <1>   0.0800 
 52 H       -6.2510     2.7340    -0.9480 H     1 <1>   0.0800 
 53 H       -5.0140     2.1720     0.1610 H     1 <1>   0.0800 
 54 H       -6.6710     1.6860     0.3920 H     1 <1>   0.0800 
 55 H        1.7920     2.3460    -2.6260 H     1 <1>   0.1500 
 56 H        1.6850     6.3750     0.2470 H     1 <1>   0.1500 
 57 H        3.6140     4.0120    -2.7430 H     1 <1>   0.1500 
 58 H        3.5630     6.0050    -1.3240 H     1 <1>   0.1500 
@<TRIPOS>BOND
  1   1   2  2   
  2   2   3  am  
  3   2   4  1   
  4   3   5  1   
  5   3   6  1   
  6   4   7  1   
  7   4   8  1   
  8   4  29  1   
  9   5   9  1   
 10   5  30  1   
 11   5  31  1   
 12   6  10  1   
 13   6  32  1   
 14   6  33  1   
 15   7  11  1   
 16   7  12  2   
 17   8  13  1   
 18   8  34  1   
 19   8  35  1   
 20   9  14  1   
 21   9  15  2   
 22  10  16  1   
 23  10  36  1   
 24  10  37  1   
 25  11  17  1   
 26  11  38  1   
 27  12  18  1   
 28  12  19  1   
 29  13  19  1   
 30  13  39  1   
 31  13  40  1   
 32  14  20  2   
 33  15  21  1   
 34  15  22  1   
 35  16  23  1   
 36  16  24  1   
 37  16  41  1   
 38  17  18  ar  
 39  17  25  ar  
 40  18  26  ar  
 41  19  42  1   
 42  19  43  1   
 43  20  21  1   
 44  20  44  1   
 45  21  45  1   
 46  22  46  1   
 47  22  47  1   
 48  22  48  1   
 49  23  49  1   
 50  23  50  1   
 51  23  51  1   
 52  24  52  1   
 53  24  53  1   
 54  24  54  1   
 55  25  27  ar  
 56  25  55  1   
 57  26  28  ar  
 58  26  56  1   
 59  27  28  ar  
 60  27  57  1   
 61  28  58  1   
@<TRIPOS>SUBSTRUCTURE
  1 ****   2 GROUP 4 **** **** 0

# MOE 2024.06 (io_trps.svl 2023.06)
