@<TRIPOS>MOLECULE
NONAME
61 63 1 0 0 
SMALL
USER_CHARGES


@<TRIPOS>ATOM
  1 S       -1.2380     2.0310    -0.6670 S.3   1 <1>  -0.4600 
  2 C       -2.0420     0.4470    -1.1110 C.3   1 <1>   0.1310 
  3 C        0.1120     2.1680    -1.8680 C.3   1 <1>  -0.0100 
  4 C       -3.0660    -0.0070    -0.0720 C.2   1 <1>   0.5690 
  5 O       -2.8570    -1.0720     0.4630 O.2   1 <1>  -0.5700 
  6 N       -4.1950     0.7280     0.2130 N.am  1 <1>  -0.6600 
  7 C       -4.5170     2.0320    -0.4380 C.3   1 <1>   0.1400 
  8 C       -5.1230     0.2750     1.2930 C.3   1 <1>   0.1400 
  9 C       -6.0330     2.2280    -0.4700 C.3   1 <1>  -0.1600 
 10 C       -5.8100     1.4720     1.9570 C.3   1 <1>  -0.1600 
 11 C       -6.6220     2.3320     0.9570 C.3   1 <1>   0.2800 
 12 O       -6.3930     3.6660     1.3510 O.3   1 <1>  -0.5600 
 13 C       -8.1420     1.9640     1.0200 C.3   1 <1>   0.2000 
 14 C       -7.4680     4.5240     1.5940 C.3   1 <1>   0.1200 
 15 O       -8.3680     0.6620     0.5510 O.3   1 <1>  -0.6800 
 16 C       -9.0980     3.0180     0.3640 C.3   1 <1>   0.3000 
 17 C       -8.4620     4.4220     0.4380 C.3   1 <1>  -0.1600 
 18 N      -10.3290     3.1130     1.1990 N.am  1 <1>  -0.7300 
 19 C       -9.4310     2.7330    -1.1110 C.3   1 <1>  -0.2400 
 20 C      -11.5950     2.6230     1.2480 C.2   1 <1>   0.5690 
 21 O      -12.2260     2.8890     2.2410 O.2   1 <1>  -0.5700 
 22 C      -12.2710     1.7730     0.1610 C.3   1 <1>  -0.0190 
 23 C      -13.8040     1.9650     0.1290 C.3   1 <1>  -0.1600 
 24 C      -11.9420     0.2780     0.3360 C.3   1 <1>  -0.1600 
 25 C      -14.4580     1.1190    -0.9730 C.3   1 <1>  -0.1600 
 26 C      -12.5900    -0.5790    -0.7610 C.3   1 <1>  -0.1600 
 27 C      -14.1080    -0.3650    -0.8080 C.3   1 <1>  -0.1600 
 28 H       -2.5080     0.5760    -2.0690 H     1 <1>   0.0800 
 29 H       -1.2600    -0.2850    -1.1880 H     1 <1>   0.0800 
 30 H        0.6320     3.0880    -1.6710 H     1 <1>   0.0800 
 31 H       -0.3160     2.1750    -2.8550 H     1 <1>   0.0800 
 32 H        0.7650     1.3240    -1.7330 H     1 <1>   0.0800 
 33 H       -4.0560     2.8310     0.1190 H     1 <1>   0.0800 
 34 H       -4.1350     2.0530    -1.4430 H     1 <1>   0.0800 
 35 H       -5.8590    -0.3870     0.8710 H     1 <1>   0.0800 
 36 H       -4.5720    -0.2750     2.0390 H     1 <1>   0.0800 
 37 H       -6.4510     1.3950    -1.0020 H     1 <1>   0.0800 
 38 H       -6.2580     3.1170    -1.0290 H     1 <1>   0.0800 
 39 H       -5.0410     2.0680     2.4170 H     1 <1>   0.0800 
 40 H       -6.4450     1.1080     2.7440 H     1 <1>   0.0800 
 41 H       -8.3930     1.9280     2.0660 H     1 <1>   0.0800 
 42 H       -7.9170     4.2580     2.5360 H     1 <1>   0.0800 
 43 H       -7.0730     5.5230     1.6680 H     1 <1>   0.0800 
 44 H       -8.1920     0.6090    -0.4070 H     1 <1>   0.4000 
 45 H       -9.2230     5.1760     0.5380 H     1 <1>   0.0800 
 46 H       -7.9250     4.6520    -0.4640 H     1 <1>   0.0800 
 47 H      -10.1450     3.6410     2.0520 H     1 <1>   0.3700 
 48 H       -8.5480     2.8010    -1.7180 H     1 <1>   0.0800 
 49 H      -10.1370     3.4560    -1.4780 H     1 <1>   0.0800 
 50 H       -9.8280     1.7450    -1.2440 H     1 <1>   0.0800 
 51 H      -11.9220     2.1010    -0.7940 H     1 <1>   0.0800 
 52 H      -14.2200     1.6830     1.0820 H     1 <1>   0.0800 
 53 H      -14.0320     3.0050    -0.0310 H     1 <1>   0.0800 
 54 H      -10.8790     0.1310     0.3190 H     1 <1>   0.0800 
 55 H      -12.2970    -0.0480     1.2990 H     1 <1>   0.0800 
 56 H      -15.5260     1.2430    -0.9340 H     1 <1>   0.0800 
 57 H      -14.1200     1.4620    -1.9360 H     1 <1>   0.0800 
 58 H      -12.1640    -0.3200    -1.7150 H     1 <1>   0.0800 
 59 H      -12.3790    -1.6180    -0.5770 H     1 <1>   0.0800 
 60 H      -14.5280    -0.9280    -1.6240 H     1 <1>   0.0800 
 61 H      -14.5460    -0.7320     0.1050 H     1 <1>   0.0800 
@<TRIPOS>BOND
  1   1   2  1   
  2   1   3  1   
  3   2   4  1   
  4   2  28  1   
  5   2  29  1   
  6   3  30  1   
  7   3  31  1   
  8   3  32  1   
  9   4   5  2   
 10   4   6  am  
 11   6   7  1   
 12   6   8  1   
 13   7   9  1   
 14   7  33  1   
 15   7  34  1   
 16   8  10  1   
 17   8  35  1   
 18   8  36  1   
 19   9  11  1   
 20   9  37  1   
 21   9  38  1   
 22  10  11  1   
 23  10  39  1   
 24  10  40  1   
 25  11  12  1   
 26  11  13  1   
 27  12  14  1   
 28  13  15  1   
 29  13  16  1   
 30  13  41  1   
 31  14  17  1   
 32  14  42  1   
 33  14  43  1   
 34  15  44  1   
 35  16  17  1   
 36  16  18  1   
 37  16  19  1   
 38  17  45  1   
 39  17  46  1   
 40  18  20  am  
 41  18  47  1   
 42  19  48  1   
 43  19  49  1   
 44  19  50  1   
 45  20  21  2   
 46  20  22  1   
 47  22  23  1   
 48  22  24  1   
 49  22  51  1   
 50  23  25  1   
 51  23  52  1   
 52  23  53  1   
 53  24  26  1   
 54  24  54  1   
 55  24  55  1   
 56  25  27  1   
 57  25  56  1   
 58  25  57  1   
 59  26  27  1   
 60  26  58  1   
 61  26  59  1   
 62  27  60  1   
 63  27  61  1   
@<TRIPOS>SUBSTRUCTURE
  1 ****  13 GROUP 4 **** **** 0

# MOE 2024.06 (io_trps.svl 2023.06)
