@<TRIPOS>MOLECULE
NONAME
57 58 1 0 0 
SMALL
USER_CHARGES


@<TRIPOS>ATOM
  1 O       -1.8380     1.1830    -2.2270 O.co2 1 <1>  -0.9000 
  2 C       -2.0970     1.5740    -1.0840 C.2   1 <1>   0.9060 
  3 O       -3.0860     1.1470    -0.4670 O.co2 1 <1>  -0.9000 
  4 C       -1.2130     2.6280    -0.4000 C.3   1 <1>  -0.1060 
  5 C       -2.1890     3.7410     0.0530 C.3   1 <1>   0.2000 
  6 C       -0.2530     3.2180    -1.4640 C.3   1 <1>   0.1400 
  7 C       -0.4230     1.8820     0.7280 C.3   1 <1>  -0.1600 
  8 O       -2.9310     3.3100     1.1330 O.3   1 <1>  -0.6800 
  9 C       -1.5570     5.0900     0.3950 C.3   1 <1>  -0.1600 
 10 N        0.3680     4.5220    -1.0420 N.am  1 <1>  -0.6600 
 11 C        0.3800     2.7070     1.7450 C.3   1 <1>  -0.1600 
 12 C       -0.6550     5.5600    -0.7440 C.3   1 <1>   0.1400 
 13 C        1.7440     4.6960    -1.0580 C.2   1 <1>   0.5690 
 14 C        1.2200     1.7990     2.6460 C.3   1 <1>  -0.2400 
 15 O        2.4550     3.7860    -1.4350 O.2   1 <1>  -0.5700 
 16 C        2.4640     6.0010    -0.5700 C.3   1 <1>   0.3410 
 17 O        1.8730     7.1400    -1.2200 O.3   1 <1>  -0.3630 
 18 C        2.3030     6.1590     0.9530 C.3   1 <1>  -0.2400 
 19 C        3.9840     5.9500    -0.8670 C.3   1 <1>  -0.2400 
 20 C        2.4740     8.3550    -1.3160 C.ar  1 <1>   0.0820 
 21 C        2.1820     9.3960    -0.4310 C.ar  1 <1>  -0.1440 
 22 C        3.3600     8.5580    -2.3640 C.ar  1 <1>  -0.1500 
 23 C        2.8560    10.6090    -0.5670 C.ar  1 <1>  -0.1440 
 24 C        1.1240     9.2370     0.6590 C.3   1 <1>  -0.0970 
 25 C        4.0130     9.7650    -2.5020 C.ar  1 <1>  -0.1500 
 26 C        3.7670    10.7820    -1.5990 C.ar  1 <1>  -0.1500 
 27 C        2.6210    11.7750     0.3850 C.3   1 <1>  -0.0970 
 28 H       -2.8900     3.9070    -0.7490 H     1 <1>   0.0800 
 29 H       -0.8030     3.4010    -2.3720 H     1 <1>   0.0800 
 30 H        0.4980     2.4860    -1.7030 H     1 <1>   0.0800 
 31 H       -1.1240     1.2840     1.2870 H     1 <1>   0.0800 
 32 H        0.2450     1.1880     0.2460 H     1 <1>   0.0800 
 33 H       -3.2510     2.4010     0.8720 H     1 <1>   0.4000 
 34 H       -2.3390     5.8110     0.5410 H     1 <1>   0.0800 
 35 H       -0.9860     5.0340     1.2980 H     1 <1>   0.0800 
 36 H        1.0340     3.3890     1.2380 H     1 <1>   0.0800 
 37 H       -0.2990     3.2660     2.3630 H     1 <1>   0.0800 
 38 H       -0.2150     6.4940    -0.4690 H     1 <1>   0.0800 
 39 H       -1.2460     5.7250    -1.6290 H     1 <1>   0.0800 
 40 H        1.9280     1.2430     2.0570 H     1 <1>   0.0800 
 41 H        0.5860     1.1080     3.1720 H     1 <1>   0.0800 
 42 H        1.7590     2.3900     3.3640 H     1 <1>   0.0800 
 43 H        2.7090     5.2940     1.4450 H     1 <1>   0.0800 
 44 H        1.2700     6.2360     1.2280 H     1 <1>   0.0800 
 45 H        2.8380     7.0220     1.3020 H     1 <1>   0.0800 
 46 H        4.4210     5.1000    -0.3740 H     1 <1>   0.0800 
 47 H        4.4890     6.8280    -0.5080 H     1 <1>   0.0800 
 48 H        4.1510     5.8330    -1.9220 H     1 <1>   0.0800 
 49 H        3.5350     7.7680    -3.0710 H     1 <1>   0.1500 
 50 H        0.4930    10.1050     0.6970 H     1 <1>   0.0800 
 51 H        1.5970     9.1080     1.6150 H     1 <1>   0.0800 
 52 H        0.4880     8.3960     0.4670 H     1 <1>   0.0800 
 53 H        4.7080     9.9150    -3.3090 H     1 <1>   0.1500 
 54 H        4.2880    11.7160    -1.7120 H     1 <1>   0.1500 
 55 H        3.3530    12.5470     0.2370 H     1 <1>   0.0800 
 56 H        2.6890    11.4440     1.4050 H     1 <1>   0.0800 
 57 H        1.6460    12.1960     0.2140 H     1 <1>   0.0800 
@<TRIPOS>BOND
  1   1   2  ar  
  2   2   3  ar  
  3   2   4  1   
  4   4   5  1   
  5   4   6  1   
  6   4   7  1   
  7   5   8  1   
  8   5   9  1   
  9   5  28  1   
 10   6  10  1   
 11   6  29  1   
 12   6  30  1   
 13   7  11  1   
 14   7  31  1   
 15   7  32  1   
 16   8  33  1   
 17   9  12  1   
 18   9  34  1   
 19   9  35  1   
 20  10  12  1   
 21  10  13  am  
 22  11  14  1   
 23  11  36  1   
 24  11  37  1   
 25  12  38  1   
 26  12  39  1   
 27  13  15  2   
 28  13  16  1   
 29  14  40  1   
 30  14  41  1   
 31  14  42  1   
 32  16  17  1   
 33  16  18  1   
 34  16  19  1   
 35  17  20  1   
 36  18  43  1   
 37  18  44  1   
 38  18  45  1   
 39  19  46  1   
 40  19  47  1   
 41  19  48  1   
 42  20  21  ar  
 43  20  22  ar  
 44  21  23  ar  
 45  21  24  1   
 46  22  25  ar  
 47  22  49  1   
 48  23  26  ar  
 49  23  27  1   
 50  24  50  1   
 51  24  51  1   
 52  24  52  1   
 53  25  26  ar  
 54  25  53  1   
 55  26  54  1   
 56  27  55  1   
 57  27  56  1   
 58  27  57  1   
@<TRIPOS>SUBSTRUCTURE
  1 ****  10 GROUP 4 **** **** 0

# MOE 2024.06 (io_trps.svl 2023.06)
