@<TRIPOS>MOLECULE
NONAME
48 50 1 0 0 
SMALL
USER_CHARGES


@<TRIPOS>ATOM
  1 S        0.5600     0.2760    -1.3830 S.o2  1 <1>   1.3330 
  2 O        1.7960    -0.4710    -1.4670 O.2   1 <1>  -0.6500 
  3 O       -0.1690     0.5820    -2.5930 O.2   1 <1>  -0.6500 
  4 N       -0.5040    -0.5880    -0.3780 N.am  1 <1>  -0.8490 
  5 C        0.8530     1.8020    -0.4740 C.3   1 <1>  -0.0550 
  6 C       -1.9090    -0.1930    -0.5370 C.3   1 <1>   0.1160 
  7 C       -0.3780    -2.0390    -0.5530 C.3   1 <1>   0.1160 
  8 C        1.8900     1.7670     0.6730 C.3   1 <1>  -0.0800 
  9 C        3.3290     1.5670     0.1890 C.3   1 <1>   0.2200 
 10 C        1.7050     0.6820     1.7400 C.3   1 <1>   0.1200 
 11 N        4.1270     2.7720     0.5040 N.am  1 <1>  -0.7300 
 12 C        3.8090     0.3680     1.0040 C.3   1 <1>   0.1200 
 13 O        2.9930     0.3410     2.1310 O.3   1 <1>  -0.5600 
 14 C        4.2140     3.8980    -0.2620 C.2   1 <1>   0.7160 
 15 O        3.5710     3.9410    -1.2980 O.2   1 <1>  -0.5700 
 16 C        5.0420     5.0110     0.1800 C.2   1 <1>   0.2030 
 17 N        5.7420     5.0550     1.3030 N.2   1 <1>  -0.7070 
 18 C        5.2080     6.2010    -0.5330 C.2   1 <1>  -0.1500 
 19 N        6.3390     6.2550     1.2910 N.pl3 1 <1>   0.3000 
 20 C        6.0390     6.9870     0.1940 C.2   1 <1>  -0.2050 
 21 C        6.5490     8.3090    -0.0690 C.ar  1 <1>   0.0530 
 22 C        6.7230     9.2430     0.9510 C.ar  1 <1>  -0.1500 
 23 C        6.8870     8.6910    -1.3640 C.ar  1 <1>  -0.1500 
 24 C        7.2240    10.5050     0.6880 C.ar  1 <1>  -0.1500 
 25 C        7.3880     9.9510    -1.6340 C.ar  1 <1>  -0.1500 
 26 C        7.5590    10.8620    -0.6060 C.ar  1 <1>  -0.1500 
 27 H        1.1840     2.5460    -1.1740 H     1 <1>   0.0800 
 28 H       -0.0800     2.1500    -0.0780 H     1 <1>   0.0800 
 29 H       -2.5210    -0.7020     0.1890 H     1 <1>   0.0800 
 30 H       -2.2610    -0.4410    -1.5260 H     1 <1>   0.0800 
 31 H       -2.0180     0.8670    -0.3890 H     1 <1>   0.0800 
 32 H       -1.0590    -2.5560     0.1020 H     1 <1>   0.0800 
 33 H        0.6230    -2.3550    -0.3120 H     1 <1>   0.0800 
 34 H       -0.5910    -2.3130    -1.5730 H     1 <1>   0.0800 
 35 H        1.8220     2.7130     1.1820 H     1 <1>   0.0800 
 36 H        3.4000     1.3580    -0.8650 H     1 <1>   0.0800 
 37 H        1.2470    -0.2110     1.3580 H     1 <1>   0.0800 
 38 H        1.1600     1.0350     2.5970 H     1 <1>   0.0800 
 39 H        4.5880     2.8010     1.4180 H     1 <1>   0.3700 
 40 H        4.8400     0.4440     1.3020 H     1 <1>   0.0800 
 41 H        3.6490    -0.5470     0.4590 H     1 <1>   0.0800 
 42 H        4.7440     6.4180    -1.4790 H     1 <1>   0.1500 
 43 H        6.9700     6.5660     2.0390 H     1 <1>   0.2700 
 44 H        6.4550     8.9870     1.9590 H     1 <1>   0.1500 
 45 H        6.7600     7.9880    -2.1680 H     1 <1>   0.1500 
 46 H        7.3520    11.2130     1.4880 H     1 <1>   0.1500 
 47 H        7.6450    10.2250    -2.6420 H     1 <1>   0.1500 
 48 H        7.9490    11.8430    -0.8130 H     1 <1>   0.1500 
@<TRIPOS>BOND
  1   1   2  2   
  2   1   3  2   
  3   1   4  am  
  4   1   5  1   
  5   4   6  1   
  6   4   7  1   
  7   5   8  1   
  8   5  27  1   
  9   5  28  1   
 10   6  29  1   
 11   6  30  1   
 12   6  31  1   
 13   7  32  1   
 14   7  33  1   
 15   7  34  1   
 16   8   9  1   
 17   8  10  1   
 18   8  35  1   
 19   9  11  1   
 20   9  12  1   
 21   9  36  1   
 22  10  13  1   
 23  10  37  1   
 24  10  38  1   
 25  11  14  am  
 26  11  39  1   
 27  12  13  1   
 28  12  40  1   
 29  12  41  1   
 30  14  15  2   
 31  14  16  1   
 32  16  17  2   
 33  16  18  1   
 34  17  19  1   
 35  18  20  2   
 36  18  42  1   
 37  19  20  1   
 38  19  43  1   
 39  20  21  1   
 40  21  22  ar  
 41  21  23  ar  
 42  22  24  ar  
 43  22  44  1   
 44  23  25  ar  
 45  23  45  1   
 46  24  26  ar  
 47  24  46  1   
 48  25  26  ar  
 49  25  47  1   
 50  26  48  1   
@<TRIPOS>SUBSTRUCTURE
  1 ****  14 GROUP 4 **** **** 0

# MOE 2024.06 (io_trps.svl 2023.06)
