@<TRIPOS>MOLECULE
NONAME
55 58 1 0 0 
SMALL
USER_CHARGES


@<TRIPOS>ATOM
  1 O       -0.4060    -0.5430    -0.4150 O.3   1 <1>  -0.5600 
  2 C       -1.5400    -1.3610    -0.3860 C.3   1 <1>   0.1200 
  3 C        0.7490    -1.1850    -0.8620 C.3   1 <1>   0.1200 
  4 C       -1.3210    -2.5540     0.5600 C.3   1 <1>   0.2090 
  5 C        1.1020    -2.3660     0.0630 C.3   1 <1>   0.2090 
  6 N       -0.0620    -3.3120     0.2060 N.pl3 1 <1>  -0.8380 
  7 C       -0.0640    -4.6620     0.0310 C.ar  1 <1>   0.7710 
  8 N       -1.2140    -5.3170     0.0440 N.ar  1 <1>  -0.6200 
  9 N        1.1060    -5.3020    -0.1460 N.ar  1 <1>  -0.1790 
 10 C       -1.2010    -6.6250    -0.1290 C.ar  1 <1>   0.4100 
 11 C        1.1740    -6.6400    -0.3340 C.ar  1 <1>   0.2180 
 12 N       -2.3960    -7.2690    -0.1040 N.pl3 1 <1>  -0.8380 
 13 C        0.0050    -7.3230    -0.3310 C.ar  1 <1>  -0.1500 
 14 C        2.5350    -7.2960    -0.5330 C.3   1 <1>  -0.0170 
 15 C       -3.7020    -6.5710     0.0880 C.3   1 <1>   0.2090 
 16 C       -2.6150    -8.7390    -0.1470 C.3   1 <1>   0.2090 
 17 C        3.4300    -7.1550     0.7050 C.3   1 <1>  -0.2400 
 18 C       -4.7610    -7.6760     0.1060 C.3   1 <1>   0.2000 
 19 C       -4.0030    -8.9540     0.4540 C.3   1 <1>  -0.0800 
 20 O       -5.7490    -7.4390     1.0510 O.3   1 <1>  -0.6800 
 21 C       -4.7010   -10.2330    -0.0340 C.3   1 <1>   0.0200 
 22 C       -3.7850   -11.4360     0.0910 C.2   1 <1>  -0.0400 
 23 O       -3.1960   -11.6960     1.2280 O.3   1 <1>  -0.0190 
 24 C       -3.3990   -12.3650    -0.7950 C.2   1 <1>  -0.1500 
 25 N       -2.4260   -12.7410     1.1460 N.2   1 <1>  -0.4100 
 26 C       -2.5340   -13.1710    -0.0600 C.2   1 <1>   0.1080 
 27 C       -1.8130   -14.3880    -0.5960 C.3   1 <1>  -0.0590 
 28 H       -2.3660    -0.7640    -0.0440 H     1 <1>   0.0800 
 29 H       -1.7500    -1.7000    -1.3860 H     1 <1>   0.0800 
 30 H        0.5870    -1.5200    -1.8720 H     1 <1>   0.0800 
 31 H        1.5440    -0.4600    -0.8630 H     1 <1>   0.0800 
 32 H       -2.1950    -3.1800     0.5210 H     1 <1>   0.0800 
 33 H       -1.2390    -2.1830     1.5670 H     1 <1>   0.0800 
 34 H        1.3610    -1.9720     1.0320 H     1 <1>   0.0800 
 35 H        1.9680    -2.8590    -0.3390 H     1 <1>   0.0800 
 36 H        1.9360    -4.7300    -0.1010 H     1 <1>   0.4570 
 37 H       -0.0220    -8.3850    -0.4800 H     1 <1>   0.1500 
 38 H        2.3980    -8.3440    -0.7400 H     1 <1>   0.0800 
 39 H        3.0260    -6.8640    -1.3880 H     1 <1>   0.0800 
 40 H       -3.6880    -6.0390     1.0240 H     1 <1>   0.0800 
 41 H       -3.8810    -5.8860    -0.7220 H     1 <1>   0.0800 
 42 H       -2.5900    -9.0700    -1.1710 H     1 <1>   0.0800 
 43 H       -1.8730    -9.2690     0.4260 H     1 <1>   0.0800 
 44 H        2.9490    -7.5840     1.5680 H     1 <1>   0.0800 
 45 H        3.6640    -6.1260     0.9120 H     1 <1>   0.0800 
 46 H        4.3560    -7.6810     0.5460 H     1 <1>   0.0800 
 47 H       -5.2270    -7.7440    -0.8620 H     1 <1>   0.0800 
 48 H       -3.8710    -9.0120     1.5210 H     1 <1>   0.0800 
 49 H       -5.3650    -7.4140     1.9490 H     1 <1>   0.4000 
 50 H       -4.9960   -10.1260    -1.0630 H     1 <1>   0.0800 
 51 H       -5.5890   -10.4000     0.5510 H     1 <1>   0.0800 
 52 H       -3.6660   -12.4910    -1.8280 H     1 <1>   0.1500 
 53 H       -2.5240   -15.0830    -1.0040 H     1 <1>   0.0800 
 54 H       -1.2690   -14.8710     0.1950 H     1 <1>   0.0800 
 55 H       -1.1220   -14.0940    -1.3650 H     1 <1>   0.0800 
@<TRIPOS>BOND
  1   1   2  1   
  2   1   3  1   
  3   2   4  1   
  4   2  28  1   
  5   2  29  1   
  6   3   5  1   
  7   3  30  1   
  8   3  31  1   
  9   4   6  1   
 10   4  32  1   
 11   4  33  1   
 12   5   6  1   
 13   5  34  1   
 14   5  35  1   
 15   6   7  1   
 16   7   8  ar  
 17   7   9  ar  
 18   8  10  ar  
 19   9  11  ar  
 20   9  36  1   
 21  10  12  1   
 22  10  13  ar  
 23  11  13  ar  
 24  11  14  1   
 25  12  15  1   
 26  12  16  1   
 27  13  37  1   
 28  14  17  1   
 29  14  38  1   
 30  14  39  1   
 31  15  18  1   
 32  15  40  1   
 33  15  41  1   
 34  16  19  1   
 35  16  42  1   
 36  16  43  1   
 37  17  44  1   
 38  17  45  1   
 39  17  46  1   
 40  18  19  1   
 41  18  20  1   
 42  18  47  1   
 43  19  21  1   
 44  19  48  1   
 45  20  49  1   
 46  21  22  1   
 47  21  50  1   
 48  21  51  1   
 49  22  23  1   
 50  22  24  2   
 51  23  25  1   
 52  24  26  1   
 53  24  52  1   
 54  25  26  2   
 55  26  27  1   
 56  27  53  1   
 57  27  54  1   
 58  27  55  1   
@<TRIPOS>SUBSTRUCTURE
  1 ****  10 GROUP 4 **** **** 0

# MOE 2024.06 (io_trps.svl 2023.06)
