@<TRIPOS>MOLECULE
NONAME
52 54 1 0 0 
SMALL
USER_CHARGES


@<TRIPOS>ATOM
  1 O        4.3250    -2.2310     1.1430 O.2   1 <1>  -0.5700 
  2 C        3.3040    -1.9700     0.5380 C.2   1 <1>   0.5440 
  3 N        2.9750    -0.6400     0.4190 N.am  1 <1>  -0.6600 
  4 C        2.5290    -3.0200    -0.1000 C.ar  1 <1>   0.0860 
  5 C        3.3320     0.3060     1.5470 C.3   1 <1>   0.2200 
  6 C        2.7780    -0.0770    -0.9490 C.3   1 <1>   0.1400 
  7 C        1.1320    -3.0250    -0.0840 C.ar  1 <1>  -0.1500 
  8 C        3.1680    -4.0720    -0.7520 C.ar  1 <1>  -0.1500 
  9 C        2.4920     1.5950     1.5440 C.3   1 <1>   0.1200 
 10 C        4.8410     0.6560     1.5550 C.3   1 <1>   0.3430 
 11 C        3.5650     1.2220    -1.2170 C.3   1 <1>  -0.0800 
 12 C        0.4000    -4.0330    -0.6960 C.ar  1 <1>  -0.1440 
 13 C        2.4520    -5.0710    -1.3820 C.ar  1 <1>  -0.1500 
 14 O        3.0880     2.5680     0.7380 O.3   1 <1>  -0.5600 
 15 N        5.5070     0.3280     0.2500 N.4   1 <1>  -0.9590 
 16 C        2.8600     2.4540    -0.6260 C.3   1 <1>   0.1200 
 17 C        5.0800     1.1960    -0.8980 C.3   1 <1>   0.3430 
 18 C        1.0700    -5.0500    -1.3590 C.ar  1 <1>  -0.1500 
 19 C       -1.1200    -4.0400    -0.6480 C.3   1 <1>   0.4860 
 20 C        6.9880     0.2860     0.4020 C.3   1 <1>   0.2630 
 21 N       -1.5720    -4.6250     0.6500 N.4   1 <1>  -0.9590 
 22 C       -1.1860    -6.0660     0.7820 C.3   1 <1>   0.2630 
 23 C       -3.0440    -4.4510     0.8420 C.3   1 <1>   0.2630 
 24 H        3.1110    -0.1990     2.4720 H     1 <1>   0.0800 
 25 H        3.0810    -0.8120    -1.6770 H     1 <1>   0.0800 
 26 H        1.7270     0.1030    -1.1010 H     1 <1>   0.0800 
 27 H        0.6300    -2.2190     0.4250 H     1 <1>   0.1500 
 28 H        4.2450    -4.1070    -0.7650 H     1 <1>   0.1500 
 29 H        2.4700     2.0020     2.5410 H     1 <1>   0.0800 
 30 H        1.4780     1.4190     1.2310 H     1 <1>   0.0800 
 31 H        5.3020     0.0750     2.3360 H     1 <1>   0.0800 
 32 H        4.9780     1.6970     1.7980 H     1 <1>   0.0800 
 33 H        3.5010     1.3750    -2.2790 H     1 <1>   0.0800 
 34 H        2.9730    -5.8670    -1.8890 H     1 <1>   0.1500 
 35 H        5.1700    -0.6380     0.0730 H     1 <1>   0.4500 
 36 H        1.7970     2.4310    -0.8010 H     1 <1>   0.0800 
 37 H        3.2500     3.3500    -1.0800 H     1 <1>   0.0800 
 38 H        5.4060     2.2080    -0.7150 H     1 <1>   0.0800 
 39 H        5.5940     0.8530    -1.7810 H     1 <1>   0.0800 
 40 H        0.5330    -5.8380    -1.8630 H     1 <1>   0.1500 
 41 H       -1.5090    -4.6180    -1.4710 H     1 <1>   0.0800 
 42 H       -1.4820    -3.0300    -0.7440 H     1 <1>   0.0800 
 43 H        7.3670     1.2640     0.6490 H     1 <1>   0.0800 
 44 H        7.4480    -0.0440    -0.5150 H     1 <1>   0.0800 
 45 H        7.2600    -0.4020     1.1870 H     1 <1>   0.0800 
 46 H       -1.0750    -4.1080     1.3910 H     1 <1>   0.4500 
 47 H       -1.6430    -6.6520     0.0020 H     1 <1>   0.0800 
 48 H       -1.5050    -6.4530     1.7370 H     1 <1>   0.0800 
 49 H       -0.1150    -6.1750     0.7140 H     1 <1>   0.0800 
 50 H       -3.5890    -4.9800     0.0760 H     1 <1>   0.0800 
 51 H       -3.3100    -3.4070     0.7950 H     1 <1>   0.0800 
 52 H       -3.3440    -4.8360     1.8040 H     1 <1>   0.0800 
@<TRIPOS>BOND
  1   1   2  2   
  2   2   3  am  
  3   2   4  1   
  4   3   5  1   
  5   3   6  1   
  6   4   7  ar  
  7   4   8  ar  
  8   5   9  1   
  9   5  10  1   
 10   5  24  1   
 11   6  11  1   
 12   6  25  1   
 13   6  26  1   
 14   7  12  ar  
 15   7  27  1   
 16   8  13  ar  
 17   8  28  1   
 18   9  14  1   
 19   9  29  1   
 20   9  30  1   
 21  10  15  1   
 22  10  31  1   
 23  10  32  1   
 24  11  16  1   
 25  11  17  1   
 26  11  33  1   
 27  12  18  ar  
 28  12  19  1   
 29  13  18  ar  
 30  13  34  1   
 31  14  16  1   
 32  15  17  1   
 33  15  20  1   
 34  15  35  1   
 35  16  36  1   
 36  16  37  1   
 37  17  38  1   
 38  17  39  1   
 39  18  40  1   
 40  19  21  1   
 41  19  41  1   
 42  19  42  1   
 43  20  43  1   
 44  20  44  1   
 45  20  45  1   
 46  21  22  1   
 47  21  23  1   
 48  21  46  1   
 49  22  47  1   
 50  22  48  1   
 51  22  49  1   
 52  23  50  1   
 53  23  51  1   
 54  23  52  1   
@<TRIPOS>SUBSTRUCTURE
  1 ****   2 GROUP 4 **** **** 0

# MOE 2024.06 (io_trps.svl 2023.06)
