@<TRIPOS>MOLECULE
NONAME
48 50 1 0 0 
SMALL
USER_CHARGES


@<TRIPOS>ATOM
  1 CL       2.2160     0.2440     2.5190 Cl    1 <1>  -0.1230 
  2 C        3.7950     0.6920     1.9000 C.2   1 <1>   0.1230 
  3 C        4.0620     1.6540     0.9240 C.2   1 <1>   0.2030 
  4 C        4.9700     0.1590     2.2700 C.2   1 <1>  -0.3020 
  5 N        5.3740     1.6990     0.7060 N.2   1 <1>  -0.7070 
  6 C        3.0710     2.4890     0.2660 C.2   1 <1>   0.7160 
  7 N        5.9110     0.7830     1.5370 N.pl3 1 <1>   0.3140 
  8 O        2.1220     2.9420     0.8780 O.2   1 <1>  -0.5700 
  9 N        3.2420     2.8910    -1.0510 N.am  1 <1>  -0.6600 
 10 C        7.3600     0.5310     1.5960 C.3   1 <1>   0.0160 
 11 C        3.9910     2.0770    -2.0610 C.3   1 <1>   0.1400 
 12 C        2.8620     4.2610    -1.4710 C.3   1 <1>   0.1400 
 13 C        5.3410     2.7110    -2.4620 C.3   1 <1>   0.3430 
 14 C        3.9470     5.2450    -1.0080 C.3   1 <1>  -0.1600 
 15 N        5.8430     3.6480    -1.4100 N.4   1 <1>  -0.9590 
 16 C        5.3430     5.0390    -1.6120 C.3   1 <1>   0.3430 
 17 C        7.3200     3.5250    -1.2430 C.3   1 <1>   0.3430 
 18 C        7.7950     4.1180     0.0900 C.3   1 <1>   0.0200 
 19 C        9.1200     3.4990     0.4950 C.2   1 <1>   0.0060 
 20 N        9.6060     2.4440    -0.0770 N.2   1 <1>  -0.5650 
 21 N        9.9000     3.9840     1.4940 N.pl3 1 <1>   0.0480 
 22 C       10.7670     2.2310     0.5690 C.2   1 <1>   0.0770 
 23 C       10.9590     3.1580     1.5300 C.2   1 <1>  -0.3020 
 24 C        9.6840     5.1500     2.3710 C.3   1 <1>   0.0160 
 25 H        5.1780    -0.6080     2.9930 H     1 <1>   0.1500 
 26 H        7.5480    -0.3920     2.1110 H     1 <1>   0.0800 
 27 H        7.8400     1.3390     2.1170 H     1 <1>   0.0800 
 28 H        7.7520     0.4710     0.5980 H     1 <1>   0.0800 
 29 H        3.3820     1.9470    -2.9390 H     1 <1>   0.0800 
 30 H        4.1770     1.0930    -1.6660 H     1 <1>   0.0800 
 31 H        1.9190     4.5260    -1.0190 H     1 <1>   0.0800 
 32 H        2.7350     4.3030    -2.5390 H     1 <1>   0.0800 
 33 H        5.2300     3.2350    -3.3960 H     1 <1>   0.0800 
 34 H        6.0510     1.9150    -2.6180 H     1 <1>   0.0800 
 35 H        4.0130     5.2180     0.0650 H     1 <1>   0.0800 
 36 H        3.6220     6.2370    -1.2660 H     1 <1>   0.0800 
 37 H        5.4340     3.2660    -0.5300 H     1 <1>   0.4500 
 38 H        6.0170     5.7370    -1.1430 H     1 <1>   0.0800 
 39 H        5.3200     5.2650    -2.6660 H     1 <1>   0.0800 
 40 H        7.8440     3.9880    -2.0620 H     1 <1>   0.0800 
 41 H        7.5710     2.4760    -1.2430 H     1 <1>   0.0800 
 42 H        7.0810     3.9050     0.8650 H     1 <1>   0.0800 
 43 H        7.9090     5.1820    -0.0070 H     1 <1>   0.0800 
 44 H       11.4170     1.4110     0.3060 H     1 <1>   0.1500 
 45 H       11.7790     3.2690     2.2170 H     1 <1>   0.1500 
 46 H        8.6900     5.1170     2.7770 H     1 <1>   0.0800 
 47 H        9.8170     6.0530     1.8040 H     1 <1>   0.0800 
 48 H       10.3950     5.1300     3.1770 H     1 <1>   0.0800 
@<TRIPOS>BOND
  1   1   2  1   
  2   2   3  1   
  3   2   4  2   
  4   3   5  2   
  5   3   6  1   
  6   4   7  1   
  7   4  25  1   
  8   5   7  1   
  9   6   8  2   
 10   6   9  am  
 11   7  10  1   
 12   9  11  1   
 13   9  12  1   
 14  10  26  1   
 15  10  27  1   
 16  10  28  1   
 17  11  13  1   
 18  11  29  1   
 19  11  30  1   
 20  12  14  1   
 21  12  31  1   
 22  12  32  1   
 23  13  15  1   
 24  13  33  1   
 25  13  34  1   
 26  14  16  1   
 27  14  35  1   
 28  14  36  1   
 29  15  16  1   
 30  15  17  1   
 31  15  37  1   
 32  16  38  1   
 33  16  39  1   
 34  17  18  1   
 35  17  40  1   
 36  17  41  1   
 37  18  19  1   
 38  18  42  1   
 39  18  43  1   
 40  19  20  2   
 41  19  21  1   
 42  20  22  1   
 43  21  23  1   
 44  21  24  1   
 45  22  23  2   
 46  22  44  1   
 47  23  45  1   
 48  24  46  1   
 49  24  47  1   
 50  24  48  1   
@<TRIPOS>SUBSTRUCTURE
  1 ****   5 GROUP 4 **** **** 0

# MOE 2024.06 (io_trps.svl 2023.06)
