@<TRIPOS>MOLECULE
NONAME
44 46 1 0 0 
SMALL
USER_CHARGES


@<TRIPOS>ATOM
  1 O        0.2530     0.1600     0.5320 O.3   1 <1>  -0.6800 
  2 C        1.0450    -0.4370    -0.4410 C.3   1 <1>   0.2000 
  3 C        1.5410    -1.7720     0.1140 C.3   1 <1>  -0.0800 
  4 C        2.3320     0.3930    -0.5890 C.3   1 <1>   0.3430 
  5 C        2.6360    -1.2950     1.0710 C.3   1 <1>   0.3430 
  6 C        2.0630    -2.6800    -1.0320 C.3   1 <1>  -0.0160 
  7 N        3.3520    -0.2570     0.2980 N.4   1 <1>  -0.9590 
  8 C        3.3010    -3.4860    -0.6700 C.ar  1 <1>   0.1670 
  9 C        4.1280     0.6990     1.1170 C.3   1 <1>   0.5240 
 10 N        4.4600    -2.8400    -0.7390 N.ar  1 <1>  -0.6200 
 11 C        3.1680    -4.8150    -0.2990 C.ar  1 <1>  -0.1500 
 12 C        4.7870     1.6800     0.1740 C.2   1 <1>  -0.1810 
 13 C        5.5310    -3.5690    -0.4470 C.ar  1 <1>   0.1600 
 14 C        4.2900    -5.5500     0.0170 C.ar  1 <1>  -0.1500 
 15 C        4.4520     3.0250     0.0370 C.2   1 <1>   0.1080 
 16 C        5.7850     1.4770    -0.7180 C.2   1 <1>  -0.3320 
 17 C        5.5000    -4.8990    -0.0660 C.ar  1 <1>  -0.1500 
 18 N        5.1650     3.6100    -0.8680 N.2   1 <1>  -0.7070 
 19 C        3.4000     3.7880     0.8150 C.3   1 <1>  -0.0590 
 20 N        5.9950     2.6610    -1.3320 N.pl3 1 <1>   0.3000 
 21 C        6.5840     0.2260    -1.0460 C.3   1 <1>  -0.0600 
 22 H       -0.6590    -0.2020     0.5240 H     1 <1>   0.4000 
 23 H        0.4810    -0.5060    -1.3560 H     1 <1>   0.0800 
 24 H        0.7740    -2.2960     0.6590 H     1 <1>   0.0800 
 25 H        2.1460     1.4150    -0.3050 H     1 <1>   0.0800 
 26 H        2.6800     0.3700    -1.6090 H     1 <1>   0.0800 
 27 H        3.2930    -2.0940     1.3760 H     1 <1>   0.0800 
 28 H        2.1770    -0.8530     1.9410 H     1 <1>   0.0800 
 29 H        2.3130    -2.0950    -1.9000 H     1 <1>   0.0800 
 30 H        1.2750    -3.3470    -1.3360 H     1 <1>   0.0800 
 31 H        4.0220    -0.7660    -0.3070 H     1 <1>   0.4500 
 32 H        3.4800     1.2200     1.8010 H     1 <1>   0.0800 
 33 H        4.8840     0.1770     1.6800 H     1 <1>   0.0800 
 34 H        2.2000    -5.2830    -0.2600 H     1 <1>   0.1500 
 35 H        6.4910    -3.0870    -0.5130 H     1 <1>   0.1500 
 36 H        4.2250    -6.5850     0.3080 H     1 <1>   0.1500 
 37 H        6.4140    -5.4210     0.1580 H     1 <1>   0.1500 
 38 H        2.5760     3.1560     1.0860 H     1 <1>   0.0800 
 39 H        3.0260     4.5980     0.2130 H     1 <1>   0.0800 
 40 H        3.8400     4.2030     1.7030 H     1 <1>   0.0800 
 41 H        6.6930     2.8580    -2.0620 H     1 <1>   0.2700 
 42 H        6.3380    -0.5730    -0.3720 H     1 <1>   0.0800 
 43 H        7.6380     0.4270    -0.9580 H     1 <1>   0.0800 
 44 H        6.3780    -0.0960    -2.0520 H     1 <1>   0.0800 
@<TRIPOS>BOND
  1   1   2  1   
  2   1  22  1   
  3   2   3  1   
  4   2   4  1   
  5   2  23  1   
  6   3   5  1   
  7   3   6  1   
  8   3  24  1   
  9   4   7  1   
 10   4  25  1   
 11   4  26  1   
 12   5   7  1   
 13   5  27  1   
 14   5  28  1   
 15   6   8  1   
 16   6  29  1   
 17   6  30  1   
 18   7   9  1   
 19   7  31  1   
 20   8  10  ar  
 21   8  11  ar  
 22   9  12  1   
 23   9  32  1   
 24   9  33  1   
 25  10  13  ar  
 26  11  14  ar  
 27  11  34  1   
 28  12  15  1   
 29  12  16  2   
 30  13  17  ar  
 31  13  35  1   
 32  14  17  ar  
 33  14  36  1   
 34  15  18  2   
 35  15  19  1   
 36  16  20  1   
 37  16  21  1   
 38  17  37  1   
 39  18  20  1   
 40  19  38  1   
 41  19  39  1   
 42  19  40  1   
 43  20  41  1   
 44  21  42  1   
 45  21  43  1   
 46  21  44  1   
@<TRIPOS>SUBSTRUCTURE
  1 ****   7 GROUP 4 **** **** 0

# MOE 2024.06 (io_trps.svl 2023.06)
