@<TRIPOS>MOLECULE
NONAME
67 71 1 0 0 
SMALL
USER_CHARGES


@<TRIPOS>ATOM
  1 O       -0.7120     0.2740     0.9920 O.2   1 <1>  -0.5700 
  2 C       -1.4610     0.8110     0.2110 C.2   1 <1>   0.5690 
  3 N       -2.3810     0.0900    -0.4940 N.am  1 <1>  -0.6600 
  4 C       -1.3760     2.3230     0.0270 C.3   1 <1>  -0.0990 
  5 C       -3.4800     0.6220    -1.3400 C.3   1 <1>   0.1400 
  6 C       -2.5410    -1.3770    -0.3170 C.3   1 <1>   0.1400 
  7 C       -0.0660     2.9560     0.5470 C.3   1 <1>  -0.0800 
  8 C       -4.5720    -0.4400    -1.2400 C.3   1 <1>   0.2000 
  9 C       -3.7880    -1.7540    -1.1300 C.3   1 <1>  -0.0800 
 10 C       -0.1370     4.4900     0.5080 C.3   1 <1>  -0.1600 
 11 C        1.1620     2.4830    -0.2520 C.3   1 <1>  -0.1600 
 12 O       -5.2770    -0.2150    -0.0670 O.3   1 <1>  -0.6800 
 13 C       -4.5940    -2.9330    -0.5420 C.3   1 <1>  -0.0170 
 14 C        1.1640     5.1210     1.0070 C.3   1 <1>   0.3430 
 15 C        2.4430     3.1300     0.2680 C.3   1 <1>   0.3430 
 16 C       -3.9160    -4.3090    -0.5530 C.ar  1 <1>  -0.1440 
 17 N        2.3170     4.6130     0.2040 N.4   1 <1>  -0.9590 
 18 C       -4.5180    -5.3920     0.1360 C.ar  1 <1>   0.0000 
 19 C       -2.7450    -4.5710    -1.2080 C.ar  1 <1>  -0.1500 
 20 C        3.5880     5.2800     0.5910 C.3   1 <1>   0.4860 
 21 C       -3.8580    -6.6450     0.1170 C.ar  1 <1>   0.3100 
 22 C       -5.7440    -5.3070     0.8400 C.ar  1 <1>  -0.1500 
 23 C       -2.1770    -5.8500    -1.1670 C.ar  1 <1>   0.1600 
 24 C        3.4750     6.7560     0.2650 C.ar  1 <1>  -0.1440 
 25 N       -2.6890    -6.8560    -0.5370 N.ar  1 <1>  -0.6200 
 26 C       -4.4310    -7.7300     0.7990 C.ar  1 <1>  -0.1500 
 27 C       -6.2770    -6.3850     1.4930 C.ar  1 <1>  -0.1500 
 28 C        3.3100     7.6860     1.2820 C.ar  1 <1>  -0.1500 
 29 C        3.5290     7.1880    -1.0540 C.ar  1 <1>  -0.1500 
 30 C       -5.6140    -7.6140     1.4760 C.ar  1 <1>  -0.1500 
 31 C        3.1860     9.0310     0.9820 C.ar  1 <1>  -0.1500 
 32 C        3.4050     8.5340    -1.3510 C.ar  1 <1>  -0.1500 
 33 C        3.2310     9.4550    -0.3340 C.ar  1 <1>  -0.1500 
 34 H       -1.4910     2.5540    -1.0160 H     1 <1>   0.0800 
 35 H       -2.2070     2.7510     0.5560 H     1 <1>   0.0800 
 36 H       -3.8340     1.5810    -1.0040 H     1 <1>   0.0800 
 37 H       -3.1360     0.6960    -2.3570 H     1 <1>   0.0800 
 38 H       -1.6630    -1.8940    -0.6630 H     1 <1>   0.0800 
 39 H       -2.6830    -1.5920     0.7300 H     1 <1>   0.0800 
 40 H        0.0590     2.6570     1.5760 H     1 <1>   0.0800 
 41 H       -5.2630    -0.4190    -2.0650 H     1 <1>   0.0800 
 42 H       -3.4750    -2.0110    -2.1260 H     1 <1>   0.0800 
 43 H       -0.9430     4.8290     1.1350 H     1 <1>   0.0800 
 44 H       -0.3390     4.8340    -0.4920 H     1 <1>   0.0800 
 45 H        1.0420     2.7080    -1.2980 H     1 <1>   0.0800 
 46 H        1.2700     1.4160    -0.1640 H     1 <1>   0.0800 
 47 H       -4.6410    -0.1320     0.6730 H     1 <1>   0.4000 
 48 H       -5.5200    -3.0150    -1.0860 H     1 <1>   0.0800 
 49 H       -4.8400    -2.6920     0.4770 H     1 <1>   0.0800 
 50 H        1.3060     4.8730     2.0470 H     1 <1>   0.0800 
 51 H        1.0960     6.1940     0.9200 H     1 <1>   0.0800 
 52 H        3.2790     2.8000    -0.3300 H     1 <1>   0.0800 
 53 H        2.6100     2.8190     1.2870 H     1 <1>   0.0800 
 54 H        2.1340     4.8810    -0.7700 H     1 <1>   0.4500 
 55 H       -2.2150    -3.8310    -1.7750 H     1 <1>   0.1500 
 56 H        3.7760     5.1470     1.6440 H     1 <1>   0.0800 
 57 H        4.4130     4.8590     0.0390 H     1 <1>   0.0800 
 58 H       -6.2800    -4.3770     0.8650 H     1 <1>   0.1500 
 59 H       -1.2510    -6.0050    -1.6950 H     1 <1>   0.1500 
 60 H       -3.9030    -8.6650     0.7690 H     1 <1>   0.1500 
 61 H       -7.2100    -6.3030     2.0240 H     1 <1>   0.1500 
 62 H        3.2780     7.3820     2.3140 H     1 <1>   0.1500 
 63 H        3.6720     6.4930    -1.8630 H     1 <1>   0.1500 
 64 H       -6.0420    -8.4550     1.9940 H     1 <1>   0.1500 
 65 H        3.0580     9.7540     1.7710 H     1 <1>   0.1500 
 66 H        3.4460     8.8700    -2.3740 H     1 <1>   0.1500 
 67 H        3.1350    10.5020    -0.5660 H     1 <1>   0.1500 
@<TRIPOS>BOND
  1   1   2  2   
  2   2   3  am  
  3   2   4  1   
  4   3   5  1   
  5   3   6  1   
  6   4   7  1   
  7   4  34  1   
  8   4  35  1   
  9   5   8  1   
 10   5  36  1   
 11   5  37  1   
 12   6   9  1   
 13   6  38  1   
 14   6  39  1   
 15   7  10  1   
 16   7  11  1   
 17   7  40  1   
 18   8   9  1   
 19   8  12  1   
 20   8  41  1   
 21   9  13  1   
 22   9  42  1   
 23  10  14  1   
 24  10  43  1   
 25  10  44  1   
 26  11  15  1   
 27  11  45  1   
 28  11  46  1   
 29  12  47  1   
 30  13  16  1   
 31  13  48  1   
 32  13  49  1   
 33  14  17  1   
 34  14  50  1   
 35  14  51  1   
 36  15  17  1   
 37  15  52  1   
 38  15  53  1   
 39  16  18  ar  
 40  16  19  ar  
 41  17  20  1   
 42  17  54  1   
 43  18  21  ar  
 44  18  22  ar  
 45  19  23  ar  
 46  19  55  1   
 47  20  24  1   
 48  20  56  1   
 49  20  57  1   
 50  21  25  ar  
 51  21  26  ar  
 52  22  27  ar  
 53  22  58  1   
 54  23  25  ar  
 55  23  59  1   
 56  24  28  ar  
 57  24  29  ar  
 58  26  30  ar  
 59  26  60  1   
 60  27  30  ar  
 61  27  61  1   
 62  28  31  ar  
 63  28  62  1   
 64  29  32  ar  
 65  29  63  1   
 66  30  64  1   
 67  31  33  ar  
 68  31  65  1   
 69  32  33  ar  
 70  32  66  1   
 71  33  67  1   
@<TRIPOS>SUBSTRUCTURE
  1 ****   2 GROUP 4 **** **** 0

# MOE 2024.06 (io_trps.svl 2023.06)
