@<TRIPOS>MOLECULE
NONAME
49 52 1 0 0 
SMALL
USER_CHARGES


@<TRIPOS>ATOM
  1 O        1.9850    -0.9070    -0.3450 O.3   1 <1>  -0.2800 
  2 C        0.9200    -1.0320     0.4160 C.2   1 <1>   0.2980 
  3 C        2.2750    -2.1080    -0.7580 C.2   1 <1>  -0.0100 
  4 N        0.4880    -2.2410     0.5200 N.2   1 <1>  -0.5650 
  5 C        0.3230     0.2110     1.0740 C.3   1 <1>   0.1000 
  6 C        1.3680    -2.9450    -0.2340 C.2   1 <1>   0.0460 
  7 C       -0.1580     1.2180     0.0200 C.3   1 <1>  -0.2400 
  8 C        1.3320     0.8730     2.0220 C.3   1 <1>  -0.2400 
  9 C        1.2080    -4.4480    -0.3830 C.3   1 <1>   0.5240 
 10 N       -0.2580    -4.7230    -0.4290 N.4   1 <1>  -0.9590 
 11 C       -0.5750    -6.0910     0.1090 C.3   1 <1>   0.3430 
 12 C       -0.8000    -4.3760    -1.7900 C.3   1 <1>   0.3430 
 13 C       -2.0520    -6.2960     0.4760 C.3   1 <1>   0.0960 
 14 C       -2.3210    -4.2420    -1.8070 C.3   1 <1>   0.0200 
 15 N       -2.8630    -6.4580    -0.7440 N.pl3 1 <1>   0.0480 
 16 C       -2.9580    -5.6120    -1.7650 C.2   1 <1>   0.0070 
 17 C       -3.5380    -7.5400    -1.1670 C.2   1 <1>   0.1340 
 18 N       -3.6230    -6.1160    -2.7400 N.2   1 <1>  -0.3380 
 19 N       -3.9890    -7.3380    -2.3680 N.2   1 <1>  -0.3380 
 20 C       -3.6980    -8.7510    -0.4010 C.ar  1 <1>   0.0530 
 21 C       -4.3560    -8.7540     0.8270 C.ar  1 <1>  -0.1500 
 22 C       -3.1810    -9.9570    -0.8680 C.ar  1 <1>  -0.1500 
 23 C       -4.4640    -9.9110     1.5770 C.ar  1 <1>  -0.1500 
 24 C       -3.2870   -11.1170    -0.1230 C.ar  1 <1>  -0.1500 
 25 C       -3.9240   -11.0940     1.1040 C.ar  1 <1>  -0.1500 
 26 H        3.1260    -2.2490    -1.4020 H     1 <1>   0.1500 
 27 H       -0.5280    -0.1010     1.6550 H     1 <1>   0.0800 
 28 H        0.6690     1.5640    -0.5750 H     1 <1>   0.0800 
 29 H       -0.6190     2.0660     0.4950 H     1 <1>   0.0800 
 30 H       -0.8800     0.7570    -0.6310 H     1 <1>   0.0800 
 31 H        2.1960     1.2120     1.4760 H     1 <1>   0.0800 
 32 H        1.6540     0.1690     2.7680 H     1 <1>   0.0800 
 33 H        0.8840     1.7160     2.5170 H     1 <1>   0.0800 
 34 H        1.6450    -4.9210     0.4810 H     1 <1>   0.0800 
 35 H        1.7050    -4.8050    -1.2700 H     1 <1>   0.0800 
 36 H       -0.6090    -3.9920     0.2220 H     1 <1>   0.4500 
 37 H        0.0020    -6.2470     1.0070 H     1 <1>   0.0800 
 38 H       -0.2790    -6.8480    -0.6010 H     1 <1>   0.0800 
 39 H       -0.5050    -5.1220    -2.5110 H     1 <1>   0.0800 
 40 H       -0.3860    -3.4310    -2.1020 H     1 <1>   0.0800 
 41 H       -2.4250    -5.4690     1.0530 H     1 <1>   0.0800 
 42 H       -2.1390    -7.1870     1.0710 H     1 <1>   0.0800 
 43 H       -2.6120    -3.7650    -2.7260 H     1 <1>   0.0800 
 44 H       -2.6690    -3.6270    -0.9970 H     1 <1>   0.0800 
 45 H       -4.7980    -7.8440     1.1940 H     1 <1>   0.1500 
 46 H       -2.6970    -9.9800    -1.8290 H     1 <1>   0.1500 
 47 H       -4.9750    -9.8980     2.5250 H     1 <1>   0.1500 
 48 H       -2.8790   -12.0400    -0.5000 H     1 <1>   0.1500 
 49 H       -4.0080   -11.9970     1.6850 H     1 <1>   0.1500 
@<TRIPOS>BOND
  1   1   2  1   
  2   1   3  1   
  3   2   4  2   
  4   2   5  1   
  5   3   6  2   
  6   3  26  1   
  7   4   6  1   
  8   5   7  1   
  9   5   8  1   
 10   5  27  1   
 11   6   9  1   
 12   7  28  1   
 13   7  29  1   
 14   7  30  1   
 15   8  31  1   
 16   8  32  1   
 17   8  33  1   
 18   9  10  1   
 19   9  34  1   
 20   9  35  1   
 21  10  11  1   
 22  10  12  1   
 23  10  36  1   
 24  11  13  1   
 25  11  37  1   
 26  11  38  1   
 27  12  14  1   
 28  12  39  1   
 29  12  40  1   
 30  13  15  1   
 31  13  41  1   
 32  13  42  1   
 33  14  16  1   
 34  14  43  1   
 35  14  44  1   
 36  15  16  1   
 37  15  17  1   
 38  16  18  2   
 39  17  19  2   
 40  17  20  1   
 41  18  19  1   
 42  20  21  ar  
 43  20  22  ar  
 44  21  23  ar  
 45  21  45  1   
 46  22  24  ar  
 47  22  46  1   
 48  23  25  ar  
 49  23  47  1   
 50  24  25  ar  
 51  24  48  1   
 52  25  49  1   
@<TRIPOS>SUBSTRUCTURE
  1 ****  10 GROUP 4 **** **** 0

# MOE 2024.06 (io_trps.svl 2023.06)
