@<TRIPOS>MOLECULE
NONAME
47 48 1 0 0 
SMALL
USER_CHARGES


@<TRIPOS>ATOM
  1 S        2.7540     0.9230     0.8740 S.o2  1 <1>   1.3330 
  2 O        1.6080     0.1350     0.4750 O.2   1 <1>  -0.6500 
  3 O        3.9050     0.2570     1.4420 O.2   1 <1>  -0.6500 
  4 N        2.2130     2.0870     1.9850 N.am  1 <1>  -0.8490 
  5 C        3.3070     1.8930    -0.5250 C.3   1 <1>  -0.0550 
  6 C        2.2590     1.5960     3.3630 C.3   1 <1>   0.1160 
  7 C        0.8740     2.6030     1.6810 C.3   1 <1>   0.1160 
  8 C        3.7700     1.0380    -1.7240 C.3   1 <1>  -0.0800 
  9 C        4.0510     1.8160    -3.0060 C.3   1 <1>   0.2200 
 10 C        5.0850     0.2880    -1.4690 C.3   1 <1>   0.1200 
 11 N        4.6840     3.1140    -2.6880 N.am  1 <1>  -0.7300 
 12 C        5.0770     0.9130    -3.6720 C.3   1 <1>   0.1200 
 13 O        5.8580     0.4230    -2.6260 O.3   1 <1>  -0.5600 
 14 C        4.0740     4.3240    -2.7390 C.2   1 <1>   0.5690 
 15 O        2.9920     4.4730    -3.2540 O.2   1 <1>  -0.5700 
 16 C        4.7560     5.5010    -2.0650 C.3   1 <1>   0.0440 
 17 C        5.0780     5.1330    -0.6230 C.ar  1 <1>  -0.1440 
 18 C        6.3470     4.7060    -0.2630 C.ar  1 <1>  -0.1500 
 19 C        4.0750     5.1660     0.3330 C.ar  1 <1>  -0.1500 
 20 C        6.6000     4.2890     1.0320 C.ar  1 <1>  -0.1500 
 21 C        4.3290     4.7460     1.6260 C.ar  1 <1>  -0.1500 
 22 C        5.5910     4.2990     1.9800 C.ar  1 <1>  -0.1440 
 23 C        5.8570     3.8110     3.3920 C.3   1 <1>  -0.0970 
 24 H        2.5070     2.5280    -0.8500 H     1 <1>   0.0800 
 25 H        4.1130     2.5200    -0.2030 H     1 <1>   0.0800 
 26 H        1.9290     2.3610     4.0440 H     1 <1>   0.0800 
 27 H        3.2700     1.3280     3.6240 H     1 <1>   0.0800 
 28 H        1.6320     0.7270     3.4720 H     1 <1>   0.0800 
 29 H        0.6170     3.3910     2.3680 H     1 <1>   0.0800 
 30 H        0.1400     1.8180     1.7590 H     1 <1>   0.0800 
 31 H        0.8470     3.0040     0.6830 H     1 <1>   0.0800 
 32 H        3.0100     0.3060    -1.9390 H     1 <1>   0.0800 
 33 H        3.1720     1.9590    -3.6130 H     1 <1>   0.0800 
 34 H        4.9170    -0.7590    -1.2830 H     1 <1>   0.0800 
 35 H        5.6440     0.7130    -0.6520 H     1 <1>   0.0800 
 36 H        5.5720     3.0200    -2.1880 H     1 <1>   0.3700 
 37 H        5.6990     1.4370    -4.3770 H     1 <1>   0.0800 
 38 H        4.5990     0.0760    -4.1500 H     1 <1>   0.0800 
 39 H        5.6510     5.7460    -2.6060 H     1 <1>   0.0800 
 40 H        4.1040     6.3540    -2.0900 H     1 <1>   0.0800 
 41 H        7.1430     4.6830    -0.9860 H     1 <1>   0.1500 
 42 H        3.0860     5.5010     0.0710 H     1 <1>   0.1500 
 43 H        7.5850     3.9490     1.2980 H     1 <1>   0.1500 
 44 H        3.5370     4.7570     2.3540 H     1 <1>   0.1500 
 45 H        6.8890     3.9590     3.6550 H     1 <1>   0.0800 
 46 H        5.6270     2.7620     3.4590 H     1 <1>   0.0800 
 47 H        5.2460     4.3470     4.0960 H     1 <1>   0.0800 
@<TRIPOS>BOND
  1   1   2  2   
  2   1   3  2   
  3   1   4  am  
  4   1   5  1   
  5   4   6  1   
  6   4   7  1   
  7   5   8  1   
  8   5  24  1   
  9   5  25  1   
 10   6  26  1   
 11   6  27  1   
 12   6  28  1   
 13   7  29  1   
 14   7  30  1   
 15   7  31  1   
 16   8   9  1   
 17   8  10  1   
 18   8  32  1   
 19   9  11  1   
 20   9  12  1   
 21   9  33  1   
 22  10  13  1   
 23  10  34  1   
 24  10  35  1   
 25  11  14  am  
 26  11  36  1   
 27  12  13  1   
 28  12  37  1   
 29  12  38  1   
 30  14  15  2   
 31  14  16  1   
 32  16  17  1   
 33  16  39  1   
 34  16  40  1   
 35  17  18  ar  
 36  17  19  ar  
 37  18  20  ar  
 38  18  41  1   
 39  19  21  ar  
 40  19  42  1   
 41  20  22  ar  
 42  20  43  1   
 43  21  22  ar  
 44  21  44  1   
 45  22  23  1   
 46  23  45  1   
 47  23  46  1   
 48  23  47  1   
@<TRIPOS>SUBSTRUCTURE
  1 ****   5 GROUP 4 **** **** 0

# MOE 2024.06 (io_trps.svl 2023.06)
