@<TRIPOS>MOLECULE
NONAME
46 48 1 0 0 
SMALL
USER_CHARGES


@<TRIPOS>ATOM
  1 S        0.6350    -0.2390     2.3680 S.o2  1 <1>   1.4470 
  2 O        0.1540     0.6740     3.3780 O.2   1 <1>  -0.6500 
  3 O        1.7300    -1.1290     2.6860 O.2   1 <1>  -0.6500 
  4 N       -0.6730    -1.2350     2.0410 N.am  1 <1>  -0.9140 
  5 C        0.9240     0.5940     0.7740 C.ar  1 <1>  -0.0090 
  6 C       -0.3390    -2.4550     1.3180 C.3   1 <1>   0.2760 
  7 C        0.0300     1.5080     0.2080 C.ar  1 <1>  -0.1430 
  8 C        2.0800     0.2910     0.0590 C.ar  1 <1>  -0.1500 
  9 C       -1.5750    -2.9930     0.6120 C.3   1 <1>  -0.0800 
 10 C       -0.0760    -3.5920     2.3030 C.3   1 <1>   0.1200 
 11 C        0.3020     2.0770    -1.0270 C.ar  1 <1>  -0.1500 
 12 C       -1.2570     1.9190     0.9150 C.3   1 <1>  -0.0970 
 13 C        2.3530     0.8560    -1.1740 C.ar  1 <1>  -0.1430 
 14 C       -2.2800    -3.7950     1.7120 C.3   1 <1>   0.1200 
 15 C       -2.4660    -1.9400    -0.0750 C.3   1 <1>  -0.0170 
 16 O       -1.3400    -4.0000     2.7270 O.3   1 <1>  -0.5600 
 17 C        1.4550     1.7540    -1.7150 C.ar  1 <1>  -0.1500 
 18 C        3.6280     0.5010    -1.9190 C.3   1 <1>  -0.0970 
 19 C       -3.6060    -2.6040    -0.8270 C.ar  1 <1>  -0.1430 
 20 C       -4.8720    -2.7140    -0.2880 C.ar  1 <1>  -0.1500 
 21 C       -3.4320    -3.1340    -2.0900 C.ar  1 <1>  -0.1500 
 22 C       -5.8730    -3.3360    -1.0150 C.ar  1 <1>   0.1600 
 23 C       -4.5010    -3.7360    -2.7320 C.ar  1 <1>   0.1600 
 24 N       -5.7170    -3.8520    -2.2230 N.ar  1 <1>  -0.6200 
 25 H       -1.0070    -1.5350     2.9570 H     1 <1>   0.4200 
 26 H        0.4770    -2.2970     0.6320 H     1 <1>   0.0800 
 27 H        2.7870    -0.4040     0.4800 H     1 <1>   0.1500 
 28 H       -1.2480    -3.6950    -0.1360 H     1 <1>   0.0800 
 29 H        0.5150    -3.2990     3.1530 H     1 <1>   0.0800 
 30 H        0.3910    -4.4250     1.8080 H     1 <1>   0.0800 
 31 H       -0.3830     2.7830    -1.4640 H     1 <1>   0.1500 
 32 H       -1.8540     2.5620     0.2930 H     1 <1>   0.0800 
 33 H       -1.0270     2.4520     1.8200 H     1 <1>   0.0800 
 34 H       -1.8490     1.0570     1.1600 H     1 <1>   0.0800 
 35 H       -2.6250    -4.7500     1.3530 H     1 <1>   0.0800 
 36 H       -3.1020    -3.2470     2.1390 H     1 <1>   0.0800 
 37 H       -1.8740    -1.3610    -0.7620 H     1 <1>   0.0800 
 38 H       -2.8720    -1.2590     0.6530 H     1 <1>   0.0800 
 39 H        1.6500     2.2090    -2.6710 H     1 <1>   0.1500 
 40 H        3.4680     0.5490    -2.9810 H     1 <1>   0.0800 
 41 H        3.9490    -0.4940    -1.6690 H     1 <1>   0.0800 
 42 H        4.4070     1.1930    -1.6550 H     1 <1>   0.0800 
 43 H       -5.0910    -2.3220     0.6890 H     1 <1>   0.1500 
 44 H       -2.4780    -3.0840    -2.5800 H     1 <1>   0.1500 
 45 H       -6.8550    -3.4140    -0.5800 H     1 <1>   0.1500 
 46 H       -4.3490    -4.1440    -3.7160 H     1 <1>   0.1500 
@<TRIPOS>BOND
  1   1   2  2   
  2   1   3  2   
  3   1   4  am  
  4   1   5  1   
  5   4   6  1   
  6   4  25  1   
  7   5   7  ar  
  8   5   8  ar  
  9   6   9  1   
 10   6  10  1   
 11   6  26  1   
 12   7  11  ar  
 13   7  12  1   
 14   8  13  ar  
 15   8  27  1   
 16   9  14  1   
 17   9  15  1   
 18   9  28  1   
 19  10  16  1   
 20  10  29  1   
 21  10  30  1   
 22  11  17  ar  
 23  11  31  1   
 24  12  32  1   
 25  12  33  1   
 26  12  34  1   
 27  13  17  ar  
 28  13  18  1   
 29  14  16  1   
 30  14  35  1   
 31  14  36  1   
 32  15  19  1   
 33  15  37  1   
 34  15  38  1   
 35  17  39  1   
 36  18  40  1   
 37  18  41  1   
 38  18  42  1   
 39  19  20  ar  
 40  19  21  ar  
 41  20  22  ar  
 42  20  43  1   
 43  21  23  ar  
 44  21  44  1   
 45  22  24  ar  
 46  22  45  1   
 47  23  24  ar  
 48  23  46  1   
@<TRIPOS>SUBSTRUCTURE
  1 ****  15 GROUP 4 **** **** 0

# MOE 2024.06 (io_trps.svl 2023.06)
