@<TRIPOS>MOLECULE
NONAME
48 49 1 0 0 
SMALL
USER_CHARGES


@<TRIPOS>ATOM
  1 O        0.3560    -0.5090     0.5110 O.co2 1 <1>  -0.9000 
  2 C        1.4060    -0.4870    -0.1250 C.2   1 <1>   0.9060 
  3 O        1.6320    -1.1900    -1.1170 O.co2 1 <1>  -0.9000 
  4 C        2.5050     0.4370     0.3460 C.3   1 <1>  -0.1860 
  5 C        3.8000    -0.3570     0.5440 C.3   1 <1>   0.2000 
  6 C        2.7100     1.6450    -0.6060 C.3   1 <1>  -0.1600 
  7 O        4.1950    -0.8510    -0.6870 O.3   1 <1>  -0.6800 
  8 C        4.9220     0.5540     1.0820 C.3   1 <1>   0.3430 
  9 C        4.1740     2.0840    -0.7180 C.3   1 <1>   0.3430 
 10 N        4.8180     1.9990     0.6290 N.4   1 <1>  -0.9590 
 11 C        6.1650     2.6490     0.6740 C.3   1 <1>   0.3430 
 12 C        6.1000     4.1680     0.4910 C.3   1 <1>   0.1200 
 13 O        7.4060     4.6660     0.6520 O.3   1 <1>  -0.3630 
 14 C        7.6740     5.9930     0.5390 C.ar  1 <1>   0.0820 
 15 C        6.7060     6.9640     0.2900 C.ar  1 <1>  -0.1500 
 16 C        8.9980     6.3730     0.6860 C.ar  1 <1>  -0.1500 
 17 C        7.0690     8.2970     0.1890 C.ar  1 <1>  -0.1500 
 18 C        9.3580     7.7040     0.5850 C.ar  1 <1>  -0.1500 
 19 C        8.4020     8.6750     0.3360 C.ar  1 <1>   0.0820 
 20 O        8.8510     9.9560     0.2550 O.3   1 <1>  -0.3620 
 21 C        8.0200    11.0480    -0.0720 C.3   1 <1>   0.2000 
 22 C        7.8060    11.0730    -1.5880 C.3   1 <1>  -0.2400 
 23 C        8.7370    12.3100     0.4000 C.3   1 <1>  -0.2400 
 24 H        2.1980     0.8080     1.3070 H     1 <1>   0.0800 
 25 H        3.6410    -1.2020     1.1940 H     1 <1>   0.0800 
 26 H        2.0930     2.4650    -0.2860 H     1 <1>   0.0800 
 27 H        2.3790     1.3750    -1.5960 H     1 <1>   0.0800 
 28 H        3.3560    -1.2090    -1.1170 H     1 <1>   0.4000 
 29 H        5.8610     0.1300     0.7660 H     1 <1>   0.0800 
 30 H        4.8940     0.5270     2.1580 H     1 <1>   0.0800 
 31 H        4.2180     3.0860    -1.1120 H     1 <1>   0.0800 
 32 H        4.6870     1.4250    -1.4010 H     1 <1>   0.0800 
 33 H        4.1750     2.4640     1.2830 H     1 <1>   0.4500 
 34 H        6.6230     2.4480     1.6290 H     1 <1>   0.0800 
 35 H        6.7910     2.2290    -0.0970 H     1 <1>   0.0800 
 36 H        5.4780     4.6190     1.2430 H     1 <1>   0.0800 
 37 H        5.7660     4.4290    -0.4980 H     1 <1>   0.0800 
 38 H        5.6710     6.7120     0.1720 H     1 <1>   0.1500 
 39 H        9.7460     5.6260     0.8790 H     1 <1>   0.1500 
 40 H        6.3050     9.0240    -0.0030 H     1 <1>   0.1500 
 41 H       10.3850     8.0010     0.6990 H     1 <1>   0.1500 
 42 H        7.0910    10.9530     0.4600 H     1 <1>   0.0800 
 43 H        8.7510    11.1550    -2.0940 H     1 <1>   0.0800 
 44 H        7.1980    11.9170    -1.8580 H     1 <1>   0.0800 
 45 H        7.3080    10.1800    -1.9170 H     1 <1>   0.0800 
 46 H        9.6880    12.4080    -0.0940 H     1 <1>   0.0800 
 47 H        8.8920    12.2660     1.4630 H     1 <1>   0.0800 
 48 H        8.1420    13.1770     0.1790 H     1 <1>   0.0800 
@<TRIPOS>BOND
  1   1   2  ar  
  2   2   3  ar  
  3   2   4  1   
  4   4   5  1   
  5   4   6  1   
  6   4  24  1   
  7   5   7  1   
  8   5   8  1   
  9   5  25  1   
 10   6   9  1   
 11   6  26  1   
 12   6  27  1   
 13   7  28  1   
 14   8  10  1   
 15   8  29  1   
 16   8  30  1   
 17   9  10  1   
 18   9  31  1   
 19   9  32  1   
 20  10  11  1   
 21  10  33  1   
 22  11  12  1   
 23  11  34  1   
 24  11  35  1   
 25  12  13  1   
 26  12  36  1   
 27  12  37  1   
 28  13  14  1   
 29  14  15  ar  
 30  14  16  ar  
 31  15  17  ar  
 32  15  38  1   
 33  16  18  ar  
 34  16  39  1   
 35  17  19  ar  
 36  17  40  1   
 37  18  19  ar  
 38  18  41  1   
 39  19  20  1   
 40  20  21  1   
 41  21  22  1   
 42  21  23  1   
 43  21  42  1   
 44  22  43  1   
 45  22  44  1   
 46  22  45  1   
 47  23  46  1   
 48  23  47  1   
 49  23  48  1   
@<TRIPOS>SUBSTRUCTURE
  1 ****  12 GROUP 4 **** **** 0

# MOE 2024.06 (io_trps.svl 2023.06)
