@<TRIPOS>MOLECULE
NONAME
50 52 1 0 0 
SMALL
USER_CHARGES


@<TRIPOS>ATOM
  1 O        0.0680     0.9110    -0.7840 O.2   1 <1>  -0.5700 
  2 C        0.0930     2.0520    -0.3970 C.2   1 <1>   0.5690 
  3 N       -1.0360     2.6590     0.0280 N.am  1 <1>  -0.7300 
  4 C        1.4060     2.8430    -0.4180 C.3   1 <1>   0.1810 
  5 C       -1.0750     4.0520     0.5350 C.3   1 <1>   0.3640 
  6 O        1.3720     4.0000     0.3900 O.3   1 <1>  -0.5600 
  7 C       -2.2860     4.7640    -0.0640 C.ar  1 <1>  -0.1440 
  8 C        0.2290     4.8200     0.2030 C.3   1 <1>   0.2610 
  9 C       -3.0740     5.5720     0.7430 C.ar  1 <1>  -0.1500 
 10 C       -2.6120     4.6340    -1.4090 C.ar  1 <1>  -0.1500 
 11 C        0.3400     6.1070     1.0300 C.2   1 <1>   0.5690 
 12 C       -4.1690     6.2360     0.2190 C.ar  1 <1>  -0.1500 
 13 C       -3.7070     5.2980    -1.9340 C.ar  1 <1>  -0.1500 
 14 O       -0.1700     6.1810     2.1260 O.2   1 <1>  -0.5700 
 15 N        1.0080     7.1660     0.5110 N.am  1 <1>  -0.7300 
 16 C       -4.4870     6.1000    -1.1200 C.ar  1 <1>  -0.1500 
 17 C        1.2310     8.4520     1.1910 C.3   1 <1>   0.3210 
 18 C        2.2910     9.2400     0.4260 C.2   1 <1>   0.1080 
 19 N        2.6120     9.0160    -0.8170 N.2   1 <1>  -0.7070 
 20 C        3.0300    10.2830     0.9740 C.2   1 <1>  -0.1500 
 21 N        3.5700     9.9240    -1.0860 N.pl3 1 <1>   0.3000 
 22 C        3.8450    10.7050    -0.0200 C.2   1 <1>  -0.3320 
 23 C        4.8900    11.8150    -0.0500 C.3   1 <1>   0.1800 
 24 C        4.9670    12.5120     1.3130 C.3   1 <1>  -0.2400 
 25 C        4.5050    12.8470    -1.1160 C.3   1 <1>  -0.2400 
 26 C        6.2610    11.2150    -0.3800 C.3   1 <1>  -0.2400 
 27 H       -1.9100     2.1340     0.0410 H     1 <1>   0.3700 
 28 H        1.6270     3.1410    -1.4270 H     1 <1>   0.0800 
 29 H        2.2030     2.2180    -0.0590 H     1 <1>   0.0800 
 30 H       -1.1880     4.0050     1.6050 H     1 <1>   0.0800 
 31 H        0.2060     5.1020    -0.8340 H     1 <1>   0.0800 
 32 H       -2.8370     5.6950     1.7880 H     1 <1>   0.1500 
 33 H       -2.0180     4.0140    -2.0580 H     1 <1>   0.1500 
 34 H       -4.7730     6.8620     0.8540 H     1 <1>   0.1500 
 35 H       -3.9530     5.1910    -2.9760 H     1 <1>   0.1500 
 36 H        1.5180     7.1330    -0.3800 H     1 <1>   0.3700 
 37 H       -5.3380     6.6170    -1.5280 H     1 <1>   0.1500 
 38 H        0.3110     9.0080     1.2100 H     1 <1>   0.0800 
 39 H        1.5570     8.2750     2.2010 H     1 <1>   0.0800 
 40 H        2.9460    10.6500     1.9810 H     1 <1>   0.1500 
 41 H        4.0200     9.9920    -2.0060 H     1 <1>   0.2700 
 42 H        5.7040    13.2950     1.2970 H     1 <1>   0.0800 
 43 H        5.2370    11.8070     2.0780 H     1 <1>   0.0800 
 44 H        4.0160    12.9460     1.5650 H     1 <1>   0.0800 
 45 H        5.2090    13.6600    -1.1250 H     1 <1>   0.0800 
 46 H        3.5280    13.2450    -0.9070 H     1 <1>   0.0800 
 47 H        4.4880    12.4030    -2.0940 H     1 <1>   0.0800 
 48 H        7.0190    11.9780    -0.3680 H     1 <1>   0.0800 
 49 H        6.2580    10.7570    -1.3520 H     1 <1>   0.0800 
 50 H        6.5190    10.4660     0.3480 H     1 <1>   0.0800 
@<TRIPOS>BOND
  1   1   2  2   
  2   2   3  am  
  3   2   4  1   
  4   3   5  1   
  5   3  27  1   
  6   4   6  1   
  7   4  28  1   
  8   4  29  1   
  9   5   7  1   
 10   5   8  1   
 11   5  30  1   
 12   6   8  1   
 13   7   9  ar  
 14   7  10  ar  
 15   8  11  1   
 16   8  31  1   
 17   9  12  ar  
 18   9  32  1   
 19  10  13  ar  
 20  10  33  1   
 21  11  14  2   
 22  11  15  am  
 23  12  16  ar  
 24  12  34  1   
 25  13  16  ar  
 26  13  35  1   
 27  15  17  1   
 28  15  36  1   
 29  16  37  1   
 30  17  18  1   
 31  17  38  1   
 32  17  39  1   
 33  18  19  2   
 34  18  20  1   
 35  19  21  1   
 36  20  22  2   
 37  20  40  1   
 38  21  22  1   
 39  21  41  1   
 40  22  23  1   
 41  23  24  1   
 42  23  25  1   
 43  23  26  1   
 44  24  42  1   
 45  24  43  1   
 46  24  44  1   
 47  25  45  1   
 48  25  46  1   
 49  25  47  1   
 50  26  48  1   
 51  26  49  1   
 52  26  50  1   
@<TRIPOS>SUBSTRUCTURE
  1 ****  15 GROUP 4 **** **** 0

# MOE 2024.06 (io_trps.svl 2023.06)
