@<TRIPOS>MOLECULE
NONAME
46 49 1 0 0 
SMALL
USER_CHARGES


@<TRIPOS>ATOM
  1 CL      -2.1430    -0.4780    -1.7870 Cl    1 <1>  -0.1230 
  2 C       -2.3660     0.5780    -0.4010 C.2   1 <1>   0.1230 
  3 C       -2.0390     1.9460    -0.4330 C.ar  1 <1>   0.0000 
  4 C       -2.8550     0.2490     0.8200 C.2   1 <1>  -0.3320 
  5 C       -2.3470     2.4220     0.8380 C.ar  1 <1>  -0.1520 
  6 C       -1.5200     2.8170    -1.3970 C.ar  1 <1>  -0.1500 
  7 N       -2.8350     1.3840     1.5960 N.pl3 1 <1>   0.0330 
  8 C       -3.3470    -1.0770     1.3550 C.3   1 <1>   0.5230 
  9 C       -2.1450     3.7660     1.1650 C.ar  1 <1>  -0.1500 
 10 C       -1.3230     4.1390    -1.0730 C.ar  1 <1>  -0.1500 
 11 N       -4.0170    -1.8060     0.2530 N.4   1 <1>  -0.9590 
 12 C       -1.6360     4.6130     0.2080 C.ar  1 <1>  -0.1500 
 13 C       -5.4920    -1.5940     0.2100 C.3   1 <1>   0.4230 
 14 C       -3.6380    -3.2530     0.2800 C.3   1 <1>   0.2630 
 15 C       -6.1310    -2.2930    -0.9890 C.3   1 <1>  -0.1600 
 16 C       -5.8770    -0.1290     0.0140 C.3   1 <1>  -0.1600 
 17 C       -7.4430    -1.5410    -1.2430 C.3   1 <1>  -0.0800 
 18 C       -7.2840    -0.1600    -0.5890 C.3   1 <1>  -0.0800 
 19 C       -8.6690    -2.1940    -0.5860 C.3   1 <1>  -0.1600 
 20 C       -8.4080    -0.0400     0.4510 C.3   1 <1>  -0.1600 
 21 C       -9.4640    -1.0270    -0.0200 C.3   1 <1>   0.2000 
 22 O      -10.2390    -1.4420     1.0380 O.3   1 <1>  -0.6800 
 23 H       -1.2820     2.4420    -2.3760 H     1 <1>   0.1500 
 24 H       -3.1110     1.4910     2.5800 H     1 <1>   0.2700 
 25 H       -4.0370    -0.9250     2.1690 H     1 <1>   0.0800 
 26 H       -2.5030    -1.6390     1.7210 H     1 <1>   0.0800 
 27 H       -2.3840     4.1300     2.1490 H     1 <1>   0.1500 
 28 H       -0.9250     4.8240    -1.8010 H     1 <1>   0.1500 
 29 H       -3.6330    -1.3890    -0.6080 H     1 <1>   0.4500 
 30 H       -1.4700     5.6520     0.4340 H     1 <1>   0.1500 
 31 H       -5.9550    -1.9610     1.1130 H     1 <1>   0.0800 
 32 H       -4.0310    -3.7290     1.1640 H     1 <1>   0.0800 
 33 H       -2.5650    -3.3580     0.2750 H     1 <1>   0.0800 
 34 H       -4.0290    -3.7600    -0.5880 H     1 <1>   0.0800 
 35 H       -5.5040    -2.1750    -1.8570 H     1 <1>   0.0800 
 36 H       -6.3020    -3.3400    -0.8120 H     1 <1>   0.0800 
 37 H       -5.8490     0.4330     0.9310 H     1 <1>   0.0800 
 38 H       -5.2220     0.3310    -0.7050 H     1 <1>   0.0800 
 39 H       -7.6200    -1.4310    -2.3010 H     1 <1>   0.0800 
 40 H       -7.3990     0.6150    -1.3300 H     1 <1>   0.0800 
 41 H       -8.3700    -2.8510     0.2110 H     1 <1>   0.0800 
 42 H       -9.2530    -2.7440    -1.3050 H     1 <1>   0.0800 
 43 H       -8.8050     0.9600     0.4860 H     1 <1>   0.0800 
 44 H       -8.0560    -0.3230     1.4270 H     1 <1>   0.0800 
 45 H      -10.1000    -0.5880    -0.7710 H     1 <1>   0.0800 
 46 H       -9.6960    -1.8630     1.7270 H     1 <1>   0.4000 
@<TRIPOS>BOND
  1   1   2  1   
  2   2   3  1   
  3   2   4  2   
  4   3   5  ar  
  5   3   6  ar  
  6   4   7  1   
  7   4   8  1   
  8   5   7  1   
  9   5   9  ar  
 10   6  10  ar  
 11   6  23  1   
 12   7  24  1   
 13   8  11  1   
 14   8  25  1   
 15   8  26  1   
 16   9  12  ar  
 17   9  27  1   
 18  10  12  ar  
 19  10  28  1   
 20  11  13  1   
 21  11  14  1   
 22  11  29  1   
 23  12  30  1   
 24  13  15  1   
 25  13  16  1   
 26  13  31  1   
 27  14  32  1   
 28  14  33  1   
 29  14  34  1   
 30  15  17  1   
 31  15  35  1   
 32  15  36  1   
 33  16  18  1   
 34  16  37  1   
 35  16  38  1   
 36  17  18  1   
 37  17  19  1   
 38  17  39  1   
 39  18  20  1   
 40  18  40  1   
 41  19  21  1   
 42  19  41  1   
 43  19  42  1   
 44  20  21  1   
 45  20  43  1   
 46  20  44  1   
 47  21  22  1   
 48  21  45  1   
 49  22  46  1   
@<TRIPOS>SUBSTRUCTURE
  1 ****  16 GROUP 4 **** **** 0

# MOE 2024.06 (io_trps.svl 2023.06)
