@<TRIPOS>MOLECULE
NONAME
50 52 1 0 0 
SMALL
USER_CHARGES


@<TRIPOS>ATOM
  1 CL      -0.5170     0.3860     1.1950 Cl    1 <1>  -0.1770 
  2 C        0.8270    -0.7200     1.0850 C.ar  1 <1>   0.1770 
  3 C        2.0500    -0.2550     0.6500 C.ar  1 <1>  -0.1500 
  4 C        0.6360    -2.0430     1.4280 C.ar  1 <1>  -0.1500 
  5 C        3.1270    -1.1330     0.5530 C.ar  1 <1>   0.0830 
  6 C        1.7000    -2.9280     1.3440 C.ar  1 <1>  -0.1440 
  7 O        4.3370    -0.7170     0.0820 O.3   1 <1>  -0.3620 
  8 C        2.9500    -2.4790     0.9230 C.ar  1 <1>   0.0830 
  9 C        1.4890    -4.3850     1.7100 C.3   1 <1>   0.4870 
 10 C        4.5680     0.6110    -0.3400 C.3   1 <1>   0.0400 
 11 O        3.9380    -3.4230     0.8830 O.3   1 <1>  -0.3630 
 12 N        1.7610    -5.2240     0.5150 N.4   1 <1>  -0.9590 
 13 C        5.2620    -3.0970     1.2620 C.3   1 <1>   0.0400 
 14 C        0.7740    -4.9630    -0.5730 C.3   1 <1>   0.3430 
 15 C        1.6730    -6.6770     0.8440 C.3   1 <1>   0.3430 
 16 C       -0.3160    -6.0200    -0.3850 C.3   1 <1>   0.2000 
 17 C        0.4580    -7.2480     0.0900 C.3   1 <1>  -0.0800 
 18 O       -1.1620    -5.6110     0.6420 O.3   1 <1>  -0.6800 
 19 C        0.9000    -8.1330    -1.0910 C.3   1 <1>   0.0210 
 20 C        1.5630    -9.4080    -0.6070 C.2   1 <1>   0.1080 
 21 N        2.6440    -9.4150     0.1110 N.2   1 <1>  -0.7070 
 22 C        1.0990   -10.6920    -0.8710 C.2   1 <1>  -0.1500 
 23 N        2.9070   -10.7230     0.3180 N.pl3 1 <1>   0.3000 
 24 C        1.9810   -11.5130    -0.2640 C.2   1 <1>  -0.3320 
 25 C        1.9990   -13.0300    -0.2070 C.3   1 <1>  -0.0600 
 26 H        2.1280     0.7840     0.3920 H     1 <1>   0.1500 
 27 H       -0.3400    -2.3610     1.7550 H     1 <1>   0.1500 
 28 H        0.4790    -4.5420     2.0520 H     1 <1>   0.0800 
 29 H        2.1670    -4.6500     2.5050 H     1 <1>   0.0800 
 30 H        5.5870     0.6840    -0.6740 H     1 <1>   0.0800 
 31 H        4.4100     1.2770     0.4900 H     1 <1>   0.0800 
 32 H        3.9030     0.8420    -1.1540 H     1 <1>   0.0800 
 33 H        2.7140    -4.9540     0.2150 H     1 <1>   0.4500 
 34 H        5.7590    -3.9980     1.5720 H     1 <1>   0.0800 
 35 H        5.2360    -2.3920     2.0750 H     1 <1>   0.0800 
 36 H        5.7750    -2.6770     0.4150 H     1 <1>   0.0800 
 37 H        0.3680    -3.9660    -0.5330 H     1 <1>   0.0800 
 38 H        1.2500    -5.1130    -1.5280 H     1 <1>   0.0800 
 39 H        2.5780    -7.1760     0.5430 H     1 <1>   0.0800 
 40 H        1.5430    -6.8180     1.9040 H     1 <1>   0.0800 
 41 H       -0.9030    -6.1760    -1.2760 H     1 <1>   0.0800 
 42 H       -0.1380    -7.8530     0.7510 H     1 <1>   0.0800 
 43 H       -1.9460    -6.1970     0.7080 H     1 <1>   0.4000 
 44 H        1.5920    -7.6100    -1.7270 H     1 <1>   0.0800 
 45 H        0.0430    -8.4020    -1.6840 H     1 <1>   0.0800 
 46 H        0.2250   -10.9540    -1.4410 H     1 <1>   0.1500 
 47 H        3.7220   -11.0470     0.8540 H     1 <1>   0.2700 
 48 H        1.1590   -13.4300    -0.7470 H     1 <1>   0.0800 
 49 H        1.9410   -13.3660     0.8130 H     1 <1>   0.0800 
 50 H        2.9020   -13.4090    -0.6510 H     1 <1>   0.0800 
@<TRIPOS>BOND
  1   1   2  1   
  2   2   3  ar  
  3   2   4  ar  
  4   3   5  ar  
  5   3  26  1   
  6   4   6  ar  
  7   4  27  1   
  8   5   7  1   
  9   5   8  ar  
 10   6   8  ar  
 11   6   9  1   
 12   7  10  1   
 13   8  11  1   
 14   9  12  1   
 15   9  28  1   
 16   9  29  1   
 17  10  30  1   
 18  10  31  1   
 19  10  32  1   
 20  11  13  1   
 21  12  14  1   
 22  12  15  1   
 23  12  33  1   
 24  13  34  1   
 25  13  35  1   
 26  13  36  1   
 27  14  16  1   
 28  14  37  1   
 29  14  38  1   
 30  15  17  1   
 31  15  39  1   
 32  15  40  1   
 33  16  17  1   
 34  16  18  1   
 35  16  41  1   
 36  17  19  1   
 37  17  42  1   
 38  18  43  1   
 39  19  20  1   
 40  19  44  1   
 41  19  45  1   
 42  20  21  2   
 43  20  22  1   
 44  21  23  1   
 45  22  24  2   
 46  22  46  1   
 47  23  24  1   
 48  23  47  1   
 49  24  25  1   
 50  25  48  1   
 51  25  49  1   
 52  25  50  1   
@<TRIPOS>SUBSTRUCTURE
  1 ****  12 GROUP 4 **** **** 0

# MOE 2024.06 (io_trps.svl 2023.06)
