@<TRIPOS>MOLECULE
NONAME
54 55 1 0 0 
SMALL
USER_CHARGES


@<TRIPOS>ATOM
  1 O        1.5590    -0.6800     0.5310 O.2   1 <1>  -0.5700 
  2 C        1.0380    -1.7600     0.3910 C.2   1 <1>   0.5690 
  3 N        1.4040    -2.6330    -0.6030 N.am  1 <1>  -0.6600 
  4 C       -0.0730    -2.1270     1.3630 C.3   1 <1>  -0.0990 
  5 C        0.8430    -4.0120    -0.7480 C.3   1 <1>   0.1400 
  6 C        2.4680    -2.2940    -1.5870 C.3   1 <1>   0.0600 
  7 C       -0.3170    -3.6390     1.4720 C.3   1 <1>  -0.1600 
  8 C       -0.4390    -4.2400     0.0730 C.3   1 <1>   0.2200 
  9 N       -0.7130    -5.6840     0.2030 N.am  1 <1>  -0.7300 
 10 C       -1.3230    -6.4590    -0.7370 C.2   1 <1>   0.7150 
 11 O       -1.6160    -5.9620    -1.8080 O.2   1 <1>  -0.5700 
 12 C       -1.6160    -7.8460    -0.4640 C.2   1 <1>   0.0550 
 13 O       -1.3400    -8.3960     0.7130 O.3   1 <1>  -0.2800 
 14 C       -2.1780    -8.7990    -1.2530 C.2   1 <1>  -0.1500 
 15 C       -1.7020    -9.6590     0.7090 C.2   1 <1>  -0.0400 
 16 C       -2.2490    -9.9710    -0.4930 C.2   1 <1>  -0.1810 
 17 C       -1.4210   -10.4180     2.0000 C.3   1 <1>   0.0200 
 18 C       -2.8320   -11.2660    -1.0250 C.3   1 <1>   0.5240 
 19 C       -1.7910   -11.9040     1.9780 C.3   1 <1>  -0.2400 
 20 N       -4.2640   -11.3800    -0.6160 N.4   1 <1>  -0.9590 
 21 C       -4.8370   -12.7020    -0.9930 C.3   1 <1>   0.3430 
 22 C       -5.0830   -10.2540    -1.1500 C.3   1 <1>   0.3430 
 23 C       -4.2850   -13.7950    -0.0860 C.3   1 <1>  -0.2400 
 24 C       -6.3820   -10.1410    -0.3610 C.3   1 <1>  -0.2400 
 25 H       -0.9700    -1.6400     1.0270 H     1 <1>   0.0800 
 26 H        0.1720    -1.7310     2.3310 H     1 <1>   0.0800 
 27 H        1.5950    -4.7120    -0.4290 H     1 <1>   0.0800 
 28 H        0.6220    -4.1970    -1.7850 H     1 <1>   0.0800 
 29 H        2.8320    -1.2930    -1.4300 H     1 <1>   0.0800 
 30 H        2.0740    -2.3600    -2.5860 H     1 <1>   0.0800 
 31 H        3.2920    -2.9780    -1.4830 H     1 <1>   0.0800 
 32 H       -1.2180    -3.8150     2.0330 H     1 <1>   0.0800 
 33 H        0.5140    -4.0900     1.9880 H     1 <1>   0.0800 
 34 H       -1.2630    -3.7760    -0.4450 H     1 <1>   0.0800 
 35 H       -0.4570    -6.1260     1.0880 H     1 <1>   0.3700 
 36 H       -2.4990    -8.6630    -2.2720 H     1 <1>   0.1500 
 37 H       -1.9510    -9.9350     2.8020 H     1 <1>   0.0800 
 38 H       -0.3690   -10.3300     2.2160 H     1 <1>   0.0800 
 39 H       -2.2670   -12.0920    -0.6300 H     1 <1>   0.0800 
 40 H       -2.7470   -11.2860    -2.1000 H     1 <1>   0.0800 
 41 H       -2.8470   -12.0280     1.8410 H     1 <1>   0.0800 
 42 H       -1.5240   -12.3500     2.9200 H     1 <1>   0.0800 
 43 H       -1.2490   -12.4170     1.2040 H     1 <1>   0.0800 
 44 H       -4.2750   -11.2900     0.4060 H     1 <1>   0.4500 
 45 H       -4.6130   -12.9260    -2.0240 H     1 <1>   0.0800 
 46 H       -5.9090   -12.6820    -0.8840 H     1 <1>   0.0800 
 47 H       -5.2910   -10.4020    -2.1980 H     1 <1>   0.0800 
 48 H       -4.5490    -9.3240    -1.0420 H     1 <1>   0.0800 
 49 H       -3.2240   -13.9180    -0.2040 H     1 <1>   0.0800 
 50 H       -4.7490   -14.7310    -0.3460 H     1 <1>   0.0800 
 51 H       -4.5190   -13.5920     0.9440 H     1 <1>   0.0800 
 52 H       -7.0160   -10.9960    -0.5070 H     1 <1>   0.0800 
 53 H       -6.9230    -9.2750    -0.7030 H     1 <1>   0.0800 
 54 H       -6.1820   -10.0080     0.6870 H     1 <1>   0.0800 
@<TRIPOS>BOND
  1   1   2  2   
  2   2   3  am  
  3   2   4  1   
  4   3   5  1   
  5   3   6  1   
  6   4   7  1   
  7   4  25  1   
  8   4  26  1   
  9   5   8  1   
 10   5  27  1   
 11   5  28  1   
 12   6  29  1   
 13   6  30  1   
 14   6  31  1   
 15   7   8  1   
 16   7  32  1   
 17   7  33  1   
 18   8   9  1   
 19   8  34  1   
 20   9  10  am  
 21   9  35  1   
 22  10  11  2   
 23  10  12  1   
 24  12  13  1   
 25  12  14  2   
 26  13  15  1   
 27  14  16  1   
 28  14  36  1   
 29  15  16  2   
 30  15  17  1   
 31  16  18  1   
 32  17  19  1   
 33  17  37  1   
 34  17  38  1   
 35  18  20  1   
 36  18  39  1   
 37  18  40  1   
 38  19  41  1   
 39  19  42  1   
 40  19  43  1   
 41  20  21  1   
 42  20  22  1   
 43  20  44  1   
 44  21  23  1   
 45  21  45  1   
 46  21  46  1   
 47  22  24  1   
 48  22  47  1   
 49  22  48  1   
 50  23  49  1   
 51  23  50  1   
 52  23  51  1   
 53  24  52  1   
 54  24  53  1   
 55  24  54  1   
@<TRIPOS>SUBSTRUCTURE
  1 ****  12 GROUP 4 **** **** 0

# MOE 2024.06 (io_trps.svl 2023.06)
