@<TRIPOS>MOLECULE
NONAME
51 53 1 0 0 
SMALL
USER_CHARGES


@<TRIPOS>ATOM
  1 F       -2.6320    -0.7010     2.5240 F     1 <1>  -0.1900 
  2 C       -2.6070     0.0730     1.4710 C.ar  1 <1>   0.1900 
  3 C       -2.7850    -0.4890     0.2180 C.ar  1 <1>  -0.1440 
  4 C       -2.4050     1.4280     1.6590 C.ar  1 <1>  -0.1500 
  5 C       -2.7410     0.3560    -0.8820 C.ar  1 <1>  -0.1500 
  6 C       -3.0040    -1.9830     0.0570 C.3   1 <1>   0.4870 
  7 C       -2.3750     2.2590     0.5520 C.ar  1 <1>  -0.1500 
  8 C       -2.5440     1.7210    -0.7230 C.ar  1 <1>   0.0820 
  9 N       -4.4480    -2.3090     0.0130 N.4   1 <1>  -0.9590 
 10 O       -2.5290     2.4580    -1.8600 O.3   1 <1>  -0.3630 
 11 C       -5.2180    -1.6750    -1.1020 C.3   1 <1>   0.3430 
 12 C       -5.1490    -2.1780     1.3330 C.3   1 <1>   0.3430 
 13 C       -2.2860     3.8480    -1.8320 C.3   1 <1>   0.0400 
 14 C       -6.5830    -2.3770    -1.3140 C.3   1 <1>   0.2000 
 15 C       -6.6800    -2.2770     1.1710 C.3   1 <1>  -0.1600 
 16 O       -6.4800    -3.2400    -2.3920 O.3   1 <1>  -0.6800 
 17 C       -7.0700    -3.1520    -0.0510 C.3   1 <1>  -0.1060 
 18 C       -6.3400    -4.4960     0.1270 C.2   1 <1>   0.9060 
 19 C       -8.5930    -3.4300    -0.1070 C.3   1 <1>  -0.0170 
 20 O       -6.5860    -5.1770     1.1190 O.co2 1 <1>  -0.9000 
 21 O       -5.3760    -4.7650    -0.6120 O.co2 1 <1>  -0.9000 
 22 C       -9.4620    -2.1800    -0.2110 C.ar  1 <1>  -0.1430 
 23 C       -9.8550    -1.7010    -1.4520 C.ar  1 <1>  -0.1500 
 24 C       -9.8820    -1.5180     0.9330 C.ar  1 <1>  -0.1500 
 25 C      -10.6400    -0.5660    -1.5490 C.ar  1 <1>  -0.1500 
 26 C      -10.6680    -0.3830     0.8380 C.ar  1 <1>  -0.1500 
 27 C      -11.0450     0.0960    -0.4040 C.ar  1 <1>  -0.1500 
 28 H       -2.2720     1.8210     2.6520 H     1 <1>   0.1500 
 29 H       -2.8540    -0.0250    -1.8820 H     1 <1>   0.1500 
 30 H       -2.5400    -2.5100     0.8740 H     1 <1>   0.0800 
 31 H       -2.5370    -2.3140    -0.8560 H     1 <1>   0.0800 
 32 H       -2.2190     3.3110     0.6990 H     1 <1>   0.1500 
 33 H       -4.5100    -3.3370    -0.2110 H     1 <1>   0.4500 
 34 H       -5.3930    -0.6410    -0.8570 H     1 <1>   0.0800 
 35 H       -4.6620    -1.7180    -2.0220 H     1 <1>   0.0800 
 36 H       -4.8170    -2.9750     1.9800 H     1 <1>   0.0800 
 37 H       -4.9030    -1.2390     1.8000 H     1 <1>   0.0800 
 38 H       -2.3030     4.2110    -2.8440 H     1 <1>   0.0800 
 39 H       -1.3190     4.0270    -1.3970 H     1 <1>   0.0800 
 40 H       -3.0610     4.3290    -1.2610 H     1 <1>   0.0800 
 41 H       -7.2860    -1.6160    -1.5970 H     1 <1>   0.0800 
 42 H       -7.0870    -2.7030     2.0730 H     1 <1>   0.0800 
 43 H       -7.0890    -1.2880     1.0710 H     1 <1>   0.0800 
 44 H       -6.0170    -4.0620    -2.0570 H     1 <1>   0.4000 
 45 H       -8.7970    -4.0710    -0.9470 H     1 <1>   0.0800 
 46 H       -8.8850    -3.9810     0.7710 H     1 <1>   0.0800 
 47 H       -9.5480    -2.2140    -2.3480 H     1 <1>   0.1500 
 48 H       -9.6020    -1.8900     1.9030 H     1 <1>   0.1500 
 49 H      -10.9380    -0.2000    -2.5170 H     1 <1>   0.1500 
 50 H      -10.9890     0.1260     1.7310 H     1 <1>   0.1500 
 51 H      -11.6560     0.9780    -0.4790 H     1 <1>   0.1500 
@<TRIPOS>BOND
  1   1   2  1   
  2   2   3  ar  
  3   2   4  ar  
  4   3   5  ar  
  5   3   6  1   
  6   4   7  ar  
  7   4  28  1   
  8   5   8  ar  
  9   5  29  1   
 10   6   9  1   
 11   6  30  1   
 12   6  31  1   
 13   7   8  ar  
 14   7  32  1   
 15   8  10  1   
 16   9  11  1   
 17   9  12  1   
 18   9  33  1   
 19  10  13  1   
 20  11  14  1   
 21  11  34  1   
 22  11  35  1   
 23  12  15  1   
 24  12  36  1   
 25  12  37  1   
 26  13  38  1   
 27  13  39  1   
 28  13  40  1   
 29  14  16  1   
 30  14  17  1   
 31  14  41  1   
 32  15  17  1   
 33  15  42  1   
 34  15  43  1   
 35  16  44  1   
 36  17  18  1   
 37  17  19  1   
 38  18  20  ar  
 39  18  21  ar  
 40  19  22  1   
 41  19  45  1   
 42  19  46  1   
 43  22  23  ar  
 44  22  24  ar  
 45  23  25  ar  
 46  23  47  1   
 47  24  26  ar  
 48  24  48  1   
 49  25  27  ar  
 50  25  49  1   
 51  26  27  ar  
 52  26  50  1   
 53  27  51  1   
@<TRIPOS>SUBSTRUCTURE
  1 ****  11 GROUP 4 **** **** 0

# MOE 2024.06 (io_trps.svl 2023.06)
