@<TRIPOS>MOLECULE
NONAME
53 55 1 0 0 
SMALL
USER_CHARGES


@<TRIPOS>ATOM
  1 O        1.4870    -0.3270    -1.4800 O.2   1 <1>  -0.5700 
  2 C        1.9470    -0.6700    -0.4190 C.2   1 <1>   0.5690 
  3 N        2.7380     0.1820     0.3120 N.am  1 <1>  -0.6600 
  4 C        1.6440    -2.0770     0.0690 C.3   1 <1>  -0.0990 
  5 C        3.6060    -0.2040     1.4700 C.3   1 <1>   0.1400 
  6 C        2.7430     1.6360    -0.0100 C.3   1 <1>   0.1400 
  7 C        0.5010    -2.7330    -0.7220 C.3   1 <1>   0.0960 
  8 C        5.1120    -0.2210     1.1130 C.3   1 <1>   0.3430 
  9 C        3.8140     1.9540    -1.0570 C.3   1 <1>  -0.1600 
 10 N        0.2260    -4.0820    -0.1930 N.pl3 1 <1>   0.0480 
 11 N        5.6060     1.0060     0.3920 N.4   1 <1>  -0.9590 
 12 C        5.0580     1.0680    -0.9980 C.3   1 <1>   0.3430 
 13 C        0.7040    -5.2550    -0.6110 C.2   1 <1>   0.0360 
 14 C       -0.5360    -4.4310     0.8440 C.2   1 <1>   0.0360 
 15 C        7.1060     1.0260     0.3930 C.3   1 <1>   0.3430 
 16 N        0.2770    -6.2310     0.1130 N.2   1 <1>  -0.3380 
 17 N       -0.5190    -5.7020     1.0460 N.2   1 <1>  -0.3380 
 18 C        7.6810     2.3880    -0.0300 C.3   1 <1>   0.1100 
 19 N        9.1330     2.4020     0.1730 N.3   1 <1>  -0.8100 
 20 C        9.8690     1.6650    -0.8850 C.3   1 <1>   0.1100 
 21 C        9.6490     3.7900     0.2390 C.3   1 <1>   0.1100 
 22 C       11.3920     1.7600    -0.6790 C.3   1 <1>   0.1200 
 23 C       11.1800     3.8170     0.4020 C.3   1 <1>   0.1200 
 24 O       11.7890     3.0980    -0.6290 O.3   1 <1>  -0.5600 
 25 H        1.3600    -2.0270     1.1040 H     1 <1>   0.0800 
 26 H        2.5330    -2.6730    -0.0290 H     1 <1>   0.0800 
 27 H        3.3350    -1.1770     1.8370 H     1 <1>   0.0800 
 28 H        3.4410     0.4860     2.2800 H     1 <1>   0.0800 
 29 H        2.9190     2.2040     0.8870 H     1 <1>   0.0800 
 30 H        1.7750     1.9300    -0.3870 H     1 <1>   0.0800 
 31 H        0.7630    -2.8140    -1.7630 H     1 <1>   0.0800 
 32 H       -0.3930    -2.1400    -0.6450 H     1 <1>   0.0800 
 33 H        5.3080    -1.0900     0.5060 H     1 <1>   0.0800 
 34 H        5.6660    -0.3430     2.0290 H     1 <1>   0.0800 
 35 H        4.0920     2.9900    -0.9820 H     1 <1>   0.0800 
 36 H        3.3710     1.8270    -2.0300 H     1 <1>   0.0800 
 37 H        5.2780     1.8370     0.9000 H     1 <1>   0.4500 
 38 H        5.7940     1.4620    -1.6790 H     1 <1>   0.0800 
 39 H        4.8000     0.0760    -1.3320 H     1 <1>   0.0800 
 40 H        1.3660    -5.3620    -1.4510 H     1 <1>   0.1500 
 41 H       -1.0930    -3.7260     1.4340 H     1 <1>   0.1500 
 42 H        7.4840     0.2620    -0.2640 H     1 <1>   0.0800 
 43 H        7.4650     0.8210     1.3890 H     1 <1>   0.0800 
 44 H        7.2400     3.1490     0.5910 H     1 <1>   0.0800 
 45 H        7.4560     2.6060    -1.0600 H     1 <1>   0.0800 
 46 H        9.6320     2.0710    -1.8540 H     1 <1>   0.0800 
 47 H        9.5880     0.6270    -0.8740 H     1 <1>   0.0800 
 48 H        9.2060     4.3020     1.0760 H     1 <1>   0.0800 
 49 H        9.3910     4.3260    -0.6580 H     1 <1>   0.0800 
 50 H       11.9110     1.2950    -1.4980 H     1 <1>   0.0800 
 51 H       11.6850     1.2780     0.2380 H     1 <1>   0.0800 
 52 H       11.4710     3.3860     1.3450 H     1 <1>   0.0800 
 53 H       11.5440     4.8280     0.3560 H     1 <1>   0.0800 
@<TRIPOS>BOND
  1   1   2  2   
  2   2   3  am  
  3   2   4  1   
  4   3   5  1   
  5   3   6  1   
  6   4   7  1   
  7   4  25  1   
  8   4  26  1   
  9   5   8  1   
 10   5  27  1   
 11   5  28  1   
 12   6   9  1   
 13   6  29  1   
 14   6  30  1   
 15   7  10  1   
 16   7  31  1   
 17   7  32  1   
 18   8  11  1   
 19   8  33  1   
 20   8  34  1   
 21   9  12  1   
 22   9  35  1   
 23   9  36  1   
 24  10  13  1   
 25  10  14  1   
 26  11  12  1   
 27  11  15  1   
 28  11  37  1   
 29  12  38  1   
 30  12  39  1   
 31  13  16  2   
 32  13  40  1   
 33  14  17  2   
 34  14  41  1   
 35  15  18  1   
 36  15  42  1   
 37  15  43  1   
 38  16  17  1   
 39  18  19  1   
 40  18  44  1   
 41  18  45  1   
 42  19  20  1   
 43  19  21  1   
 44  20  22  1   
 45  20  46  1   
 46  20  47  1   
 47  21  23  1   
 48  21  48  1   
 49  21  49  1   
 50  22  24  1   
 51  22  50  1   
 52  22  51  1   
 53  23  24  1   
 54  23  52  1   
 55  23  53  1   
@<TRIPOS>SUBSTRUCTURE
  1 ****   8 GROUP 4 **** **** 0

# MOE 2024.06 (io_trps.svl 2023.06)
