@<TRIPOS>MOLECULE
NONAME
39 41 1 0 0 
SMALL
USER_CHARGES


@<TRIPOS>ATOM
  1 CL      -2.7500    -0.9990    -2.1790 Cl    1 <1>  -0.1770 
  2 C       -2.2210     0.2390    -1.0640 C.ar  1 <1>   0.1770 
  3 C       -2.3430     0.0550     0.3040 C.ar  1 <1>   0.0860 
  4 C       -1.6880     1.4090    -1.5730 C.ar  1 <1>   0.1600 
  5 C       -2.8960    -1.1380     0.8980 C.2   1 <1>   0.5440 
  6 C       -1.8780     1.1100     1.0770 C.ar  1 <1>  -0.1500 
  7 N       -1.2610     2.4220    -0.8320 N.ar  1 <1>  -0.6200 
  8 O       -2.1350    -1.8950     1.4700 O.2   1 <1>  -0.5700 
  9 N       -4.2480    -1.4290     0.8720 N.am  1 <1>  -0.6600 
 10 C       -1.3600     2.2430     0.4770 C.ar  1 <1>   0.1600 
 11 C       -5.2580    -0.5080     0.2680 C.3   1 <1>   0.2200 
 12 C       -4.7330    -2.7210     1.4560 C.3   1 <1>   0.0600 
 13 C       -6.2140    -1.1860    -0.7110 C.3   1 <1>  -0.1600 
 14 C       -6.1660     0.1370     1.3090 C.3   1 <1>  -0.1600 
 15 C       -7.3990    -0.2170    -0.8090 C.3   1 <1>  -0.0800 
 16 C       -7.4100     0.5770     0.5220 C.3   1 <1>  -0.0800 
 17 C       -8.7190    -0.9220    -1.1850 C.3   1 <1>   0.1400 
 18 C       -8.7130     0.4340     1.3310 C.3   1 <1>  -0.0990 
 19 N       -9.8690    -0.0980    -0.7610 N.am  1 <1>  -0.7300 
 20 C       -9.9160     0.5520     0.4200 C.2   1 <1>   0.5690 
 21 O      -10.8780     1.1950     0.7490 O.2   1 <1>  -0.5700 
 22 H       -1.6120     1.5140    -2.6420 H     1 <1>   0.1500 
 23 H       -1.9190     1.0360     2.1490 H     1 <1>   0.1500 
 24 H       -1.0060     3.0460     1.1030 H     1 <1>   0.1500 
 25 H       -4.7700     0.2870    -0.2670 H     1 <1>   0.0800 
 26 H       -5.7440    -2.6340     1.8090 H     1 <1>   0.0800 
 27 H       -4.1140    -3.0140     2.2870 H     1 <1>   0.0800 
 28 H       -4.6850    -3.4910     0.7070 H     1 <1>   0.0800 
 29 H       -5.7490    -1.3440    -1.6680 H     1 <1>   0.0800 
 30 H       -6.5550    -2.1260    -0.3190 H     1 <1>   0.0800 
 31 H       -6.4380    -0.5780     2.0620 H     1 <1>   0.0800 
 32 H       -5.6830     0.9760     1.7790 H     1 <1>   0.0800 
 33 H       -7.1790     0.4860    -1.5960 H     1 <1>   0.0800 
 34 H       -7.3000     1.6190     0.2690 H     1 <1>   0.0800 
 35 H       -8.7890    -1.8760    -0.6900 H     1 <1>   0.0800 
 36 H       -8.7590    -1.0880    -2.2490 H     1 <1>   0.0800 
 37 H       -8.7640     1.1920     2.0920 H     1 <1>   0.0800 
 38 H       -8.7600    -0.5270     1.8070 H     1 <1>   0.0800 
 39 H      -10.6970    -0.0510    -1.3590 H     1 <1>   0.3700 
@<TRIPOS>BOND
  1   1   2  1   
  2   2   3  ar  
  3   2   4  ar  
  4   3   5  1   
  5   3   6  ar  
  6   4   7  ar  
  7   4  22  1   
  8   5   8  2   
  9   5   9  am  
 10   6  10  ar  
 11   6  23  1   
 12   7  10  ar  
 13   9  11  1   
 14   9  12  1   
 15  10  24  1   
 16  11  13  1   
 17  11  14  1   
 18  11  25  1   
 19  12  26  1   
 20  12  27  1   
 21  12  28  1   
 22  13  15  1   
 23  13  29  1   
 24  13  30  1   
 25  14  16  1   
 26  14  31  1   
 27  14  32  1   
 28  15  16  1   
 29  15  17  1   
 30  15  33  1   
 31  16  18  1   
 32  16  34  1   
 33  17  19  1   
 34  17  35  1   
 35  17  36  1   
 36  18  20  1   
 37  18  37  1   
 38  18  38  1   
 39  19  20  am  
 40  19  39  1   
 41  20  21  2   
@<TRIPOS>SUBSTRUCTURE
  1 ****  11 GROUP 4 **** **** 0

# MOE 2024.06 (io_trps.svl 2023.06)
