@<TRIPOS>MOLECULE
NONAME
28 28 1 0 0 
SMALL
USER_CHARGES


@<TRIPOS>ATOM
  1 O       -0.0400     1.3690    -1.9580 O.2   1 <1>  -0.5700 
  2 C       -0.1870     1.2960    -0.7730 C.2   1 <1>   0.4490 
  3 C       -0.3470     2.5020     0.1560 C.3   1 <1>   0.0610 
  4 C       -0.5070     3.7970    -0.6920 C.3   1 <1>   0.2000 
  5 C       -1.5560     2.2710     1.0910 C.3   1 <1>  -0.2400 
  6 C        0.9200     2.6110     1.0300 C.3   1 <1>  -0.2400 
  7 O       -0.6650     4.8980     0.1430 O.3   1 <1>  -0.5600 
  8 C       -1.7310     3.8510    -1.6000 C.3   1 <1>   0.1200 
  9 C       -1.7220     5.6730    -0.3000 C.3   1 <1>   0.5600 
 10 O       -2.5290     4.8230    -1.0310 O.3   1 <1>  -0.5600 
 11 C       -1.2050     6.8050    -1.1810 C.3   1 <1>  -0.2400 
 12 C       -2.5040     6.1660     0.9050 C.3   1 <1>  -0.2400 
 13 H       -0.2070     0.3400    -0.2810 H     1 <1>   0.0600 
 14 H        0.3790     3.9530    -1.2830 H     1 <1>   0.0800 
 15 H       -2.4670     2.1720     0.5280 H     1 <1>   0.0800 
 16 H       -1.6700     3.1000     1.7670 H     1 <1>   0.0800 
 17 H       -1.4220     1.3790     1.6760 H     1 <1>   0.0800 
 18 H        1.7880     2.7670     0.4130 H     1 <1>   0.0800 
 19 H        1.0680     1.7140     1.6050 H     1 <1>   0.0800 
 20 H        0.8390     3.4400     1.7110 H     1 <1>   0.0800 
 21 H       -2.2740     2.9250    -1.6500 H     1 <1>   0.0800 
 22 H       -1.4580     4.1600    -2.5940 H     1 <1>   0.0800 
 23 H       -0.6380     6.4210    -2.0080 H     1 <1>   0.0800 
 24 H       -0.5780     7.4550    -0.5990 H     1 <1>   0.0800 
 25 H       -2.0330     7.3770    -1.5550 H     1 <1>   0.0800 
 26 H       -2.8520     5.3300     1.4820 H     1 <1>   0.0800 
 27 H       -3.3470     6.7460     0.5790 H     1 <1>   0.0800 
 28 H       -1.8770     6.7850     1.5180 H     1 <1>   0.0800 
@<TRIPOS>BOND
  1   1   2  2   
  2   2   3  1   
  3   2  13  1   
  4   3   4  1   
  5   3   5  1   
  6   3   6  1   
  7   4   7  1   
  8   4   8  1   
  9   4  14  1   
 10   5  15  1   
 11   5  16  1   
 12   5  17  1   
 13   6  18  1   
 14   6  19  1   
 15   6  20  1   
 16   7   9  1   
 17   8  10  1   
 18   8  21  1   
 19   8  22  1   
 20   9  10  1   
 21   9  11  1   
 22   9  12  1   
 23  11  23  1   
 24  11  24  1   
 25  11  25  1   
 26  12  26  1   
 27  12  27  1   
 28  12  28  1   
@<TRIPOS>SUBSTRUCTURE
  1 ****   4 GROUP 4 **** **** 0

# MOE 2024.06 (io_trps.svl 2023.06)
