@<TRIPOS>MOLECULE
NONAME
37 38 1 0 0 
SMALL
USER_CHARGES


@<TRIPOS>ATOM
  1 O        3.0160    -0.5070    -1.8420 O.2   1 <1>  -0.5700 
  2 C        2.7740    -0.7110    -0.6640 C.2   1 <1>   0.5440 
  3 N        2.7660     0.3410     0.2170 N.am  1 <1>  -0.4930 
  4 C        2.4910    -2.0570    -0.1730 C.ar  1 <1>   0.3960 
  5 C        2.9910     1.7230    -0.0040 C.2   1 <1>   0.0630 
  6 N        2.2230    -2.2450     1.1220 N.ar  1 <1>  -0.6200 
  7 C        2.4980    -3.1430    -1.0300 C.ar  1 <1>  -0.1500 
  8 C        3.2580     2.4020    -1.1950 C.2   1 <1>   0.1390 
  9 C        2.9870     2.6870     0.9390 C.2   1 <1>  -0.3020 
 10 C        1.9770    -3.4840     1.4990 C.ar  1 <1>   0.4770 
 11 C        2.2270    -4.3880    -0.5240 C.ar  1 <1>   0.1670 
 12 N        3.4090     3.6820    -1.0130 N.2   1 <1>  -0.7070 
 13 N        3.2390     3.8590     0.3130 N.pl3 1 <1>   0.3140 
 14 N        1.9640    -4.5680     0.7470 N.ar  1 <1>  -0.6200 
 15 C        1.6720    -3.7030     2.9610 C.3   1 <1>  -0.0970 
 16 C        2.2180    -5.6170    -1.4080 C.3   1 <1>  -0.0970 
 17 C        3.3190     5.1900     0.9330 C.3   1 <1>   0.1570 
 18 C        4.7620     5.6240     1.0670 C.2   1 <1>   0.5690 
 19 O        5.1080     6.1430     2.1020 O.2   1 <1>  -0.5700 
 20 N        5.6210     5.4410     0.0280 N.am  1 <1>  -0.7300 
 21 C        7.0560     5.8110     0.0000 C.3   1 <1>   0.0600 
 22 H        2.5620     0.0700     1.1820 H     1 <1>   0.3700 
 23 H        2.7120    -3.0040    -2.0730 H     1 <1>   0.1500 
 24 H        3.3310     1.9240    -2.1580 H     1 <1>   0.1500 
 25 H        2.8240     2.6080     1.9970 H     1 <1>   0.1500 
 26 H        1.6630    -2.7690     3.4930 H     1 <1>   0.0800 
 27 H        2.4210    -4.3430     3.3890 H     1 <1>   0.0800 
 28 H        0.7120    -4.1720     3.0600 H     1 <1>   0.0800 
 29 H        2.4440    -5.3640    -2.4270 H     1 <1>   0.0800 
 30 H        1.2490    -6.0800    -1.3710 H     1 <1>   0.0800 
 31 H        2.9490    -6.3210    -1.0530 H     1 <1>   0.0800 
 32 H        2.8590     5.1590     1.9010 H     1 <1>   0.0800 
 33 H        2.7940     5.8910     0.3140 H     1 <1>   0.0800 
 34 H        5.2650     4.9090    -0.7840 H     1 <1>   0.3700 
 35 H        7.3250     6.3290     0.9060 H     1 <1>   0.0800 
 36 H        7.2490     6.4540    -0.8400 H     1 <1>   0.0800 
 37 H        7.6580     4.9230    -0.0860 H     1 <1>   0.0800 
@<TRIPOS>BOND
  1   1   2  2   
  2   2   3  am  
  3   2   4  1   
  4   3   5  1   
  5   3  22  1   
  6   4   6  ar  
  7   4   7  ar  
  8   5   8  1   
  9   5   9  2   
 10   6  10  ar  
 11   7  11  ar  
 12   7  23  1   
 13   8  12  2   
 14   8  24  1   
 15   9  13  1   
 16   9  25  1   
 17  10  14  ar  
 18  10  15  1   
 19  11  14  ar  
 20  11  16  1   
 21  12  13  1   
 22  13  17  1   
 23  15  26  1   
 24  15  27  1   
 25  15  28  1   
 26  16  29  1   
 27  16  30  1   
 28  16  31  1   
 29  17  18  1   
 30  17  32  1   
 31  17  33  1   
 32  18  19  2   
 33  18  20  am  
 34  20  21  1   
 35  20  34  1   
 36  21  35  1   
 37  21  36  1   
 38  21  37  1   
@<TRIPOS>SUBSTRUCTURE
  1 ****   3 GROUP 4 **** **** 0

# MOE 2024.06 (io_trps.svl 2023.06)
