@<TRIPOS>MOLECULE
NONAME
53 56 1 0 0 
SMALL
USER_CHARGES


@<TRIPOS>ATOM
  1 O        0.1950    -0.8770    -0.6870 O.2   1 <1>  -0.5700 
  2 C        1.0870    -1.3870    -0.0270 C.2   1 <1>   0.5440 
  3 N        0.7810    -2.3250     0.9340 N.am  1 <1>  -0.4200 
  4 C        2.4670    -1.0380    -0.2160 C.ar  1 <1>   0.0860 
  5 C        1.7920    -2.8850     1.6770 C.2   1 <1>   0.4500 
  6 C       -0.6240    -2.7370     1.1760 C.3   1 <1>   0.1400 
  7 C        3.4100    -1.6750     0.6000 C.ar  1 <1>   0.1790 
  8 C        2.9100    -0.1080    -1.1610 C.ar  1 <1>  -0.1500 
  9 N        3.0320    -2.6050     1.5490 N.2   1 <1>  -0.6290 
 10 C       -0.9900    -3.9110     0.2610 C.3   1 <1>  -0.1600 
 11 C        4.7590    -1.3690     0.4530 C.ar  1 <1>  -0.1500 
 12 C        4.2510     0.1850    -1.2950 C.ar  1 <1>  -0.1500 
 13 C       -2.4390    -4.3720     0.4920 C.3   1 <1>  -0.0990 
 14 C        5.1810    -0.4490    -0.4830 C.ar  1 <1>  -0.1500 
 15 C       -2.8240    -5.5110    -0.4310 C.2   1 <1>   0.5690 
 16 O       -3.4880    -5.2790    -1.4090 O.2   1 <1>  -0.5700 
 17 N       -2.4100    -6.7630    -0.1250 N.am  1 <1>  -0.7300 
 18 C       -2.6770    -7.9610    -0.9520 C.3   1 <1>   0.2200 
 19 C       -3.7370    -8.8120    -0.2740 C.3   1 <1>  -0.0800 
 20 C       -1.4670    -8.8850    -0.9090 C.3   1 <1>   0.1200 
 21 C       -2.9110    -9.6530     0.7090 C.3   1 <1>   0.1200 
 22 C       -4.4970    -9.6820    -1.2940 C.3   1 <1>  -0.0170 
 23 O       -1.5770    -9.5910     0.2890 O.3   1 <1>  -0.5600 
 24 C       -5.5750   -10.5170    -0.6200 C.ar  1 <1>  -0.1430 
 25 C       -5.4330   -11.8750    -0.4150 C.ar  1 <1>  -0.1500 
 26 C       -6.7570    -9.9560    -0.1810 C.ar  1 <1>  -0.1500 
 27 C       -6.4470   -12.5840     0.2080 C.ar  1 <1>   0.1600 
 28 C       -7.7090   -10.7550     0.4310 C.ar  1 <1>   0.1600 
 29 N       -7.5810   -12.0560     0.6370 N.ar  1 <1>  -0.6200 
 30 H        1.4930    -3.6100     2.4140 H     1 <1>   0.0600 
 31 H       -0.7420    -3.0200     2.2070 H     1 <1>   0.0800 
 32 H       -1.2820    -1.9050     0.9860 H     1 <1>   0.0800 
 33 H        2.1850     0.3820    -1.7890 H     1 <1>   0.1500 
 34 H       -0.8860    -3.6020    -0.7660 H     1 <1>   0.0800 
 35 H       -0.3200    -4.7330     0.4400 H     1 <1>   0.0800 
 36 H        5.4700    -1.8670     1.0880 H     1 <1>   0.1500 
 37 H        4.5800     0.9040    -2.0260 H     1 <1>   0.1500 
 38 H       -3.1100    -3.5510     0.3090 H     1 <1>   0.0800 
 39 H       -2.5730    -4.6890     1.5100 H     1 <1>   0.0800 
 40 H        6.2280    -0.2210    -0.5860 H     1 <1>   0.1500 
 41 H       -1.8630    -6.9510     0.7170 H     1 <1>   0.3700 
 42 H       -2.9370    -7.6730    -1.9580 H     1 <1>   0.0800 
 43 H       -4.4490    -8.1980     0.2500 H     1 <1>   0.0800 
 44 H       -0.5330    -8.3510    -0.9320 H     1 <1>   0.0800 
 45 H       -1.5000    -9.5970    -1.7140 H     1 <1>   0.0800 
 46 H       -3.2160   -10.6840     0.7400 H     1 <1>   0.0800 
 47 H       -2.9590    -9.2380     1.7010 H     1 <1>   0.0800 
 48 H       -3.8140   -10.3280    -1.8170 H     1 <1>   0.0800 
 49 H       -4.9650    -9.0450    -2.0250 H     1 <1>   0.0800 
 50 H       -4.5440   -12.3900    -0.7310 H     1 <1>   0.1500 
 51 H       -6.9470    -8.9060    -0.3080 H     1 <1>   0.1500 
 52 H       -6.3180   -13.6410     0.3610 H     1 <1>   0.1500 
 53 H       -8.6250   -10.2990     0.7670 H     1 <1>   0.1500 
@<TRIPOS>BOND
  1   1   2  2   
  2   2   3  am  
  3   2   4  1   
  4   3   5  1   
  5   3   6  1   
  6   4   7  ar  
  7   4   8  ar  
  8   5   9  2   
  9   5  30  1   
 10   6  10  1   
 11   6  31  1   
 12   6  32  1   
 13   7   9  1   
 14   7  11  ar  
 15   8  12  ar  
 16   8  33  1   
 17  10  13  1   
 18  10  34  1   
 19  10  35  1   
 20  11  14  ar  
 21  11  36  1   
 22  12  14  ar  
 23  12  37  1   
 24  13  15  1   
 25  13  38  1   
 26  13  39  1   
 27  14  40  1   
 28  15  16  2   
 29  15  17  am  
 30  17  18  1   
 31  17  41  1   
 32  18  19  1   
 33  18  20  1   
 34  18  42  1   
 35  19  21  1   
 36  19  22  1   
 37  19  43  1   
 38  20  23  1   
 39  20  44  1   
 40  20  45  1   
 41  21  23  1   
 42  21  46  1   
 43  21  47  1   
 44  22  24  1   
 45  22  48  1   
 46  22  49  1   
 47  24  25  ar  
 48  24  26  ar  
 49  25  27  ar  
 50  25  50  1   
 51  26  28  ar  
 52  26  51  1   
 53  27  29  ar  
 54  27  52  1   
 55  28  29  ar  
 56  28  53  1   
@<TRIPOS>SUBSTRUCTURE
  1 ****  17 GROUP 4 **** **** 0

# MOE 2024.06 (io_trps.svl 2023.06)
