@<TRIPOS>MOLECULE
NONAME
55 57 1 0 0 
SMALL
USER_CHARGES


@<TRIPOS>ATOM
  1 CL       7.4260     1.8600     1.3630 Cl    1 <1>  -0.1770 
  2 C        6.0690     0.7600     1.2040 C.ar  1 <1>   0.1770 
  3 C        5.0620     1.0170     0.2770 C.ar  1 <1>   0.0830 
  4 C        6.0300    -0.3530     2.0210 C.ar  1 <1>  -0.1500 
  5 O        5.1660     2.1350    -0.4910 O.3   1 <1>  -0.3630 
  6 C        3.9980     0.1230     0.1810 C.ar  1 <1>  -0.1500 
  7 C        4.9660    -1.2340     1.9180 C.ar  1 <1>  -0.1500 
  8 C        4.2050     2.4640    -1.4830 C.3   1 <1>   0.1810 
  9 C        3.9560    -0.9930     1.0010 C.ar  1 <1>  -0.1500 
 10 C        4.6150     3.7290    -2.2360 C.2   1 <1>   0.5690 
 11 O        4.8170     3.6150    -3.4210 O.2   1 <1>  -0.5700 
 12 N        4.7630     4.9490    -1.6040 N.am  1 <1>  -0.6600 
 13 C        4.6960     5.1430    -0.1240 C.3   1 <1>   0.1400 
 14 C        5.0930     6.1760    -2.3830 C.3   1 <1>   0.1400 
 15 C        6.0430     4.8230     0.5580 C.3   1 <1>   0.3430 
 16 C        6.4400     6.7740    -1.9600 C.3   1 <1>  -0.1600 
 17 N        7.2170     5.6270     0.0930 N.4   1 <1>  -0.9590 
 18 C        7.4180     5.7510    -1.3800 C.3   1 <1>   0.3430 
 19 C        8.4640     5.1460     0.7410 C.3   1 <1>   0.5240 
 20 C        9.4000     6.3430     0.8140 C.2   1 <1>   0.0460 
 21 N        8.8900     7.5590     1.1100 N.2   1 <1>  -0.5650 
 22 C       10.7330     6.4150     0.5990 C.2   1 <1>  -0.3320 
 23 C        9.9180     8.3440     1.0780 C.2   1 <1>   0.0060 
 24 N       11.0700     7.7070     0.7740 N.pl3 1 <1>   0.0330 
 25 C       11.7540     5.3480     0.2360 C.3   1 <1>  -0.0600 
 26 C        9.8580     9.8350     1.3540 C.3   1 <1>   0.0200 
 27 C       10.0500    10.6460     0.0690 C.3   1 <1>  -0.2400 
 28 H        6.8210    -0.5300     2.7280 H     1 <1>   0.1500 
 29 H        3.1960     0.2700    -0.5180 H     1 <1>   0.1500 
 30 H        4.9250    -2.1050     2.5500 H     1 <1>   0.1500 
 31 H        3.2520     2.6110    -1.0090 H     1 <1>   0.0800 
 32 H        4.1440     1.6450    -2.1770 H     1 <1>   0.0800 
 33 H        3.1330    -1.6840     0.9250 H     1 <1>   0.1500 
 34 H        3.9390     4.5000     0.2880 H     1 <1>   0.0800 
 35 H        4.4080     6.1560     0.1010 H     1 <1>   0.0800 
 36 H        4.3100     6.9050    -2.2530 H     1 <1>   0.0800 
 37 H        5.1330     5.9440    -3.4340 H     1 <1>   0.0800 
 38 H        6.2580     3.7860     0.3930 H     1 <1>   0.0800 
 39 H        5.9250     4.9570     1.6200 H     1 <1>   0.0800 
 40 H        6.2910     7.5830    -1.2680 H     1 <1>   0.0800 
 41 H        6.8860     7.2040    -2.8390 H     1 <1>   0.0800 
 42 H        7.1700     6.5950     0.4610 H     1 <1>   0.4500 
 43 H        8.4200     6.1030    -1.5680 H     1 <1>   0.0800 
 44 H        7.2980     4.7950    -1.8660 H     1 <1>   0.0800 
 45 H        8.9080     4.3370     0.1850 H     1 <1>   0.0800 
 46 H        8.2570     4.8140     1.7440 H     1 <1>   0.0800 
 47 H       11.9990     8.1320     0.6990 H     1 <1>   0.2700 
 48 H       11.2890     4.3830     0.1490 H     1 <1>   0.0800 
 49 H       12.5140     5.2910     0.9950 H     1 <1>   0.0800 
 50 H       12.2230     5.5870    -0.7030 H     1 <1>   0.0800 
 51 H       10.6140    10.0990     2.0720 H     1 <1>   0.0800 
 52 H        8.9000    10.0740     1.7840 H     1 <1>   0.0800 
 53 H       11.0160    10.4530    -0.3620 H     1 <1>   0.0800 
 54 H        9.9720    11.6980     0.2820 H     1 <1>   0.0800 
 55 H        9.2910    10.3840    -0.6480 H     1 <1>   0.0800 
@<TRIPOS>BOND
  1   1   2  1   
  2   2   3  ar  
  3   2   4  ar  
  4   3   5  1   
  5   3   6  ar  
  6   4   7  ar  
  7   4  28  1   
  8   5   8  1   
  9   6   9  ar  
 10   6  29  1   
 11   7   9  ar  
 12   7  30  1   
 13   8  10  1   
 14   8  31  1   
 15   8  32  1   
 16   9  33  1   
 17  10  11  2   
 18  10  12  am  
 19  12  13  1   
 20  12  14  1   
 21  13  15  1   
 22  13  34  1   
 23  13  35  1   
 24  14  16  1   
 25  14  36  1   
 26  14  37  1   
 27  15  17  1   
 28  15  38  1   
 29  15  39  1   
 30  16  18  1   
 31  16  40  1   
 32  16  41  1   
 33  17  18  1   
 34  17  19  1   
 35  17  42  1   
 36  18  43  1   
 37  18  44  1   
 38  19  20  1   
 39  19  45  1   
 40  19  46  1   
 41  20  21  1   
 42  20  22  2   
 43  21  23  2   
 44  22  24  1   
 45  22  25  1   
 46  23  24  1   
 47  23  26  1   
 48  24  47  1   
 49  25  48  1   
 50  25  49  1   
 51  25  50  1   
 52  26  27  1   
 53  26  51  1   
 54  26  52  1   
 55  27  53  1   
 56  27  54  1   
 57  27  55  1   
@<TRIPOS>SUBSTRUCTURE
  1 ****  15 GROUP 4 **** **** 0

# MOE 2024.06 (io_trps.svl 2023.06)
