@<TRIPOS>MOLECULE
NONAME
51 53 1 0 0 
SMALL
USER_CHARGES


@<TRIPOS>ATOM
  1 O       -0.9590    -0.2040    -0.5760 O.2   1 <1>  -0.5700 
  2 C       -1.7150    -1.0420    -0.1350 C.2   1 <1>   0.6900 
  3 N       -3.0860    -0.9520    -0.2780 N.am  1 <1>  -0.4200 
  4 N       -1.1880    -2.1190     0.5210 N.am  1 <1>  -0.5390 
  5 C       -3.8990    -1.9610     0.2080 C.2   1 <1>   0.6160 
  6 C       -3.6720     0.2250    -0.9810 C.3   1 <1>   0.0600 
  7 C       -1.9620    -3.1300     1.0510 C.2   1 <1>  -0.0410 
  8 O       -5.1060    -1.9230     0.0290 O.2   1 <1>  -0.5700 
  9 C       -3.3050    -3.0700     0.9050 C.2   1 <1>  -0.1240 
 10 C       -4.2320    -4.1440     1.4660 C.3   1 <1>  -0.0220 
 11 C       -4.9510    -4.8870     0.3280 C.3   1 <1>   0.3430 
 12 N       -6.3450    -5.2970     0.7080 N.4   1 <1>  -0.9590 
 13 C       -6.8880    -6.4090    -0.1500 C.3   1 <1>   0.5660 
 14 C       -7.2280    -4.0750     0.7420 C.3   1 <1>   0.3430 
 15 C       -5.8120    -7.4570    -0.4220 C.ar  1 <1>  -0.1430 
 16 C       -7.5820    -5.8410    -1.3940 C.3   1 <1>  -0.1600 
 17 C       -8.6830    -4.4100     0.4100 C.3   1 <1>  -0.1600 
 18 C       -5.5170    -8.3640     0.5850 C.ar  1 <1>  -0.1500 
 19 C       -5.1060    -7.5340    -1.6190 C.ar  1 <1>  -0.1500 
 20 C       -8.8120    -4.9990    -1.0060 C.3   1 <1>  -0.1600 
 21 C       -4.5330    -9.3240     0.4210 C.ar  1 <1>   0.0830 
 22 C       -4.1240    -8.4940    -1.7930 C.ar  1 <1>  -0.1500 
 23 O       -4.3180   -10.1530     1.4700 O.3   1 <1>  -0.3630 
 24 C       -3.8330    -9.3880    -0.7780 C.ar  1 <1>  -0.1500 
 25 C       -3.4180   -11.2360     1.3760 C.3   1 <1>   0.0400 
 26 H       -0.1680    -2.1020     0.5960 H     1 <1>   0.3700 
 27 H       -3.0690     1.1000    -0.8100 H     1 <1>   0.0800 
 28 H       -4.6660     0.4250    -0.6220 H     1 <1>   0.0800 
 29 H       -3.7110     0.0290    -2.0380 H     1 <1>   0.0800 
 30 H       -1.4470    -3.9280     1.5650 H     1 <1>   0.1500 
 31 H       -4.9330    -3.6630     2.1250 H     1 <1>   0.0800 
 32 H       -3.6680    -4.8540     2.0450 H     1 <1>   0.0800 
 33 H       -4.3520    -5.7430     0.0680 H     1 <1>   0.0800 
 34 H       -5.0030    -4.2520    -0.5410 H     1 <1>   0.0800 
 35 H       -6.3010    -5.6950     1.6520 H     1 <1>   0.4500 
 36 H       -7.6600    -6.9090     0.4140 H     1 <1>   0.0800 
 37 H       -6.8820    -3.3640     0.0080 H     1 <1>   0.0800 
 38 H       -7.1690    -3.6000     1.7080 H     1 <1>   0.0800 
 39 H       -7.8960    -6.6490    -2.0330 H     1 <1>   0.0800 
 40 H       -6.8870    -5.2360    -1.9490 H     1 <1>   0.0800 
 41 H       -9.2770    -3.5150     0.4750 H     1 <1>   0.0800 
 42 H       -9.0660    -5.1000     1.1420 H     1 <1>   0.0800 
 43 H       -6.0450    -8.3510     1.5230 H     1 <1>   0.1500 
 44 H       -5.3000    -6.8590    -2.4350 H     1 <1>   0.1500 
 45 H       -9.7030    -5.6040    -1.0520 H     1 <1>   0.0800 
 46 H       -8.9280    -4.2040    -1.7250 H     1 <1>   0.0800 
 47 H       -3.5830    -8.5500    -2.7230 H     1 <1>   0.1500 
 48 H       -3.0650   -10.1220    -0.9380 H     1 <1>   0.1500 
 49 H       -3.4440   -11.7740     2.3070 H     1 <1>   0.0800 
 50 H       -2.4280   -10.8560     1.2020 H     1 <1>   0.0800 
 51 H       -3.7300   -11.8820     0.5740 H     1 <1>   0.0800 
@<TRIPOS>BOND
  1   1   2  2   
  2   2   3  am  
  3   2   4  am  
  4   3   5  am  
  5   3   6  1   
  6   4   7  1   
  7   4  26  1   
  8   5   8  2   
  9   5   9  1   
 10   6  27  1   
 11   6  28  1   
 12   6  29  1   
 13   7   9  2   
 14   7  30  1   
 15   9  10  1   
 16  10  11  1   
 17  10  31  1   
 18  10  32  1   
 19  11  12  1   
 20  11  33  1   
 21  11  34  1   
 22  12  13  1   
 23  12  14  1   
 24  12  35  1   
 25  13  15  1   
 26  13  16  1   
 27  13  36  1   
 28  14  17  1   
 29  14  37  1   
 30  14  38  1   
 31  15  18  ar  
 32  15  19  ar  
 33  16  20  1   
 34  16  39  1   
 35  16  40  1   
 36  17  20  1   
 37  17  41  1   
 38  17  42  1   
 39  18  21  ar  
 40  18  43  1   
 41  19  22  ar  
 42  19  44  1   
 43  20  45  1   
 44  20  46  1   
 45  21  23  1   
 46  21  24  ar  
 47  22  24  ar  
 48  22  47  1   
 49  23  25  1   
 50  24  48  1   
 51  25  49  1   
 52  25  50  1   
 53  25  51  1   
@<TRIPOS>SUBSTRUCTURE
  1 ****  11 GROUP 4 **** **** 0

# MOE 2024.06 (io_trps.svl 2023.06)
