@<TRIPOS>MOLECULE
NONAME
51 53 1 0 0 
SMALL
USER_CHARGES


@<TRIPOS>ATOM
  1 S        1.0090     0.2810    -1.2690 S.o2  1 <1>   1.3330 
  2 O        1.2930    -1.1350    -1.3410 O.2   1 <1>  -0.6500 
  3 O        0.4910     0.9690    -2.4300 O.2   1 <1>  -0.6500 
  4 N       -0.0980     0.5270    -0.0040 N.am  1 <1>  -0.8490 
  5 C        2.4930     1.1150    -0.7030 C.3   1 <1>  -0.0550 
  6 C       -0.7380     1.8470    -0.0410 C.3   1 <1>   0.1160 
  7 C       -1.1250    -0.5180     0.0390 C.3   1 <1>   0.1160 
  8 C        3.2090     0.4170     0.4750 C.3   1 <1>  -0.0800 
  9 C        4.5410     1.0350     0.8730 C.3   1 <1>   0.2200 
 10 C        2.4330     0.4050     1.7980 C.3   1 <1>   0.1200 
 11 N        4.4450     2.5120     0.9050 N.am  1 <1>  -0.7300 
 12 C        4.6670     0.5230     2.3000 C.3   1 <1>   0.1200 
 13 O        3.3740     0.5820     2.8190 O.3   1 <1>  -0.5600 
 14 C        4.8380     3.3640    -0.0750 C.2   1 <1>   0.7150 
 15 O        5.3300     2.8930    -1.0820 O.2   1 <1>  -0.5700 
 16 C        4.6150     4.7770     0.1020 C.2   1 <1>  -0.2370 
 17 N        4.7610     5.7320    -0.8890 N.pl3 1 <1>   0.0480 
 18 C        4.2190     5.4230     1.2410 C.2   1 <1>  -0.1500 
 19 C        4.4500     6.9640    -0.3620 C.ar  1 <1>  -0.1520 
 20 C        5.1670     5.4940    -2.2920 C.3   1 <1>   0.0160 
 21 C        4.1070     6.7950     0.9730 C.ar  1 <1>   0.0000 
 22 C        4.4310     8.2430    -0.9310 C.ar  1 <1>  -0.1500 
 23 C        3.7420     7.8990     1.7530 C.ar  1 <1>  -0.1500 
 24 C        4.0700     9.3200    -0.1550 C.ar  1 <1>  -0.1500 
 25 C        3.7230     9.1540     1.1920 C.ar  1 <1>  -0.1440 
 26 C        3.3320    10.3740     2.0070 C.3   1 <1>  -0.0970 
 27 H        3.1830     1.1640    -1.5240 H     1 <1>   0.0800 
 28 H        2.2480     2.1240    -0.4360 H     1 <1>   0.0800 
 29 H       -1.3610     1.9810     0.8270 H     1 <1>   0.0800 
 30 H       -1.3460     1.9480    -0.9260 H     1 <1>   0.0800 
 31 H        0.0070     2.6240    -0.0460 H     1 <1>   0.0800 
 32 H       -1.8040    -0.3430     0.8560 H     1 <1>   0.0800 
 33 H       -0.6660    -1.4820     0.1850 H     1 <1>   0.0800 
 34 H       -1.6790    -0.5370    -0.8850 H     1 <1>   0.0800 
 35 H        3.3920    -0.6080     0.1990 H     1 <1>   0.0800 
 36 H        5.3580     0.7170     0.2460 H     1 <1>   0.0800 
 37 H        1.9170    -0.5280     1.9520 H     1 <1>   0.0800 
 38 H        1.7340     1.2210     1.8600 H     1 <1>   0.0800 
 39 H        3.9810     2.8900     1.7320 H     1 <1>   0.3700 
 40 H        5.3310     1.1180     2.9030 H     1 <1>   0.0800 
 41 H        4.9820    -0.5060     2.3120 H     1 <1>   0.0800 
 42 H        4.0180     5.0010     2.2080 H     1 <1>   0.1500 
 43 H        4.5020     4.7750    -2.7350 H     1 <1>   0.0800 
 44 H        6.1700     5.1090    -2.3080 H     1 <1>   0.0800 
 45 H        5.1260     6.4060    -2.8540 H     1 <1>   0.0800 
 46 H        4.6970     8.3840    -1.9620 H     1 <1>   0.1500 
 47 H        3.4820     7.7390     2.7830 H     1 <1>   0.1500 
 48 H        4.0530    10.3070    -0.5830 H     1 <1>   0.1500 
 49 H        2.4720    10.8460     1.5680 H     1 <1>   0.0800 
 50 H        4.1460    11.0760     2.0250 H     1 <1>   0.0800 
 51 H        3.0950    10.0990     3.0190 H     1 <1>   0.0800 
@<TRIPOS>BOND
  1   1   2  2   
  2   1   3  2   
  3   1   4  am  
  4   1   5  1   
  5   4   6  1   
  6   4   7  1   
  7   5   8  1   
  8   5  27  1   
  9   5  28  1   
 10   6  29  1   
 11   6  30  1   
 12   6  31  1   
 13   7  32  1   
 14   7  33  1   
 15   7  34  1   
 16   8   9  1   
 17   8  10  1   
 18   8  35  1   
 19   9  11  1   
 20   9  12  1   
 21   9  36  1   
 22  10  13  1   
 23  10  37  1   
 24  10  38  1   
 25  11  14  am  
 26  11  39  1   
 27  12  13  1   
 28  12  40  1   
 29  12  41  1   
 30  14  15  2   
 31  14  16  1   
 32  16  17  1   
 33  16  18  2   
 34  17  19  1   
 35  17  20  1   
 36  18  21  1   
 37  18  42  1   
 38  19  21  ar  
 39  19  22  ar  
 40  20  43  1   
 41  20  44  1   
 42  20  45  1   
 43  21  23  ar  
 44  22  24  ar  
 45  22  46  1   
 46  23  25  ar  
 47  23  47  1   
 48  24  25  ar  
 49  24  48  1   
 50  25  26  1   
 51  26  49  1   
 52  26  50  1   
 53  26  51  1   
@<TRIPOS>SUBSTRUCTURE
  1 ****  14 GROUP 4 **** **** 0

# MOE 2024.06 (io_trps.svl 2023.06)
