@<TRIPOS>MOLECULE
NONAME
37 39 1 0 0 
SMALL
USER_CHARGES


@<TRIPOS>ATOM
  1 S       -1.9250     0.4850    -0.7360 S.3   1 <1>  -0.0800 
  2 C       -1.1660     1.2310     0.6510 C.2   1 <1>   0.4620 
  3 C       -1.7160    -1.0930     0.0010 C.2   1 <1>  -0.0450 
  4 N       -0.7990     0.4040     1.5590 N.2   1 <1>  -0.5650 
  5 N       -1.0210     2.5710     0.6790 N.pl3 1 <1>  -0.8840 
  6 C       -2.1710    -2.2690    -0.6810 C.2   1 <1>   0.7150 
  7 C       -1.1050    -0.8790     1.1900 C.2   1 <1>   0.0770 
  8 O       -2.6630    -2.2190    -1.7930 O.2   1 <1>  -0.5700 
  9 N       -2.0720    -3.4900    -0.0810 N.am  1 <1>  -0.7300 
 10 C       -2.5140    -4.7690    -0.6820 C.3   1 <1>   0.2200 
 11 C       -3.9050    -5.1070    -0.1710 C.3   1 <1>  -0.0800 
 12 C       -1.6890    -5.9130    -0.1060 C.3   1 <1>   0.1200 
 13 C       -3.6090    -5.8140     1.1590 C.3   1 <1>   0.1200 
 14 C       -4.6640    -6.0110    -1.1600 C.3   1 <1>  -0.0170 
 15 O       -2.2650    -6.2050     1.1300 O.3   1 <1>  -0.5600 
 16 C       -6.0680    -6.3210    -0.6650 C.ar  1 <1>  -0.1430 
 17 C       -6.4110    -7.5540    -0.1480 C.ar  1 <1>  -0.1500 
 18 C       -7.0760    -5.3790    -0.7120 C.ar  1 <1>  -0.1500 
 19 C       -7.7060    -7.7770     0.2910 C.ar  1 <1>   0.1600 
 20 C       -8.3390    -5.7040    -0.2470 C.ar  1 <1>   0.1600 
 21 N       -8.6780    -6.8800     0.2560 N.ar  1 <1>  -0.6200 
 22 H       -1.3310     3.1780    -0.0800 H     1 <1>   0.4000 
 23 H       -0.5770     3.0230     1.4790 H     1 <1>   0.4000 
 24 H       -0.8380    -1.6610     1.8790 H     1 <1>   0.1500 
 25 H       -1.7660    -3.5670     0.8900 H     1 <1>   0.3700 
 26 H       -2.4520    -4.7220    -1.7570 H     1 <1>   0.0800 
 27 H       -4.4860    -4.2150    -0.0100 H     1 <1>   0.0800 
 28 H       -0.6530    -5.6560     0.0270 H     1 <1>   0.0800 
 29 H       -1.7710    -6.7920    -0.7220 H     1 <1>   0.0800 
 30 H       -4.2190    -6.6850     1.3170 H     1 <1>   0.0800 
 31 H       -3.7330    -5.1380     1.9870 H     1 <1>   0.0800 
 32 H       -4.1250    -6.9300    -1.3170 H     1 <1>   0.0800 
 33 H       -4.7390    -5.5130    -2.1120 H     1 <1>   0.0800 
 34 H       -5.6860    -8.3450    -0.0800 H     1 <1>   0.1500 
 35 H       -6.8910    -4.3960    -1.1060 H     1 <1>   0.1500 
 36 H       -7.9550    -8.7440     0.6930 H     1 <1>   0.1500 
 37 H       -9.1130    -4.9560    -0.2920 H     1 <1>   0.1500 
@<TRIPOS>BOND
  1   1   2  1   
  2   1   3  1   
  3   2   4  2   
  4   2   5  1   
  5   3   6  1   
  6   3   7  2   
  7   4   7  1   
  8   5  22  1   
  9   5  23  1   
 10   6   8  2   
 11   6   9  am  
 12   7  24  1   
 13   9  10  1   
 14   9  25  1   
 15  10  11  1   
 16  10  12  1   
 17  10  26  1   
 18  11  13  1   
 19  11  14  1   
 20  11  27  1   
 21  12  15  1   
 22  12  28  1   
 23  12  29  1   
 24  13  15  1   
 25  13  30  1   
 26  13  31  1   
 27  14  16  1   
 28  14  32  1   
 29  14  33  1   
 30  16  17  ar  
 31  16  18  ar  
 32  17  19  ar  
 33  17  34  1   
 34  18  20  ar  
 35  18  35  1   
 36  19  21  ar  
 37  19  36  1   
 38  20  21  ar  
 39  20  37  1   
@<TRIPOS>SUBSTRUCTURE
  1 ****  11 GROUP 4 **** **** 0

# MOE 2024.06 (io_trps.svl 2023.06)
