@<TRIPOS>MOLECULE
NONAME
59 62 1 0 0 
SMALL
USER_CHARGES


@<TRIPOS>ATOM
  1 O        0.2760     0.4840     0.8520 O.2   1 <1>  -0.5700 
  2 C       -0.2560     1.5790     0.8310 C.2   1 <1>   0.5440 
  3 N       -1.6320     1.6550     0.9210 N.am  1 <1>  -0.6600 
  4 C        0.5670     2.7610     0.6840 C.ar  1 <1>   0.0860 
  5 C       -2.4110     2.9190     0.7290 C.3   1 <1>   0.1400 
  6 C       -2.4630     0.4160     1.0380 C.3   1 <1>   0.1400 
  7 C        1.3200     2.9610    -0.4720 C.ar  1 <1>  -0.1500 
  8 C        0.6260     3.7400     1.6740 C.ar  1 <1>  -0.1500 
  9 C       -3.2490     2.8620    -0.5670 C.3   1 <1>   0.1440 
 10 C       -3.8880     0.6170     0.4890 C.3   1 <1>  -0.1600 
 11 C        2.0860     4.0970    -0.6540 C.ar  1 <1>  -0.1430 
 12 C        1.3830     4.8870     1.5190 C.ar  1 <1>  -0.1430 
 13 C       -4.2900     3.9640    -0.4720 C.ar  1 <1>   0.1670 
 14 C       -3.8710     1.4580    -0.7980 C.3   1 <1>  -0.1600 
 15 C       -2.4140     3.3160    -1.7930 C.3   1 <1>  -0.1600 
 16 C        2.1260     5.0580     0.3530 C.ar  1 <1>   0.0830 
 17 C        2.8670     4.2740    -1.9490 C.3   1 <1>  -0.0970 
 18 C        1.3850     5.9380     2.6210 C.3   1 <1>  -0.0970 
 19 N       -5.3800     3.9210     0.2520 N.ar  1 <1>  -0.6200 
 20 C       -3.9430     5.0440    -1.2270 C.ar  1 <1>  -0.1430 
 21 C       -2.6330     4.8310    -1.9430 C.3   1 <1>  -0.0170 
 22 O        2.8760     6.1670     0.1930 O.3   1 <1>  -0.3630 
 23 C       -6.1490     5.0120     0.1920 C.ar  1 <1>   0.7200 
 24 C       -4.7900     6.1220    -1.2240 C.ar  1 <1>   0.1600 
 25 C        4.2080     6.0970     0.6490 C.3   1 <1>   0.0400 
 26 N       -5.8970     6.1160    -0.5190 N.ar  1 <1>  -0.6200 
 27 N       -7.3120     4.9980     0.9370 N.pl3 1 <1>  -0.8380 
 28 C       -8.3890     6.0080     0.7390 C.3   1 <1>   0.1290 
 29 C       -7.5860     3.9520     1.9600 C.3   1 <1>   0.1290 
 30 H       -1.7740     3.7830     0.7060 H     1 <1>   0.0800 
 31 H       -3.0710     3.0350     1.5720 H     1 <1>   0.0800 
 32 H       -2.5050     0.1130     2.0700 H     1 <1>   0.0800 
 33 H       -1.9880    -0.3740     0.4810 H     1 <1>   0.0800 
 34 H        1.2900     2.1990    -1.2320 H     1 <1>   0.1500 
 35 H        0.0570     3.5860     2.5740 H     1 <1>   0.1500 
 36 H       -4.4950     1.1060     1.2320 H     1 <1>   0.0800 
 37 H       -4.3300    -0.3430     0.2960 H     1 <1>   0.0800 
 38 H       -3.2890     0.9200    -1.5260 H     1 <1>   0.0800 
 39 H       -4.8700     1.5570    -1.1870 H     1 <1>   0.0800 
 40 H       -2.7960     2.8420    -2.6800 H     1 <1>   0.0800 
 41 H       -1.3730     3.0650    -1.6960 H     1 <1>   0.0800 
 42 H        2.4930     3.6200    -2.7160 H     1 <1>   0.0800 
 43 H        3.9050     4.0510    -1.7840 H     1 <1>   0.0800 
 44 H        2.7800     5.2880    -2.2990 H     1 <1>   0.0800 
 45 H        0.5450     5.8070     3.2780 H     1 <1>   0.0800 
 46 H        1.3280     6.9230     2.1930 H     1 <1>   0.0800 
 47 H        2.2890     5.8610     3.1980 H     1 <1>   0.0800 
 48 H       -2.6880     5.1230    -2.9770 H     1 <1>   0.0800 
 49 H       -1.8520     5.3800    -1.4460 H     1 <1>   0.0800 
 50 H       -4.5590     6.9980    -1.8040 H     1 <1>   0.1500 
 51 H        4.6800     7.0420     0.4550 H     1 <1>   0.0800 
 52 H        4.7180     5.3120     0.1200 H     1 <1>   0.0800 
 53 H        4.2060     5.8930     1.7040 H     1 <1>   0.0800 
 54 H       -8.3950     6.3590    -0.2780 H     1 <1>   0.0800 
 55 H       -8.2210     6.8440     1.3960 H     1 <1>   0.0800 
 56 H       -9.3490     5.5740     0.9520 H     1 <1>   0.0800 
 57 H       -6.6670     3.6080     2.4030 H     1 <1>   0.0800 
 58 H       -8.0850     3.1190     1.4970 H     1 <1>   0.0800 
 59 H       -8.2090     4.3510     2.7420 H     1 <1>   0.0800 
@<TRIPOS>BOND
  1   1   2  2   
  2   2   3  am  
  3   2   4  1   
  4   3   5  1   
  5   3   6  1   
  6   4   7  ar  
  7   4   8  ar  
  8   5   9  1   
  9   5  30  1   
 10   5  31  1   
 11   6  10  1   
 12   6  32  1   
 13   6  33  1   
 14   7  11  ar  
 15   7  34  1   
 16   8  12  ar  
 17   8  35  1   
 18   9  13  1   
 19   9  14  1   
 20   9  15  1   
 21  10  14  1   
 22  10  36  1   
 23  10  37  1   
 24  11  16  ar  
 25  11  17  1   
 26  12  16  ar  
 27  12  18  1   
 28  13  19  ar  
 29  13  20  ar  
 30  14  38  1   
 31  14  39  1   
 32  15  21  1   
 33  15  40  1   
 34  15  41  1   
 35  16  22  1   
 36  17  42  1   
 37  17  43  1   
 38  17  44  1   
 39  18  45  1   
 40  18  46  1   
 41  18  47  1   
 42  19  23  ar  
 43  20  21  1   
 44  20  24  ar  
 45  21  48  1   
 46  21  49  1   
 47  22  25  1   
 48  23  26  ar  
 49  23  27  1   
 50  24  26  ar  
 51  24  50  1   
 52  25  51  1   
 53  25  52  1   
 54  25  53  1   
 55  27  28  1   
 56  27  29  1   
 57  28  54  1   
 58  28  55  1   
 59  28  56  1   
 60  29  57  1   
 61  29  58  1   
 62  29  59  1   
@<TRIPOS>SUBSTRUCTURE
  1 ****   5 GROUP 4 **** **** 0

# MOE 2024.06 (io_trps.svl 2023.06)
