@<TRIPOS>MOLECULE
NONAME
51 53 1 0 0 
SMALL
USER_CHARGES


@<TRIPOS>ATOM
  1 O       -0.2870     0.2860    -0.2090 O.2   1 <1>  -0.5700 
  2 C       -1.3560     0.8430    -0.1220 C.2   1 <1>   0.5690 
  3 N       -2.5230     0.1350    -0.0610 N.am  1 <1>  -0.6600 
  4 C       -1.4030     2.3630    -0.0850 C.3   1 <1>  -0.0990 
  5 C       -3.8960     0.6970    -0.0180 C.3   1 <1>   0.1400 
  6 C       -2.5560    -1.3460    -0.0690 C.3   1 <1>   0.1400 
  7 C       -0.0110     3.0280    -0.0450 C.3   1 <1>  -0.0990 
  8 C       -4.8150    -0.5110    -0.1990 C.3   1 <1>   0.2000 
  9 C       -4.0010    -1.7160     0.2690 C.3   1 <1>  -0.0800 
 10 C       -0.0510     4.5530     0.0070 C.2   1 <1>   0.4230 
 11 O       -5.9720    -0.3930     0.5530 O.3   1 <1>  -0.6800 
 12 C       -4.4630    -3.0360    -0.3660 C.3   1 <1>   0.0200 
 13 O       -1.1340     5.0850     0.0330 O.2   1 <1>  -0.5700 
 14 C        1.1890     5.3050     0.0240 C.ar  1 <1>   0.0860 
 15 C       -3.5810    -4.1880     0.0750 C.2   1 <1>  -0.0400 
 16 C        2.4540     4.7040     0.0090 C.ar  1 <1>  -0.1500 
 17 C        1.1620     6.7030     0.0590 C.ar  1 <1>  -0.1500 
 18 O       -3.5330    -4.5280     1.3350 O.3   1 <1>  -0.0190 
 19 C       -2.7610    -5.0030    -0.6040 C.2   1 <1>  -0.1500 
 20 C        3.6130     5.4560     0.0260 C.ar  1 <1>  -0.1500 
 21 C        2.3170     7.4630     0.0760 C.ar  1 <1>  -0.1500 
 22 N       -2.7220    -5.5260     1.5370 N.2   1 <1>  -0.4100 
 23 C       -2.2420    -5.8330     0.3850 C.2   1 <1>   0.1080 
 24 C        3.5600     6.8390     0.0600 C.ar  1 <1>   0.0820 
 25 C       -1.2460    -6.9470     0.1490 C.3   1 <1>  -0.0590 
 26 O        4.7370     7.5000     0.0750 O.3   1 <1>  -0.3620 
 27 C        4.7990     8.9090     0.1090 C.3   1 <1>   0.0400 
 28 H       -1.9300     2.7070    -0.9550 H     1 <1>   0.0800 
 29 H       -1.9570     2.6640     0.7850 H     1 <1>   0.0800 
 30 H       -4.0580     1.1630     0.9380 H     1 <1>   0.0800 
 31 H       -4.0410     1.4080    -0.8120 H     1 <1>   0.0800 
 32 H       -2.2840    -1.6940    -1.0510 H     1 <1>   0.0800 
 33 H       -1.8650    -1.7490     0.6540 H     1 <1>   0.0800 
 34 H        0.5360     2.7290    -0.9210 H     1 <1>   0.0800 
 35 H        0.5150     2.6690     0.8220 H     1 <1>   0.0800 
 36 H       -5.0920    -0.6020    -1.2360 H     1 <1>   0.0800 
 37 H       -4.0640    -1.7960     1.3410 H     1 <1>   0.0800 
 38 H       -5.7610    -0.3870     1.5070 H     1 <1>   0.4000 
 39 H       -4.4330    -2.9590    -1.4380 H     1 <1>   0.0800 
 40 H       -5.4780    -3.2410    -0.0750 H     1 <1>   0.0800 
 41 H        2.5500     3.6340    -0.0160 H     1 <1>   0.1500 
 42 H        0.2080     7.2030     0.0710 H     1 <1>   0.1500 
 43 H       -2.5310    -5.0380    -1.6530 H     1 <1>   0.1500 
 44 H        4.5750     4.9750     0.0140 H     1 <1>   0.1500 
 45 H        2.2330     8.5330     0.1020 H     1 <1>   0.1500 
 46 H       -1.6510    -7.6560    -0.5490 H     1 <1>   0.0800 
 47 H       -1.0330    -7.4510     1.0750 H     1 <1>   0.0800 
 48 H       -0.3330    -6.5410    -0.2440 H     1 <1>   0.0800 
 49 H        5.8350     9.1970     0.1150 H     1 <1>   0.0800 
 50 H        4.3170     9.2580     1.0050 H     1 <1>   0.0800 
 51 H        4.3150     9.3010    -0.7680 H     1 <1>   0.0800 
@<TRIPOS>BOND
  1   1   2  2   
  2   2   3  am  
  3   2   4  1   
  4   3   5  1   
  5   3   6  1   
  6   4   7  1   
  7   4  28  1   
  8   4  29  1   
  9   5   8  1   
 10   5  30  1   
 11   5  31  1   
 12   6   9  1   
 13   6  32  1   
 14   6  33  1   
 15   7  10  1   
 16   7  34  1   
 17   7  35  1   
 18   8   9  1   
 19   8  11  1   
 20   8  36  1   
 21   9  12  1   
 22   9  37  1   
 23  10  13  2   
 24  10  14  1   
 25  11  38  1   
 26  12  15  1   
 27  12  39  1   
 28  12  40  1   
 29  14  16  ar  
 30  14  17  ar  
 31  15  18  1   
 32  15  19  2   
 33  16  20  ar  
 34  16  41  1   
 35  17  21  ar  
 36  17  42  1   
 37  18  22  1   
 38  19  23  1   
 39  19  43  1   
 40  20  24  ar  
 41  20  44  1   
 42  21  24  ar  
 43  21  45  1   
 44  22  23  2   
 45  23  25  1   
 46  24  26  1   
 47  25  46  1   
 48  25  47  1   
 49  25  48  1   
 50  26  27  1   
 51  27  49  1   
 52  27  50  1   
 53  27  51  1   
@<TRIPOS>SUBSTRUCTURE
  1 ****   2 GROUP 4 **** **** 0

# MOE 2024.06 (io_trps.svl 2023.06)
