@<TRIPOS>MOLECULE
NONAME
57 60 1 0 0 
SMALL
USER_CHARGES


@<TRIPOS>ATOM
  1 O        1.8010    -4.3730    -3.1430 O.3   1 <1>  -0.5600 
  2 C        0.4170    -4.3620    -3.2940 C.3   1 <1>   0.2580 
  3 C        2.2690    -3.2910    -2.3980 C.3   1 <1>   0.1200 
  4 C       -0.1950    -4.4640    -1.9060 C.2   1 <1>  -0.2880 
  5 C        1.8330    -3.4460    -0.9320 C.3   1 <1>  -0.0220 
  6 C        0.4540    -4.1170    -0.7830 C.2   1 <1>  -0.2760 
  7 C       -0.1300    -4.3430     0.6420 C.3   1 <1>   0.1380 
  8 C       -0.4240    -5.8460     0.9420 C.3   1 <1>   0.4230 
  9 C       -1.4590    -3.5510     0.7440 C.3   1 <1>   0.1200 
 10 C        0.8110    -3.9140     1.8050 C.3   1 <1>  -0.1600 
 11 N        0.7670    -6.7560     0.7320 N.4   1 <1>  -0.9590 
 12 C       -1.7360    -6.3870     0.3590 C.3   1 <1>  -0.1600 
 13 O       -2.4320    -4.3240     1.3890 O.3   1 <1>  -0.5600 
 14 C        1.8130    -5.0100     2.2510 C.3   1 <1>  -0.1600 
 15 C        2.0450    -6.1320     1.2270 C.3   1 <1>   0.3430 
 16 C        0.9290    -7.2210    -0.6880 C.3   1 <1>   0.4860 
 17 C       -2.8910    -5.4090     0.6410 C.3   1 <1>   0.1200 
 18 C        2.2000    -8.0200    -0.8550 C.ar  1 <1>  -0.1430 
 19 C        3.2510    -7.5100    -1.5840 C.ar  1 <1>   0.1600 
 20 C        2.3730    -9.2630    -0.2920 C.ar  1 <1>   0.1600 
 21 N        4.3850    -8.1510    -1.7050 N.ar  1 <1>  -0.6200 
 22 N        3.4960    -9.9240    -0.4020 N.ar  1 <1>  -0.6200 
 23 C        4.4550    -9.3270    -1.1020 C.ar  1 <1>   0.7200 
 24 N        5.6420    -9.9550    -1.2340 N.pl3 1 <1>  -0.8690 
 25 C        5.8370   -11.3990    -1.0390 C.3   1 <1>   0.2090 
 26 C        7.3020   -11.7240    -1.2950 C.3   1 <1>  -0.2400 
 27 H        0.1130    -3.4640    -3.8050 H     1 <1>   0.0800 
 28 H        0.1540    -5.2170    -3.8940 H     1 <1>   0.0800 
 29 H        3.3420    -3.2670    -2.4780 H     1 <1>   0.0800 
 30 H        1.8720    -2.3850    -2.8250 H     1 <1>   0.0800 
 31 H       -1.1940    -4.8550    -1.9490 H     1 <1>   0.1500 
 32 H        2.5990    -3.9960    -0.4260 H     1 <1>   0.0800 
 33 H        1.8110    -2.4590    -0.5050 H     1 <1>   0.0800 
 34 H       -0.6110    -5.8500     2.0050 H     1 <1>   0.0800 
 35 H       -1.8400    -3.2750    -0.2240 H     1 <1>   0.0800 
 36 H       -1.3290    -2.6450     1.3100 H     1 <1>   0.0800 
 37 H        1.3250    -2.9990     1.5800 H     1 <1>   0.0800 
 38 H        0.2050    -3.6890     2.6680 H     1 <1>   0.0800 
 39 H        0.6010    -7.5860     1.3110 H     1 <1>   0.4500 
 40 H       -1.9730    -7.3260     0.8250 H     1 <1>   0.0800 
 41 H       -1.6820    -6.5540    -0.6980 H     1 <1>   0.0800 
 42 H        1.4630    -5.4600     3.1650 H     1 <1>   0.0800 
 43 H        2.7590    -4.5510     2.4820 H     1 <1>   0.0800 
 44 H        2.6760    -6.8920     1.6610 H     1 <1>   0.0800 
 45 H        2.5830    -5.7240     0.3900 H     1 <1>   0.0800 
 46 H        0.0850    -7.8220    -0.9830 H     1 <1>   0.0800 
 47 H        0.9840    -6.3750    -1.3490 H     1 <1>   0.0800 
 48 H       -3.6660    -5.8910     1.2140 H     1 <1>   0.0800 
 49 H       -3.3250    -5.0360    -0.2720 H     1 <1>   0.0800 
 50 H        3.1690    -6.5520    -2.0760 H     1 <1>   0.1500 
 51 H        1.5830    -9.7340     0.2680 H     1 <1>   0.1500 
 52 H        6.2500    -9.5090    -1.9180 H     1 <1>   0.4000 
 53 H        5.5670   -11.6650    -0.0300 H     1 <1>   0.0800 
 54 H        5.2060   -11.9440    -1.7210 H     1 <1>   0.0800 
 55 H        7.9270   -11.1750    -0.6140 H     1 <1>   0.0800 
 56 H        7.5690   -11.4800    -2.3080 H     1 <1>   0.0800 
 57 H        7.4700   -12.7740    -1.1410 H     1 <1>   0.0800 
@<TRIPOS>BOND
  1   1   2  1   
  2   1   3  1   
  3   2   4  1   
  4   2  27  1   
  5   2  28  1   
  6   3   5  1   
  7   3  29  1   
  8   3  30  1   
  9   4   6  2   
 10   4  31  1   
 11   5   6  1   
 12   5  32  1   
 13   5  33  1   
 14   6   7  1   
 15   7   8  1   
 16   7   9  1   
 17   7  10  1   
 18   8  11  1   
 19   8  12  1   
 20   8  34  1   
 21   9  13  1   
 22   9  35  1   
 23   9  36  1   
 24  10  14  1   
 25  10  37  1   
 26  10  38  1   
 27  11  15  1   
 28  11  16  1   
 29  11  39  1   
 30  12  17  1   
 31  12  40  1   
 32  12  41  1   
 33  13  17  1   
 34  14  15  1   
 35  14  42  1   
 36  14  43  1   
 37  15  44  1   
 38  15  45  1   
 39  16  18  1   
 40  16  46  1   
 41  16  47  1   
 42  17  48  1   
 43  17  49  1   
 44  18  19  ar  
 45  18  20  ar  
 46  19  21  ar  
 47  19  50  1   
 48  20  22  ar  
 49  20  51  1   
 50  21  23  ar  
 51  22  23  ar  
 52  23  24  1   
 53  24  25  1   
 54  24  52  1   
 55  25  26  1   
 56  25  53  1   
 57  25  54  1   
 58  26  55  1   
 59  26  56  1   
 60  26  57  1   
@<TRIPOS>SUBSTRUCTURE
  1 ****  16 GROUP 4 **** **** 0

# MOE 2024.06 (io_trps.svl 2023.06)
