@<TRIPOS>MOLECULE
NONAME
45 46 1 0 0 
SMALL
USER_CHARGES


@<TRIPOS>ATOM
  1 O       -0.7600    -0.3830    -0.3680 O.2   1 <1>  -0.5700 
  2 C       -1.6640     0.3780    -0.6210 C.2   1 <1>   0.5690 
  3 N       -2.8480    -0.0680    -1.1480 N.am  1 <1>  -0.6600 
  4 C       -1.4670     1.8590    -0.3280 C.3   1 <1>  -0.0990 
  5 C       -3.0240    -1.5020    -1.5060 C.3   1 <1>   0.3200 
  6 C       -4.0100     0.8160    -1.4800 C.3   1 <1>   0.1400 
  7 C       -0.1990     2.1780     0.4780 C.3   1 <1>  -0.0170 
  8 C       -4.0300    -2.1440    -0.5720 C.2   1 <1>  -0.3320 
  9 C       -4.9530     0.9760    -0.2800 C.3   1 <1>   0.1200 
 10 C       -0.1290     3.6740     0.7630 C.ar  1 <1>  -0.1440 
 11 N       -3.8110    -2.4020     0.7340 N.pl3 1 <1>   0.0480 
 12 C       -5.2840    -2.5730    -0.8420 C.2   1 <1>   0.0770 
 13 O       -5.7910     2.0600    -0.5010 O.3   1 <1>  -0.6800 
 14 C        0.5330     4.5690    -0.0750 C.ar  1 <1>  -0.1430 
 15 C       -0.7630     4.1490     1.9020 C.ar  1 <1>  -0.1500 
 16 C       -4.9600    -2.9640     1.1680 C.2   1 <1>   0.0360 
 17 C       -2.5920    -2.1510     1.5250 C.3   1 <1>   0.0160 
 18 N       -5.8690    -3.0830     0.2550 N.2   1 <1>  -0.5650 
 19 C        0.5420     5.9190     0.2420 C.ar  1 <1>  -0.1500 
 20 C        1.2570     4.1150    -1.3360 C.3   1 <1>  -0.0970 
 21 C       -0.7480     5.4970     2.2110 C.ar  1 <1>  -0.1500 
 22 C       -0.0940     6.3840     1.3780 C.ar  1 <1>  -0.1500 
 23 H       -2.3120     2.2210     0.2250 H     1 <1>   0.0800 
 24 H       -1.4270     2.3870    -1.2620 H     1 <1>   0.0800 
 25 H       -2.0900    -2.0340    -1.4520 H     1 <1>   0.0800 
 26 H       -3.3740    -1.5720    -2.5220 H     1 <1>   0.0800 
 27 H       -4.5620     0.3970    -2.3030 H     1 <1>   0.0800 
 28 H       -3.6490     1.7810    -1.7860 H     1 <1>   0.0800 
 29 H        0.6730     1.8460    -0.0560 H     1 <1>   0.0800 
 30 H       -0.2200     1.6360     1.4080 H     1 <1>   0.0800 
 31 H       -4.4080     1.1540     0.6300 H     1 <1>   0.0800 
 32 H       -5.5690     0.1020    -0.1620 H     1 <1>   0.0800 
 33 H       -5.8100    -2.5390    -1.7820 H     1 <1>   0.1500 
 34 H       -5.3150     2.9060    -0.3920 H     1 <1>   0.4000 
 35 H       -1.2740     3.4690     2.5600 H     1 <1>   0.1500 
 36 H       -5.0890    -3.2820     2.1880 H     1 <1>   0.1500 
 37 H       -1.7320    -2.4900     0.9760 H     1 <1>   0.0800 
 38 H       -2.6500    -2.6790     2.4590 H     1 <1>   0.0800 
 39 H       -2.5020    -1.0970     1.7120 H     1 <1>   0.0800 
 40 H        1.0500     6.6220    -0.3940 H     1 <1>   0.1500 
 41 H        0.5960     3.5500    -1.9660 H     1 <1>   0.0800 
 42 H        2.1000     3.5030    -1.0720 H     1 <1>   0.0800 
 43 H        1.6160     4.9570    -1.8990 H     1 <1>   0.0800 
 44 H       -1.2420     5.8540     3.0980 H     1 <1>   0.1500 
 45 H       -0.0790     7.4330     1.6130 H     1 <1>   0.1500 
@<TRIPOS>BOND
  1   1   2  2   
  2   2   3  am  
  3   2   4  1   
  4   3   5  1   
  5   3   6  1   
  6   4   7  1   
  7   4  23  1   
  8   4  24  1   
  9   5   8  1   
 10   5  25  1   
 11   5  26  1   
 12   6   9  1   
 13   6  27  1   
 14   6  28  1   
 15   7  10  1   
 16   7  29  1   
 17   7  30  1   
 18   8  11  1   
 19   8  12  2   
 20   9  13  1   
 21   9  31  1   
 22   9  32  1   
 23  10  14  ar  
 24  10  15  ar  
 25  11  16  1   
 26  11  17  1   
 27  12  18  1   
 28  12  33  1   
 29  13  34  1   
 30  14  19  ar  
 31  14  20  1   
 32  15  21  ar  
 33  15  35  1   
 34  16  18  2   
 35  16  36  1   
 36  17  37  1   
 37  17  38  1   
 38  17  39  1   
 39  19  22  ar  
 40  19  40  1   
 41  20  41  1   
 42  20  42  1   
 43  20  43  1   
 44  21  22  ar  
 45  21  44  1   
 46  22  45  1   
@<TRIPOS>SUBSTRUCTURE
  1 ****   4 GROUP 4 **** **** 0

# MOE 2024.06 (io_trps.svl 2023.06)
