@<TRIPOS>MOLECULE
NONAME
50 53 1 0 0 
SMALL
USER_CHARGES


@<TRIPOS>ATOM
  1 O        0.0330    -0.8590    -1.0390 O.2   1 <1>  -0.5700 
  2 C        0.1770    -1.7610    -0.2420 C.2   1 <1>   0.5690 
  3 N        1.1890    -1.7590     0.6830 N.am  1 <1>  -0.6600 
  4 C       -0.8690    -2.8890    -0.3070 C.3   1 <1>   0.4040 
  5 C        2.1430    -0.6060     0.7890 C.3   1 <1>   0.1400 
  6 C        1.4810    -2.8420     1.6770 C.3   1 <1>   0.1400 
  7 N       -2.1850    -2.4160    -0.8780 N.4   1 <1>  -0.9590 
  8 C        3.5990    -1.0950     0.8470 C.3   1 <1>   0.1200 
  9 C        2.9780    -3.2000     1.6760 C.3   1 <1>   0.1200 
 10 C       -2.8660    -1.4710     0.0710 C.3   1 <1>   0.3430 
 11 C       -3.0840    -3.5210    -1.3110 C.3   1 <1>   0.3430 
 12 O        3.7520    -2.0530     1.8560 O.3   1 <1>  -0.5600 
 13 C       -4.1130    -0.8290    -0.5590 C.3   1 <1>   0.1430 
 14 C       -4.3240    -2.9350    -1.9950 C.3   1 <1>  -0.1600 
 15 C       -4.8010    -0.0100     0.5060 C.ar  1 <1>   0.1670 
 16 C       -5.0610    -1.9200    -1.1010 C.3   1 <1>  -0.1600 
 17 C       -3.7630     0.2360    -1.6340 C.3   1 <1>  -0.1600 
 18 N       -5.0630    -0.4390     1.7150 N.ar  1 <1>  -0.6200 
 19 C       -5.0970     1.2460     0.0700 C.ar  1 <1>  -0.1440 
 20 C       -4.6640     1.4570    -1.3600 C.3   1 <1>  -0.0170 
 21 C       -5.6460     0.4690     2.4860 C.ar  1 <1>   0.7200 
 22 C       -5.7110     2.0970     0.9560 C.ar  1 <1>   0.1600 
 23 N       -5.9950     1.7110     2.1800 N.ar  1 <1>  -0.6200 
 24 N       -5.9350     0.0800     3.7270 N.pl3 1 <1>  -0.9000 
 25 H       -1.0230    -3.2840     0.6810 H     1 <1>   0.0800 
 26 H       -0.4670    -3.6700    -0.9280 H     1 <1>   0.0800 
 27 H        1.9270    -0.0480     1.6840 H     1 <1>   0.0800 
 28 H        2.0330     0.0620    -0.0480 H     1 <1>   0.0800 
 29 H        0.9150    -3.7300     1.4650 H     1 <1>   0.0800 
 30 H        1.2130    -2.4990     2.6620 H     1 <1>   0.0800 
 31 H       -1.9220    -1.8480    -1.7020 H     1 <1>   0.4500 
 32 H        4.2580    -0.2750     1.0710 H     1 <1>   0.0800 
 33 H        3.8960    -1.5290    -0.0920 H     1 <1>   0.0800 
 34 H        3.2640    -3.6680     0.7500 H     1 <1>   0.0800 
 35 H        3.2020    -3.8730     2.4860 H     1 <1>   0.0800 
 36 H       -2.1880    -0.6870     0.3690 H     1 <1>   0.0800 
 37 H       -3.1680    -2.0030     0.9580 H     1 <1>   0.0800 
 38 H       -3.3890    -4.1000    -0.4540 H     1 <1>   0.0800 
 39 H       -2.5690    -4.1730    -1.9990 H     1 <1>   0.0800 
 40 H       -4.9970    -3.7390    -2.2400 H     1 <1>   0.0800 
 41 H       -4.0330    -2.4750    -2.9230 H     1 <1>   0.0800 
 42 H       -5.8730    -1.4670    -1.6450 H     1 <1>   0.0800 
 43 H       -5.4950    -2.4470    -0.2670 H     1 <1>   0.0800 
 44 H       -3.8960    -0.1200    -2.6400 H     1 <1>   0.0800 
 45 H       -2.7390     0.5480    -1.5180 H     1 <1>   0.0800 
 46 H       -5.5270     1.4490    -2.0030 H     1 <1>   0.0800 
 47 H       -4.1280     2.3830    -1.4820 H     1 <1>   0.0800 
 48 H       -5.9710     3.1010     0.6630 H     1 <1>   0.1500 
 49 H       -6.5880     0.6850     4.2190 H     1 <1>   0.4000 
 50 H       -6.0550    -0.9180     3.8680 H     1 <1>   0.4000 
@<TRIPOS>BOND
  1   1   2  2   
  2   2   3  am  
  3   2   4  1   
  4   3   5  1   
  5   3   6  1   
  6   4   7  1   
  7   4  25  1   
  8   4  26  1   
  9   5   8  1   
 10   5  27  1   
 11   5  28  1   
 12   6   9  1   
 13   6  29  1   
 14   6  30  1   
 15   7  10  1   
 16   7  11  1   
 17   7  31  1   
 18   8  12  1   
 19   8  32  1   
 20   8  33  1   
 21   9  12  1   
 22   9  34  1   
 23   9  35  1   
 24  10  13  1   
 25  10  36  1   
 26  10  37  1   
 27  11  14  1   
 28  11  38  1   
 29  11  39  1   
 30  13  15  1   
 31  13  16  1   
 32  13  17  1   
 33  14  16  1   
 34  14  40  1   
 35  14  41  1   
 36  15  18  ar  
 37  15  19  ar  
 38  16  42  1   
 39  16  43  1   
 40  17  20  1   
 41  17  44  1   
 42  17  45  1   
 43  18  21  ar  
 44  19  20  1   
 45  19  22  ar  
 46  20  46  1   
 47  20  47  1   
 48  21  23  ar  
 49  21  24  1   
 50  22  23  ar  
 51  22  48  1   
 52  24  49  1   
 53  24  50  1   
@<TRIPOS>SUBSTRUCTURE
  1 ****  10 GROUP 4 **** **** 0

# MOE 2024.06 (io_trps.svl 2023.06)
