@<TRIPOS>MOLECULE
NONAME
41 43 1 0 0 
SMALL
USER_CHARGES


@<TRIPOS>ATOM
  1 O        0.3480    -0.0350    -0.6710 O.2   1 <1>  -0.5700 
  2 C        1.4560    -0.5390    -0.5140 C.2   1 <1>   0.5440 
  3 N        2.4900     0.3420    -0.2980 N.am  1 <1>  -0.6600 
  4 C        1.6250    -1.9610    -0.3920 C.ar  1 <1>   0.0860 
  5 C        3.1520     0.3500     1.0430 C.3   1 <1>   0.2200 
  6 C        3.1050     0.9780    -1.4900 C.3   1 <1>   0.1400 
  7 C        2.7000    -2.6750    -0.9930 C.ar  1 <1>  -0.1710 
  8 C        0.7270    -2.7030     0.3930 C.ar  1 <1>   0.0820 
  9 C        3.4160     1.7800     1.5380 C.3   1 <1>   0.1200 
 10 C        4.4310    -0.5150     1.1040 C.3   1 <1>   0.3430 
 11 C        4.5260     1.5250    -1.2670 C.3   1 <1>  -0.0800 
 12 O        3.5020    -2.1420    -1.7940 O.3   1 <1>  -0.8290 
 13 C        2.8660    -4.0400    -0.7180 C.ar  1 <1>  -0.1500 
 14 O       -0.3560    -2.0970     0.9130 O.3   1 <1>  -0.5320 
 15 C        0.9080    -4.0450     0.6530 C.ar  1 <1>  -0.1500 
 16 O        4.6140     2.2880     1.0300 O.3   1 <1>  -0.5600 
 17 N        5.0930    -0.7320    -0.2130 N.4   1 <1>  -0.9590 
 18 C        4.5600     2.7130    -0.2930 C.3   1 <1>   0.1200 
 19 C        5.5930     0.4630    -0.9410 C.3   1 <1>   0.3430 
 20 C        1.9930    -4.7160     0.0970 C.ar  1 <1>  -0.1500 
 21 C        6.0630    -1.8500    -0.1880 C.3   1 <1>   0.2630 
 22 H        2.4530    -0.0760     1.7420 H     1 <1>   0.0800 
 23 H        3.1250     0.2560    -2.2910 H     1 <1>   0.0800 
 24 H        2.4590     1.7790    -1.8060 H     1 <1>   0.0800 
 25 H        3.5200     1.7670     2.6090 H     1 <1>   0.0800 
 26 H        2.6000     2.4360     1.2870 H     1 <1>   0.0800 
 27 H        4.1440    -1.4760     1.4950 H     1 <1>   0.0800 
 28 H        5.1260    -0.0720     1.7960 H     1 <1>   0.0800 
 29 H        4.8150     1.9400    -2.2140 H     1 <1>   0.0800 
 30 H        3.6930    -4.5420    -1.1860 H     1 <1>   0.1500 
 31 H       -0.4880    -1.2190     0.4760 H     1 <1>   0.4500 
 32 H        0.2060    -4.5710     1.2730 H     1 <1>   0.1500 
 33 H        4.3100    -1.1220    -0.8180 H     1 <1>   0.4500 
 34 H        3.7090     3.3600    -0.4260 H     1 <1>   0.0800 
 35 H        5.4500     3.2930    -0.4650 H     1 <1>   0.0800 
 36 H        6.3870     0.9220    -0.3760 H     1 <1>   0.0800 
 37 H        6.0070     0.1230    -1.8760 H     1 <1>   0.0800 
 38 H        2.1310    -5.7630     0.2960 H     1 <1>   0.1500 
 39 H        6.9150    -1.6030     0.4210 H     1 <1>   0.0800 
 40 H        6.3870    -2.0700    -1.1920 H     1 <1>   0.0800 
 41 H        5.5830    -2.7330     0.2030 H     1 <1>   0.0800 
@<TRIPOS>BOND
  1   1   2  2   
  2   2   3  am  
  3   2   4  1   
  4   3   5  1   
  5   3   6  1   
  6   4   7  ar  
  7   4   8  ar  
  8   5   9  1   
  9   5  10  1   
 10   5  22  1   
 11   6  11  1   
 12   6  23  1   
 13   6  24  1   
 14   7  12  1   
 15   7  13  ar  
 16   8  14  1   
 17   8  15  ar  
 18   9  16  1   
 19   9  25  1   
 20   9  26  1   
 21  10  17  1   
 22  10  27  1   
 23  10  28  1   
 24  11  18  1   
 25  11  19  1   
 26  11  29  1   
 27  13  20  ar  
 28  13  30  1   
 29  14  31  1   
 30  15  20  ar  
 31  15  32  1   
 32  16  18  1   
 33  17  19  1   
 34  17  21  1   
 35  17  33  1   
 36  18  34  1   
 37  18  35  1   
 38  19  36  1   
 39  19  37  1   
 40  20  38  1   
 41  21  39  1   
 42  21  40  1   
 43  21  41  1   
@<TRIPOS>SUBSTRUCTURE
  1 ****   3 GROUP 4 **** **** 0

# MOE 2024.06 (io_trps.svl 2023.06)
