@<TRIPOS>MOLECULE
NONAME
57 60 1 0 0 
SMALL
USER_CHARGES


@<TRIPOS>ATOM
  1 O       -0.2500    -0.6180    -0.2190 O.2   1 <1>  -0.5700 
  2 C       -1.2150     0.0130    -0.6060 C.2   1 <1>   0.7160 
  3 N       -2.1900    -0.6540    -1.2740 N.am  1 <1>  -0.7300 
  4 C       -1.3510     1.4160    -0.3520 C.2   1 <1>  -0.0860 
  5 C       -2.4000    -2.1060    -1.2420 C.3   1 <1>   0.3210 
  6 C       -2.5450     2.1500    -0.4220 C.2   1 <1>   0.3720 
  7 C       -0.4360     2.3500     0.0340 C.2   1 <1>   0.0870 
  8 C       -3.6300    -2.3580    -0.3990 C.2   1 <1>  -0.1810 
  9 N       -2.3550     3.3800    -0.0970 N.2   1 <1>  -0.4100 
 10 N       -3.8020     1.6250    -0.7670 N.pl3 1 <1>  -0.8210 
 11 O       -1.0820     3.4800     0.1730 O.3   1 <1>  -0.0190 
 12 C        0.9830     2.3180     0.2840 C.ar  1 <1>   0.0530 
 13 C       -3.6930    -2.2460     0.9840 C.2   1 <1>   0.1390 
 14 C       -4.8810    -2.7040    -0.7710 C.2   1 <1>  -0.3020 
 15 C       -4.6630     2.4880    -1.6280 C.3   1 <1>   0.2090 
 16 C       -4.6030     1.1830     0.4100 C.3   1 <1>   0.2090 
 17 C        1.8580     1.5510    -0.4870 C.ar  1 <1>  -0.1500 
 18 C        1.5400     3.0820     1.3110 C.ar  1 <1>  -0.1500 
 19 N       -4.8840    -2.4870     1.4410 N.2   1 <1>  -0.7070 
 20 N       -5.6200    -2.7820     0.3530 N.pl3 1 <1>   0.3140 
 21 C       -6.0820     2.2970    -1.1140 C.3   1 <1>  -0.1600 
 22 C       -5.8980     1.9800     0.3610 C.3   1 <1>  -0.1600 
 23 C        3.2190     1.5360    -0.2440 C.ar  1 <1>  -0.1500 
 24 C        2.8990     3.0750     1.5590 C.ar  1 <1>  -0.1500 
 25 C       -7.0500    -3.1310     0.4470 C.3   1 <1>   0.0960 
 26 C        3.7520     2.3030     0.7880 C.ar  1 <1>   0.0830 
 27 C       -7.2460    -4.6540     0.4180 C.3   1 <1>  -0.1600 
 28 O        5.0690     2.3470     1.0950 O.3   1 <1>  -0.3620 
 29 C       -8.7290    -5.0280     0.5140 C.3   1 <1>  -0.2400 
 30 C        6.0140     1.5670     0.3970 C.3   1 <1>   0.0400 
 31 H       -3.0510    -0.1030    -1.4050 H     1 <1>   0.3700 
 32 H       -1.5470    -2.6110    -0.8190 H     1 <1>   0.0800 
 33 H       -2.5550    -2.4670    -2.2440 H     1 <1>   0.0800 
 34 H       -2.8570    -1.9810     1.6120 H     1 <1>   0.1500 
 35 H       -5.2810    -2.8930    -1.7500 H     1 <1>   0.1500 
 36 H       -4.5800     2.1910    -2.6600 H     1 <1>   0.0800 
 37 H       -4.3820     3.5240    -1.5380 H     1 <1>   0.0800 
 38 H       -4.0800     1.3470     1.3380 H     1 <1>   0.0800 
 39 H       -4.8210     0.1340     0.3110 H     1 <1>   0.0800 
 40 H        1.4650     0.9560    -1.2910 H     1 <1>   0.1500 
 41 H        0.8950     3.6880     1.9230 H     1 <1>   0.1500 
 42 H       -6.5290     1.4590    -1.6190 H     1 <1>   0.0800 
 43 H       -6.6860     3.1720    -1.2750 H     1 <1>   0.0800 
 44 H       -5.7660     2.8910     0.9200 H     1 <1>   0.0800 
 45 H       -6.7230     1.4280     0.7740 H     1 <1>   0.0800 
 46 H        3.8460     0.9250    -0.8640 H     1 <1>   0.1500 
 47 H        3.3120     3.6690     2.3550 H     1 <1>   0.1500 
 48 H       -7.5680    -2.6710    -0.3730 H     1 <1>   0.0800 
 49 H       -7.4340    -2.7290     1.3670 H     1 <1>   0.0800 
 50 H       -6.7160    -5.0930     1.2470 H     1 <1>   0.0800 
 51 H       -6.8390    -5.0530    -0.4960 H     1 <1>   0.0800 
 52 H       -9.1520    -4.6570     1.4310 H     1 <1>   0.0800 
 53 H       -8.8390    -6.0980     0.4980 H     1 <1>   0.0800 
 54 H       -9.2790    -4.6170    -0.3150 H     1 <1>   0.0800 
 55 H        6.9830     1.7570     0.8230 H     1 <1>   0.0800 
 56 H        6.0070     1.8540    -0.6390 H     1 <1>   0.0800 
 57 H        5.7610     0.5280     0.5120 H     1 <1>   0.0800 
@<TRIPOS>BOND
  1   1   2  2   
  2   2   3  am  
  3   2   4  1   
  4   3   5  1   
  5   3  31  1   
  6   4   6  1   
  7   4   7  2   
  8   5   8  1   
  9   5  32  1   
 10   5  33  1   
 11   6   9  2   
 12   6  10  1   
 13   7  11  1   
 14   7  12  1   
 15   8  13  1   
 16   8  14  2   
 17   9  11  1   
 18  10  15  1   
 19  10  16  1   
 20  12  17  ar  
 21  12  18  ar  
 22  13  19  2   
 23  13  34  1   
 24  14  20  1   
 25  14  35  1   
 26  15  21  1   
 27  15  36  1   
 28  15  37  1   
 29  16  22  1   
 30  16  38  1   
 31  16  39  1   
 32  17  23  ar  
 33  17  40  1   
 34  18  24  ar  
 35  18  41  1   
 36  19  20  1   
 37  20  25  1   
 38  21  22  1   
 39  21  42  1   
 40  21  43  1   
 41  22  44  1   
 42  22  45  1   
 43  23  26  ar  
 44  23  46  1   
 45  24  26  ar  
 46  24  47  1   
 47  25  27  1   
 48  25  48  1   
 49  25  49  1   
 50  26  28  1   
 51  27  29  1   
 52  27  50  1   
 53  27  51  1   
 54  28  30  1   
 55  29  52  1   
 56  29  53  1   
 57  29  54  1   
 58  30  55  1   
 59  30  56  1   
 60  30  57  1   
@<TRIPOS>SUBSTRUCTURE
  1 ****   2 GROUP 4 **** **** 0

# MOE 2024.06 (io_trps.svl 2023.06)
