@<TRIPOS>MOLECULE
NONAME
53 55 1 0 0 
SMALL
USER_CHARGES


@<TRIPOS>ATOM
  1 S       -0.3260     0.3100    -0.6740 S.o2  1 <1>   1.3330 
  2 O       -0.0590     1.1010    -1.8540 O.2   1 <1>  -0.6500 
  3 O       -1.2010    -0.8360    -0.7560 O.2   1 <1>  -0.6500 
  4 N        1.1680    -0.2460    -0.0800 N.am  1 <1>  -0.8490 
  5 C       -0.9080     1.3990     0.6340 C.3   1 <1>  -0.0550 
  6 C        2.0560    -0.6690    -1.1690 C.3   1 <1>   0.1160 
  7 C        1.0320    -1.3480     0.8820 C.3   1 <1>   0.1160 
  8 C       -0.2510     2.7950     0.7350 C.3   1 <1>  -0.0800 
  9 C       -0.7480     3.7930    -0.3100 C.3   1 <1>   0.2000 
 10 C        1.2720     2.8650     0.6200 C.3   1 <1>   0.2090 
 11 O       -1.9560     4.3320     0.1120 O.3   1 <1>  -0.6800 
 12 C        0.3480     4.8610    -0.4080 C.3   1 <1>   0.2090 
 13 N        1.5440     4.2820     0.2760 N.pl3 1 <1>  -0.8380 
 14 C        2.6990     4.9700     0.4690 C.ar  1 <1>   0.4100 
 15 N        2.6840     6.2640     0.2160 N.ar  1 <1>  -0.6200 
 16 C        3.8680     4.3240     0.9170 C.ar  1 <1>  -0.1500 
 17 C        3.7990     6.9550     0.4030 C.ar  1 <1>   0.7710 
 18 C        4.9990     5.0480     1.0970 C.ar  1 <1>   0.2180 
 19 N        4.9310     6.3720     0.8310 N.ar  1 <1>  -0.1790 
 20 N        3.8020     8.2880     0.1560 N.pl3 1 <1>  -0.8380 
 21 C        6.3150     4.4560     1.5720 C.3   1 <1>  -0.0970 
 22 C        4.9010     9.2710     0.3590 C.3   1 <1>   0.2090 
 23 C        2.5890     8.9820    -0.3610 C.3   1 <1>   0.2090 
 24 C        4.2390    10.6350     0.2290 C.3   1 <1>  -0.1600 
 25 C        3.0470    10.3970    -0.6890 C.3   1 <1>  -0.1600 
 26 H       -1.9630     1.5480     0.5020 H     1 <1>   0.0800 
 27 H       -0.7850     0.8970     1.5730 H     1 <1>   0.0800 
 28 H        2.9940    -1.0210    -0.7740 H     1 <1>   0.0800 
 29 H        2.2580     0.1600    -1.8260 H     1 <1>   0.0800 
 30 H        1.5960    -1.4570    -1.7420 H     1 <1>   0.0800 
 31 H        1.9960    -1.6100     1.2840 H     1 <1>   0.0800 
 32 H        0.6070    -2.2160     0.4050 H     1 <1>   0.0800 
 33 H        0.3940    -1.0580     1.6980 H     1 <1>   0.0800 
 34 H       -0.4910     3.1920     1.7060 H     1 <1>   0.0800 
 35 H       -0.9010     3.3390    -1.2740 H     1 <1>   0.0800 
 36 H        1.6410     2.2530    -0.1840 H     1 <1>   0.0800 
 37 H        1.7420     2.5790     1.5450 H     1 <1>   0.0800 
 38 H       -1.8350     4.8290     0.9450 H     1 <1>   0.4000 
 39 H        0.0500     5.7700     0.0840 H     1 <1>   0.0800 
 40 H        0.5800     5.0630    -1.4390 H     1 <1>   0.0800 
 41 H        3.8450     3.2680     1.0990 H     1 <1>   0.1500 
 42 H        5.7260     6.9880     0.9270 H     1 <1>   0.4570 
 43 H        6.2120     3.3970     1.7370 H     1 <1>   0.0800 
 44 H        6.6210     4.9110     2.4970 H     1 <1>   0.0800 
 45 H        7.0830     4.6060     0.8340 H     1 <1>   0.0800 
 46 H        5.3600     9.1670     1.3280 H     1 <1>   0.0800 
 47 H        5.6380     9.1530    -0.4190 H     1 <1>   0.0800 
 48 H        2.1950     8.4880    -1.2340 H     1 <1>   0.0800 
 49 H        1.8350     9.0020     0.4090 H     1 <1>   0.0800 
 50 H        3.8950    10.9560     1.1970 H     1 <1>   0.0800 
 51 H        4.9140    11.3760    -0.1630 H     1 <1>   0.0800 
 52 H        3.3590    10.4350    -1.7180 H     1 <1>   0.0800 
 53 H        2.2600    11.1150    -0.5370 H     1 <1>   0.0800 
@<TRIPOS>BOND
  1   1   2  2   
  2   1   3  2   
  3   1   4  am  
  4   1   5  1   
  5   4   6  1   
  6   4   7  1   
  7   5   8  1   
  8   5  26  1   
  9   5  27  1   
 10   6  28  1   
 11   6  29  1   
 12   6  30  1   
 13   7  31  1   
 14   7  32  1   
 15   7  33  1   
 16   8   9  1   
 17   8  10  1   
 18   8  34  1   
 19   9  11  1   
 20   9  12  1   
 21   9  35  1   
 22  10  13  1   
 23  10  36  1   
 24  10  37  1   
 25  11  38  1   
 26  12  13  1   
 27  12  39  1   
 28  12  40  1   
 29  13  14  1   
 30  14  15  ar  
 31  14  16  ar  
 32  15  17  ar  
 33  16  18  ar  
 34  16  41  1   
 35  17  19  ar  
 36  17  20  1   
 37  18  19  ar  
 38  18  21  1   
 39  19  42  1   
 40  20  22  1   
 41  20  23  1   
 42  21  43  1   
 43  21  44  1   
 44  21  45  1   
 45  22  24  1   
 46  22  46  1   
 47  22  47  1   
 48  23  25  1   
 49  23  48  1   
 50  23  49  1   
 51  24  25  1   
 52  24  50  1   
 53  24  51  1   
 54  25  52  1   
 55  25  53  1   
@<TRIPOS>SUBSTRUCTURE
  1 ****  13 GROUP 4 **** **** 0

# MOE 2024.06 (io_trps.svl 2023.06)
