@<TRIPOS>MOLECULE
NONAME
58 61 1 0 0 
SMALL
USER_CHARGES


@<TRIPOS>ATOM
  1 O       -2.8910     2.3460    -1.7110 O.2   1 <1>  -0.5700 
  2 C       -2.9330     1.8940    -0.5860 C.2   1 <1>   0.5690 
  3 N       -3.9790     1.1000    -0.1770 N.am  1 <1>  -0.6600 
  4 C       -1.7610     2.2410     0.3810 C.3   1 <1>   0.4840 
  5 C       -5.1100     0.7710    -1.0980 C.3   1 <1>   0.1400 
  6 C       -4.0990     0.4170     1.1460 C.3   1 <1>   0.1400 
  7 N       -1.0520     3.5560     0.1440 N.4   1 <1>  -0.9590 
  8 C       -0.6240     1.2290     0.2320 C.3   1 <1>  -0.1600 
  9 C       -5.1430    -0.7400    -1.3380 C.3   1 <1>  -0.1600 
 10 C       -4.1130    -1.0970     0.9290 C.3   1 <1>  -0.1600 
 11 C       -0.1170     3.2910    -0.9780 C.3   1 <1>   0.3430 
 12 C       -1.9680     4.7050    -0.1440 C.3   1 <1>   0.2630 
 13 C        0.3810     1.8710    -0.7330 C.3   1 <1>  -0.1600 
 14 C       -5.2420    -1.5260    -0.0200 C.3   1 <1>   0.4240 
 15 O       -6.4280    -1.1380     0.6320 O.3   1 <1>  -0.5600 
 16 C       -5.1890    -3.0480    -0.2620 C.ar  1 <1>  -0.1430 
 17 C       -7.6060    -1.7840     0.2590 C.3   1 <1>   0.1200 
 18 C       -6.2610    -3.8680     0.0630 C.ar  1 <1>  -0.1430 
 19 C       -4.0600    -3.6340    -0.8190 C.ar  1 <1>  -0.1500 
 20 C       -7.5120    -3.2540     0.6580 C.3   1 <1>  -0.0170 
 21 C       -6.1940    -5.2340    -0.1570 C.ar  1 <1>  -0.1500 
 22 C       -3.9700    -4.9970    -1.0410 C.ar  1 <1>   0.0820 
 23 C       -5.0600    -5.8210    -0.7130 C.ar  1 <1>   0.0820 
 24 O       -2.7810    -5.3970    -1.5780 O.3   1 <1>  -0.3630 
 25 O       -5.0060    -7.1650    -0.9530 O.3   1 <1>  -0.3620 
 26 C       -2.3100    -6.7220    -1.4740 C.3   1 <1>   0.0400 
 27 C       -6.1120    -8.0160    -0.7450 C.3   1 <1>   0.0400 
 28 H       -2.1460     2.2190     1.3840 H     1 <1>   0.0800 
 29 H       -6.0360     1.0920    -0.6510 H     1 <1>   0.0800 
 30 H       -5.0050     1.2810    -2.0400 H     1 <1>   0.0800 
 31 H       -3.2900     0.6720     1.8040 H     1 <1>   0.0800 
 32 H       -5.0180     0.7240     1.6180 H     1 <1>   0.0800 
 33 H       -0.4890     3.7600     0.9780 H     1 <1>   0.4500 
 34 H       -0.1640     1.0660     1.1910 H     1 <1>   0.0800 
 35 H       -0.9820     0.2820    -0.1370 H     1 <1>   0.0800 
 36 H       -4.2470    -1.0180    -1.8600 H     1 <1>   0.0800 
 37 H       -5.9670    -0.9920    -1.9790 H     1 <1>   0.0800 
 38 H       -4.2430    -1.6010     1.8690 H     1 <1>   0.0800 
 39 H       -3.1620    -1.3980     0.5310 H     1 <1>   0.0800 
 40 H       -0.6560     3.3240    -1.9130 H     1 <1>   0.0800 
 41 H        0.6920     4.0040    -1.0040 H     1 <1>   0.0800 
 42 H       -2.5240     4.5280    -1.0510 H     1 <1>   0.0800 
 43 H       -1.4010     5.6140    -0.2660 H     1 <1>   0.0800 
 44 H       -2.6670     4.8420     0.6650 H     1 <1>   0.0800 
 45 H        0.4230     1.3380    -1.6680 H     1 <1>   0.0800 
 46 H        1.3680     1.8880    -0.3050 H     1 <1>   0.0800 
 47 H       -8.4220    -1.3060     0.7730 H     1 <1>   0.0800 
 48 H       -7.7490    -1.6790    -0.8020 H     1 <1>   0.0800 
 49 H       -3.2130    -3.0340    -1.0940 H     1 <1>   0.1500 
 50 H       -7.4810    -3.3330     1.7300 H     1 <1>   0.0800 
 51 H       -8.3860    -3.7710     0.3050 H     1 <1>   0.0800 
 52 H       -7.0450    -5.8280     0.1140 H     1 <1>   0.1500 
 53 H       -1.2680    -6.7280    -1.7350 H     1 <1>   0.0800 
 54 H       -2.8600    -7.3400    -2.1600 H     1 <1>   0.0800 
 55 H       -2.4400    -7.0610    -0.4620 H     1 <1>   0.0800 
 56 H       -5.8310    -9.0080    -1.0490 H     1 <1>   0.0800 
 57 H       -6.9360    -7.6710    -1.3440 H     1 <1>   0.0800 
 58 H       -6.3630    -8.0130     0.3010 H     1 <1>   0.0800 
@<TRIPOS>BOND
  1   1   2  2   
  2   2   3  am  
  3   2   4  1   
  4   3   5  1   
  5   3   6  1   
  6   4   7  1   
  7   4   8  1   
  8   4  28  1   
  9   5   9  1   
 10   5  29  1   
 11   5  30  1   
 12   6  10  1   
 13   6  31  1   
 14   6  32  1   
 15   7  11  1   
 16   7  12  1   
 17   7  33  1   
 18   8  13  1   
 19   8  34  1   
 20   8  35  1   
 21   9  14  1   
 22   9  36  1   
 23   9  37  1   
 24  10  14  1   
 25  10  38  1   
 26  10  39  1   
 27  11  13  1   
 28  11  40  1   
 29  11  41  1   
 30  12  42  1   
 31  12  43  1   
 32  12  44  1   
 33  13  45  1   
 34  13  46  1   
 35  14  15  1   
 36  14  16  1   
 37  15  17  1   
 38  16  18  ar  
 39  16  19  ar  
 40  17  20  1   
 41  17  47  1   
 42  17  48  1   
 43  18  20  1   
 44  18  21  ar  
 45  19  22  ar  
 46  19  49  1   
 47  20  50  1   
 48  20  51  1   
 49  21  23  ar  
 50  21  52  1   
 51  22  23  ar  
 52  22  24  1   
 53  23  25  1   
 54  24  26  1   
 55  25  27  1   
 56  26  53  1   
 57  26  54  1   
 58  26  55  1   
 59  27  56  1   
 60  27  57  1   
 61  27  58  1   
@<TRIPOS>SUBSTRUCTURE
  1 ****  14 GROUP 4 **** **** 0

# MOE 2024.06 (io_trps.svl 2023.06)
