@<TRIPOS>MOLECULE
NONAME
56 59 1 0 0 
SMALL
USER_CHARGES


@<TRIPOS>ATOM
  1 O        0.2990     0.4490    -0.4100 O.3   1 <1>  -0.5600 
  2 C       -0.9100     1.1450    -0.5180 C.3   1 <1>   0.1200 
  3 C        1.4340     1.2410    -0.5970 C.3   1 <1>   0.1200 
  4 C       -0.9920     2.2680     0.5320 C.3   1 <1>   0.2090 
  5 C        1.4930     2.3550     0.4650 C.3   1 <1>   0.2090 
  6 N        0.2220     3.1580     0.4810 N.pl3 1 <1>  -0.8380 
  7 C        0.1200     4.4880     0.7630 C.ar  1 <1>   0.7710 
  8 N        1.1120     5.3060     0.3610 N.ar  1 <1>  -0.1790 
  9 N       -0.9400     4.9340     1.3970 N.ar  1 <1>  -0.6200 
 10 C        1.1060     6.6270     0.5980 C.ar  1 <1>   0.4610 
 11 C       -0.9890     6.2310     1.6510 C.ar  1 <1>   0.4100 
 12 N        2.1520     7.3910     0.1550 N.pl3 1 <1>  -0.8380 
 13 C        0.0100     7.1090     1.2710 C.ar  1 <1>  -0.1500 
 14 N       -2.0830     6.6400     2.3080 N.pl3 1 <1>  -0.9000 
 15 C        2.1610     8.8860     0.2480 C.3   1 <1>   0.2090 
 16 C        3.4810     6.9300    -0.3350 C.3   1 <1>   0.2090 
 17 C        3.4900     9.3380    -0.3550 C.3   1 <1>   0.0630 
 18 C        4.3990     8.1270    -0.1340 C.3   1 <1>  -0.1600 
 19 C        3.9450    10.6970     0.1970 C.ar  1 <1>  -0.1430 
 20 C        3.2280    11.8430    -0.1570 C.ar  1 <1>   0.0830 
 21 C        5.0460    10.8280     1.0380 C.ar  1 <1>  -0.1500 
 22 O        2.1310    11.6830    -0.9520 O.3   1 <1>  -0.3630 
 23 C        3.6470    13.0990     0.3060 C.ar  1 <1>   0.0830 
 24 C        5.4290    12.0660     1.5230 C.ar  1 <1>  -0.1500 
 25 C        0.9350    12.3620    -0.6230 C.3   1 <1>   0.0400 
 26 O        3.0440    14.2540    -0.0610 O.3   1 <1>  -0.3630 
 27 C        4.7310    13.2000     1.1580 C.ar  1 <1>  -0.1500 
 28 C        3.4080    14.7410    -1.3330 C.3   1 <1>   0.0400 
 29 H       -1.7080     0.4400    -0.3680 H     1 <1>   0.0800 
 30 H       -0.9910     1.5470    -1.5130 H     1 <1>   0.0800 
 31 H        1.4070     1.6520    -1.5910 H     1 <1>   0.0800 
 32 H        2.2940     0.5990    -0.5110 H     1 <1>   0.0800 
 33 H       -1.0710     1.8270     1.5110 H     1 <1>   0.0800 
 34 H       -1.8890     2.8370     0.3540 H     1 <1>   0.0800 
 35 H        2.3500     2.9760     0.2780 H     1 <1>   0.0800 
 36 H        1.6280     1.8940     1.4300 H     1 <1>   0.0800 
 37 H        1.8280     4.9110    -0.2220 H     1 <1>   0.4570 
 38 H       -0.0890     8.1490     1.5090 H     1 <1>   0.1500 
 39 H       -2.2740     7.6010     2.5980 H     1 <1>   0.4000 
 40 H       -2.7950     5.9570     2.5850 H     1 <1>   0.4000 
 41 H        2.1150     9.1860     1.2810 H     1 <1>   0.0800 
 42 H        1.3320     9.3130    -0.2910 H     1 <1>   0.0800 
 43 H        3.4160     6.6940    -1.3850 H     1 <1>   0.0800 
 44 H        3.8400     6.0780     0.2180 H     1 <1>   0.0800 
 45 H        3.3450     9.4460    -1.4170 H     1 <1>   0.0800 
 46 H        5.2350     8.1190    -0.8100 H     1 <1>   0.0800 
 47 H        4.7570     8.0900     0.8780 H     1 <1>   0.0800 
 48 H        5.6320     9.9810     1.3380 H     1 <1>   0.1500 
 49 H        6.2770    12.1480     2.1820 H     1 <1>   0.1500 
 50 H        0.1090    11.8050    -1.0260 H     1 <1>   0.0800 
 51 H        0.9550    13.3420    -1.0610 H     1 <1>   0.0800 
 52 H        0.8490    12.4320     0.4480 H     1 <1>   0.0800 
 53 H        5.0280    14.1660     1.5250 H     1 <1>   0.1500 
 54 H        2.8610    15.6480    -1.5170 H     1 <1>   0.0800 
 55 H        3.1600    14.0020    -2.0750 H     1 <1>   0.0800 
 56 H        4.4650    14.9370    -1.3400 H     1 <1>   0.0800 
@<TRIPOS>BOND
  1   1   2  1   
  2   1   3  1   
  3   2   4  1   
  4   2  29  1   
  5   2  30  1   
  6   3   5  1   
  7   3  31  1   
  8   3  32  1   
  9   4   6  1   
 10   4  33  1   
 11   4  34  1   
 12   5   6  1   
 13   5  35  1   
 14   5  36  1   
 15   6   7  1   
 16   7   8  ar  
 17   7   9  ar  
 18   8  10  ar  
 19   8  37  1   
 20   9  11  ar  
 21  10  12  1   
 22  10  13  ar  
 23  11  13  ar  
 24  11  14  1   
 25  12  15  1   
 26  12  16  1   
 27  13  38  1   
 28  14  39  1   
 29  14  40  1   
 30  15  17  1   
 31  15  41  1   
 32  15  42  1   
 33  16  18  1   
 34  16  43  1   
 35  16  44  1   
 36  17  18  1   
 37  17  19  1   
 38  17  45  1   
 39  18  46  1   
 40  18  47  1   
 41  19  20  ar  
 42  19  21  ar  
 43  20  22  1   
 44  20  23  ar  
 45  21  24  ar  
 46  21  48  1   
 47  22  25  1   
 48  23  26  1   
 49  23  27  ar  
 50  24  27  ar  
 51  24  49  1   
 52  25  50  1   
 53  25  51  1   
 54  25  52  1   
 55  26  28  1   
 56  27  53  1   
 57  28  54  1   
 58  28  55  1   
 59  28  56  1   
@<TRIPOS>SUBSTRUCTURE
  1 ****  12 GROUP 4 **** **** 0

# MOE 2024.06 (io_trps.svl 2023.06)
