@<TRIPOS>MOLECULE
NONAME
45 48 1 0 0 
SMALL
USER_CHARGES


@<TRIPOS>ATOM
  1 O       -1.4840     0.6590     2.2130 O.2   1 <1>  -0.5700 
  2 C       -2.0040     0.9450     1.1490 C.2   1 <1>   0.6160 
  3 N       -2.8240     0.0030     0.5660 N.am  1 <1>  -0.6600 
  4 C       -1.8110     2.2650     0.6150 C.2   1 <1>   0.0290 
  5 C       -3.7430     0.2240    -0.5750 C.3   1 <1>   0.1400 
  6 C       -3.0080    -1.3640     1.1170 C.3   1 <1>   0.1400 
  7 C       -1.3670     2.4310    -0.7420 C.2   1 <1>   0.6160 
  8 C       -2.0210     3.3870     1.3860 C.2   1 <1>  -0.1500 
  9 C       -4.8330    -0.8270    -0.3840 C.3   1 <1>   0.2000 
 10 C       -4.1160    -2.0130     0.2670 C.3   1 <1>  -0.0800 
 11 O       -1.1330     1.5170    -1.5180 O.2   1 <1>  -0.5700 
 12 N       -1.1930     3.7020    -1.2320 N.am  1 <1>  -0.5390 
 13 C       -1.8230     4.6630     0.8270 C.2   1 <1>  -0.1380 
 14 O       -5.7560    -0.3380     0.5260 O.3   1 <1>  -0.6800 
 15 C       -3.5410    -2.9660    -0.8000 C.3   1 <1>  -0.0170 
 16 C       -1.4210     4.7970    -0.4500 C.2   1 <1>  -0.0290 
 17 C       -1.9940     6.0020     1.4980 C.3   1 <1>  -0.0220 
 18 C       -3.0660    -4.2790    -0.1930 C.ar  1 <1>   0.1670 
 19 C       -1.2540     6.2320    -0.8690 C.3   1 <1>  -0.0220 
 20 C       -1.7920     7.0130     0.3480 C.3   1 <1>  -0.1600 
 21 N       -1.8050    -4.3320     0.2020 N.ar  1 <1>  -0.6200 
 22 C       -3.9510    -5.3500    -0.0780 C.ar  1 <1>   0.1600 
 23 C       -1.4910    -5.5110     0.7130 C.ar  1 <1>   0.1600 
 24 N       -3.6410    -6.5300     0.4340 N.ar  1 <1>  -0.6200 
 25 C       -2.3790    -6.5730     0.8250 C.ar  1 <1>   0.1600 
 26 H       -4.1460     1.2220    -0.5880 H     1 <1>   0.0800 
 27 H       -3.2140     0.0350    -1.4930 H     1 <1>   0.0800 
 28 H       -2.0790    -1.9070     1.0730 H     1 <1>   0.0800 
 29 H       -3.3170    -1.2910     2.1460 H     1 <1>   0.0800 
 30 H       -2.3310     3.3040     2.4140 H     1 <1>   0.1500 
 31 H       -5.3530    -1.0690    -1.2950 H     1 <1>   0.0800 
 32 H       -4.7950    -2.5710     0.8890 H     1 <1>   0.0800 
 33 H       -0.8660     3.7590    -2.1960 H     1 <1>   0.3700 
 34 H       -5.2750    -0.0140     1.3150 H     1 <1>   0.4000 
 35 H       -2.7220    -2.4960    -1.3190 H     1 <1>   0.0800 
 36 H       -4.3000    -3.1860    -1.5290 H     1 <1>   0.0800 
 37 H       -2.9730     6.0960     1.9350 H     1 <1>   0.0800 
 38 H       -1.2420     6.1290     2.2570 H     1 <1>   0.0800 
 39 H       -0.2130     6.4460    -1.0380 H     1 <1>   0.0800 
 40 H       -1.8240     6.4470    -1.7560 H     1 <1>   0.0800 
 41 H       -1.1160     7.7980     0.6360 H     1 <1>   0.0800 
 42 H       -2.7420     7.4510     0.0940 H     1 <1>   0.0800 
 43 H       -4.9620    -5.2260    -0.4220 H     1 <1>   0.1500 
 44 H       -0.4810    -5.6420     1.0610 H     1 <1>   0.1500 
 45 H       -2.0300    -7.4950     1.2560 H     1 <1>   0.1500 
@<TRIPOS>BOND
  1   1   2  2   
  2   2   3  am  
  3   2   4  1   
  4   3   5  1   
  5   3   6  1   
  6   4   7  1   
  7   4   8  2   
  8   5   9  1   
  9   5  26  1   
 10   5  27  1   
 11   6  10  1   
 12   6  28  1   
 13   6  29  1   
 14   7  11  2   
 15   7  12  am  
 16   8  13  1   
 17   8  30  1   
 18   9  10  1   
 19   9  14  1   
 20   9  31  1   
 21  10  15  1   
 22  10  32  1   
 23  12  16  1   
 24  12  33  1   
 25  13  16  2   
 26  13  17  1   
 27  14  34  1   
 28  15  18  1   
 29  15  35  1   
 30  15  36  1   
 31  16  19  1   
 32  17  20  1   
 33  17  37  1   
 34  17  38  1   
 35  18  21  ar  
 36  18  22  ar  
 37  19  20  1   
 38  19  39  1   
 39  19  40  1   
 40  20  41  1   
 41  20  42  1   
 42  21  23  ar  
 43  22  24  ar  
 44  22  43  1   
 45  23  25  ar  
 46  23  44  1   
 47  24  25  ar  
 48  25  45  1   
@<TRIPOS>SUBSTRUCTURE
  1 ****   3 GROUP 4 **** **** 0

# MOE 2024.06 (io_trps.svl 2023.06)
