@<TRIPOS>MOLECULE
NONAME
37 38 1 0 0 
SMALL
USER_CHARGES


@<TRIPOS>ATOM
  1 S       -0.0520    -0.0670     1.0770 S.3   1 <1>  -0.0800 
  2 C       -1.5320     0.5180     0.3480 C.2   1 <1>   0.1980 
  3 C        0.6030     1.5400     0.9630 C.2   1 <1>  -0.1100 
  4 N       -1.5210     1.7580     0.0650 N.2   1 <1>  -0.5650 
  5 C       -2.6560    -0.4790     0.1370 C.3   1 <1>   0.0200 
  6 C       -0.3150     2.3480     0.4070 C.2   1 <1>   0.0460 
  7 C       -2.3470    -1.4570    -1.0030 C.3   1 <1>  -0.2400 
  8 C       -0.1930     3.8340     0.1090 C.3   1 <1>   0.0210 
  9 C        1.2030     4.3840     0.4040 C.3   1 <1>   0.1400 
 10 N        1.2610     5.8290     0.0780 N.am  1 <1>  -0.7300 
 11 C        1.3970     6.8630     0.9600 C.2   1 <1>   0.6160 
 12 O        1.4930     6.5780     2.1410 O.2   1 <1>  -0.5700 
 13 C        1.4270     8.2460     0.5470 C.2   1 <1>   0.0290 
 14 C        1.3160     8.6250    -0.8330 C.2   1 <1>   0.5410 
 15 C        1.5630     9.2550     1.4710 C.2   1 <1>  -0.0500 
 16 O        1.1890     7.8180    -1.7530 O.2   1 <1>  -0.5700 
 17 C        1.3550    10.0090    -1.1530 C.2   1 <1>  -0.1360 
 18 N        1.5940    10.5750     1.1150 N.pl3 1 <1>  -0.6000 
 19 C        1.4920    10.9580    -0.1950 C.2   1 <1>  -0.0380 
 20 C        1.5390    12.4450    -0.4810 C.3   1 <1>  -0.1020 
 21 H        1.6010     1.6980     1.3280 H     1 <1>   0.1500 
 22 H       -3.5540     0.0650    -0.0950 H     1 <1>   0.0800 
 23 H       -2.8220    -1.0210     1.0510 H     1 <1>   0.0800 
 24 H       -2.1780    -0.9130    -1.9160 H     1 <1>   0.0800 
 25 H       -3.1740    -2.1280    -1.1490 H     1 <1>   0.0800 
 26 H       -1.4690    -2.0340    -0.7770 H     1 <1>   0.0800 
 27 H       -0.9160     4.3600     0.7050 H     1 <1>   0.0800 
 28 H       -0.4250     3.9910    -0.9290 H     1 <1>   0.0800 
 29 H        1.9350     3.8620    -0.1880 H     1 <1>   0.0800 
 30 H        1.4370     4.2340     1.4440 H     1 <1>   0.0800 
 31 H        1.1770     6.0850    -0.9180 H     1 <1>   0.3700 
 32 H        1.6490     9.0250     2.5220 H     1 <1>   0.1500 
 33 H        1.2710    10.2580    -2.1940 H     1 <1>   0.1500 
 34 H        1.6980    11.2970     1.8410 H     1 <1>   0.4000 
 35 H        0.7300    12.9430     0.0230 H     1 <1>   0.0800 
 36 H        1.4500    12.6320    -1.5360 H     1 <1>   0.0800 
 37 H        2.4720    12.8560    -0.1390 H     1 <1>   0.0800 
@<TRIPOS>BOND
  1   1   2  1   
  2   1   3  1   
  3   2   4  2   
  4   2   5  1   
  5   3   6  2   
  6   3  21  1   
  7   4   6  1   
  8   5   7  1   
  9   5  22  1   
 10   5  23  1   
 11   6   8  1   
 12   7  24  1   
 13   7  25  1   
 14   7  26  1   
 15   8   9  1   
 16   8  27  1   
 17   8  28  1   
 18   9  10  1   
 19   9  29  1   
 20   9  30  1   
 21  10  11  am  
 22  10  31  1   
 23  11  12  2   
 24  11  13  1   
 25  13  14  1   
 26  13  15  2   
 27  14  16  2   
 28  14  17  1   
 29  15  18  1   
 30  15  32  1   
 31  17  19  2   
 32  17  33  1   
 33  18  19  1   
 34  18  34  1   
 35  19  20  1   
 36  20  35  1   
 37  20  36  1   
 38  20  37  1   
@<TRIPOS>SUBSTRUCTURE
  1 ****  10 GROUP 4 **** **** 0

# MOE 2024.06 (io_trps.svl 2023.06)
