@<TRIPOS>MOLECULE
NONAME
48 50 1 0 0 
SMALL
USER_CHARGES


@<TRIPOS>ATOM
  1 O        2.3180     2.2590    -0.8090 O.2   1 <1>  -0.5700 
  2 C        2.1390     1.0610    -0.6030 C.2   1 <1>   0.6160 
  3 N        2.8420     0.4080     0.4040 N.am  1 <1>  -0.4690 
  4 C        1.2330     0.3150    -1.4030 C.2   1 <1>  -0.1360 
  5 C        2.6880    -0.9660     0.5750 C.2   1 <1>  -0.0290 
  6 C        3.7450     1.2300     1.2670 C.3   1 <1>   0.1400 
  7 C        1.0710    -1.0190    -1.2200 C.2   1 <1>  -0.1500 
  8 C        1.8250    -1.6650    -0.2130 C.2   1 <1>  -0.1500 
  9 C        3.4920    -1.6900     1.6450 C.3   1 <1>  -0.1020 
 10 C        5.0700     1.5030     0.5440 C.3   1 <1>  -0.0990 
 11 C        5.4040     2.9750     0.5910 C.2   1 <1>   0.5690 
 12 O        6.3230     3.3290     1.2880 O.2   1 <1>  -0.5700 
 13 N        4.6330     3.8250    -0.1490 N.am  1 <1>  -0.4940 
 14 C        4.6410     5.2370    -0.2500 C.2   1 <1>  -0.0880 
 15 N        5.7160     6.0770    -0.3380 N.pl3 1 <1>   0.3140 
 16 C        3.5360     6.0170    -0.3100 C.2   1 <1>  -0.1810 
 17 N        5.3040     7.3710    -0.4520 N.2   1 <1>  -0.7070 
 18 C        7.1600     5.6800    -0.4220 C.3   1 <1>   0.1760 
 19 C        4.0110     7.3150    -0.4310 C.2   1 <1>   0.1390 
 20 C        2.0780     5.6000    -0.2590 C.3   1 <1>  -0.0590 
 21 C        7.9140     6.0280     0.8640 C.3   1 <1>  -0.1600 
 22 C        7.9240     6.4500    -1.5080 C.3   1 <1>  -0.1600 
 23 C        8.4070     7.4640     0.6820 C.3   1 <1>  -0.1600 
 24 C        8.5330     7.6840    -0.8290 C.3   1 <1>  -0.1600 
 25 H        0.6940     0.8620    -2.1520 H     1 <1>   0.1500 
 26 H        3.9350     0.7470     2.2070 H     1 <1>   0.0800 
 27 H        3.2450     2.1560     1.4990 H     1 <1>   0.0800 
 28 H        0.3910    -1.6020    -1.8180 H     1 <1>   0.1500 
 29 H        1.6890    -2.7260    -0.0950 H     1 <1>   0.1500 
 30 H        4.5440    -1.5190     1.5020 H     1 <1>   0.0800 
 31 H        3.3190    -2.7500     1.5990 H     1 <1>   0.0800 
 32 H        3.2030    -1.3490     2.6230 H     1 <1>   0.0800 
 33 H        5.0220     1.1980    -0.4860 H     1 <1>   0.0800 
 34 H        5.8580     0.9490     1.0200 H     1 <1>   0.0800 
 35 H        3.7950     3.3830    -0.5610 H     1 <1>   0.3700 
 36 H        7.2100     4.6280    -0.6240 H     1 <1>   0.0800 
 37 H        3.3850     8.1880    -0.5010 H     1 <1>   0.1500 
 38 H        1.9650     4.7090     0.3310 H     1 <1>   0.0800 
 39 H        1.7180     5.4050    -1.2530 H     1 <1>   0.0800 
 40 H        1.4840     6.3790     0.1840 H     1 <1>   0.0800 
 41 H        8.7620     5.3730     0.9520 H     1 <1>   0.0800 
 42 H        7.2950     5.9110     1.7380 H     1 <1>   0.0800 
 43 H        7.2890     6.7130    -2.3360 H     1 <1>   0.0800 
 44 H        8.7230     5.8280    -1.8700 H     1 <1>   0.0800 
 45 H        9.3390     7.6320     1.1940 H     1 <1>   0.0800 
 46 H        7.6660     8.1420     1.0740 H     1 <1>   0.0800 
 47 H        7.9820     8.5670    -1.1100 H     1 <1>   0.0800 
 48 H        9.5620     7.8080    -1.1190 H     1 <1>   0.0800 
@<TRIPOS>BOND
  1   1   2  2   
  2   2   3  am  
  3   2   4  1   
  4   3   5  1   
  5   3   6  1   
  6   4   7  2   
  7   4  25  1   
  8   5   8  2   
  9   5   9  1   
 10   6  10  1   
 11   6  26  1   
 12   6  27  1   
 13   7   8  1   
 14   7  28  1   
 15   8  29  1   
 16   9  30  1   
 17   9  31  1   
 18   9  32  1   
 19  10  11  1   
 20  10  33  1   
 21  10  34  1   
 22  11  12  2   
 23  11  13  am  
 24  13  14  1   
 25  13  35  1   
 26  14  15  1   
 27  14  16  2   
 28  15  17  1   
 29  15  18  1   
 30  16  19  1   
 31  16  20  1   
 32  17  19  2   
 33  18  21  1   
 34  18  22  1   
 35  18  36  1   
 36  19  37  1   
 37  20  38  1   
 38  20  39  1   
 39  20  40  1   
 40  21  23  1   
 41  21  41  1   
 42  21  42  1   
 43  22  24  1   
 44  22  43  1   
 45  22  44  1   
 46  23  24  1   
 47  23  45  1   
 48  23  46  1   
 49  24  47  1   
 50  24  48  1   
@<TRIPOS>SUBSTRUCTURE
  1 ****  13 GROUP 4 **** **** 0

# MOE 2024.06 (io_trps.svl 2023.06)
