@<TRIPOS>MOLECULE
NONAME
44 47 1 0 0 
SMALL
USER_CHARGES


@<TRIPOS>ATOM
  1 S       -0.4700    -0.8090     0.4370 S.3   1 <1>  -0.2820 
  2 C       -1.9830    -1.3620    -0.2230 C.2   1 <1>   0.6510 
  3 C       -0.8980     0.8470     0.0140 C.2   1 <1>   0.5910 
  4 N       -2.3410    -2.6090    -0.2300 N.2   1 <1>  -0.6210 
  5 N       -2.6740    -0.2780    -0.6910 N.am  1 <1>  -0.0580 
  6 N       -2.0330     0.9620    -0.5420 N.2   1 <1>  -0.5120 
  7 C        0.1250     1.9180     0.3600 C.3   1 <1>  -0.1000 
  8 C       -3.5620    -2.8690    -0.7950 C.2   1 <1>   0.0330 
  9 C       -3.9220    -0.5200    -1.2460 C.2   1 <1>   0.6160 
 10 C        0.2100     3.2000    -0.4140 C.3   1 <1>  -0.2000 
 11 C        1.3000     2.1770    -0.5350 C.3   1 <1>  -0.2000 
 12 C       -4.3460    -1.8740    -1.2890 C.2   1 <1>  -0.1360 
 13 C       -3.9790    -4.3390    -0.8300 C.3   1 <1>   0.4810 
 14 O       -4.6360     0.3720    -1.6740 O.2   1 <1>  -0.5700 
 15 N       -3.6090    -4.9660     0.4740 N.4   1 <1>  -0.9590 
 16 C       -3.3600    -6.4410     0.3730 C.3   1 <1>   0.3430 
 17 C       -4.5310    -4.5750     1.5860 C.3   1 <1>   0.2630 
 18 C       -4.6240    -7.2610     0.0810 C.3   1 <1>   0.0200 
 19 C       -4.2340    -8.6990    -0.1940 C.2   1 <1>  -0.1400 
 20 S       -3.2950    -8.9940    -1.6330 S.3   1 <1>  -0.0800 
 21 C       -4.4460    -9.8730     0.4270 C.2   1 <1>   0.0460 
 22 C       -3.2790   -10.6970    -1.2420 C.2   1 <1>   0.2280 
 23 N       -3.8970   -10.9930    -0.1710 N.2   1 <1>  -0.5650 
 24 C       -5.2140   -10.1300     1.7070 C.3   1 <1>  -0.0590 
 25 H        0.2900     1.9780     1.4210 H     1 <1>   0.1000 
 26 H        0.4100     4.1130     0.1190 H     1 <1>   0.1000 
 27 H       -0.4560     3.3490    -1.2480 H     1 <1>   0.1000 
 28 H        1.3880     1.6330    -1.4610 H     1 <1>   0.1000 
 29 H        2.2570     2.3850    -0.0880 H     1 <1>   0.1000 
 30 H       -5.3080    -2.0440    -1.7360 H     1 <1>   0.1500 
 31 H       -3.4390    -4.8240    -1.6280 H     1 <1>   0.0800 
 32 H       -5.0350    -4.4350    -1.0180 H     1 <1>   0.0800 
 33 H       -2.6980    -4.5060     0.6730 H     1 <1>   0.4500 
 34 H       -2.9250    -6.7990     1.2930 H     1 <1>   0.0800 
 35 H       -2.6420    -6.6240    -0.4110 H     1 <1>   0.0800 
 36 H       -5.5250    -4.9470     1.4030 H     1 <1>   0.0800 
 37 H       -4.5740    -3.5010     1.6730 H     1 <1>   0.0800 
 38 H       -4.1770    -4.9770     2.5220 H     1 <1>   0.0800 
 39 H       -5.1380    -6.8840    -0.7850 H     1 <1>   0.0800 
 40 H       -5.2900    -7.2280     0.9230 H     1 <1>   0.0800 
 41 H       -2.7600   -11.3560    -1.9170 H     1 <1>   0.1500 
 42 H       -5.6160    -9.2230     2.1150 H     1 <1>   0.0800 
 43 H       -4.5610   -10.5810     2.4330 H     1 <1>   0.0800 
 44 H       -6.0230   -10.8100     1.5080 H     1 <1>   0.0800 
@<TRIPOS>BOND
  1   1   2  1   
  2   1   3  1   
  3   2   4  2   
  4   2   5  1   
  5   3   6  2   
  6   3   7  1   
  7   4   8  1   
  8   5   6  1   
  9   5   9  am  
 10   7  10  1   
 11   7  11  1   
 12   7  25  1   
 13   8  12  2   
 14   8  13  1   
 15   9  12  1   
 16   9  14  2   
 17  10  11  1   
 18  10  26  1   
 19  10  27  1   
 20  11  28  1   
 21  11  29  1   
 22  12  30  1   
 23  13  15  1   
 24  13  31  1   
 25  13  32  1   
 26  15  16  1   
 27  15  17  1   
 28  15  33  1   
 29  16  18  1   
 30  16  34  1   
 31  16  35  1   
 32  17  36  1   
 33  17  37  1   
 34  17  38  1   
 35  18  19  1   
 36  18  39  1   
 37  18  40  1   
 38  19  20  1   
 39  19  21  2   
 40  20  22  1   
 41  21  23  1   
 42  21  24  1   
 43  22  23  2   
 44  22  41  1   
 45  24  42  1   
 46  24  43  1   
 47  24  44  1   
@<TRIPOS>SUBSTRUCTURE
  1 ****   8 GROUP 4 **** **** 0

# MOE 2024.06 (io_trps.svl 2023.06)
