@<TRIPOS>MOLECULE
NONAME
46 48 1 0 0 
SMALL
USER_CHARGES


@<TRIPOS>ATOM
  1 F       -2.7220     0.5610    -1.3920 F     1 <1>  -0.1900 
  2 C       -2.8520     1.2560    -0.2930 C.ar  1 <1>   0.1900 
  3 C       -3.6960     0.7910     0.7120 C.ar  1 <1>   0.0860 
  4 C       -2.1370     2.4370    -0.1970 C.ar  1 <1>  -0.1500 
  5 C       -4.4310    -0.4450     0.5820 C.2   1 <1>   0.5440 
  6 C       -3.8000     1.5810     1.8570 C.ar  1 <1>  -0.1500 
  7 C       -2.2600     3.2020     0.9490 C.ar  1 <1>  -0.1500 
  8 O       -3.9040    -1.4810     0.9400 O.2   1 <1>  -0.5700 
  9 N       -5.7140    -0.4770     0.0740 N.am  1 <1>  -0.6600 
 10 C       -3.0940     2.7660     1.9690 C.ar  1 <1>   0.0830 
 11 C       -6.4720    -1.7570    -0.0470 C.3   1 <1>   0.1400 
 12 C       -6.4110     0.7180    -0.4720 C.3   1 <1>   0.1400 
 13 O       -3.2240     3.4960     3.0860 O.3   1 <1>  -0.5320 
 14 C       -6.6920    -2.1480    -1.5160 C.3   1 <1>   0.1400 
 15 C       -6.2480     0.7440    -1.9940 C.3   1 <1>  -0.1600 
 16 N       -7.7630    -1.3180    -2.1620 N.am  1 <1>  -0.6600 
 17 C       -7.3380    -0.0150    -2.7660 C.3   1 <1>   0.1400 
 18 C       -9.0760    -1.7190    -2.2800 C.2   1 <1>   0.5690 
 19 O       -9.9090    -1.0100    -2.7970 O.2   1 <1>  -0.5700 
 20 C       -9.5640    -3.0730    -1.7770 C.3   1 <1>   0.0440 
 21 C       -9.5300    -3.1870    -0.2580 C.ar  1 <1>  -0.1430 
 22 C      -10.1100    -2.2000     0.5290 C.ar  1 <1>   0.1600 
 23 C       -8.9180    -4.2580     0.3620 C.ar  1 <1>  -0.1500 
 24 N      -10.1120    -2.1930     1.8520 N.ar  1 <1>  -0.6200 
 25 C       -8.9150    -4.2660     1.7400 C.ar  1 <1>  -0.1500 
 26 C       -9.5160    -3.2250     2.4260 C.ar  1 <1>   0.1600 
 27 H       -1.4970     2.7450    -1.0050 H     1 <1>   0.1500 
 28 H       -4.4350     1.2630     2.6650 H     1 <1>   0.1500 
 29 H       -1.7120     4.1230     1.0430 H     1 <1>   0.1500 
 30 H       -7.4150    -1.6590     0.4600 H     1 <1>   0.0800 
 31 H       -5.9330    -2.5510     0.4380 H     1 <1>   0.0800 
 32 H       -5.9880     1.6130    -0.0500 H     1 <1>   0.0800 
 33 H       -7.4530     0.6920    -0.2020 H     1 <1>   0.0800 
 34 H       -2.6640     4.2930     3.1010 H     1 <1>   0.4500 
 35 H       -6.9610    -3.1860    -1.5530 H     1 <1>   0.0800 
 36 H       -5.7670    -2.0460    -2.0570 H     1 <1>   0.0800 
 37 H       -5.2790     0.3690    -2.2700 H     1 <1>   0.0800 
 38 H       -6.2850     1.7680    -2.3200 H     1 <1>   0.0800 
 39 H       -6.9990    -0.1950    -3.7710 H     1 <1>   0.0800 
 40 H       -8.1960     0.6340    -2.8330 H     1 <1>   0.0800 
 41 H       -8.9780    -3.8470    -2.2350 H     1 <1>   0.0800 
 42 H      -10.5790    -3.2140    -2.1040 H     1 <1>   0.0800 
 43 H      -10.5950    -1.3680     0.0440 H     1 <1>   0.1500 
 44 H       -8.4600    -5.0580    -0.1950 H     1 <1>   0.1500 
 45 H       -8.4530    -5.0710     2.2830 H     1 <1>   0.1500 
 46 H       -9.5060    -3.2410     3.5030 H     1 <1>   0.1500 
@<TRIPOS>BOND
  1   1   2  1   
  2   2   3  ar  
  3   2   4  ar  
  4   3   5  1   
  5   3   6  ar  
  6   4   7  ar  
  7   4  27  1   
  8   5   8  2   
  9   5   9  am  
 10   6  10  ar  
 11   6  28  1   
 12   7  10  ar  
 13   7  29  1   
 14   9  11  1   
 15   9  12  1   
 16  10  13  1   
 17  11  14  1   
 18  11  30  1   
 19  11  31  1   
 20  12  15  1   
 21  12  32  1   
 22  12  33  1   
 23  13  34  1   
 24  14  16  1   
 25  14  35  1   
 26  14  36  1   
 27  15  17  1   
 28  15  37  1   
 29  15  38  1   
 30  16  17  1   
 31  16  18  am  
 32  17  39  1   
 33  17  40  1   
 34  18  19  2   
 35  18  20  1   
 36  20  21  1   
 37  20  41  1   
 38  20  42  1   
 39  21  22  ar  
 40  21  23  ar  
 41  22  24  ar  
 42  22  43  1   
 43  23  25  ar  
 44  23  44  1   
 45  24  26  ar  
 46  25  26  ar  
 47  25  45  1   
 48  26  46  1   
@<TRIPOS>SUBSTRUCTURE
  1 ****   9 GROUP 4 **** **** 0

# MOE 2024.06 (io_trps.svl 2023.06)
