@<TRIPOS>MOLECULE
NONAME
42 44 1 0 0 
SMALL
USER_CHARGES


@<TRIPOS>ATOM
  1 CL       0.7700    -0.6600     1.3940 Cl    1 <1>  -0.1400 
  2 C        0.2700    -2.2770     0.9730 C.2   1 <1>   0.1400 
  3 C       -0.9090    -2.4930     0.3160 C.2   1 <1>   0.1910 
  4 C        1.0990    -3.3460     1.3200 C.2   1 <1>  -0.1500 
  5 N       -1.3120    -3.7730    -0.0210 N.pl3 1 <1>  -0.5760 
  6 C        0.6900    -4.6110     0.9810 C.2   1 <1>  -0.1800 
  7 C       -2.5130    -3.9890    -0.7040 C.2   1 <1>   0.9370 
  8 C       -0.5240    -4.8310     0.3070 C.cat 1 <1>   0.7390 
  9 O       -3.2240    -3.0540    -0.9800 O.2   1 <1>  -0.5700 
 10 C       -2.8840    -5.3130    -1.0480 C.2   1 <1>  -0.1360 
 11 N       -0.9280    -6.0880    -0.0270 N.pl3 1 <1>  -0.6450 
 12 C       -2.1070    -6.3620    -0.7120 C.2   1 <1>   0.2030 
 13 C       -2.4850    -7.8170    -1.0770 C.3   1 <1>   0.4810 
 14 N       -2.9480    -8.6400     0.1010 N.4   1 <1>  -0.9590 
 15 C       -3.1150   -10.0760    -0.3320 C.3   1 <1>   0.3430 
 16 C       -4.2320    -8.1170     0.6900 C.3   1 <1>   0.2630 
 17 C       -3.3180   -11.0440     0.8410 C.3   1 <1>   0.0200 
 18 C       -3.4090   -12.4530     0.2950 C.2   1 <1>  -0.1400 
 19 S       -4.7510   -12.7990    -0.7640 S.3   1 <1>  -0.0800 
 20 C       -2.6740   -13.5710     0.4320 C.2   1 <1>   0.0460 
 21 C       -4.1710   -14.4400    -0.9220 C.2   1 <1>   0.2280 
 22 N       -3.1090   -14.6820    -0.2650 N.2   1 <1>  -0.5650 
 23 C       -1.4210   -13.7760     1.2600 C.3   1 <1>  -0.0590 
 24 H       -1.5370    -1.6520     0.0550 H     1 <1>   0.1500 
 25 H        2.0260    -3.1510     1.8370 H     1 <1>   0.1500 
 26 H        1.3120    -5.4510     1.2360 H     1 <1>   0.1500 
 27 H       -3.8110    -5.4030    -1.5860 H     1 <1>   0.1500 
 28 H       -0.2530    -6.8310     0.1940 H     1 <1>   0.4500 
 29 H       -1.6310    -8.2890    -1.5350 H     1 <1>   0.0800 
 30 H       -3.2710    -7.7940    -1.8160 H     1 <1>   0.0800 
 31 H       -2.2270    -8.6290     0.8380 H     1 <1>   0.4500 
 32 H       -2.2380   -10.3970    -0.8730 H     1 <1>   0.0800 
 33 H       -3.9570   -10.1610    -1.0010 H     1 <1>   0.0800 
 34 H       -5.0290    -8.1660    -0.0350 H     1 <1>   0.0800 
 35 H       -4.1180    -7.0930     1.0090 H     1 <1>   0.0800 
 36 H       -4.5210    -8.7020     1.5490 H     1 <1>   0.0800 
 37 H       -4.2300   -10.8300     1.3680 H     1 <1>   0.0800 
 38 H       -2.4930   -10.9790     1.5250 H     1 <1>   0.0800 
 39 H       -4.7380   -15.1090    -1.5470 H     1 <1>   0.1500 
 40 H       -1.1420   -12.8830     1.7840 H     1 <1>   0.0800 
 41 H       -0.6110   -14.0750     0.6190 H     1 <1>   0.0800 
 42 H       -1.5930   -14.5580     1.9770 H     1 <1>   0.0800 
@<TRIPOS>BOND
  1   1   2  1   
  2   2   3  2   
  3   2   4  1   
  4   3   5  1   
  5   3  24  1   
  6   4   6  2   
  7   4  25  1   
  8   5   7  1   
  9   5   8  ar  
 10   6   8  1   
 11   6  26  1   
 12   7   9  2   
 13   7  10  1   
 14   8  11  ar  
 15  10  12  2   
 16  10  27  1   
 17  11  12  1   
 18  11  28  1   
 19  12  13  1   
 20  13  14  1   
 21  13  29  1   
 22  13  30  1   
 23  14  15  1   
 24  14  16  1   
 25  14  31  1   
 26  15  17  1   
 27  15  32  1   
 28  15  33  1   
 29  16  34  1   
 30  16  35  1   
 31  16  36  1   
 32  17  18  1   
 33  17  37  1   
 34  17  38  1   
 35  18  19  1   
 36  18  20  2   
 37  19  21  1   
 38  20  22  1   
 39  20  23  1   
 40  21  22  2   
 41  21  39  1   
 42  23  40  1   
 43  23  41  1   
 44  23  42  1   
@<TRIPOS>SUBSTRUCTURE
  1 ****  13 GROUP 4 **** **** 0

# MOE 2024.06 (io_trps.svl 2023.06)
