@<TRIPOS>MOLECULE
NONAME
60 63 1 0 0 
SMALL
USER_CHARGES


@<TRIPOS>ATOM
  1 O       -0.1290     0.3210    -0.1800 O.2   1 <1>  -0.5700 
  2 C        0.8320    -0.3850    -0.4220 C.2   1 <1>   0.5440 
  3 N        0.6180    -1.6970    -0.7970 N.am  1 <1>  -0.6600 
  4 C        2.1640     0.1850    -0.3270 C.ar  1 <1>   0.0860 
  5 C        1.6100    -2.5120    -1.5510 C.3   1 <1>   0.1400 
  6 C       -0.7070    -2.3480    -0.6060 C.3   1 <1>   0.1400 
  7 C        3.1770    -0.4360     0.4010 C.ar  1 <1>  -0.1500 
  8 C        2.4710     1.3880    -0.9620 C.ar  1 <1>  -0.1500 
  9 C        1.8100    -3.8580    -0.8500 C.3   1 <1>  -0.1600 
 10 C       -0.5210    -3.7000     0.0900 C.3   1 <1>  -0.1600 
 11 C        4.4500     0.1020     0.4800 C.ar  1 <1>   0.0830 
 12 C        3.7370     1.9390    -0.8900 C.ar  1 <1>  -0.1500 
 13 C        0.4720    -4.6030    -0.6660 C.3   1 <1>  -0.0190 
 14 O        5.3610    -0.5910     1.2070 O.3   1 <1>  -0.3630 
 15 C        4.7320     1.2980    -0.1730 C.ar  1 <1>  -0.1500 
 16 C        0.6410    -5.9490     0.0470 C.2   1 <1>   0.5690 
 17 C        6.6710    -0.1050     1.4000 C.3   1 <1>   0.0400 
 18 O        1.4800    -6.0520     0.9110 O.2   1 <1>  -0.5700 
 19 N       -0.1530    -7.0160    -0.2800 N.am  1 <1>  -0.6600 
 20 C       -1.2990    -7.0440    -1.2250 C.3   1 <1>   0.1400 
 21 C       -0.0300    -8.3250     0.4110 C.3   1 <1>   0.1400 
 22 C       -2.1540    -8.2120    -0.7420 C.3   1 <1>   0.2000 
 23 C       -1.1270    -9.2100    -0.1960 C.3   1 <1>  -0.0800 
 24 O       -2.9550    -7.7550     0.2940 O.3   1 <1>  -0.6800 
 25 C       -1.6960   -10.2580     0.7800 C.3   1 <1>   0.0200 
 26 C       -0.6800   -11.3130     1.1840 C.2   1 <1>  -0.0400 
 27 O       -1.0110   -12.1790     2.1050 O.3   1 <1>  -0.0190 
 28 C        0.5730   -11.5970     0.7910 C.2   1 <1>  -0.1500 
 29 N       -0.0500   -13.0210     2.3520 N.2   1 <1>  -0.4100 
 30 C        0.9180   -12.6940     1.5750 C.2   1 <1>   0.1080 
 31 C        2.2490   -13.4120     1.5270 C.3   1 <1>  -0.0590 
 32 H        1.2370    -2.6740    -2.5470 H     1 <1>   0.0800 
 33 H        2.5520    -2.0010    -1.6340 H     1 <1>   0.0800 
 34 H       -1.3510    -1.7270    -0.0060 H     1 <1>   0.0800 
 35 H       -1.1720    -2.4830    -1.5670 H     1 <1>   0.0800 
 36 H        2.9680    -1.3540     0.9180 H     1 <1>   0.1500 
 37 H        1.6960     1.8920    -1.5140 H     1 <1>   0.1500 
 38 H        2.4840    -4.4650    -1.4290 H     1 <1>   0.0800 
 39 H        2.2710    -3.6860     0.1080 H     1 <1>   0.0800 
 40 H       -0.1610    -3.5280     1.0900 H     1 <1>   0.0800 
 41 H       -1.4760    -4.1880     0.1690 H     1 <1>   0.0800 
 42 H        3.9480     2.8680    -1.3910 H     1 <1>   0.1500 
 43 H        0.0810    -4.7900    -1.6490 H     1 <1>   0.0800 
 44 H        5.7080     1.7420    -0.1330 H     1 <1>   0.1500 
 45 H        7.1980    -0.8060     2.0220 H     1 <1>   0.0800 
 46 H        6.6200     0.8510     1.8900 H     1 <1>   0.0800 
 47 H        7.1590    -0.0260     0.4450 H     1 <1>   0.0800 
 48 H       -1.8560    -6.1230    -1.2250 H     1 <1>   0.0800 
 49 H       -0.9300    -7.2460    -2.2160 H     1 <1>   0.0800 
 50 H        0.9510    -8.7400     0.2560 H     1 <1>   0.0800 
 51 H       -0.1870    -8.1800     1.4670 H     1 <1>   0.0800 
 52 H       -2.7880    -8.6220    -1.5100 H     1 <1>   0.0800 
 53 H       -0.7020    -9.7270    -1.0380 H     1 <1>   0.0800 
 54 H       -2.3940    -7.2870     0.9450 H     1 <1>   0.4000 
 55 H       -2.5340   -10.7530     0.3230 H     1 <1>   0.0800 
 56 H       -2.0530    -9.7740     1.6730 H     1 <1>   0.0800 
 57 H        1.2000   -11.1280     0.0570 H     1 <1>   0.1500 
 58 H        3.0410   -12.7280     1.7720 H     1 <1>   0.0800 
 59 H        2.4140   -13.8090     0.5420 H     1 <1>   0.0800 
 60 H        2.2550   -14.2200     2.2350 H     1 <1>   0.0800 
@<TRIPOS>BOND
  1   1   2  2   
  2   2   3  am  
  3   2   4  1   
  4   3   5  1   
  5   3   6  1   
  6   4   7  ar  
  7   4   8  ar  
  8   5   9  1   
  9   5  32  1   
 10   5  33  1   
 11   6  10  1   
 12   6  34  1   
 13   6  35  1   
 14   7  11  ar  
 15   7  36  1   
 16   8  12  ar  
 17   8  37  1   
 18   9  13  1   
 19   9  38  1   
 20   9  39  1   
 21  10  13  1   
 22  10  40  1   
 23  10  41  1   
 24  11  14  1   
 25  11  15  ar  
 26  12  15  ar  
 27  12  42  1   
 28  13  16  1   
 29  13  43  1   
 30  14  17  1   
 31  15  44  1   
 32  16  18  2   
 33  16  19  am  
 34  17  45  1   
 35  17  46  1   
 36  17  47  1   
 37  19  20  1   
 38  19  21  1   
 39  20  22  1   
 40  20  48  1   
 41  20  49  1   
 42  21  23  1   
 43  21  50  1   
 44  21  51  1   
 45  22  23  1   
 46  22  24  1   
 47  22  52  1   
 48  23  25  1   
 49  23  53  1   
 50  24  54  1   
 51  25  26  1   
 52  25  55  1   
 53  25  56  1   
 54  26  27  1   
 55  26  28  2   
 56  27  29  1   
 57  28  30  1   
 58  28  57  1   
 59  29  30  2   
 60  30  31  1   
 61  31  58  1   
 62  31  59  1   
 63  31  60  1   
@<TRIPOS>SUBSTRUCTURE
  1 ****  16 GROUP 4 **** **** 0

# MOE 2024.06 (io_trps.svl 2023.06)
