@<TRIPOS>MOLECULE
NONAME
45 47 1 0 0 
SMALL
USER_CHARGES


@<TRIPOS>ATOM
  1 F       -0.8460    -0.9350    -1.1350 F     1 <1>  -0.1900 
  2 C       -1.8020    -1.3530    -0.3450 C.ar  1 <1>   0.1900 
  3 C       -2.0290    -2.7180    -0.1270 C.ar  1 <1>   0.0820 
  4 C       -2.5820    -0.3760     0.2420 C.ar  1 <1>  -0.1500 
  5 O       -1.3060    -3.7470    -0.6660 O.3   1 <1>  -0.3630 
  6 C       -3.0900    -3.0740     0.7020 C.ar  1 <1>  -0.1440 
  7 C       -3.6270    -0.7520     1.0670 C.ar  1 <1>  -0.1500 
  8 C        0.0060    -3.5650    -1.1630 C.3   1 <1>   0.0400 
  9 C       -3.8790    -2.0950     1.2930 C.ar  1 <1>  -0.1500 
 10 C       -3.3950    -4.5370     0.9690 C.3   1 <1>   0.4870 
 11 N       -3.7410    -5.1930    -0.3180 N.4   1 <1>  -0.9590 
 12 C       -5.0360    -4.6690    -0.8550 C.3   1 <1>   0.3430 
 13 C       -3.8950    -6.6680    -0.1510 C.3   1 <1>   0.3430 
 14 C       -6.0900    -5.7010    -0.4470 C.3   1 <1>   0.2000 
 15 C       -5.3230    -7.0160    -0.5880 C.3   1 <1>  -0.0800 
 16 O       -6.4200    -5.4860     0.8890 O.3   1 <1>  -0.6800 
 17 C       -5.9020    -8.2320     0.1600 C.3   1 <1>  -0.0170 
 18 C       -4.9650    -9.4210     0.0270 C.ar  1 <1>  -0.1430 
 19 C       -4.8260   -10.1100    -1.1620 C.ar  1 <1>  -0.1500 
 20 C       -4.2000    -9.8710     1.0860 C.ar  1 <1>  -0.1500 
 21 C       -3.9400   -11.1720    -1.2380 C.ar  1 <1>   0.1600 
 22 C       -3.3450   -10.9450     0.9040 C.ar  1 <1>   0.1600 
 23 N       -3.1900   -11.5970    -0.2350 N.ar  1 <1>  -0.6200 
 24 H       -2.3750     0.6640     0.0530 H     1 <1>   0.1500 
 25 H       -4.2410     0.0020     1.5320 H     1 <1>   0.1500 
 26 H        0.4500    -4.5330    -1.3120 H     1 <1>   0.0800 
 27 H        0.5840    -3.0080    -0.4460 H     1 <1>   0.0800 
 28 H       -0.0410    -3.0430    -2.1020 H     1 <1>   0.0800 
 29 H       -4.6980    -2.3650     1.9400 H     1 <1>   0.1500 
 30 H       -4.2130    -4.6290     1.6650 H     1 <1>   0.0800 
 31 H       -2.5220    -5.0030     1.3960 H     1 <1>   0.0800 
 32 H       -2.9600    -4.9510    -0.9520 H     1 <1>   0.4500 
 33 H       -5.2760    -3.6900    -0.4730 H     1 <1>   0.0800 
 34 H       -4.9840    -4.6240    -1.9300 H     1 <1>   0.0800 
 35 H       -3.1730    -7.2090    -0.7440 H     1 <1>   0.0800 
 36 H       -3.7640    -6.9370     0.8840 H     1 <1>   0.0800 
 37 H       -6.9830    -5.6420    -1.0480 H     1 <1>   0.0800 
 38 H       -5.2790    -7.2610    -1.6360 H     1 <1>   0.0800 
 39 H       -7.2620    -5.9320     1.1210 H     1 <1>   0.4000 
 40 H       -6.8650    -8.4890    -0.2480 H     1 <1>   0.0800 
 41 H       -6.0380    -8.0090     1.2040 H     1 <1>   0.0800 
 42 H       -5.3970    -9.8410    -2.0310 H     1 <1>   0.1500 
 43 H       -4.2590    -9.4070     2.0540 H     1 <1>   0.1500 
 44 H       -3.8420   -11.7010    -2.1720 H     1 <1>   0.1500 
 45 H       -2.7560   -11.2870     1.7390 H     1 <1>   0.1500 
@<TRIPOS>BOND
  1   1   2  1   
  2   2   3  ar  
  3   2   4  ar  
  4   3   5  1   
  5   3   6  ar  
  6   4   7  ar  
  7   4  24  1   
  8   5   8  1   
  9   6   9  ar  
 10   6  10  1   
 11   7   9  ar  
 12   7  25  1   
 13   8  26  1   
 14   8  27  1   
 15   8  28  1   
 16   9  29  1   
 17  10  11  1   
 18  10  30  1   
 19  10  31  1   
 20  11  12  1   
 21  11  13  1   
 22  11  32  1   
 23  12  14  1   
 24  12  33  1   
 25  12  34  1   
 26  13  15  1   
 27  13  35  1   
 28  13  36  1   
 29  14  15  1   
 30  14  16  1   
 31  14  37  1   
 32  15  17  1   
 33  15  38  1   
 34  16  39  1   
 35  17  18  1   
 36  17  40  1   
 37  17  41  1   
 38  18  19  ar  
 39  18  20  ar  
 40  19  21  ar  
 41  19  42  1   
 42  20  22  ar  
 43  20  43  1   
 44  21  23  ar  
 45  21  44  1   
 46  22  23  ar  
 47  22  45  1   
@<TRIPOS>SUBSTRUCTURE
  1 ****  11 GROUP 4 **** **** 0

# MOE 2024.06 (io_trps.svl 2023.06)
