@<TRIPOS>MOLECULE
NONAME
57 60 1 0 0 
SMALL
USER_CHARGES


@<TRIPOS>ATOM
  1 S       -0.0030    -0.3840     0.6120 S.3   1 <1>  -0.3320 
  2 C       -1.6020    -1.1710     0.3560 C.ar  1 <1>   0.1020 
  3 C       -0.2760     1.4440     0.5860 C.3   1 <1>  -0.0100 
  4 C       -1.6280    -2.5430     0.3390 C.ar  1 <1>  -0.1500 
  5 C       -2.7670    -0.4270     0.1810 C.ar  1 <1>  -0.1500 
  6 C       -2.8320    -3.2400     0.1460 C.ar  1 <1>   0.0000 
  7 C       -3.9580    -1.0870    -0.0100 C.ar  1 <1>  -0.1500 
  8 C       -4.0070    -2.4870    -0.0310 C.ar  1 <1>   0.3610 
  9 C       -2.9450    -4.6630     0.1180 C.ar  1 <1>  -0.1440 
 10 N       -5.2040    -3.1550    -0.2280 N.ar  1 <1>  -0.1790 
 11 C       -4.1620    -5.2420    -0.0790 C.ar  1 <1>  -0.1500 
 12 C       -1.7020    -5.5240     0.3160 C.3   1 <1>  -0.0970 
 13 C       -5.3510    -4.4850    -0.2680 C.ar  1 <1>   0.4610 
 14 N       -6.5830    -5.0270    -0.4850 N.pl3 1 <1>  -0.8380 
 15 C       -6.8350    -6.4810    -0.8260 C.3   1 <1>   0.2090 
 16 C       -7.8740    -4.2530    -0.4620 C.3   1 <1>   0.2090 
 17 C       -7.8490    -7.1530     0.1460 C.3   1 <1>   0.4230 
 18 C       -8.8070    -4.8780     0.5770 C.3   1 <1>  -0.1600 
 19 N       -8.0590    -8.6490    -0.0880 N.4   1 <1>  -0.9590 
 20 C       -9.1770    -6.3520     0.2530 C.3   1 <1>   0.0000 
 21 C       -9.2980    -9.2010     0.5600 C.3   1 <1>   0.3430 
 22 C       -8.0090    -9.1060    -1.5180 C.3   1 <1>   0.2630 
 23 C      -10.0280    -6.9170     1.4250 C.3   1 <1>  -0.1600 
 24 C       -9.9760    -6.4410    -1.0820 C.3   1 <1>   0.1200 
 25 C       -9.6940    -8.3780     1.7850 C.3   1 <1>  -0.1600 
 26 O      -10.9680    -5.4790    -1.1430 O.3   1 <1>  -0.6800 
 27 H        0.6790     1.9150     0.7390 H     1 <1>   0.0800 
 28 H       -0.9530     1.6930     1.3830 H     1 <1>   0.0800 
 29 H       -0.6800     1.7090    -0.3750 H     1 <1>   0.0800 
 30 H       -0.7030    -3.0730     0.4780 H     1 <1>   0.1500 
 31 H       -2.7370     0.6470     0.1960 H     1 <1>   0.1500 
 32 H       -4.8570    -0.5120    -0.1450 H     1 <1>   0.1500 
 33 H       -6.0270    -2.5890    -0.3910 H     1 <1>   0.4570 
 34 H       -4.2210    -6.3100    -0.0790 H     1 <1>   0.1500 
 35 H       -1.9380    -6.5730     0.2740 H     1 <1>   0.0800 
 36 H       -1.2560    -5.3220     1.2740 H     1 <1>   0.0800 
 37 H       -0.9780    -5.3150    -0.4530 H     1 <1>   0.0800 
 38 H       -7.2160    -6.5170    -1.8310 H     1 <1>   0.0800 
 39 H       -5.9260    -7.0480    -0.8170 H     1 <1>   0.0800 
 40 H       -7.7230    -3.2230    -0.1950 H     1 <1>   0.0800 
 41 H       -8.3330    -4.2690    -1.4380 H     1 <1>   0.0800 
 42 H       -7.3960    -7.0670     1.1200 H     1 <1>   0.0800 
 43 H       -8.3240    -4.8190     1.5370 H     1 <1>   0.0800 
 44 H       -9.6970    -4.2770     0.6480 H     1 <1>   0.0800 
 45 H       -7.2770    -9.1140     0.3970 H     1 <1>   0.4500 
 46 H      -10.1170    -9.1820    -0.1400 H     1 <1>   0.0800 
 47 H       -9.1350   -10.2280     0.8480 H     1 <1>   0.0800 
 48 H       -8.7990    -8.6490    -2.0910 H     1 <1>   0.0800 
 49 H       -8.1280   -10.1770    -1.5710 H     1 <1>   0.0800 
 50 H       -7.0630    -8.8530    -1.9680 H     1 <1>   0.0800 
 51 H       -9.8910    -6.3280     2.3170 H     1 <1>   0.0800 
 52 H      -11.0760    -6.8460     1.1840 H     1 <1>   0.0800 
 53 H      -10.4470    -7.4000    -1.2050 H     1 <1>   0.0800 
 54 H       -9.3420    -6.2670    -1.9320 H     1 <1>   0.0800 
 55 H      -10.5530    -8.8300     2.2520 H     1 <1>   0.0800 
 56 H       -8.8940    -8.4110     2.5060 H     1 <1>   0.0800 
 57 H      -11.7320    -5.6930    -0.5690 H     1 <1>   0.4000 
@<TRIPOS>BOND
  1   1   2  1   
  2   1   3  1   
  3   2   4  ar  
  4   2   5  ar  
  5   3  27  1   
  6   3  28  1   
  7   3  29  1   
  8   4   6  ar  
  9   4  30  1   
 10   5   7  ar  
 11   5  31  1   
 12   6   8  ar  
 13   6   9  ar  
 14   7   8  ar  
 15   7  32  1   
 16   8  10  ar  
 17   9  11  ar  
 18   9  12  1   
 19  10  13  ar  
 20  10  33  1   
 21  11  13  ar  
 22  11  34  1   
 23  12  35  1   
 24  12  36  1   
 25  12  37  1   
 26  13  14  1   
 27  14  15  1   
 28  14  16  1   
 29  15  17  1   
 30  15  38  1   
 31  15  39  1   
 32  16  18  1   
 33  16  40  1   
 34  16  41  1   
 35  17  19  1   
 36  17  20  1   
 37  17  42  1   
 38  18  20  1   
 39  18  43  1   
 40  18  44  1   
 41  19  21  1   
 42  19  22  1   
 43  19  45  1   
 44  20  23  1   
 45  20  24  1   
 46  21  25  1   
 47  21  46  1   
 48  21  47  1   
 49  22  48  1   
 50  22  49  1   
 51  22  50  1   
 52  23  25  1   
 53  23  51  1   
 54  23  52  1   
 55  24  26  1   
 56  24  53  1   
 57  24  54  1   
 58  25  55  1   
 59  25  56  1   
 60  26  57  1   
@<TRIPOS>SUBSTRUCTURE
  1 ****  13 GROUP 4 **** **** 0

# MOE 2024.06 (io_trps.svl 2023.06)
