@<TRIPOS>MOLECULE
NONAME
49 52 1 0 0 
SMALL
USER_CHARGES


@<TRIPOS>ATOM
  1 O       -0.5750     0.2470    -0.0510 O.2   1 <1>  -0.5700 
  2 C       -1.6580     0.7660     0.0840 C.2   1 <1>   0.5690 
  3 N       -2.8030     0.0130     0.0750 N.am  1 <1>  -0.6600 
  4 C       -1.7320     2.2890     0.2530 C.3   1 <1>  -0.0190 
  5 C       -4.2000     0.4980     0.1960 C.3   1 <1>   0.1400 
  6 C       -2.7770    -1.4580    -0.1100 C.3   1 <1>   0.1400 
  7 C       -1.8430     2.9970    -1.1070 C.3   1 <1>  -0.1600 
  8 C       -0.5290     2.8710     1.0180 C.3   1 <1>  -0.1600 
  9 C       -5.0720    -0.7420     0.0000 C.3   1 <1>   0.2000 
 10 C       -4.1700    -1.9360     0.3040 C.3   1 <1>  -0.0800 
 11 C       -1.8430     4.5200    -0.9300 C.3   1 <1>   0.1200 
 12 C       -0.6080     4.4000     1.0730 C.3   1 <1>   0.1200 
 13 O       -6.1610    -0.7380     0.8590 O.3   1 <1>  -0.6800 
 14 C       -4.6250    -3.2210    -0.4070 C.3   1 <1>  -0.0170 
 15 O       -0.7070     4.9080    -0.2220 O.3   1 <1>  -0.5600 
 16 C       -3.6980    -4.3830    -0.0950 C.ar  1 <1>   0.1670 
 17 N       -2.6620    -4.5420    -0.8590 N.ar  1 <1>  -0.6200 
 18 C       -3.9940    -5.2160     0.9970 C.ar  1 <1>  -0.1500 
 19 C       -1.8180    -5.5670    -0.5780 C.ar  1 <1>   0.3100 
 20 C       -3.1670    -6.2550     1.3000 C.ar  1 <1>  -0.1500 
 21 C       -2.0310    -6.4560     0.4990 C.ar  1 <1>   0.0000 
 22 C       -0.6830    -5.7540    -1.3830 C.ar  1 <1>  -0.1500 
 23 C       -1.1060    -7.4950     0.7230 C.ar  1 <1>  -0.1500 
 24 C        0.2050    -6.7700    -1.1480 C.ar  1 <1>  -0.1500 
 25 C       -0.0100    -7.6500    -0.0820 C.ar  1 <1>  -0.1500 
 26 H       -2.6080     2.5240     0.8280 H     1 <1>   0.0800 
 27 H       -4.3470     0.9180     1.1750 H     1 <1>   0.0800 
 28 H       -4.4120     1.2310    -0.5630 H     1 <1>   0.0800 
 29 H       -2.5860    -1.6780    -1.1470 H     1 <1>   0.0800 
 30 H       -2.0060    -1.9120     0.4910 H     1 <1>   0.0800 
 31 H       -2.7420     2.6940    -1.6120 H     1 <1>   0.0800 
 32 H       -1.0080     2.7210    -1.7290 H     1 <1>   0.0800 
 33 H        0.3900     2.5940     0.5300 H     1 <1>   0.0800 
 34 H       -0.5020     2.4720     2.0160 H     1 <1>   0.0800 
 35 H       -5.4370    -0.7740    -1.0130 H     1 <1>   0.0800 
 36 H       -4.1410    -2.1060     1.3660 H     1 <1>   0.0800 
 37 H       -2.7130     4.8540    -0.3910 H     1 <1>   0.0800 
 38 H       -1.8140     5.0110    -1.8880 H     1 <1>   0.0800 
 39 H        0.2840     4.8070     1.5170 H     1 <1>   0.0800 
 40 H       -1.4630     4.7310     1.6380 H     1 <1>   0.0800 
 41 H       -5.8610    -0.7730     1.7880 H     1 <1>   0.4000 
 42 H       -4.6420    -3.0650    -1.4710 H     1 <1>   0.0800 
 43 H       -5.6260    -3.4670    -0.1010 H     1 <1>   0.0800 
 44 H       -4.8730    -5.0220     1.5830 H     1 <1>   0.1500 
 45 H       -3.3610    -6.9140     2.1270 H     1 <1>   0.1500 
 46 H       -0.5360    -5.0660    -2.1950 H     1 <1>   0.1500 
 47 H       -1.2760    -8.1670     1.5450 H     1 <1>   0.1500 
 48 H        1.0710    -6.9010    -1.7740 H     1 <1>   0.1500 
 49 H        0.6960    -8.4430     0.0910 H     1 <1>   0.1500 
@<TRIPOS>BOND
  1   1   2  2   
  2   2   3  am  
  3   2   4  1   
  4   3   5  1   
  5   3   6  1   
  6   4   7  1   
  7   4   8  1   
  8   4  26  1   
  9   5   9  1   
 10   5  27  1   
 11   5  28  1   
 12   6  10  1   
 13   6  29  1   
 14   6  30  1   
 15   7  11  1   
 16   7  31  1   
 17   7  32  1   
 18   8  12  1   
 19   8  33  1   
 20   8  34  1   
 21   9  10  1   
 22   9  13  1   
 23   9  35  1   
 24  10  14  1   
 25  10  36  1   
 26  11  15  1   
 27  11  37  1   
 28  11  38  1   
 29  12  15  1   
 30  12  39  1   
 31  12  40  1   
 32  13  41  1   
 33  14  16  1   
 34  14  42  1   
 35  14  43  1   
 36  16  17  ar  
 37  16  18  ar  
 38  17  19  ar  
 39  18  20  ar  
 40  18  44  1   
 41  19  21  ar  
 42  19  22  ar  
 43  20  21  ar  
 44  20  45  1   
 45  21  23  ar  
 46  22  24  ar  
 47  22  46  1   
 48  23  25  ar  
 49  23  47  1   
 50  24  25  ar  
 51  24  48  1   
 52  25  49  1   
@<TRIPOS>SUBSTRUCTURE
  1 ****   6 GROUP 4 **** **** 0

# MOE 2024.06 (io_trps.svl 2023.06)
