@<TRIPOS>MOLECULE
NONAME
43 45 1 0 0 
SMALL
USER_CHARGES


@<TRIPOS>ATOM
  1 F       -0.1040    -1.0230    -1.3620 F     1 <1>  -0.1900 
  2 C       -0.3310    -2.2390    -0.9400 C.ar  1 <1>   0.1900 
  3 C       -0.7150    -2.4270     0.3750 C.ar  1 <1>  -0.1500 
  4 C       -0.1770    -3.2910    -1.8230 C.ar  1 <1>  -0.1500 
  5 C       -0.9560    -3.7160     0.8220 C.ar  1 <1>  -0.1500 
  6 C       -0.4200    -4.5760    -1.3680 C.ar  1 <1>  -0.1500 
  7 C       -0.8110    -4.7950    -0.0530 C.ar  1 <1>   0.0830 
  8 O       -1.0340    -6.0850     0.3020 O.3   1 <1>  -0.3630 
  9 C       -1.4980    -6.4240     1.6020 C.3   1 <1>   0.1810 
 10 C       -1.7490    -7.9230     1.7370 C.2   1 <1>   0.5690 
 11 O       -1.2190    -8.5050     2.6550 O.2   1 <1>  -0.5700 
 12 N       -2.5770    -8.5880     0.8700 N.am  1 <1>  -0.6600 
 13 C       -3.2410    -8.0160    -0.3300 C.3   1 <1>   0.1400 
 14 C       -2.7930   -10.0540     0.9320 C.3   1 <1>   0.1400 
 15 C       -4.2200    -9.1010    -0.7730 C.3   1 <1>   0.2000 
 16 C       -3.5200   -10.4050    -0.3730 C.3   1 <1>  -0.0800 
 17 O       -5.3870    -8.9550    -0.0380 O.3   1 <1>  -0.6800 
 18 C       -4.4450   -11.6320    -0.2630 C.3   1 <1>   0.0200 
 19 C       -3.6900   -12.9260    -0.0050 C.2   1 <1>  -0.0400 
 20 O       -4.3740   -14.0100     0.2450 O.3   1 <1>  -0.0190 
 21 C       -2.3860   -13.2500     0.0280 C.2   1 <1>  -0.1500 
 22 N       -3.6020   -15.0390     0.4460 N.2   1 <1>  -0.4100 
 23 C       -2.3980   -14.6100     0.3220 C.2   1 <1>   0.1080 
 24 C       -1.1670   -15.4750     0.4780 C.3   1 <1>  -0.0590 
 25 H       -0.8200    -1.5800     1.0290 H     1 <1>   0.1500 
 26 H        0.1260    -3.1050    -2.8380 H     1 <1>   0.1500 
 27 H       -1.2500    -3.8550     1.8450 H     1 <1>   0.1500 
 28 H       -0.3070    -5.4150    -2.0290 H     1 <1>   0.1500 
 29 H       -0.7490    -6.1240     2.3120 H     1 <1>   0.0800 
 30 H       -2.4130    -5.8940     1.7880 H     1 <1>   0.0800 
 31 H       -3.7420    -7.0880    -0.1130 H     1 <1>   0.0800 
 32 H       -2.5010    -7.8560    -1.0950 H     1 <1>   0.0800 
 33 H       -1.8530   -10.5710     1.0200 H     1 <1>   0.0800 
 34 H       -3.4030   -10.2820     1.7900 H     1 <1>   0.0800 
 35 H       -4.4660    -9.0480    -1.8200 H     1 <1>   0.0800 
 36 H       -2.7720   -10.6090    -1.1190 H     1 <1>   0.0800 
 37 H       -5.1570    -8.8720     0.9090 H     1 <1>   0.4000 
 38 H       -5.0030   -11.7420    -1.1750 H     1 <1>   0.0800 
 39 H       -5.1530   -11.4890     0.5350 H     1 <1>   0.0800 
 40 H       -1.5110   -12.6480    -0.1290 H     1 <1>   0.1500 
 41 H       -0.5540   -15.0970     1.2750 H     1 <1>   0.0800 
 42 H       -0.6030   -15.4740    -0.4360 H     1 <1>   0.0800 
 43 H       -1.4550   -16.4840     0.7090 H     1 <1>   0.0800 
@<TRIPOS>BOND
  1   1   2  1   
  2   2   3  ar  
  3   2   4  ar  
  4   3   5  ar  
  5   3  25  1   
  6   4   6  ar  
  7   4  26  1   
  8   5   7  ar  
  9   5  27  1   
 10   6   7  ar  
 11   6  28  1   
 12   7   8  1   
 13   8   9  1   
 14   9  10  1   
 15   9  29  1   
 16   9  30  1   
 17  10  11  2   
 18  10  12  am  
 19  12  13  1   
 20  12  14  1   
 21  13  15  1   
 22  13  31  1   
 23  13  32  1   
 24  14  16  1   
 25  14  33  1   
 26  14  34  1   
 27  15  16  1   
 28  15  17  1   
 29  15  35  1   
 30  16  18  1   
 31  16  36  1   
 32  17  37  1   
 33  18  19  1   
 34  18  38  1   
 35  18  39  1   
 36  19  20  1   
 37  19  21  2   
 38  20  22  1   
 39  21  23  1   
 40  21  40  1   
 41  22  23  2   
 42  23  24  1   
 43  24  41  1   
 44  24  42  1   
 45  24  43  1   
@<TRIPOS>SUBSTRUCTURE
  1 ****  12 GROUP 4 **** **** 0

# MOE 2024.06 (io_trps.svl 2023.06)
