@<TRIPOS>MOLECULE
NONAME
55 58 1 0 0 
SMALL
USER_CHARGES


@<TRIPOS>ATOM
  1 O       -1.5380     0.8910     2.8920 O.2   1 <1>  -0.5700 
  2 C       -2.1590     1.1860     1.8960 C.2   1 <1>   0.5690 
  3 N       -3.3680     0.5810     1.6170 N.am  1 <1>  -0.6600 
  4 C       -1.4980     2.2490     1.0030 C.3   1 <1>  -0.0190 
  5 C       -3.8920    -0.5070     2.4950 C.3   1 <1>   0.1400 
  6 C       -4.2790     0.8510     0.4710 C.3   1 <1>   0.1400 
  7 C       -2.2480     3.6000     0.9850 C.3   1 <1>  -0.1600 
  8 C       -1.1320     1.7450    -0.4120 C.3   1 <1>  -0.1600 
  9 C       -4.0070    -1.8010     1.6830 C.3   1 <1>  -0.1600 
 10 C       -4.3920    -0.4080    -0.3920 C.3   1 <1>  -0.1600 
 11 C       -1.4980     4.6510     0.1510 C.3   1 <1>  -0.1600 
 12 C       -0.3930     2.8230    -1.2200 C.3   1 <1>  -0.1600 
 13 C       -4.8770    -1.6220     0.4260 C.3   1 <1>   0.4240 
 14 C       -1.1980     4.1250    -1.2550 C.3   1 <1>   0.2000 
 15 O       -6.1450    -1.2780     0.9430 O.3   1 <1>  -0.5600 
 16 C       -4.9340    -2.9280    -0.4200 C.ar  1 <1>  -0.1440 
 17 O       -0.4580     5.0730    -1.9230 O.3   1 <1>  -0.6800 
 18 C       -7.2570    -1.4850     0.1360 C.3   1 <1>   0.1200 
 19 C       -3.7880    -3.4970    -0.9930 C.ar  1 <1>   0.0820 
 20 C       -6.1560    -3.5670    -0.6260 C.ar  1 <1>  -0.1440 
 21 C       -7.4310    -2.9840    -0.0530 C.3   1 <1>  -0.0170 
 22 O       -2.5890    -2.8800    -0.8230 O.3   1 <1>  -0.3620 
 23 C       -3.8840    -4.6750    -1.7320 C.ar  1 <1>  -0.1500 
 24 C       -6.2380    -4.7400    -1.3590 C.ar  1 <1>  -0.1500 
 25 C       -1.3640    -3.4840    -1.1740 C.3   1 <1>   0.0400 
 26 C       -5.1030    -5.2950    -1.9120 C.ar  1 <1>  -0.1500 
 27 H       -0.5540     2.4590     1.4770 H     1 <1>   0.0800 
 28 H       -4.8580    -0.2210     2.8740 H     1 <1>   0.0800 
 29 H       -3.2450    -0.6730     3.3390 H     1 <1>   0.0800 
 30 H       -3.9340     1.6640    -0.1330 H     1 <1>   0.0800 
 31 H       -5.2490     1.1200     0.8530 H     1 <1>   0.0800 
 32 H       -2.3500     3.9570     1.9960 H     1 <1>   0.0800 
 33 H       -3.2370     3.4870     0.5870 H     1 <1>   0.0800 
 34 H       -2.0080     1.4540    -0.9570 H     1 <1>   0.0800 
 35 H       -0.5060     0.8730    -0.3240 H     1 <1>   0.0800 
 36 H       -4.4300    -2.5770     2.2930 H     1 <1>   0.0800 
 37 H       -3.0130    -2.1060     1.4250 H     1 <1>   0.0800 
 38 H       -3.4250    -0.6040    -0.8080 H     1 <1>   0.0800 
 39 H       -5.0550    -0.2340    -1.2160 H     1 <1>   0.0800 
 40 H       -0.5760     4.8950     0.6490 H     1 <1>   0.0800 
 41 H       -2.0960     5.5420     0.0800 H     1 <1>   0.0800 
 42 H       -0.2380     2.4710    -2.2240 H     1 <1>   0.0800 
 43 H        0.5660     3.0020    -0.7660 H     1 <1>   0.0800 
 44 H       -2.1150     3.9810    -1.8030 H     1 <1>   0.0800 
 45 H        0.3820     5.2290    -1.4540 H     1 <1>   0.4000 
 46 H       -7.1150    -0.9870    -0.8070 H     1 <1>   0.0800 
 47 H       -8.1120    -1.0650     0.6360 H     1 <1>   0.0800 
 48 H       -8.2570    -3.1620    -0.7170 H     1 <1>   0.0800 
 49 H       -7.6490    -3.4430     0.8940 H     1 <1>   0.0800 
 50 H       -3.0220    -5.1260    -2.1810 H     1 <1>   0.1500 
 51 H       -7.1880    -5.2260    -1.5030 H     1 <1>   0.1500 
 52 H       -0.5690    -2.8400    -0.8440 H     1 <1>   0.0800 
 53 H       -1.3230    -3.5970    -2.2420 H     1 <1>   0.0800 
 54 H       -1.2900    -4.4370    -0.6790 H     1 <1>   0.0800 
 55 H       -5.1700    -6.2050    -2.4810 H     1 <1>   0.1500 
@<TRIPOS>BOND
  1   1   2  2   
  2   2   3  am  
  3   2   4  1   
  4   3   5  1   
  5   3   6  1   
  6   4   7  1   
  7   4   8  1   
  8   4  27  1   
  9   5   9  1   
 10   5  28  1   
 11   5  29  1   
 12   6  10  1   
 13   6  30  1   
 14   6  31  1   
 15   7  11  1   
 16   7  32  1   
 17   7  33  1   
 18   8  12  1   
 19   8  34  1   
 20   8  35  1   
 21   9  13  1   
 22   9  36  1   
 23   9  37  1   
 24  10  13  1   
 25  10  38  1   
 26  10  39  1   
 27  11  14  1   
 28  11  40  1   
 29  11  41  1   
 30  12  14  1   
 31  12  42  1   
 32  12  43  1   
 33  13  15  1   
 34  13  16  1   
 35  14  17  1   
 36  14  44  1   
 37  15  18  1   
 38  16  19  ar  
 39  16  20  ar  
 40  17  45  1   
 41  18  21  1   
 42  18  46  1   
 43  18  47  1   
 44  19  22  1   
 45  19  23  ar  
 46  20  21  1   
 47  20  24  ar  
 48  21  48  1   
 49  21  49  1   
 50  22  25  1   
 51  23  26  ar  
 52  23  50  1   
 53  24  26  ar  
 54  24  51  1   
 55  25  52  1   
 56  25  53  1   
 57  25  54  1   
 58  26  55  1   
@<TRIPOS>SUBSTRUCTURE
  1 ****  10 GROUP 4 **** **** 0

# MOE 2024.06 (io_trps.svl 2023.06)
