@<TRIPOS>MOLECULE
NONAME
35 36 1 0 0 
SMALL
USER_CHARGES


@<TRIPOS>ATOM
  1 O       -1.1430    -0.4630    -1.2220 O.2   1 <1>  -0.5700 
  2 C       -1.9780    -1.1380    -0.6660 C.2   1 <1>   0.5690 
  3 N       -1.8450    -2.4950    -0.5100 N.am  1 <1>  -0.6600 
  4 C       -3.2410    -0.4420    -0.1440 C.3   1 <1>   0.1810 
  5 C       -2.8690    -3.2860     0.2330 C.3   1 <1>   0.1400 
  6 C       -0.6460    -3.2450    -0.9700 C.3   1 <1>   0.0600 
  7 O       -3.9670    -1.2080     0.7940 O.3   1 <1>  -0.5600 
  8 C       -4.2050    -2.5270     0.3870 C.3   1 <1>   0.2000 
  9 C       -5.1240    -3.1850     1.4260 C.3   1 <1>   0.2090 
 10 N       -5.3570    -4.6200     1.1100 N.pl3 1 <1>  -0.8690 
 11 C       -6.5590    -5.0740     0.6570 C.ar  1 <1>   0.4100 
 12 N       -6.9480    -6.1920     1.2360 N.ar  1 <1>  -0.6200 
 13 C       -7.2970    -4.4180    -0.3250 C.ar  1 <1>  -0.1500 
 14 C       -8.1120    -6.6710     0.8300 C.ar  1 <1>   0.1600 
 15 C       -8.5050    -4.9330    -0.7300 C.ar  1 <1>  -0.1500 
 16 C       -8.9470    -6.1090    -0.1370 C.ar  1 <1>   0.0280 
 17 C      -10.2030    -6.7350    -0.4910 C.2   1 <1>  -0.1780 
 18 C      -11.1200    -6.3200    -1.3810 C.2   1 <1>  -0.3000 
 19 H       -3.8890    -0.2210    -0.9720 H     1 <1>   0.0800 
 20 H       -2.9640     0.4800     0.3330 H     1 <1>   0.0800 
 21 H       -2.4830    -3.5270     1.2070 H     1 <1>   0.0800 
 22 H       -3.0550    -4.2100    -0.2870 H     1 <1>   0.0800 
 23 H        0.0420    -2.5890    -1.4760 H     1 <1>   0.0800 
 24 H       -0.9430    -4.0230    -1.6520 H     1 <1>   0.0800 
 25 H       -0.1450    -3.6840    -0.1250 H     1 <1>   0.0800 
 26 H       -4.7160    -2.4960    -0.5590 H     1 <1>   0.0800 
 27 H       -6.0640    -2.6600     1.4550 H     1 <1>   0.0800 
 28 H       -4.6670    -3.1130     2.3980 H     1 <1>   0.0800 
 29 H       -5.0270    -5.2540     1.8460 H     1 <1>   0.4000 
 30 H       -6.9150    -3.5170    -0.7610 H     1 <1>   0.1500 
 31 H       -8.4350    -7.5840     1.2980 H     1 <1>   0.1500 
 32 H       -9.0860    -4.4380    -1.4860 H     1 <1>   0.1500 
 33 H      -10.3950    -7.6480     0.0470 H     1 <1>   0.1500 
 34 H      -12.0340    -6.8530    -1.5820 H     1 <1>   0.1500 
 35 H      -11.0420    -5.4280    -1.9760 H     1 <1>   0.1500 
@<TRIPOS>BOND
  1   1   2  2   
  2   2   3  am  
  3   2   4  1   
  4   3   5  1   
  5   3   6  1   
  6   4   7  1   
  7   4  19  1   
  8   4  20  1   
  9   5   8  1   
 10   5  21  1   
 11   5  22  1   
 12   6  23  1   
 13   6  24  1   
 14   6  25  1   
 15   7   8  1   
 16   8   9  1   
 17   8  26  1   
 18   9  10  1   
 19   9  27  1   
 20   9  28  1   
 21  10  11  1   
 22  10  29  1   
 23  11  12  ar  
 24  11  13  ar  
 25  12  14  ar  
 26  13  15  ar  
 27  13  30  1   
 28  14  16  ar  
 29  14  31  1   
 30  15  16  ar  
 31  15  32  1   
 32  16  17  1   
 33  17  18  2   
 34  17  33  1   
 35  18  34  1   
 36  18  35  1   
@<TRIPOS>SUBSTRUCTURE
  1 ****  10 GROUP 4 **** **** 0

# MOE 2024.06 (io_trps.svl 2023.06)
