@<TRIPOS>MOLECULE
NONAME
48 49 1 0 0 
SMALL
USER_CHARGES


@<TRIPOS>ATOM
  1 S       -0.4540     0.4230     1.5990 S.o2  1 <1>   1.4470 
  2 O       -1.0990     1.5240     2.2730 O.2   1 <1>  -0.6500 
  3 O       -0.3410    -0.8390     2.2940 O.2   1 <1>  -0.6500 
  4 N       -1.4430     0.1620     0.2620 N.am  1 <1>  -0.9140 
  5 C        1.1580     0.9330     0.9160 C.ar  1 <1>  -0.0090 
  6 C       -1.4780    -1.1440    -0.4040 C.3   1 <1>   0.2760 
  7 C        1.3310     2.0390     0.0760 C.ar  1 <1>  -0.1430 
  8 C        2.2860     0.1840     1.2360 C.ar  1 <1>  -0.1500 
  9 C       -2.2230    -2.2230     0.3870 C.3   1 <1>  -0.0800 
 10 C       -0.1290    -1.7850    -0.7500 C.3   1 <1>   0.1200 
 11 C        2.5890     2.3480    -0.4220 C.ar  1 <1>  -0.1500 
 12 C        0.1680     2.9430    -0.3190 C.3   1 <1>  -0.0970 
 13 C        3.5370     0.4970     0.7390 C.ar  1 <1>  -0.1500 
 14 C       -1.1860    -3.3470     0.4840 C.3   1 <1>   0.1200 
 15 C       -3.4870    -2.6820    -0.3670 C.3   1 <1>  -0.0550 
 16 O       -0.3450    -3.1510    -0.6040 O.3   1 <1>  -0.5600 
 17 C        3.6940     1.5830    -0.1000 C.ar  1 <1>  -0.1430 
 18 S       -4.5960    -3.6800     0.6260 S.o2  1 <1>   1.3330 
 19 C        5.0620     1.9380    -0.6540 C.3   1 <1>  -0.0960 
 20 O       -5.1090    -2.8300     1.6760 O.2   1 <1>  -0.6500 
 21 O       -3.9690    -4.9390     0.9590 O.2   1 <1>  -0.6500 
 22 N       -5.8620    -4.0030    -0.4580 N.am  1 <1>  -0.8490 
 23 C       -7.1440    -4.1940     0.2280 C.3   1 <1>   0.1160 
 24 C       -5.5950    -5.1460    -1.3390 C.3   1 <1>   0.1160 
 25 H       -2.3730     0.3730     0.6200 H     1 <1>   0.4200 
 26 H       -1.9850    -0.9950    -1.3430 H     1 <1>   0.0800 
 27 H        2.1900    -0.6670     1.8890 H     1 <1>   0.1500 
 28 H       -2.4960    -1.8910     1.3740 H     1 <1>   0.0800 
 29 H        0.6550    -1.5150    -0.0710 H     1 <1>   0.0800 
 30 H        0.1690    -1.5870    -1.7640 H     1 <1>   0.0800 
 31 H        2.7150     3.1990    -1.0690 H     1 <1>   0.1500 
 32 H        0.5120     3.7890    -0.8860 H     1 <1>   0.0800 
 33 H       -0.3310     3.3190     0.5560 H     1 <1>   0.0800 
 34 H       -0.5380     2.4030    -0.9230 H     1 <1>   0.0800 
 35 H        4.3860    -0.1080     1.0080 H     1 <1>   0.1500 
 36 H       -1.6040    -4.3370     0.4300 H     1 <1>   0.0800 
 37 H       -0.5980    -3.2540     1.3820 H     1 <1>   0.0800 
 38 H       -3.1970    -3.2270    -1.2440 H     1 <1>   0.0800 
 39 H       -4.0320    -1.8150    -0.6870 H     1 <1>   0.0800 
 40 H        5.6880     1.0650    -0.7050 H     1 <1>   0.0800 
 41 H        5.5330     2.6670    -0.0190 H     1 <1>   0.0800 
 42 H        4.9710     2.3470    -1.6440 H     1 <1>   0.0800 
 43 H       -7.9260    -4.3820    -0.4870 H     1 <1>   0.0800 
 44 H       -7.4020    -3.3080     0.7830 H     1 <1>   0.0800 
 45 H       -7.0820    -5.0250     0.9120 H     1 <1>   0.0800 
 46 H       -6.3850    -5.2460    -2.0640 H     1 <1>   0.0800 
 47 H       -5.5290    -6.0570    -0.7650 H     1 <1>   0.0800 
 48 H       -4.6680    -5.0030    -1.8650 H     1 <1>   0.0800 
@<TRIPOS>BOND
  1   1   2  2   
  2   1   3  2   
  3   1   4  am  
  4   1   5  1   
  5   4   6  1   
  6   4  25  1   
  7   5   7  ar  
  8   5   8  ar  
  9   6   9  1   
 10   6  10  1   
 11   6  26  1   
 12   7  11  ar  
 13   7  12  1   
 14   8  13  ar  
 15   8  27  1   
 16   9  14  1   
 17   9  15  1   
 18   9  28  1   
 19  10  16  1   
 20  10  29  1   
 21  10  30  1   
 22  11  17  ar  
 23  11  31  1   
 24  12  32  1   
 25  12  33  1   
 26  12  34  1   
 27  13  17  ar  
 28  13  35  1   
 29  14  16  1   
 30  14  36  1   
 31  14  37  1   
 32  15  18  1   
 33  15  38  1   
 34  15  39  1   
 35  17  19  1   
 36  18  20  2   
 37  18  21  2   
 38  18  22  am  
 39  19  40  1   
 40  19  41  1   
 41  19  42  1   
 42  22  23  1   
 43  22  24  1   
 44  23  43  1   
 45  23  44  1   
 46  23  45  1   
 47  24  46  1   
 48  24  47  1   
 49  24  48  1   
@<TRIPOS>SUBSTRUCTURE
  1 ****   6 GROUP 4 **** **** 0

# MOE 2024.06 (io_trps.svl 2023.06)
