@<TRIPOS>MOLECULE
NONAME
53 56 1 0 0 
SMALL
USER_CHARGES


@<TRIPOS>ATOM
  1 O        1.1910    -1.0450     2.5320 O.2   1 <1>  -0.5700 
  2 C        1.8250    -1.4200     1.5650 C.2   1 <1>   0.5440 
  3 N        2.5840    -0.5080     0.8580 N.am  1 <1>  -0.6600 
  4 C        1.7550    -2.8170     1.1840 C.ar  1 <1>   0.0860 
  5 C        3.0840    -0.7390    -0.5270 C.3   1 <1>   0.1400 
  6 C        2.8070     0.8770     1.3620 C.3   1 <1>   0.1400 
  7 C        0.5540    -3.4560     0.9500 C.ar  1 <1>  -0.1500 
  8 C        2.8830    -3.6140     1.0370 C.ar  1 <1>  -0.1500 
  9 C        2.4280     0.2590    -1.4880 C.3   1 <1>  -0.1600 
 10 C        2.1440     1.8850     0.4180 C.3   1 <1>  -0.1600 
 11 C        0.5140    -4.7890     0.5690 C.ar  1 <1>   0.4100 
 12 C        2.7510    -4.9340     0.6590 C.ar  1 <1>   0.1600 
 13 C        2.6300     1.7090    -1.0280 C.3   1 <1>  -0.1600 
 14 N        1.6010    -5.5350     0.4140 N.ar  1 <1>  -0.6200 
 15 N       -0.7050    -5.3890     0.3240 N.pl3 1 <1>  -0.8380 
 16 C       -0.8600    -6.8330     0.6390 C.3   1 <1>   0.2090 
 17 C       -1.4540    -4.9500    -0.8760 C.3   1 <1>   0.2090 
 18 C       -2.3380    -7.1270     0.8920 C.3   1 <1>  -0.1600 
 19 C       -2.9430    -5.2030    -0.6470 C.3   1 <1>  -0.1600 
 20 C       -3.2070    -6.6780    -0.2960 C.3   1 <1>   0.0630 
 21 C       -4.6890    -6.9280    -0.0350 C.ar  1 <1>   0.1670 
 22 N       -5.3160    -7.7400    -0.8550 N.ar  1 <1>  -0.6200 
 23 C       -5.3460    -6.3270     1.0180 C.ar  1 <1>  -0.1500 
 24 C       -6.6000    -7.9240    -0.6040 C.ar  1 <1>   0.7200 
 25 C       -6.6810    -6.6090     1.1810 C.ar  1 <1>   0.1600 
 26 N       -7.3270    -7.4160     0.3740 N.ar  1 <1>  -0.6200 
 27 N       -7.2390    -8.7510    -1.4310 N.pl3 1 <1>  -0.9000 
 28 H        2.8630    -1.7380    -0.8580 H     1 <1>   0.0800 
 29 H        4.1520    -0.6090    -0.5380 H     1 <1>   0.0800 
 30 H        3.8660     1.0640     1.4110 H     1 <1>   0.0800 
 31 H        2.4060     0.9930     2.3540 H     1 <1>   0.0800 
 32 H       -0.3670    -2.9200     1.0710 H     1 <1>   0.1500 
 33 H        3.8550    -3.1960     1.2230 H     1 <1>   0.1500 
 34 H        1.3760     0.0420    -1.5460 H     1 <1>   0.0800 
 35 H        2.8440     0.1310    -2.4710 H     1 <1>   0.0800 
 36 H        2.3600     2.8830     0.7550 H     1 <1>   0.0800 
 37 H        1.0770     1.7480     0.4640 H     1 <1>   0.0800 
 38 H        3.6390    -5.5330     0.5510 H     1 <1>   0.1500 
 39 H        2.0890     2.3760    -1.6770 H     1 <1>   0.0800 
 40 H        3.6750     1.9620    -1.0860 H     1 <1>   0.0800 
 41 H       -0.2830    -7.0790     1.5140 H     1 <1>   0.0800 
 42 H       -0.4930    -7.4200    -0.1860 H     1 <1>   0.0800 
 43 H       -1.1080    -5.5050    -1.7330 H     1 <1>   0.0800 
 44 H       -1.2830    -3.9030    -1.0590 H     1 <1>   0.0800 
 45 H       -2.6330    -6.6140     1.7890 H     1 <1>   0.0800 
 46 H       -2.4680    -8.1820     1.0540 H     1 <1>   0.0800 
 47 H       -3.4900    -4.9430    -1.5350 H     1 <1>   0.0800 
 48 H       -3.2780    -4.5620     0.1490 H     1 <1>   0.0800 
 49 H       -2.9170    -7.2690    -1.1490 H     1 <1>   0.0800 
 50 H       -4.8400    -5.6610     1.6900 H     1 <1>   0.1500 
 51 H       -7.2300    -6.1620     1.9920 H     1 <1>   0.1500 
 52 H       -8.1080    -9.1310    -1.0710 H     1 <1>   0.4000 
 53 H       -6.6440    -9.3790    -1.9620 H     1 <1>   0.4000 
@<TRIPOS>BOND
  1   1   2  2   
  2   2   3  am  
  3   2   4  1   
  4   3   5  1   
  5   3   6  1   
  6   4   7  ar  
  7   4   8  ar  
  8   5   9  1   
  9   5  28  1   
 10   5  29  1   
 11   6  10  1   
 12   6  30  1   
 13   6  31  1   
 14   7  11  ar  
 15   7  32  1   
 16   8  12  ar  
 17   8  33  1   
 18   9  13  1   
 19   9  34  1   
 20   9  35  1   
 21  10  13  1   
 22  10  36  1   
 23  10  37  1   
 24  11  14  ar  
 25  11  15  1   
 26  12  14  ar  
 27  12  38  1   
 28  13  39  1   
 29  13  40  1   
 30  15  16  1   
 31  15  17  1   
 32  16  18  1   
 33  16  41  1   
 34  16  42  1   
 35  17  19  1   
 36  17  43  1   
 37  17  44  1   
 38  18  20  1   
 39  18  45  1   
 40  18  46  1   
 41  19  20  1   
 42  19  47  1   
 43  19  48  1   
 44  20  21  1   
 45  20  49  1   
 46  21  22  ar  
 47  21  23  ar  
 48  22  24  ar  
 49  23  25  ar  
 50  23  50  1   
 51  24  26  ar  
 52  24  27  1   
 53  25  26  ar  
 54  25  51  1   
 55  27  52  1   
 56  27  53  1   
@<TRIPOS>SUBSTRUCTURE
  1 ****  15 GROUP 4 **** **** 0

# MOE 2024.06 (io_trps.svl 2023.06)
