@<TRIPOS>MOLECULE
NONAME
43 45 1 0 0 
SMALL
USER_CHARGES


@<TRIPOS>ATOM
  1 F        2.0270     2.5360    -1.9730 F     1 <1>  -0.1900 
  2 C        0.7980     2.6040    -1.5380 C.ar  1 <1>   0.1900 
  3 C        0.1680     3.8290    -1.5220 C.ar  1 <1>  -0.1500 
  4 C        0.1760     1.4510    -1.1050 C.ar  1 <1>  -0.1500 
  5 C       -1.1300     3.9350    -1.0310 C.ar  1 <1>   0.0860 
  6 C       -1.1260     1.5400    -0.6430 C.ar  1 <1>  -0.1500 
  7 C       -1.7790     2.7660    -0.6080 C.ar  1 <1>  -0.1440 
  8 C       -1.7370     5.2480    -0.9600 C.2   1 <1>   0.5440 
  9 C       -3.2160     2.8300    -0.1080 C.3   1 <1>  -0.0960 
 10 O       -2.2920     5.6980    -1.9440 O.2   1 <1>  -0.5700 
 11 N       -1.6630     6.0170     0.1860 N.am  1 <1>  -0.6600 
 12 C       -1.1450     5.4850     1.4940 C.3   1 <1>   0.1400 
 13 C       -1.9520     7.4770     0.1260 C.3   1 <1>   0.1400 
 14 C       -0.0840     6.3800     2.1580 C.3   1 <1>   0.1400 
 15 C       -0.7060     8.2450    -0.3450 C.3   1 <1>  -0.1600 
 16 N        0.8460     6.9690     1.1490 N.am  1 <1>  -0.6600 
 17 C        0.4310     8.3220     0.6840 C.3   1 <1>   0.1400 
 18 C        1.8060     6.1650     0.5400 C.2   1 <1>   0.6300 
 19 O        2.0050     5.0700     1.0530 O.2   1 <1>  -0.5700 
 20 C        2.5680     6.4970    -0.6670 C.2   1 <1>   0.5100 
 21 N        2.5990     7.5980    -1.3640 N.2   1 <1>  -0.5120 
 22 N        3.4070     5.5520    -1.2490 N.am  1 <1>  -0.4900 
 23 N        3.4630     7.3480    -2.3960 N.am  1 <1>  -0.3680 
 24 C        3.9550     6.1010    -2.3270 C.2   1 <1>   0.6900 
 25 O        4.7430     5.5740    -3.0960 O.2   1 <1>  -0.5700 
 26 H        0.6740     4.7020    -1.8860 H     1 <1>   0.1500 
 27 H        0.6980     0.5110    -1.1330 H     1 <1>   0.1500 
 28 H       -1.6270     0.6460    -0.3120 H     1 <1>   0.1500 
 29 H       -3.8390     3.3110    -0.8430 H     1 <1>   0.0800 
 30 H       -3.2680     3.3910     0.8070 H     1 <1>   0.0800 
 31 H       -3.6100     1.8460     0.0720 H     1 <1>   0.0800 
 32 H       -0.7060     4.5140     1.3540 H     1 <1>   0.0800 
 33 H       -1.9720     5.3620     2.1710 H     1 <1>   0.0800 
 34 H       -2.2780     7.8320     1.0880 H     1 <1>   0.0800 
 35 H       -2.7550     7.6490    -0.5710 H     1 <1>   0.0800 
 36 H        0.4740     5.7970     2.8710 H     1 <1>   0.0800 
 37 H       -0.5730     7.1640     2.7080 H     1 <1>   0.0800 
 38 H       -1.0040     9.2500    -0.5770 H     1 <1>   0.0800 
 39 H       -0.3430     7.8120    -1.2600 H     1 <1>   0.0800 
 40 H        0.1010     8.8960     1.5320 H     1 <1>   0.0800 
 41 H        1.2690     8.8510     0.2690 H     1 <1>   0.0800 
 42 H        3.5380     4.5940    -0.9320 H     1 <1>   0.3700 
 43 H        3.7150     8.0000    -3.1430 H     1 <1>   0.3700 
@<TRIPOS>BOND
  1   1   2  1   
  2   2   3  ar  
  3   2   4  ar  
  4   3   5  ar  
  5   3  26  1   
  6   4   6  ar  
  7   4  27  1   
  8   5   7  ar  
  9   5   8  1   
 10   6   7  ar  
 11   6  28  1   
 12   7   9  1   
 13   8  10  2   
 14   8  11  am  
 15   9  29  1   
 16   9  30  1   
 17   9  31  1   
 18  11  12  1   
 19  11  13  1   
 20  12  14  1   
 21  12  32  1   
 22  12  33  1   
 23  13  15  1   
 24  13  34  1   
 25  13  35  1   
 26  14  16  1   
 27  14  36  1   
 28  14  37  1   
 29  15  17  1   
 30  15  38  1   
 31  15  39  1   
 32  16  17  1   
 33  16  18  am  
 34  17  40  1   
 35  17  41  1   
 36  18  19  2   
 37  18  20  1   
 38  20  21  2   
 39  20  22  1   
 40  21  23  1   
 41  22  24  am  
 42  22  42  1   
 43  23  24  am  
 44  23  43  1   
 45  24  25  2   
@<TRIPOS>SUBSTRUCTURE
  1 ****   3 GROUP 4 **** **** 0

# MOE 2024.06 (io_trps.svl 2023.06)
